# generated using pymatgen
data_Ta18Al8CuGe
_symmetry_space_group_name_H-M   'P 1'
_cell_length_a   9.93595709
_cell_length_b   9.93593734
_cell_length_c   9.93595043
_cell_angle_alpha   93.82805864
_cell_angle_beta   93.82760938
_cell_angle_gamma   150.05151036
_symmetry_Int_Tables_number   1
_chemical_formula_structural   Ta18Al8CuGe
_chemical_formula_sum   'Ta18 Al8 Cu1 Ge1'
_cell_volume   473.06296656
_cell_formula_units_Z   1
loop_
 _symmetry_equiv_pos_site_id
 _symmetry_equiv_pos_as_xyz
  1  'x, y, z'
loop_
 _atom_site_type_symbol
 _atom_site_label
 _atom_site_symmetry_multiplicity
 _atom_site_fract_x
 _atom_site_fract_y
 _atom_site_fract_z
 _atom_site_occupancy
  Ta  Ta0  1  0.566585  0.792615  0.355471  1
  Ta  Ta1  1  0.078593  0.151903  0.237633  1
  Ta  Ta2  1  0.585732  0.348102  0.926703  1
  Ta  Ta3  1  0.659024  0.585730  0.237630  1
  Ta  Ta4  1  0.348093  0.421400  0.762362  1
  Ta  Ta5  1  0.792617  0.437136  0.226028  1
  Ta  Ta6  1  0.421402  0.659034  0.073304  1
  Ta  Ta7  1  0.151899  0.914268  0.073295  1
  Ta  Ta8  1  0.707383  0.933412  0.644527  1
  Ta  Ta9  1  0.437142  0.211113  0.644525  1
  Ta  Ta10  1  0.914266  0.840975  0.762366  1
  Ta  Ta11  1  0.062862  0.707379  0.773972  1
  Ta  Ta12  1  0.211121  0.566585  0.773971  1
  Ta  Ta13  1  0.250002  0.749995  0.500000  1
  Ta  Ta14  1  0.288887  0.062857  0.355473  1
  Ta  Ta15  1  0.750004  0.249996  0.499997  1
  Ta  Ta16  1  0.840967  0.078597  0.926695  1
  Ta  Ta17  1  0.933419  0.288882  0.226030  1
  Al  Al18  1  0.372304  0.872305  0.244619  1
  Al  Al19  1  0.872313  0.627694  0.500007  1
  Al  Al20  1  0.499591  0.000403  0.999995  1
  Al  Al21  1  0.127693  0.372316  0.500005  1
  Al  Al22  1  0.627694  0.127696  0.755380  1
  Al  Al23  1  0.000401  0.499595  0.999995  1
  Al  Al24  1  0.499602  0.499599  0.499202  1
  Al  Al25  1  0.000412  0.000410  0.500818  1
  Cu  Cu26  1  0.749998  0.750001  0.999999  1
  Ge  Ge27  1  0.249994  0.250003  0.999998  1
