# generated using pymatgen
data_TbDy3ReRu7
_symmetry_space_group_name_H-M   'P 1'
_cell_length_a   5.20801250
_cell_length_b   5.44079408
_cell_length_c   9.00523702
_cell_angle_alpha   90.00000048
_cell_angle_beta   89.99335396
_cell_angle_gamma   121.48991512
_symmetry_Int_Tables_number   1
_chemical_formula_structural   TbDy3ReRu7
_chemical_formula_sum   'Tb1 Dy3 Re1 Ru7'
_cell_volume   217.59157321
_cell_formula_units_Z   1
loop_
 _symmetry_equiv_pos_site_id
 _symmetry_equiv_pos_as_xyz
  1  'x, y, z'
loop_
 _atom_site_type_symbol
 _atom_site_label
 _atom_site_symmetry_multiplicity
 _atom_site_fract_x
 _atom_site_fract_y
 _atom_site_fract_z
 _atom_site_occupancy
  Tb  Tb0  1  0.326216  0.663108  0.066712  1
  Dy  Dy1  1  0.326491  0.663246  0.433288  1
  Dy  Dy2  1  0.652025  0.326012  0.564806  1
  Dy  Dy3  1  0.652058  0.326029  0.935060  1
  Re  Re4  1  0.692281  0.846140  0.749737  1
  Ru  Ru5  1  0.973085  0.986542  0.499483  1
  Ru  Ru6  1  0.973246  0.986622  0.000437  1
  Ru  Ru7  1  0.838660  0.166502  0.250355  1
  Ru  Ru8  1  0.838660  0.672157  0.250355  1
  Ru  Ru9  1  0.359481  0.179740  0.250311  1
  Ru  Ru10  1  0.183899  0.827069  0.749728  1
  Ru  Ru11  1  0.183899  0.356831  0.749728  1
