# generated using pymatgen
data_Eu4InPt4Pb
_symmetry_space_group_name_H-M   'P 1'
_cell_length_a   5.90874794
_cell_length_b   5.90874818
_cell_length_c   8.53097408
_cell_angle_alpha   77.58451970
_cell_angle_beta   102.41548207
_cell_angle_gamma   120.64227348
_symmetry_Int_Tables_number   1
_chemical_formula_structural   Eu4InPt4Pb
_chemical_formula_sum   'Eu4 In1 Pt4 Pb1'
_cell_volume   248.28512608
_cell_formula_units_Z   1
loop_
 _symmetry_equiv_pos_site_id
 _symmetry_equiv_pos_as_xyz
  1  'x, y, z'
loop_
 _atom_site_type_symbol
 _atom_site_label
 _atom_site_symmetry_multiplicity
 _atom_site_fract_x
 _atom_site_fract_y
 _atom_site_fract_z
 _atom_site_occupancy
  Eu  Eu0  1  0.504123  0.799845  0.351319  1
  Eu  Eu1  1  0.799845  0.504123  0.148680  1
  Eu  Eu2  1  0.496994  0.199182  0.649344  1
  Eu  Eu3  1  0.199182  0.496994  0.850656  1
  In  In4  1  0.845845  0.845847  0.749999  1
  Pt  Pt5  1  0.273023  0.995517  0.994271  1
  Pt  Pt6  1  0.995517  0.273023  0.505729  1
  Pt  Pt7  1  0.723958  0.995306  0.996067  1
  Pt  Pt8  1  0.995306  0.723958  0.503932  1
  Pb  Pb9  1  0.166202  0.166204  0.250000  1
