# generated using pymatgen
data_Nd6ScAlSiSe14
_symmetry_space_group_name_H-M   'P 1'
_cell_length_a   10.58866600
_cell_length_b   10.58866672
_cell_length_c   6.19500600
_cell_angle_alpha   90.00000000
_cell_angle_beta   90.00000000
_cell_angle_gamma   120.00000400
_symmetry_Int_Tables_number   1
_chemical_formula_structural   Nd6ScAlSiSe14
_chemical_formula_sum   'Nd6 Sc1 Al1 Si1 Se14'
_cell_volume   601.52665125
_cell_formula_units_Z   1
loop_
 _symmetry_equiv_pos_site_id
 _symmetry_equiv_pos_as_xyz
  1  'x, y, z'
loop_
 _atom_site_type_symbol
 _atom_site_label
 _atom_site_symmetry_multiplicity
 _atom_site_fract_x
 _atom_site_fract_y
 _atom_site_fract_z
 _atom_site_occupancy
  Nd  Nd0  1  0.804745  0.700037  0.525237  1
  Nd  Nd1  1  0.895293  0.195255  0.525237  1
  Nd  Nd2  1  0.299963  0.104707  0.525237  1
  Nd  Nd3  1  0.522362  0.965266  0.040221  1
  Nd  Nd4  1  0.442904  0.477638  0.040221  1
  Nd  Nd5  1  0.034734  0.557096  0.040221  1
  Sc  Sc6  1  0.666667  0.333333  0.320287  1
  Al  Al7  1  0.333333  0.666667  0.450098  1
  Si  Si8  1  0.000000  0.000000  0.941016  1
  Se  Se9  1  0.000000  0.000000  0.309712  1
  Se  Se10  1  0.333333  0.666667  0.831234  1
  Se  Se11  1  0.083972  0.854833  0.797123  1
  Se  Se12  1  0.770860  0.916028  0.797123  1
  Se  Se13  1  0.145167  0.229140  0.797123  1
  Se  Se14  1  0.241250  0.815174  0.300413  1
  Se  Se15  1  0.573922  0.758750  0.300413  1
  Se  Se16  1  0.184826  0.426078  0.300413  1
  Se  Se17  1  0.915070  0.487864  0.556608  1
  Se  Se18  1  0.572795  0.084930  0.556608  1
  Se  Se19  1  0.512136  0.427205  0.556608  1
  Se  Se20  1  0.420882  0.186134  0.076954  1
  Se  Se21  1  0.765252  0.579118  0.076954  1
  Se  Se22  1  0.813866  0.234748  0.076954  1
