# generated using pymatgen
data_Tb2Mg3Pa2ZnRh4
_symmetry_space_group_name_H-M   'P 1'
_cell_length_a   3.86234700
_cell_length_b   7.25649170
_cell_length_c   8.84238112
_cell_angle_alpha   93.34177442
_cell_angle_beta   90.00000000
_cell_angle_gamma   90.00000000
_symmetry_Int_Tables_number   1
_chemical_formula_structural   Tb2Mg3Pa2ZnRh4
_chemical_formula_sum   'Tb2 Mg3 Pa2 Zn1 Rh4'
_cell_volume   247.40479385
_cell_formula_units_Z   1
loop_
 _symmetry_equiv_pos_site_id
 _symmetry_equiv_pos_as_xyz
  1  'x, y, z'
loop_
 _atom_site_type_symbol
 _atom_site_label
 _atom_site_symmetry_multiplicity
 _atom_site_fract_x
 _atom_site_fract_y
 _atom_site_fract_z
 _atom_site_occupancy
  Tb  Tb0  1  0.250000  0.054085  0.328452  1
  Tb  Tb1  1  0.750000  0.958540  0.675030  1
  Mg  Mg2  1  0.250000  0.130801  0.940105  1
  Mg  Mg3  1  0.750000  0.867895  0.060677  1
  Mg  Mg4  1  0.250000  0.630683  0.551218  1
  Pa  Pa5  1  0.250000  0.535454  0.193494  1
  Pa  Pa6  1  0.750000  0.460637  0.809392  1
  Zn  Zn7  1  0.750000  0.363181  0.444354  1
  Rh  Rh8  1  0.750000  0.738109  0.347785  1
  Rh  Rh9  1  0.250000  0.263819  0.649191  1
  Rh  Rh10  1  0.750000  0.284554  0.129424  1
  Rh  Rh11  1  0.250000  0.712243  0.870878  1
