# generated using pymatgen
data_RbNaGeTe5
_symmetry_space_group_name_H-M   'P 1'
_cell_length_a   9.53519022
_cell_length_b   9.53519011
_cell_length_c   9.53519100
_cell_angle_alpha   128.71123751
_cell_angle_beta   128.71123698
_cell_angle_gamma   75.47565568
_symmetry_Int_Tables_number   1
_chemical_formula_structural   RbNaGeTe5
_chemical_formula_sum   'Rb2 Na2 Ge2 Te10'
_cell_volume   513.65118407
_cell_formula_units_Z   2
loop_
 _symmetry_equiv_pos_site_id
 _symmetry_equiv_pos_as_xyz
  1  'x, y, z'
loop_
 _atom_site_type_symbol
 _atom_site_label
 _atom_site_symmetry_multiplicity
 _atom_site_fract_x
 _atom_site_fract_y
 _atom_site_fract_z
 _atom_site_occupancy
  Rb  Rb0  1  0.996489  0.996489  0.000000  1
  Rb  Rb1  1  0.496489  0.496489  0.000000  1
  Na  Na2  1  0.246233  0.246233  0.000000  1
  Na  Na3  1  0.746233  0.746233  0.000000  1
  Ge  Ge4  1  0.246825  0.746825  0.500000  1
  Ge  Ge5  1  0.746825  0.246825  0.500000  1
  Te  Te6  1  0.961823  0.461823  0.132957  1
  Te  Te7  1  0.461823  0.328866  0.500000  1
  Te  Te8  1  0.828866  0.961823  0.500000  1
  Te  Te9  1  0.328866  0.828866  0.867043  1
  Te  Te10  1  0.664484  0.164484  0.132761  1
  Te  Te11  1  0.164484  0.031722  0.500000  1
  Te  Te12  1  0.531722  0.664484  0.500000  1
  Te  Te13  1  0.031722  0.531722  0.867239  1
  Te  Te14  1  0.996655  0.496655  0.500000  1
  Te  Te15  1  0.496655  0.996655  0.500000  1
