# generated using pymatgen
data_La7Pr3(Sn3P)2
_symmetry_space_group_name_H-M   'P 1'
_cell_length_a   9.56571600
_cell_length_b   9.56571545
_cell_length_c   7.18255000
_cell_angle_alpha   90.00000000
_cell_angle_beta   90.00000000
_cell_angle_gamma   119.99999500
_symmetry_Int_Tables_number   1
_chemical_formula_structural   La7Pr3(Sn3P)2
_chemical_formula_sum   'La7 Pr3 Sn6 P2'
_cell_volume   569.17295000
_cell_formula_units_Z   1
loop_
 _symmetry_equiv_pos_site_id
 _symmetry_equiv_pos_as_xyz
  1  'x, y, z'
loop_
 _atom_site_type_symbol
 _atom_site_label
 _atom_site_symmetry_multiplicity
 _atom_site_fract_x
 _atom_site_fract_y
 _atom_site_fract_z
 _atom_site_occupancy
  La  La0  1  0.666667  0.333333  0.000000  1
  La  La1  1  0.760403  0.760644  0.749828  1
  La  La2  1  0.239356  0.999759  0.749828  1
  La  La3  1  0.000241  0.239597  0.749828  1
  La  La4  1  0.239356  0.239597  0.250172  1
  La  La5  1  0.760403  0.999759  0.250172  1
  La  La6  1  0.000241  0.760644  0.250172  1
  Pr  Pr7  1  0.333333  0.666667  0.000000  1
  Pr  Pr8  1  0.333333  0.666667  0.500000  1
  Pr  Pr9  1  0.666667  0.333333  0.500000  1
  Sn  Sn10  1  0.401449  0.402339  0.749025  1
  Sn  Sn11  1  0.597661  0.999111  0.749025  1
  Sn  Sn12  1  0.000889  0.598551  0.749025  1
  Sn  Sn13  1  0.597661  0.598551  0.250975  1
  Sn  Sn14  1  0.401449  0.999111  0.250975  1
  Sn  Sn15  1  0.000889  0.402339  0.250975  1
  P  P16  1  0.000000  0.000000  0.000000  1
  P  P17  1  0.000000  0.000000  0.500000  1
