# generated using pymatgen
data_Tb11In9(NiAu)2
_symmetry_space_group_name_H-M   'P 1'
_cell_length_a   13.30528028
_cell_length_b   13.28132008
_cell_length_c   3.62770500
_cell_angle_alpha   89.99998549
_cell_angle_beta   89.99997129
_cell_angle_gamma   69.00095732
_symmetry_Int_Tables_number   1
_chemical_formula_structural   Tb11In9(NiAu)2
_chemical_formula_sum   'Tb11 In9 Ni2 Au2'
_cell_volume   598.48291575
_cell_formula_units_Z   1
loop_
 _symmetry_equiv_pos_site_id
 _symmetry_equiv_pos_as_xyz
  1  'x, y, z'
loop_
 _atom_site_type_symbol
 _atom_site_label
 _atom_site_symmetry_multiplicity
 _atom_site_fract_x
 _atom_site_fract_y
 _atom_site_fract_z
 _atom_site_occupancy
  Tb  Tb0  1  0.415980  0.933785  0.999999  1
  Tb  Tb1  1  0.584082  0.066156  0.999998  1
  Tb  Tb2  1  0.075246  0.580460  0.999999  1
  Tb  Tb3  1  0.924459  0.419549  0.999999  1
  Tb  Tb4  1  0.361594  0.382231  0.999999  1
  Tb  Tb5  1  0.638539  0.617611  0.999999  1
  Tb  Tb6  1  0.156865  0.160251  0.999999  1
  Tb  Tb7  1  0.843132  0.839753  0.999998  1
  Tb  Tb8  1  0.000004  0.000009  0.999999  1
  Tb  Tb9  1  0.302671  0.682814  0.999999  1
  Tb  Tb10  1  0.697336  0.317423  0.999999  1
  In  In11  1  0.216265  0.928165  0.500000  1
  In  In12  1  0.783722  0.071869  0.499999  1
  In  In13  1  0.073466  0.780835  0.500000  1
  In  In14  1  0.926552  0.219123  0.500000  1
  In  In15  1  0.365214  0.159179  0.499999  1
  In  In16  1  0.634812  0.840747  0.499999  1
  In  In17  1  0.843421  0.632266  0.499999  1
  In  In18  1  0.156546  0.367802  0.500000  1
  In  In19  1  0.499972  0.499993  0.499999  1
  Ni  Ni20  1  0.244902  0.548946  0.499999  1
  Ni  Ni21  1  0.755039  0.451074  0.499999  1
  Au  Au22  1  0.452615  0.747225  0.499998  1
  Au  Au23  1  0.547566  0.252733  0.499998  1
