# generated using pymatgen
data_Ni4Mo3W5C2
_symmetry_space_group_name_H-M   'P 1'
_cell_length_a   8.01305458
_cell_length_b   8.01305453
_cell_length_c   8.01305500
_cell_angle_alpha   60.00000219
_cell_angle_beta   60.00000241
_cell_angle_gamma   60.00000615
_symmetry_Int_Tables_number   1
_chemical_formula_structural   Ni4Mo3W5C2
_chemical_formula_sum   'Ni8 Mo6 W10 C4'
_cell_volume   363.81396082
_cell_formula_units_Z   2
loop_
 _symmetry_equiv_pos_site_id
 _symmetry_equiv_pos_as_xyz
  1  'x, y, z'
loop_
 _atom_site_type_symbol
 _atom_site_label
 _atom_site_symmetry_multiplicity
 _atom_site_fract_x
 _atom_site_fract_y
 _atom_site_fract_z
 _atom_site_occupancy
  Ni  Ni0  1  0.833345  0.833345  0.833345  1
  Ni  Ni1  1  0.833345  0.833345  0.499964  1
  Ni  Ni2  1  0.499964  0.833345  0.833345  1
  Ni  Ni3  1  0.833345  0.499964  0.833345  1
  Ni  Ni4  1  0.416678  0.416678  0.416678  1
  Ni  Ni5  1  0.416678  0.416678  0.749967  1
  Ni  Ni6  1  0.416678  0.749967  0.416678  1
  Ni  Ni7  1  0.749967  0.416678  0.416678  1
  Mo  Mo8  1  0.441348  0.058652  0.058652  1
  Mo  Mo9  1  0.058652  0.441348  0.441348  1
  Mo  Mo10  1  0.058652  0.441348  0.058652  1
  Mo  Mo11  1  0.058652  0.058652  0.441348  1
  Mo  Mo12  1  0.441348  0.058652  0.441348  1
  Mo  Mo13  1  0.441348  0.441348  0.058652  1
  W  W14  1  0.190374  0.809626  0.190374  1
  W  W15  1  0.809626  0.190374  0.809626  1
  W  W16  1  0.809626  0.190374  0.190374  1
  W  W17  1  0.190374  0.190374  0.809626  1
  W  W18  1  0.190374  0.809626  0.809626  1
  W  W19  1  0.809626  0.809626  0.190374  1
  W  W20  1  0.624959  0.624959  0.624959  1
  W  W21  1  0.624959  0.624959  0.125123  1
  W  W22  1  0.125123  0.624959  0.624959  1
  W  W23  1  0.624959  0.125123  0.624959  1
  C  C24  1  0.124812  0.124812  0.124812  1
  C  C25  1  0.124812  0.124812  0.625563  1
  C  C26  1  0.625563  0.124812  0.124812  1
  C  C27  1  0.124812  0.625563  0.124812  1
