# generated using pymatgen
data_Rb6YRhF12
_symmetry_space_group_name_H-M   'P 1'
_cell_length_a   6.71746817
_cell_length_b   6.44509797
_cell_length_c   11.15718900
_cell_angle_alpha   55.45296297
_cell_angle_beta   90.07110086
_cell_angle_gamma   89.92694821
_symmetry_Int_Tables_number   1
_chemical_formula_structural   Rb6YRhF12
_chemical_formula_sum   'Rb6 Y1 Rh1 F12'
_cell_volume   397.86597766
_cell_formula_units_Z   1
loop_
 _symmetry_equiv_pos_site_id
 _symmetry_equiv_pos_as_xyz
  1  'x, y, z'
loop_
 _atom_site_type_symbol
 _atom_site_label
 _atom_site_symmetry_multiplicity
 _atom_site_fract_x
 _atom_site_fract_y
 _atom_site_fract_z
 _atom_site_occupancy
  Rb  Rb0  1  0.949606  0.750711  0.735786  1
  Rb  Rb1  1  0.456419  0.282903  0.731316  1
  Rb  Rb2  1  0.050394  0.249289  0.264214  1
  Rb  Rb3  1  0.543581  0.717097  0.268684  1
  Rb  Rb4  1  0.000000  0.500000  0.500000  1
  Rb  Rb5  1  0.500000  0.500000  0.000000  1
  Y  Y6  1  0.000000  0.000000  0.000000  1
  Rh  Rh7  1  0.500000  0.000000  0.500000  1
  F  F8  1  0.947720  0.884066  0.223260  1
  F  F9  1  0.467086  0.127362  0.288941  1
  F  F10  1  0.052280  0.115934  0.776740  1
  F  F11  1  0.532914  0.872638  0.711059  1
  F  F12  1  0.732361  0.236722  0.925492  1
  F  F13  1  0.257243  0.780996  0.544048  1
  F  F14  1  0.267639  0.763278  0.074508  1
  F  F15  1  0.742757  0.219004  0.455952  1
  F  F16  1  0.321097  0.279344  0.469242  1
  F  F17  1  0.830124  0.670603  0.051645  1
  F  F18  1  0.678903  0.720656  0.530758  1
  F  F19  1  0.169876  0.329397  0.948355  1
