# generated using pymatgen
data_Nd3Dy5Cd2CoNi
_symmetry_space_group_name_H-M   'P 1'
_cell_length_a   9.63792118
_cell_length_b   9.63792535
_cell_length_c   9.64203105
_cell_angle_alpha   59.97843389
_cell_angle_beta   59.97807046
_cell_angle_gamma   59.97611901
_symmetry_Int_Tables_number   1
_chemical_formula_structural   Nd3Dy5Cd2CoNi
_chemical_formula_sum   'Nd6 Dy10 Cd4 Co2 Ni2'
_cell_volume   632.99346484
_cell_formula_units_Z   2
loop_
 _symmetry_equiv_pos_site_id
 _symmetry_equiv_pos_as_xyz
  1  'x, y, z'
loop_
 _atom_site_type_symbol
 _atom_site_label
 _atom_site_symmetry_multiplicity
 _atom_site_fract_x
 _atom_site_fract_y
 _atom_site_fract_z
 _atom_site_occupancy
  Nd  Nd0  1  0.189314  0.808864  0.811682  1
  Nd  Nd1  1  0.808693  0.189393  0.190280  1
  Nd  Nd2  1  0.808836  0.189317  0.811685  1
  Nd  Nd3  1  0.189410  0.808717  0.190239  1
  Nd  Nd4  1  0.809709  0.809715  0.190301  1
  Nd  Nd5  1  0.189915  0.189908  0.810028  1
  Dy  Dy6  1  0.595474  0.595490  0.599692  1
  Dy  Dy7  1  0.595628  0.595638  0.209216  1
  Dy  Dy8  1  0.593880  0.212516  0.596933  1
  Dy  Dy9  1  0.212494  0.593888  0.596934  1
  Dy  Dy10  1  0.067143  0.435498  0.437857  1
  Dy  Dy11  1  0.435500  0.067302  0.059339  1
  Dy  Dy12  1  0.435503  0.067156  0.437845  1
  Dy  Dy13  1  0.067293  0.435490  0.059345  1
  Dy  Dy14  1  0.436568  0.436583  0.063307  1
  Dy  Dy15  1  0.062838  0.062854  0.437125  1
  Cd  Cd16  1  0.828997  0.828979  0.829310  1
  Cd  Cd17  1  0.828977  0.828956  0.512709  1
  Cd  Cd18  1  0.829910  0.510748  0.829630  1
  Cd  Cd19  1  0.510805  0.829877  0.829613  1
  Co  Co20  1  0.392483  0.392467  0.390382  1
  Co  Co21  1  0.392496  0.392489  0.824675  1
  Ni  Ni22  1  0.392448  0.825706  0.390924  1
  Ni  Ni23  1  0.825687  0.392453  0.390948  1
