# generated using pymatgen
data_Tm8VOs3C8
_symmetry_space_group_name_H-M   'P 1'
_cell_length_a   5.00317000
_cell_length_b   6.46409292
_cell_length_c   9.69331133
_cell_angle_alpha   89.86461254
_cell_angle_beta   90.00000000
_cell_angle_gamma   90.00000000
_symmetry_Int_Tables_number   1
_chemical_formula_structural   Tm8VOs3C8
_chemical_formula_sum   'Tm8 V1 Os3 C8'
_cell_volume   313.49007780
_cell_formula_units_Z   1
loop_
 _symmetry_equiv_pos_site_id
 _symmetry_equiv_pos_as_xyz
  1  'x, y, z'
loop_
 _atom_site_type_symbol
 _atom_site_label
 _atom_site_symmetry_multiplicity
 _atom_site_fract_x
 _atom_site_fract_y
 _atom_site_fract_z
 _atom_site_occupancy
  Tm  Tm0  1  0.250000  0.680534  0.560264  1
  Tm  Tm1  1  0.750000  0.322722  0.442436  1
  Tm  Tm2  1  0.750000  0.821922  0.056224  1
  Tm  Tm3  1  0.250000  0.173036  0.941208  1
  Tm  Tm4  1  0.250000  0.534997  0.214525  1
  Tm  Tm5  1  0.750000  0.465297  0.780075  1
  Tm  Tm6  1  0.750000  0.971999  0.716753  1
  Tm  Tm7  1  0.250000  0.031048  0.281316  1
  V  V8  1  0.250000  0.720559  0.868485  1
  Os  Os9  1  0.750000  0.280923  0.132258  1
  Os  Os10  1  0.750000  0.780597  0.366898  1
  Os  Os11  1  0.250000  0.222274  0.632806  1
  C  C12  1  0.250000  0.455888  0.763069  1
  C  C13  1  0.750000  0.545802  0.242023  1
  C  C14  1  0.750000  0.046275  0.258952  1
  C  C15  1  0.250000  0.952664  0.741179  1
  C  C16  1  0.250000  0.821817  0.054011  1
  C  C17  1  0.750000  0.172239  0.947792  1
  C  C18  1  0.750000  0.674246  0.553555  1
  C  C19  1  0.250000  0.325160  0.446172  1
