# generated using pymatgen
data_Dy2CdPdAu
_symmetry_space_group_name_H-M   'P 1'
_cell_length_a   7.80373500
_cell_length_b   7.79332100
_cell_length_c   3.78826400
_cell_angle_alpha   90.00000000
_cell_angle_beta   90.00000000
_cell_angle_gamma   90.00000000
_symmetry_Int_Tables_number   1
_chemical_formula_structural   Dy2CdPdAu
_chemical_formula_sum   'Dy4 Cd2 Pd2 Au2'
_cell_volume   230.39089659
_cell_formula_units_Z   2
loop_
 _symmetry_equiv_pos_site_id
 _symmetry_equiv_pos_as_xyz
  1  'x, y, z'
loop_
 _atom_site_type_symbol
 _atom_site_label
 _atom_site_symmetry_multiplicity
 _atom_site_fract_x
 _atom_site_fract_y
 _atom_site_fract_z
 _atom_site_occupancy
  Dy  Dy0  1  0.330976  0.821771  0.500000  1
  Dy  Dy1  1  0.830976  0.678229  0.500000  1
  Dy  Dy2  1  0.171545  0.339326  0.500000  1
  Dy  Dy3  1  0.671545  0.160674  0.500000  1
  Cd  Cd4  1  0.998193  0.995193  0.000000  1
  Cd  Cd5  1  0.498193  0.504807  0.000000  1
  Pd  Pd6  1  0.129474  0.631368  0.000000  1
  Pd  Pd7  1  0.629474  0.868632  0.000000  1
  Au  Au8  1  0.369812  0.126861  0.000000  1
  Au  Au9  1  0.869812  0.373139  0.000000  1
