# generated using pymatgen
data_Dy5HoCo13P12Ru5
_symmetry_space_group_name_H-M   'P 1'
_cell_length_a   3.75704200
_cell_length_b   10.54474454
_cell_length_c   12.33421248
_cell_angle_alpha   90.31594697
_cell_angle_beta   90.00000000
_cell_angle_gamma   90.00000000
_symmetry_Int_Tables_number   1
_chemical_formula_structural   Dy5HoCo13P12Ru5
_chemical_formula_sum   'Dy5 Ho1 Co13 P12 Ru5'
_cell_volume   488.63765996
_cell_formula_units_Z   1
loop_
 _symmetry_equiv_pos_site_id
 _symmetry_equiv_pos_as_xyz
  1  'x, y, z'
loop_
 _atom_site_type_symbol
 _atom_site_label
 _atom_site_symmetry_multiplicity
 _atom_site_fract_x
 _atom_site_fract_y
 _atom_site_fract_z
 _atom_site_occupancy
  Dy  Dy0  1  0.000000  0.502586  0.526772  1
  Dy  Dy1  1  0.500000  0.995416  0.477174  1
  Dy  Dy2  1  0.500000  0.818912  0.202835  1
  Dy  Dy3  1  0.000000  0.682449  0.795970  1
  Dy  Dy4  1  0.000000  0.316897  0.798617  1
  Ho  Ho5  1  0.500000  0.183059  0.201280  1
  Co  Co6  1  0.000000  0.500259  0.985436  1
  Co  Co7  1  0.500000  0.999754  0.014255  1
  Co  Co8  1  0.000000  0.798323  0.574094  1
  Co  Co9  1  0.500000  0.877491  0.712123  1
  Co  Co10  1  0.500000  0.117314  0.715479  1
  Co  Co11  1  0.000000  0.622060  0.285864  1
  Co  Co12  1  0.000000  0.381302  0.283952  1
  Co  Co13  1  0.500000  0.332679  0.990209  1
  Co  Co14  1  0.500000  0.668000  0.990130  1
  Co  Co15  1  0.000000  0.166876  0.009346  1
  Co  Co16  1  0.000000  0.832505  0.009514  1
  Co  Co17  1  0.500000  0.499904  0.705146  1
  Co  Co18  1  0.000000  0.001371  0.294507  1
  P  P19  1  0.500000  0.312319  0.622104  1
  P  P20  1  0.500000  0.689415  0.620887  1
  P  P21  1  0.000000  0.187094  0.377874  1
  P  P22  1  0.000000  0.816235  0.381354  1
  P  P23  1  0.500000  0.500178  0.882574  1
  P  P24  1  0.000000  0.000528  0.117230  1
  P  P25  1  0.500000  0.845963  0.894850  1
  P  P26  1  0.500000  0.152480  0.895273  1
  P  P27  1  0.000000  0.653959  0.104714  1
  P  P28  1  0.000000  0.346881  0.104021  1
  P  P29  1  0.500000  0.500546  0.343310  1
  P  P30  1  0.000000  0.996130  0.654663  1
  Ru  Ru31  1  0.500000  0.298569  0.426516  1
  Ru  Ru32  1  0.500000  0.703928  0.429907  1
  Ru  Ru33  1  0.000000  0.200069  0.573455  1
  Ru  Ru34  1  0.500000  0.501288  0.155334  1
  Ru  Ru35  1  0.000000  0.997261  0.843229  1
