# generated using pymatgen
data_Lu12Fe2ReAg2
_symmetry_space_group_name_H-M   'P 1'
_cell_length_a   8.12393794
_cell_length_b   8.12393787
_cell_length_c   8.12393759
_cell_angle_alpha   108.45583402
_cell_angle_beta   108.45584991
_cell_angle_gamma   111.52164197
_symmetry_Int_Tables_number   1
_chemical_formula_structural   Lu12Fe2ReAg2
_chemical_formula_sum   'Lu12 Fe2 Re1 Ag2'
_cell_volume   412.34322428
_cell_formula_units_Z   1
loop_
 _symmetry_equiv_pos_site_id
 _symmetry_equiv_pos_as_xyz
  1  'x, y, z'
loop_
 _atom_site_type_symbol
 _atom_site_label
 _atom_site_symmetry_multiplicity
 _atom_site_fract_x
 _atom_site_fract_y
 _atom_site_fract_z
 _atom_site_occupancy
  Lu  Lu0  1  0.311654  0.311654  0.623309  1
  Lu  Lu1  1  0.688346  0.688346  0.376691  1
  Lu  Lu2  1  0.688346  0.311654  0.000000  1
  Lu  Lu3  1  0.311654  0.688346  0.000000  1
  Lu  Lu4  1  0.190670  0.433357  0.242687  1
  Lu  Lu5  1  0.809330  0.566643  0.757313  1
  Lu  Lu6  1  0.190670  0.947982  0.757313  1
  Lu  Lu7  1  0.947982  0.190670  0.757313  1
  Lu  Lu8  1  0.809330  0.052018  0.242687  1
  Lu  Lu9  1  0.052018  0.809330  0.242687  1
  Lu  Lu10  1  0.433357  0.190670  0.242687  1
  Lu  Lu11  1  0.566643  0.809330  0.757313  1
  Fe  Fe12  1  0.379325  0.379325  0.000000  1
  Fe  Fe13  1  0.620675  0.620675  0.000000  1
  Re  Re14  1  0.000000  0.000000  0.000000  1
  Ag  Ag15  1  0.000000  0.500000  0.500000  1
  Ag  Ag16  1  0.500000  0.000000  0.500000  1
