# generated using pymatgen
data_Hf5Zr5CuBiPb6
_symmetry_space_group_name_H-M   'P 1'
_cell_length_a   8.85660066
_cell_length_b   8.85660075
_cell_length_c   6.01086000
_cell_angle_alpha   90.00189489
_cell_angle_beta   90.00187802
_cell_angle_gamma   120.04427135
_symmetry_Int_Tables_number   1
_chemical_formula_structural   Hf5Zr5CuBiPb6
_chemical_formula_sum   'Hf5 Zr5 Cu1 Bi1 Pb6'
_cell_volume   408.13840155
_cell_formula_units_Z   1
loop_
 _symmetry_equiv_pos_site_id
 _symmetry_equiv_pos_as_xyz
  1  'x, y, z'
loop_
 _atom_site_type_symbol
 _atom_site_label
 _atom_site_symmetry_multiplicity
 _atom_site_fract_x
 _atom_site_fract_y
 _atom_site_fract_z
 _atom_site_occupancy
  Hf  Hf0  1  0.667001  0.333954  0.499777  1
  Hf  Hf1  1  0.333953  0.667001  0.499777  1
  Hf  Hf2  1  0.333873  0.666953  0.000179  1
  Hf  Hf3  1  0.666953  0.333874  0.000181  1
  Hf  Hf4  1  0.727616  0.727616  0.226536  1
  Zr  Zr5  1  0.273010  0.001013  0.229314  1
  Zr  Zr6  1  0.001012  0.273008  0.229313  1
  Zr  Zr7  1  0.270987  0.270987  0.769976  1
  Zr  Zr8  1  0.728449  0.999281  0.771524  1
  Zr  Zr9  1  0.999283  0.728449  0.771523  1
  Cu  Cu10  1  0.996940  0.996942  0.003359  1
  Bi  Bi11  1  0.999191  0.999190  0.498568  1
  Pb  Pb12  1  0.387596  0.387596  0.256121  1
  Pb  Pb13  1  0.614496  0.999848  0.256997  1
  Pb  Pb14  1  0.999849  0.614495  0.256997  1
  Pb  Pb15  1  0.613142  0.613143  0.743007  1
  Pb  Pb16  1  0.386559  0.000093  0.743426  1
  Pb  Pb17  1  0.000090  0.386556  0.743425  1
