# generated using pymatgen
data_LuZr(Al3Rh)3
_symmetry_space_group_name_H-M   'P 1'
_cell_length_a   7.49902635
_cell_length_b   7.48849317
_cell_length_c   9.32431400
_cell_angle_alpha   90.00000000
_cell_angle_beta   90.00000000
_cell_angle_gamma   119.64575866
_symmetry_Int_Tables_number   1
_chemical_formula_structural   LuZr(Al3Rh)3
_chemical_formula_sum   'Lu2 Zr2 Al18 Rh6'
_cell_volume   455.07821226
_cell_formula_units_Z   2
loop_
 _symmetry_equiv_pos_site_id
 _symmetry_equiv_pos_as_xyz
  1  'x, y, z'
loop_
 _atom_site_type_symbol
 _atom_site_label
 _atom_site_symmetry_multiplicity
 _atom_site_fract_x
 _atom_site_fract_y
 _atom_site_fract_z
 _atom_site_occupancy
  Lu  Lu0  1  0.670879  0.993871  0.250000  1
  Lu  Lu1  1  0.329121  0.006129  0.750000  1
  Zr  Zr2  1  0.994958  0.671401  0.250000  1
  Zr  Zr3  1  0.005042  0.328599  0.750000  1
  Al  Al4  1  0.124560  0.123167  0.250000  1
  Al  Al5  1  0.875440  0.876833  0.750000  1
  Al  Al6  1  0.998710  0.336675  0.075760  1
  Al  Al7  1  0.001290  0.663325  0.924240  1
  Al  Al8  1  0.001290  0.663325  0.575760  1
  Al  Al9  1  0.332925  0.998012  0.421500  1
  Al  Al10  1  0.998710  0.336675  0.424240  1
  Al  Al11  1  0.667075  0.001988  0.578500  1
  Al  Al12  1  0.667075  0.001988  0.921500  1
  Al  Al13  1  0.332925  0.998012  0.078500  1
  Al  Al14  1  0.330975  0.332948  0.556168  1
  Al  Al15  1  0.669025  0.667052  0.443832  1
  Al  Al16  1  0.669025  0.667052  0.056168  1
  Al  Al17  1  0.330975  0.332948  0.943832  1
  Al  Al18  1  0.335149  0.549739  0.250000  1
  Al  Al19  1  0.664851  0.450261  0.750000  1
  Al  Al20  1  0.556114  0.343025  0.250000  1
  Al  Al21  1  0.443886  0.656975  0.750000  1
  Rh  Rh22  1  0.672210  0.326974  0.999118  1
  Rh  Rh23  1  0.327790  0.673026  0.000882  1
  Rh  Rh24  1  0.327790  0.673026  0.499118  1
  Rh  Rh25  1  0.672210  0.326974  0.500882  1
  Rh  Rh26  1  0.000000  0.000000  0.000000  1
  Rh  Rh27  1  0.000000  0.000000  0.500000  1
