# generated using pymatgen
data_Sc8Nb12Si15P
_symmetry_space_group_name_H-M   'P 1'
_cell_length_a   6.71286510
_cell_length_b   6.90284294
_cell_length_c   13.12096855
_cell_angle_alpha   89.81962030
_cell_angle_beta   90.16347272
_cell_angle_gamma   89.88962990
_symmetry_Int_Tables_number   1
_chemical_formula_structural   Sc8Nb12Si15P
_chemical_formula_sum   'Sc8 Nb12 Si15 P1'
_cell_volume   607.99089160
_cell_formula_units_Z   1
loop_
 _symmetry_equiv_pos_site_id
 _symmetry_equiv_pos_as_xyz
  1  'x, y, z'
loop_
 _atom_site_type_symbol
 _atom_site_label
 _atom_site_symmetry_multiplicity
 _atom_site_fract_x
 _atom_site_fract_y
 _atom_site_fract_z
 _atom_site_occupancy
  Sc  Sc0  1  0.498749  0.674247  0.595992  1
  Sc  Sc1  1  0.000662  0.825106  0.905070  1
  Sc  Sc2  1  0.499625  0.326514  0.095338  1
  Sc  Sc3  1  0.000955  0.178817  0.405153  1
  Sc  Sc4  1  0.498615  0.326670  0.404382  1
  Sc  Sc5  1  0.999307  0.174891  0.094890  1
  Sc  Sc6  1  0.500593  0.673663  0.904331  1
  Sc  Sc7  1  0.000425  0.821915  0.594205  1
  Nb  Nb8  1  0.660365  0.173464  0.624558  1
  Nb  Nb9  1  0.161271  0.325412  0.874635  1
  Nb  Nb10  1  0.337584  0.825217  0.125398  1
  Nb  Nb11  1  0.843223  0.672498  0.376665  1
  Nb  Nb12  1  0.336585  0.822956  0.376490  1
  Nb  Nb13  1  0.838706  0.674624  0.125293  1
  Nb  Nb14  1  0.662005  0.174417  0.874834  1
  Nb  Nb15  1  0.161604  0.329436  0.622575  1
  Nb  Nb16  1  0.835821  0.496226  0.749330  1
  Nb  Nb17  1  0.336728  0.006082  0.749380  1
  Nb  Nb18  1  0.164943  0.503913  0.251545  1
  Nb  Nb19  1  0.663442  0.994105  0.250745  1
  Si  Si20  1  0.670093  0.966646  0.460313  1
  Si  Si21  1  0.168682  0.532307  0.040022  1
  Si  Si22  1  0.331279  0.032447  0.960462  1
  Si  Si23  1  0.822638  0.465402  0.540368  1
  Si  Si24  1  0.330441  0.032422  0.539712  1
  Si  Si25  1  0.830964  0.467457  0.960365  1
  Si  Si26  1  0.668520  0.967126  0.039412  1
  Si  Si27  1  0.458020  0.387192  0.749640  1
  Si  Si28  1  0.958494  0.114999  0.749019  1
  Si  Si29  1  0.543289  0.614444  0.250589  1
  Si  Si30  1  0.041407  0.886971  0.250256  1
  Si  Si31  1  0.704264  0.862849  0.750206  1
  Si  Si32  1  0.203821  0.638870  0.750321  1
  Si  Si33  1  0.297507  0.136334  0.249827  1
  Si  Si34  1  0.795768  0.361195  0.249751  1
  P  P35  1  0.173602  0.533167  0.458932  1
