# generated using pymatgen
data_PrEuY5FeI12
_symmetry_space_group_name_H-M   'P 1'
_cell_length_a   9.88598627
_cell_length_b   9.75754365
_cell_length_c   9.88418279
_cell_angle_alpha   106.19264306
_cell_angle_beta   106.61812271
_cell_angle_gamma   106.94105154
_symmetry_Int_Tables_number   1
_chemical_formula_structural   PrEuY5FeI12
_chemical_formula_sum   'Pr1 Eu1 Y5 Fe1 I12'
_cell_volume   802.86335561
_cell_formula_units_Z   1
loop_
 _symmetry_equiv_pos_site_id
 _symmetry_equiv_pos_as_xyz
  1  'x, y, z'
loop_
 _atom_site_type_symbol
 _atom_site_label
 _atom_site_symmetry_multiplicity
 _atom_site_fract_x
 _atom_site_fract_y
 _atom_site_fract_z
 _atom_site_occupancy
  Pr  Pr0  1  0.411998  0.225192  0.478738  1
  Eu  Eu1  1  0.000192  0.000548  0.999473  1
  Y  Y2  1  0.800690  0.522586  0.596611  1
  Y  Y3  1  0.524272  0.597327  0.799526  1
  Y  Y4  1  0.199864  0.476202  0.403372  1
  Y  Y5  1  0.476608  0.405383  0.200853  1
  Y  Y6  1  0.586327  0.766872  0.521345  1
  Fe  Fe7  1  0.497721  0.493493  0.500104  1
  I  I8  1  0.732706  0.187809  0.577402  1
  I  I9  1  0.945479  0.871350  0.639101  1
  I  I10  1  0.576156  0.727522  0.188331  1
  I  I11  1  0.129227  0.363707  0.050080  1
  I  I12  1  0.640053  0.948917  0.865878  1
  I  I13  1  0.870824  0.638761  0.950779  1
  I  I14  1  0.040656  0.126851  0.353518  1
  I  I15  1  0.820155  0.427927  0.277646  1
  I  I16  1  0.357910  0.049349  0.120827  1
  I  I17  1  0.281355  0.813463  0.426724  1
  I  I18  1  0.180746  0.574883  0.722748  1
  I  I19  1  0.427062  0.281858  0.826946  1
