# generated using pymatgen
data_HoLu7(InPt)2
_symmetry_space_group_name_H-M   'P 1'
_cell_length_a   9.54439685
_cell_length_b   9.54439662
_cell_length_c   9.53916900
_cell_angle_alpha   60.01812011
_cell_angle_beta   60.01812090
_cell_angle_gamma   59.96376490
_symmetry_Int_Tables_number   1
_chemical_formula_structural   HoLu7(InPt)2
_chemical_formula_sum   'Ho2 Lu14 In4 Pt4'
_cell_volume   614.45809596
_cell_formula_units_Z   2
loop_
 _symmetry_equiv_pos_site_id
 _symmetry_equiv_pos_as_xyz
  1  'x, y, z'
loop_
 _atom_site_type_symbol
 _atom_site_label
 _atom_site_symmetry_multiplicity
 _atom_site_fract_x
 _atom_site_fract_y
 _atom_site_fract_z
 _atom_site_occupancy
  Ho  Ho0  1  0.814096  0.814096  0.185904  1
  Ho  Ho1  1  0.185904  0.185904  0.814096  1
  Lu  Lu2  1  0.601405  0.601405  0.601450  1
  Lu  Lu3  1  0.601405  0.601405  0.195739  1
  Lu  Lu4  1  0.601450  0.195739  0.601405  1
  Lu  Lu5  1  0.195739  0.601450  0.601405  1
  Lu  Lu6  1  0.060883  0.439117  0.439117  1
  Lu  Lu7  1  0.439117  0.060883  0.060883  1
  Lu  Lu8  1  0.439117  0.060883  0.439117  1
  Lu  Lu9  1  0.060883  0.439117  0.060883  1
  Lu  Lu10  1  0.439088  0.439088  0.060912  1
  Lu  Lu11  1  0.060912  0.060912  0.439088  1
  Lu  Lu12  1  0.187990  0.812010  0.812010  1
  Lu  Lu13  1  0.812010  0.187990  0.187990  1
  Lu  Lu14  1  0.812010  0.187990  0.812010  1
  Lu  Lu15  1  0.187990  0.812010  0.187990  1
  In  In16  1  0.833399  0.833399  0.832602  1
  In  In17  1  0.833399  0.833399  0.500600  1
  In  In18  1  0.832602  0.500600  0.833399  1
  In  In19  1  0.500600  0.832602  0.833399  1
  Pt  Pt20  1  0.393226  0.393226  0.392677  1
  Pt  Pt21  1  0.393226  0.393226  0.820870  1
  Pt  Pt22  1  0.392677  0.820870  0.393226  1
  Pt  Pt23  1  0.820870  0.392677  0.393226  1
