# generated using pymatgen
data_Ho2Ir2O7
_symmetry_space_group_name_H-M   'P 1'
_cell_length_a   7.22767806
_cell_length_b   7.22748299
_cell_length_c   7.22748300
_cell_angle_alpha   60.00000454
_cell_angle_beta   60.00089733
_cell_angle_gamma   60.00089856
_symmetry_Int_Tables_number   1
_chemical_formula_structural   Ho2Ir2O7
_chemical_formula_sum   'Ho4 Ir4 O14'
_cell_volume   266.97086479
_cell_formula_units_Z   2
loop_
 _symmetry_equiv_pos_site_id
 _symmetry_equiv_pos_as_xyz
  1  'x, y, z'
loop_
 _atom_site_type_symbol
 _atom_site_label
 _atom_site_symmetry_multiplicity
 _atom_site_fract_x
 _atom_site_fract_y
 _atom_site_fract_z
 _atom_site_occupancy
  Ho  Ho0  1  0.625000  0.625000  0.125000  1
  Ho  Ho1  1  0.625000  0.125000  0.625000  1
  Ho  Ho2  1  0.125000  0.625000  0.625000  1
  Ho  Ho3  1  0.625000  0.625000  0.625000  1
  Ir  Ir4  1  0.125000  0.125000  0.625000  1
  Ir  Ir5  1  0.125000  0.625000  0.125000  1
  Ir  Ir6  1  0.125000  0.125000  0.125000  1
  Ir  Ir7  1  0.625000  0.125000  0.125000  1
  O  O8  1  0.463325  0.036747  0.463181  1
  O  O9  1  0.213856  0.786553  0.786553  1
  O  O10  1  0.786675  0.213253  0.213253  1
  O  O11  1  0.213856  0.786553  0.213037  1
  O  O12  1  0.786675  0.786819  0.213253  1
  O  O13  1  0.213856  0.213037  0.786553  1
  O  O14  1  0.463325  0.463181  0.036747  1
  O  O15  1  0.036144  0.463447  0.463447  1
  O  O16  1  0.463325  0.036747  0.036747  1
  O  O17  1  0.036144  0.036963  0.463447  1
  O  O18  1  0.786675  0.213253  0.786819  1
  O  O19  1  0.036144  0.463447  0.036963  1
  O  O20  1  0.499740  0.500086  0.500086  1
  O  O21  1  0.750260  0.749914  0.749914  1
