# generated using pymatgen
data_La12NdDyPt6
_symmetry_space_group_name_H-M   'P 1'
_cell_length_a   10.33442800
_cell_length_b   10.33442921
_cell_length_c   6.54448700
_cell_angle_alpha   90.00000000
_cell_angle_beta   90.00000000
_cell_angle_gamma   120.00000253
_symmetry_Int_Tables_number   1
_chemical_formula_structural   La12NdDyPt6
_chemical_formula_sum   'La12 Nd1 Dy1 Pt6'
_cell_volume   605.31183951
_cell_formula_units_Z   1
loop_
 _symmetry_equiv_pos_site_id
 _symmetry_equiv_pos_as_xyz
  1  'x, y, z'
loop_
 _atom_site_type_symbol
 _atom_site_label
 _atom_site_symmetry_multiplicity
 _atom_site_fract_x
 _atom_site_fract_y
 _atom_site_fract_z
 _atom_site_occupancy
  La  La0  1  0.871229  0.742458  0.750497  1
  La  La1  1  0.257542  0.128771  0.750497  1
  La  La2  1  0.871229  0.128771  0.750497  1
  La  La3  1  0.128026  0.256053  0.251777  1
  La  La4  1  0.743947  0.871974  0.251777  1
  La  La5  1  0.128026  0.871974  0.251777  1
  La  La6  1  0.462208  0.924417  0.562052  1
  La  La7  1  0.075583  0.537792  0.562052  1
  La  La8  1  0.462208  0.537792  0.562052  1
  La  La9  1  0.538573  0.077146  0.061175  1
  La  La10  1  0.922854  0.461427  0.061175  1
  La  La11  1  0.538573  0.461427  0.061175  1
  Nd  Nd12  1  0.333333  0.666667  0.041871  1
  Dy  Dy13  1  0.666667  0.333333  0.535925  1
  Pt  Pt14  1  0.188133  0.376266  0.808721  1
  Pt  Pt15  1  0.623734  0.811867  0.808721  1
  Pt  Pt16  1  0.188133  0.811867  0.808721  1
  Pt  Pt17  1  0.810411  0.620822  0.311354  1
  Pt  Pt18  1  0.379178  0.189589  0.311354  1
  Pt  Pt19  1  0.810411  0.189589  0.311354  1
