# generated using pymatgen
data_Lu15Sc5(GaBi2)4
_symmetry_space_group_name_H-M   'P 1'
_cell_length_a   7.88064112
_cell_length_b   9.10430500
_cell_length_c   11.53465317
_cell_angle_alpha   90.00000000
_cell_angle_beta   89.98013366
_cell_angle_gamma   90.00000000
_symmetry_Int_Tables_number   1
_chemical_formula_structural   Lu15Sc5(GaBi2)4
_chemical_formula_sum   'Lu15 Sc5 Ga4 Bi8'
_cell_volume   827.58548171
_cell_formula_units_Z   1
loop_
 _symmetry_equiv_pos_site_id
 _symmetry_equiv_pos_as_xyz
  1  'x, y, z'
loop_
 _atom_site_type_symbol
 _atom_site_label
 _atom_site_symmetry_multiplicity
 _atom_site_fract_x
 _atom_site_fract_y
 _atom_site_fract_z
 _atom_site_occupancy
  Lu  Lu0  1  0.654201  0.750000  0.704130  1
  Lu  Lu1  1  0.153976  0.750000  0.795701  1
  Lu  Lu2  1  0.846004  0.250000  0.204264  1
  Lu  Lu3  1  0.180696  0.250000  0.786446  1
  Lu  Lu4  1  0.818931  0.750000  0.213705  1
  Lu  Lu5  1  0.319345  0.750000  0.286372  1
  Lu  Lu6  1  0.680017  0.250000  0.713038  1
  Lu  Lu7  1  0.187211  0.059061  0.056438  1
  Lu  Lu8  1  0.813364  0.941741  0.944862  1
  Lu  Lu9  1  0.313586  0.941906  0.555276  1
  Lu  Lu10  1  0.813364  0.558259  0.944862  1
  Lu  Lu11  1  0.685727  0.058718  0.443825  1
  Lu  Lu12  1  0.187211  0.440939  0.056438  1
  Lu  Lu13  1  0.685727  0.441282  0.443825  1
  Lu  Lu14  1  0.313586  0.558094  0.555276  1
  Sc  Sc15  1  0.037907  0.250000  0.509278  1
  Sc  Sc16  1  0.963569  0.750000  0.489439  1
  Sc  Sc17  1  0.463150  0.750000  0.010609  1
  Sc  Sc18  1  0.536185  0.250000  0.990291  1
  Sc  Sc19  1  0.346153  0.250000  0.295825  1
  Ga  Ga20  1  0.405682  0.250000  0.537962  1
  Ga  Ga21  1  0.594823  0.750000  0.458986  1
  Ga  Ga22  1  0.094726  0.750000  0.041138  1
  Ga  Ga23  1  0.905688  0.250000  0.959153  1
  Bi  Bi24  1  0.057547  0.002801  0.324496  1
  Bi  Bi25  1  0.944377  0.999220  0.675270  1
  Bi  Bi26  1  0.444398  0.999021  0.824677  1
  Bi  Bi27  1  0.944377  0.500780  0.675270  1
  Bi  Bi28  1  0.553264  0.003558  0.176988  1
  Bi  Bi29  1  0.057547  0.497199  0.324496  1
  Bi  Bi30  1  0.553264  0.496442  0.176988  1
  Bi  Bi31  1  0.444398  0.500979  0.824677  1
