# generated using pymatgen
data_Ho2Al9FePd2
_symmetry_space_group_name_H-M   'P 1'
_cell_length_a   7.55595690
_cell_length_b   7.55595593
_cell_length_c   9.41792600
_cell_angle_alpha   90.00000000
_cell_angle_beta   90.00000000
_cell_angle_gamma   119.79022567
_symmetry_Int_Tables_number   1
_chemical_formula_structural   Ho2Al9FePd2
_chemical_formula_sum   'Ho4 Al18 Fe2 Pd4'
_cell_volume   466.63675186
_cell_formula_units_Z   2
loop_
 _symmetry_equiv_pos_site_id
 _symmetry_equiv_pos_as_xyz
  1  'x, y, z'
loop_
 _atom_site_type_symbol
 _atom_site_label
 _atom_site_symmetry_multiplicity
 _atom_site_fract_x
 _atom_site_fract_y
 _atom_site_fract_z
 _atom_site_occupancy
  Ho  Ho0  1  0.993303  0.664079  0.250000  1
  Ho  Ho1  1  0.006697  0.335921  0.750000  1
  Ho  Ho2  1  0.664079  0.993303  0.250000  1
  Ho  Ho3  1  0.335921  0.006697  0.750000  1
  Al  Al4  1  0.111627  0.111627  0.250000  1
  Al  Al5  1  0.888373  0.888373  0.750000  1
  Al  Al6  1  0.999077  0.322224  0.075066  1
  Al  Al7  1  0.000923  0.677776  0.924934  1
  Al  Al8  1  0.000923  0.677776  0.575066  1
  Al  Al9  1  0.322224  0.999077  0.424934  1
  Al  Al10  1  0.999077  0.322224  0.424934  1
  Al  Al11  1  0.677776  0.000923  0.575066  1
  Al  Al12  1  0.677776  0.000923  0.924934  1
  Al  Al13  1  0.322224  0.999077  0.075066  1
  Al  Al14  1  0.322391  0.322391  0.552700  1
  Al  Al15  1  0.677609  0.677610  0.447300  1
  Al  Al16  1  0.677609  0.677610  0.052700  1
  Al  Al17  1  0.322391  0.322391  0.947300  1
  Al  Al18  1  0.340186  0.543097  0.250000  1
  Al  Al19  1  0.659814  0.456903  0.750000  1
  Al  Al20  1  0.543097  0.340186  0.250000  1
  Al  Al21  1  0.456903  0.659814  0.750000  1
  Fe  Fe22  1  0.000000  0.000000  0.000000  1
  Fe  Fe23  1  0.000000  0.000000  0.500000  1
  Pd  Pd24  1  0.672144  0.327856  0.000000  1
  Pd  Pd25  1  0.327856  0.672144  0.000000  1
  Pd  Pd26  1  0.327856  0.672144  0.500000  1
  Pd  Pd27  1  0.672144  0.327856  0.500000  1
