# generated using pymatgen
data_CuNi(RuO3)4
_symmetry_space_group_name_H-M   'P 1'
_cell_length_a   4.56721957
_cell_length_b   4.56721957
_cell_length_c   9.23780400
_cell_angle_alpha   90.00000000
_cell_angle_beta   90.00000000
_cell_angle_gamma   89.76540830
_symmetry_Int_Tables_number   1
_chemical_formula_structural   CuNi(RuO3)4
_chemical_formula_sum   'Cu1 Ni1 Ru4 O12'
_cell_volume   192.69430753
_cell_formula_units_Z   1
loop_
 _symmetry_equiv_pos_site_id
 _symmetry_equiv_pos_as_xyz
  1  'x, y, z'
loop_
 _atom_site_type_symbol
 _atom_site_label
 _atom_site_symmetry_multiplicity
 _atom_site_fract_x
 _atom_site_fract_y
 _atom_site_fract_z
 _atom_site_occupancy
  Cu  Cu0  1  0.500000  0.500000  0.500000  1
  Ni  Ni1  1  0.000000  0.000000  0.000000  1
  Ru  Ru2  1  0.500000  0.500000  0.831552  1
  Ru  Ru3  1  0.000000  0.000000  0.331539  1
  Ru  Ru4  1  0.500000  0.500000  0.168448  1
  Ru  Ru5  1  0.000000  0.000000  0.668461  1
  O  O6  1  0.704950  0.704950  0.675953  1
  O  O7  1  0.295050  0.295050  0.675953  1
  O  O8  1  0.704950  0.704950  0.324047  1
  O  O9  1  0.202400  0.797600  0.172483  1
  O  O10  1  0.797600  0.202400  0.172483  1
  O  O11  1  0.797600  0.202400  0.827517  1
  O  O12  1  0.312583  0.312583  0.000000  1
  O  O13  1  0.191363  0.808637  0.500000  1
  O  O14  1  0.808637  0.191363  0.500000  1
  O  O15  1  0.687417  0.687417  0.000000  1
  O  O16  1  0.295050  0.295050  0.324047  1
  O  O17  1  0.202400  0.797600  0.827517  1
