# generated using pymatgen
data_Sc2Mn(ReB2)2
_symmetry_space_group_name_H-M   'P 1'
_cell_length_a   6.02223400
_cell_length_b   6.02223400
_cell_length_c   11.06787300
_cell_angle_alpha   90.00000000
_cell_angle_beta   90.00000000
_cell_angle_gamma   90.00000000
_symmetry_Int_Tables_number   1
_chemical_formula_structural   Sc2Mn(ReB2)2
_chemical_formula_sum   'Sc8 Mn4 Re8 B16'
_cell_volume   401.40189647
_cell_formula_units_Z   4
loop_
 _symmetry_equiv_pos_site_id
 _symmetry_equiv_pos_as_xyz
  1  'x, y, z'
loop_
 _atom_site_type_symbol
 _atom_site_label
 _atom_site_symmetry_multiplicity
 _atom_site_fract_x
 _atom_site_fract_y
 _atom_site_fract_z
 _atom_site_occupancy
  Sc  Sc0  1  0.994743  0.649087  0.040733  1
  Sc  Sc1  1  0.005257  0.350913  0.540733  1
  Sc  Sc2  1  0.350913  0.005257  0.459267  1
  Sc  Sc3  1  0.149087  0.505257  0.790733  1
  Sc  Sc4  1  0.850913  0.494743  0.290733  1
  Sc  Sc5  1  0.505257  0.149087  0.209267  1
  Sc  Sc6  1  0.494743  0.850913  0.709267  1
  Sc  Sc7  1  0.649087  0.994743  0.959267  1
  Mn  Mn8  1  0.676394  0.676394  0.500000  1
  Mn  Mn9  1  0.176394  0.823606  0.250000  1
  Mn  Mn10  1  0.323606  0.323606  0.000000  1
  Mn  Mn11  1  0.823606  0.176394  0.750000  1
  Re  Re12  1  0.999060  0.856618  0.624874  1
  Re  Re13  1  0.000940  0.143382  0.124874  1
  Re  Re14  1  0.856618  0.999060  0.375126  1
  Re  Re15  1  0.356618  0.500940  0.374874  1
  Re  Re16  1  0.643382  0.499060  0.874874  1
  Re  Re17  1  0.500940  0.356618  0.625126  1
  Re  Re18  1  0.499060  0.643382  0.125126  1
  Re  Re19  1  0.143382  0.000940  0.875126  1
  B  B20  1  0.066207  0.710112  0.441649  1
  B  B21  1  0.644714  0.290886  0.440996  1
  B  B22  1  0.355286  0.709114  0.940996  1
  B  B23  1  0.209114  0.144714  0.690996  1
  B  B24  1  0.290886  0.644714  0.559004  1
  B  B25  1  0.709114  0.355286  0.059004  1
  B  B26  1  0.790886  0.855286  0.190996  1
  B  B27  1  0.144714  0.209114  0.309004  1
  B  B28  1  0.933793  0.289888  0.941649  1
  B  B29  1  0.710112  0.066207  0.558351  1
  B  B30  1  0.210112  0.433793  0.191649  1
  B  B31  1  0.789888  0.566207  0.691649  1
  B  B32  1  0.433793  0.210112  0.808351  1
  B  B33  1  0.566207  0.789888  0.308351  1
  B  B34  1  0.289888  0.933793  0.058351  1
  B  B35  1  0.855286  0.790886  0.809004  1
