# generated using pymatgen
data_Li4SmY3Si8
_symmetry_space_group_name_H-M   'P 1'
_cell_length_a   3.81211500
_cell_length_b   7.61945006
_cell_length_c   10.24762118
_cell_angle_alpha   89.90202742
_cell_angle_beta   90.00000000
_cell_angle_gamma   90.00000000
_symmetry_Int_Tables_number   1
_chemical_formula_structural   Li4SmY3Si8
_chemical_formula_sum   'Li4 Sm1 Y3 Si8'
_cell_volume   297.65422246
_cell_formula_units_Z   1
loop_
 _symmetry_equiv_pos_site_id
 _symmetry_equiv_pos_as_xyz
  1  'x, y, z'
loop_
 _atom_site_type_symbol
 _atom_site_label
 _atom_site_symmetry_multiplicity
 _atom_site_fract_x
 _atom_site_fract_y
 _atom_site_fract_z
 _atom_site_occupancy
  Li  Li0  1  0.250000  0.990579  0.391705  1
  Li  Li1  1  0.750000  0.010147  0.608754  1
  Li  Li2  1  0.250000  0.489998  0.108046  1
  Li  Li3  1  0.750000  0.509341  0.891705  1
  Sm  Sm4  1  0.750000  0.358943  0.363991  1
  Y  Y5  1  0.250000  0.138993  0.863932  1
  Y  Y6  1  0.750000  0.860748  0.135568  1
  Y  Y7  1  0.250000  0.639982  0.636200  1
  Si  Si8  1  0.750000  0.266031  0.066538  1
  Si  Si9  1  0.250000  0.731672  0.931345  1
  Si  Si10  1  0.750000  0.770341  0.431512  1
  Si  Si11  1  0.250000  0.231330  0.571283  1
  Si  Si12  1  0.750000  0.843484  0.820743  1
  Si  Si13  1  0.250000  0.155013  0.177363  1
  Si  Si14  1  0.750000  0.343289  0.680930  1
  Si  Si15  1  0.250000  0.660106  0.320383  1
