# generated using pymatgen
data_Nd2Sm3YCoI10
_symmetry_space_group_name_H-M   'P 1'
_cell_length_a   7.84639931
_cell_length_b   9.87862047
_cell_length_c   9.81161205
_cell_angle_alpha   107.07053607
_cell_angle_beta   96.48494808
_cell_angle_gamma   104.98702263
_symmetry_Int_Tables_number   1
_chemical_formula_structural   Nd2Sm3YCoI10
_chemical_formula_sum   'Nd2 Sm3 Y1 Co1 I10'
_cell_volume   687.43536121
_cell_formula_units_Z   1
loop_
 _symmetry_equiv_pos_site_id
 _symmetry_equiv_pos_as_xyz
  1  'x, y, z'
loop_
 _atom_site_type_symbol
 _atom_site_label
 _atom_site_symmetry_multiplicity
 _atom_site_fract_x
 _atom_site_fract_y
 _atom_site_fract_z
 _atom_site_occupancy
  Nd  Nd0  1  0.889621  0.959856  0.232204  1
  Nd  Nd1  1  0.113621  0.041351  0.769143  1
  Sm  Sm2  1  0.032463  0.715421  0.915080  1
  Sm  Sm3  1  0.969972  0.285237  0.086173  1
  Sm  Sm4  1  0.652681  0.876082  0.834920  1
  Y  Y5  1  0.343002  0.122746  0.163077  1
  Co  Co6  1  0.000724  0.000314  0.000139  1
  I  I7  1  0.648447  0.548796  0.728310  1
  I  I8  1  0.354210  0.446653  0.271354  1
  I  I9  1  0.739882  0.912636  0.540387  1
  I  I10  1  0.263620  0.088721  0.456582  1
  I  I11  1  0.085510  0.372395  0.819257  1
  I  I12  1  0.914649  0.627482  0.180956  1
  I  I13  1  0.452557  0.819635  0.094644  1
  I  I14  1  0.545835  0.184798  0.910728  1
  I  I15  1  0.222065  0.741386  0.653372  1
  I  I16  1  0.771142  0.256492  0.343673  1
