# generated using pymatgen
data_Dy5Si11PRu5Rh14
_symmetry_space_group_name_H-M   'P 1'
_cell_length_a   12.74128892
_cell_length_b   12.76062373
_cell_length_c   3.98897900
_cell_angle_alpha   90.00000000
_cell_angle_beta   90.00000000
_cell_angle_gamma   120.27900506
_symmetry_Int_Tables_number   1
_chemical_formula_structural   Dy5Si11PRu5Rh14
_chemical_formula_sum   'Dy5 Si11 P1 Ru5 Rh14'
_cell_volume   560.07962881
_cell_formula_units_Z   1
loop_
 _symmetry_equiv_pos_site_id
 _symmetry_equiv_pos_as_xyz
  1  'x, y, z'
loop_
 _atom_site_type_symbol
 _atom_site_label
 _atom_site_symmetry_multiplicity
 _atom_site_fract_x
 _atom_site_fract_y
 _atom_site_fract_z
 _atom_site_occupancy
  Dy  Dy0  1  0.667221  0.331977  0.000000  1
  Dy  Dy1  1  0.335375  0.670492  0.000000  1
  Dy  Dy2  1  0.812543  0.999898  0.500000  1
  Dy  Dy3  1  0.184440  0.185905  0.500000  1
  Dy  Dy4  1  0.999157  0.812651  0.500000  1
  Si  Si5  1  0.623053  0.996983  0.000000  1
  Si  Si6  1  0.374506  0.374696  0.000000  1
  Si  Si7  1  0.000231  0.624470  0.000000  1
  Si  Si8  1  0.689602  0.524445  0.500000  1
  Si  Si9  1  0.836493  0.308486  0.500000  1
  Si  Si10  1  0.312502  0.838345  0.500000  1
  Si  Si11  1  0.526214  0.692116  0.500000  1
  Si  Si12  1  0.180010  0.999182  0.000000  1
  Si  Si13  1  0.818932  0.817340  0.000000  1
  Si  Si14  1  0.473733  0.163847  0.500000  1
  Si  Si15  1  0.164942  0.475923  0.500000  1
  P  P16  1  0.996653  0.183546  0.000000  1
  Ru  Ru17  1  0.512787  0.875663  0.500000  1
  Ru  Ru18  1  0.724057  0.722146  0.500000  1
  Ru  Ru19  1  0.002142  0.275239  0.500000  1
  Ru  Ru20  1  0.815281  0.189276  0.000000  1
  Ru  Ru21  1  0.275163  0.000057  0.500000  1
  Rh  Rh22  1  0.625011  0.808311  0.000000  1
  Rh  Rh23  1  0.185069  0.375580  0.000000  1
  Rh  Rh24  1  0.374657  0.185530  0.000000  1
  Rh  Rh25  1  0.190049  0.814285  0.000000  1
  Rh  Rh26  1  0.809714  0.622341  0.000000  1
  Rh  Rh27  1  0.873439  0.508770  0.500000  1
  Rh  Rh28  1  0.488715  0.362241  0.500000  1
  Rh  Rh29  1  0.636694  0.126498  0.500000  1
  Rh  Rh30  1  0.127431  0.637926  0.500000  1
  Rh  Rh31  1  0.363236  0.489661  0.500000  1
  Rh  Rh32  1  0.999526  0.004939  0.000000  1
  Rh  Rh33  1  0.441073  0.002257  0.000000  1
  Rh  Rh34  1  0.559007  0.557668  0.000000  1
  Rh  Rh35  1  0.001344  0.441310  0.000000  1
