# generated using pymatgen
data_NaAc(PtRh)2
_symmetry_space_group_name_H-M   'P 1'
_cell_length_a   5.46966776
_cell_length_b   5.46966601
_cell_length_c   5.46966800
_cell_angle_alpha   119.77685468
_cell_angle_beta   120.47601369
_cell_angle_gamma   89.78222447
_symmetry_Int_Tables_number   1
_chemical_formula_structural   NaAc(PtRh)2
_chemical_formula_sum   'Na1 Ac1 Pt2 Rh2'
_cell_volume   115.48172073
_cell_formula_units_Z   1
loop_
 _symmetry_equiv_pos_site_id
 _symmetry_equiv_pos_as_xyz
  1  'x, y, z'
loop_
 _atom_site_type_symbol
 _atom_site_label
 _atom_site_symmetry_multiplicity
 _atom_site_fract_x
 _atom_site_fract_y
 _atom_site_fract_z
 _atom_site_occupancy
  Na  Na0  1  0.875903  0.125903  0.750000  1
  Ac  Ac1  1  0.123736  0.873736  0.250000  1
  Pt  Pt2  1  0.500559  0.498406  0.497847  1
  Pt  Pt3  1  0.500559  0.002711  0.002153  1
  Rh  Rh4  1  0.499788  0.499622  0.000166  1
  Rh  Rh5  1  0.999454  0.499622  0.499834  1
