# generated using pymatgen
data_Hf3Ti2Si3O
_symmetry_space_group_name_H-M   'P 1'
_cell_length_a   7.72064700
_cell_length_b   7.72064687
_cell_length_c   5.29015500
_cell_angle_alpha   90.00000000
_cell_angle_beta   90.00000000
_cell_angle_gamma   120.00000483
_symmetry_Int_Tables_number   1
_chemical_formula_structural   Hf3Ti2Si3O
_chemical_formula_sum   'Hf6 Ti4 Si6 O2'
_cell_volume   273.09037443
_cell_formula_units_Z   2
loop_
 _symmetry_equiv_pos_site_id
 _symmetry_equiv_pos_as_xyz
  1  'x, y, z'
loop_
 _atom_site_type_symbol
 _atom_site_label
 _atom_site_symmetry_multiplicity
 _atom_site_fract_x
 _atom_site_fract_y
 _atom_site_fract_z
 _atom_site_occupancy
  Hf  Hf0  1  0.246268  0.000000  0.250000  1
  Hf  Hf1  1  0.753732  0.000000  0.750000  1
  Hf  Hf2  1  0.000000  0.246268  0.250000  1
  Hf  Hf3  1  0.000000  0.753732  0.750000  1
  Hf  Hf4  1  0.753732  0.753732  0.250000  1
  Hf  Hf5  1  0.246268  0.246268  0.750000  1
  Ti  Ti6  1  0.333333  0.666667  0.000000  1
  Ti  Ti7  1  0.666667  0.333333  0.000000  1
  Ti  Ti8  1  0.666667  0.333333  0.500000  1
  Ti  Ti9  1  0.333333  0.666667  0.500000  1
  Si  Si10  1  0.594262  0.000000  0.250000  1
  Si  Si11  1  0.405738  0.000000  0.750000  1
  Si  Si12  1  0.000000  0.594262  0.250000  1
  Si  Si13  1  0.000000  0.405738  0.750000  1
  Si  Si14  1  0.405738  0.405738  0.250000  1
  Si  Si15  1  0.594262  0.594262  0.750000  1
  O  O16  1  0.000000  0.000000  0.000000  1
  O  O17  1  0.000000  0.000000  0.500000  1
