# generated using pymatgen
data_Ba4Si8NiPt7
_symmetry_space_group_name_H-M   'P 1'
_cell_length_a   6.92131340
_cell_length_b   7.76710077
_cell_length_c   8.07614665
_cell_angle_alpha   93.75703621
_cell_angle_beta   90.63715383
_cell_angle_gamma   89.54204292
_symmetry_Int_Tables_number   1
_chemical_formula_structural   Ba4Si8NiPt7
_chemical_formula_sum   'Ba4 Si8 Ni1 Pt7'
_cell_volume   433.19050992
_cell_formula_units_Z   1
loop_
 _symmetry_equiv_pos_site_id
 _symmetry_equiv_pos_as_xyz
  1  'x, y, z'
loop_
 _atom_site_type_symbol
 _atom_site_label
 _atom_site_symmetry_multiplicity
 _atom_site_fract_x
 _atom_site_fract_y
 _atom_site_fract_z
 _atom_site_occupancy
  Ba  Ba0  1  0.366911  0.998567  0.251834  1
  Ba  Ba1  1  0.867686  0.504160  0.753335  1
  Ba  Ba2  1  0.131280  0.499313  0.251728  1
  Ba  Ba3  1  0.636018  0.001697  0.750855  1
  Si  Si4  1  0.408076  0.360604  0.925446  1
  Si  Si5  1  0.078839  0.144003  0.563110  1
  Si  Si6  1  0.602175  0.353171  0.430350  1
  Si  Si7  1  0.903621  0.873367  0.425286  1
  Si  Si8  1  0.915922  0.139195  0.081421  1
  Si  Si9  1  0.593269  0.634823  0.075197  1
  Si  Si10  1  0.088719  0.862841  0.926153  1
  Si  Si11  1  0.408649  0.636739  0.574478  1
  Ni  Ni12  1  0.848380  0.157810  0.362504  1
  Pt  Pt13  1  0.349628  0.333071  0.624824  1
  Pt  Pt14  1  0.652621  0.659364  0.374625  1
  Pt  Pt15  1  0.150100  0.842488  0.626812  1
  Pt  Pt16  1  0.146118  0.161791  0.867523  1
  Pt  Pt17  1  0.652152  0.334153  0.132877  1
  Pt  Pt18  1  0.849448  0.838677  0.129306  1
  Pt  Pt19  1  0.350386  0.664164  0.872336  1
