# generated using pymatgen
data_Tb5Tm7Os4
_symmetry_space_group_name_H-M   'P 1'
_cell_length_a   7.38704914
_cell_length_b   8.95948172
_cell_length_c   6.29262302
_cell_angle_alpha   89.79804768
_cell_angle_beta   89.92641625
_cell_angle_gamma   89.95314788
_symmetry_Int_Tables_number   1
_chemical_formula_structural   Tb5Tm7Os4
_chemical_formula_sum   'Tb5 Tm7 Os4'
_cell_volume   416.46872276
_cell_formula_units_Z   1
loop_
 _symmetry_equiv_pos_site_id
 _symmetry_equiv_pos_as_xyz
  1  'x, y, z'
loop_
 _atom_site_type_symbol
 _atom_site_label
 _atom_site_symmetry_multiplicity
 _atom_site_fract_x
 _atom_site_fract_y
 _atom_site_fract_z
 _atom_site_occupancy
  Tb  Tb0  1  0.039207  0.250839  0.630247  1
  Tb  Tb1  1  0.960028  0.749224  0.370752  1
  Tb  Tb2  1  0.460770  0.749202  0.129467  1
  Tb  Tb3  1  0.540121  0.250479  0.869758  1
  Tb  Tb4  1  0.175032  0.063148  0.167231  1
  Tm  Tm5  1  0.824847  0.935831  0.832293  1
  Tm  Tm6  1  0.326089  0.935825  0.666745  1
  Tm  Tm7  1  0.825526  0.563578  0.833054  1
  Tm  Tm8  1  0.674222  0.063631  0.333700  1
  Tm  Tm9  1  0.174031  0.437596  0.166937  1
  Tm  Tm10  1  0.674468  0.436443  0.333264  1
  Tm  Tm11  1  0.325706  0.563516  0.666801  1
  Os  Os12  1  0.383732  0.250992  0.458412  1
  Os  Os13  1  0.617514  0.750258  0.542895  1
  Os  Os14  1  0.117091  0.748462  0.955985  1
  Os  Os15  1  0.881617  0.250975  0.042459  1
