# generated using pymatgen
data_Ti2Co5Si
_symmetry_space_group_name_H-M   'P 1'
_cell_length_a   3.75564500
_cell_length_b   5.02488800
_cell_length_c   9.87520800
_cell_angle_alpha   90.00000000
_cell_angle_beta   90.00000000
_cell_angle_gamma   90.00000000
_symmetry_Int_Tables_number   1
_chemical_formula_structural   Ti2Co5Si
_chemical_formula_sum   'Ti4 Co10 Si2'
_cell_volume   186.36191830
_cell_formula_units_Z   2
loop_
 _symmetry_equiv_pos_site_id
 _symmetry_equiv_pos_as_xyz
  1  'x, y, z'
loop_
 _atom_site_type_symbol
 _atom_site_label
 _atom_site_symmetry_multiplicity
 _atom_site_fract_x
 _atom_site_fract_y
 _atom_site_fract_z
 _atom_site_occupancy
  Ti  Ti0  1  0.500000  0.319241  0.139290  1
  Ti  Ti1  1  0.500000  0.680759  0.860710  1
  Ti  Ti2  1  0.500000  0.819241  0.360710  1
  Ti  Ti3  1  0.500000  0.180759  0.639290  1
  Co  Co4  1  0.000000  0.000000  0.500000  1
  Co  Co5  1  0.000000  0.500000  0.000000  1
  Co  Co6  1  0.000000  0.072962  0.246121  1
  Co  Co7  1  0.000000  0.927038  0.753879  1
  Co  Co8  1  0.000000  0.572962  0.253879  1
  Co  Co9  1  0.000000  0.427038  0.746121  1
  Co  Co10  1  0.500000  0.312786  0.390932  1
  Co  Co11  1  0.500000  0.687214  0.609068  1
  Co  Co12  1  0.500000  0.812786  0.109068  1
  Co  Co13  1  0.500000  0.187214  0.890932  1
  Si  Si14  1  0.000000  0.000000  0.000000  1
  Si  Si15  1  0.000000  0.500000  0.500000  1
