# generated using pymatgen
data_Eu10InSi4Pd
_symmetry_space_group_name_H-M   'P 1'
_cell_length_a   8.00095900
_cell_length_b   9.55063568
_cell_length_c   8.00095900
_cell_angle_alpha   114.76330097
_cell_angle_beta   90.00000000
_cell_angle_gamma   114.76330097
_symmetry_Int_Tables_number   1
_chemical_formula_structural   Eu10InSi4Pd
_chemical_formula_sum   'Eu10 In1 Si4 Pd1'
_cell_volume   492.57285711
_cell_formula_units_Z   1
loop_
 _symmetry_equiv_pos_site_id
 _symmetry_equiv_pos_as_xyz
  1  'x, y, z'
loop_
 _atom_site_type_symbol
 _atom_site_label
 _atom_site_symmetry_multiplicity
 _atom_site_fract_x
 _atom_site_fract_y
 _atom_site_fract_z
 _atom_site_occupancy
  Eu  Eu0  1  0.978249  0.955998  0.978150  1
  Eu  Eu1  1  0.521817  0.043959  0.521707  1
  Eu  Eu2  1  0.521535  0.721324  0.670412  1
  Eu  Eu3  1  0.199646  0.721260  0.050896  1
  Eu  Eu4  1  0.670226  0.721273  0.199705  1
  Eu  Eu5  1  0.051180  0.721416  0.521582  1
  Eu  Eu6  1  0.449067  0.278844  0.300446  1
  Eu  Eu7  1  0.829546  0.278618  0.978460  1
  Eu  Eu8  1  0.300250  0.278710  0.829734  1
  Eu  Eu9  1  0.978484  0.278580  0.448797  1
  In  In10  1  0.749842  0.500130  0.750385  1
  Si  Si11  1  0.890012  0.999985  0.610039  1
  Si  Si12  1  0.110108  0.999983  0.389807  1
  Si  Si13  1  0.609976  0.999924  0.110039  1
  Si  Si14  1  0.389845  0.999999  0.890042  1
  Pd  Pd15  1  0.250219  0.499996  0.249800  1
