# generated using pymatgen
data_La3Pr7(InSi2)2
_symmetry_space_group_name_H-M   'P 1'
_cell_length_a   8.02992149
_cell_length_b   9.23020780
_cell_length_c   8.02992200
_cell_angle_alpha   115.85327011
_cell_angle_beta   89.87377670
_cell_angle_gamma   115.83682948
_symmetry_Int_Tables_number   1
_chemical_formula_structural   La3Pr7(InSi2)2
_chemical_formula_sum   'La3 Pr7 In2 Si4'
_cell_volume   468.91210799
_cell_formula_units_Z   1
loop_
 _symmetry_equiv_pos_site_id
 _symmetry_equiv_pos_as_xyz
  1  'x, y, z'
loop_
 _atom_site_type_symbol
 _atom_site_label
 _atom_site_symmetry_multiplicity
 _atom_site_fract_x
 _atom_site_fract_y
 _atom_site_fract_z
 _atom_site_occupancy
  La  La0  1  0.999915  0.999709  0.000162  1
  La  La1  1  0.499547  0.999709  0.499794  1
  La  La2  1  0.535604  0.719486  0.683883  1
  Pr  Pr3  1  0.184689  0.721176  0.036490  1
  Pr  Pr4  1  0.685368  0.720543  0.184877  1
  Pr  Pr5  1  0.035668  0.720543  0.535177  1
  Pr  Pr6  1  0.464584  0.280399  0.315814  1
  Pr  Pr7  1  0.814810  0.278959  0.964147  1
  Pr  Pr8  1  0.315029  0.278988  0.815429  1
  Pr  Pr9  1  0.963557  0.278988  0.463958  1
  In  In10  1  0.751116  0.498918  0.750351  1
  In  In11  1  0.248567  0.498918  0.247802  1
  Si  Si12  1  0.885758  0.000501  0.614743  1
  Si  Si13  1  0.115785  0.000709  0.384923  1
  Si  Si14  1  0.615589  0.001227  0.116812  1
  Si  Si15  1  0.384415  0.001227  0.885638  1
