# generated using pymatgen
data_Gd3ScO6
_symmetry_space_group_name_H-M   'P 1'
_cell_length_a   6.69758958
_cell_length_b   6.69758970
_cell_length_c   6.69758977
_cell_angle_alpha   92.05725942
_cell_angle_beta   92.05726236
_cell_angle_gamma   92.05726158
_symmetry_Int_Tables_number   1
_chemical_formula_structural   Gd3ScO6
_chemical_formula_sum   'Gd6 Sc2 O12'
_cell_volume   299.84327461
_cell_formula_units_Z   2
loop_
 _symmetry_equiv_pos_site_id
 _symmetry_equiv_pos_as_xyz
  1  'x, y, z'
loop_
 _atom_site_type_symbol
 _atom_site_label
 _atom_site_symmetry_multiplicity
 _atom_site_fract_x
 _atom_site_fract_y
 _atom_site_fract_z
 _atom_site_occupancy
  Gd  Gd0  1  0.746967  0.932115  0.439472  1
  Gd  Gd1  1  0.932115  0.439472  0.746967  1
  Gd  Gd2  1  0.439472  0.746967  0.932115  1
  Gd  Gd3  1  0.253033  0.067885  0.560528  1
  Gd  Gd4  1  0.067885  0.560528  0.253033  1
  Gd  Gd5  1  0.560528  0.253033  0.067885  1
  Sc  Sc6  1  0.500000  0.500000  0.500000  1
  Sc  Sc7  1  0.000000  0.000000  0.000000  1
  O  O8  1  0.591585  0.462443  0.803777  1
  O  O9  1  0.462443  0.803777  0.591585  1
  O  O10  1  0.803777  0.591585  0.462443  1
  O  O11  1  0.408415  0.537557  0.196223  1
  O  O12  1  0.537557  0.196223  0.408415  1
  O  O13  1  0.196223  0.408415  0.537557  1
  O  O14  1  0.068306  0.915806  0.303882  1
  O  O15  1  0.915806  0.303882  0.068306  1
  O  O16  1  0.696118  0.931694  0.084194  1
  O  O17  1  0.084194  0.696118  0.931694  1
  O  O18  1  0.931694  0.084194  0.696118  1
  O  O19  1  0.303882  0.068306  0.915806  1
