# generated using pymatgen
data_Lu4Al24Pd8Pt
_symmetry_space_group_name_H-M   'P 1'
_cell_length_a   7.52918728
_cell_length_b   7.54160705
_cell_length_c   13.15879900
_cell_angle_alpha   84.59828237
_cell_angle_beta   100.91395740
_cell_angle_gamma   119.82987354
_symmetry_Int_Tables_number   1
_chemical_formula_structural   Lu4Al24Pd8Pt
_chemical_formula_sum   'Lu4 Al24 Pd8 Pt1'
_cell_volume   636.46377460
_cell_formula_units_Z   1
loop_
 _symmetry_equiv_pos_site_id
 _symmetry_equiv_pos_as_xyz
  1  'x, y, z'
loop_
 _atom_site_type_symbol
 _atom_site_label
 _atom_site_symmetry_multiplicity
 _atom_site_fract_x
 _atom_site_fract_y
 _atom_site_fract_z
 _atom_site_occupancy
  Lu  Lu0  1  0.732631  0.998932  0.192260  1
  Lu  Lu1  1  0.267707  0.001239  0.808008  1
  Lu  Lu2  1  0.062411  0.668461  0.192250  1
  Lu  Lu3  1  0.937667  0.331355  0.807844  1
  Al  Al4  1  0.808853  0.870138  0.815309  1
  Al  Al5  1  0.190663  0.129517  0.184590  1
  Al  Al6  1  0.982464  0.666218  0.944206  1
  Al  Al7  1  0.017906  0.333889  0.055979  1
  Al  Al8  1  0.396871  0.663898  0.816379  1
  Al  Al9  1  0.602166  0.336223  0.183139  1
  Al  Al10  1  0.882474  0.665119  0.671438  1
  Al  Al11  1  0.117963  0.334822  0.328639  1
  Al  Al12  1  0.602831  0.456826  0.816113  1
  Al  Al13  1  0.396888  0.543395  0.183835  1
  Al  Al14  1  0.230952  0.339995  0.670425  1
  Al  Al15  1  0.769222  0.660678  0.329638  1
  Al  Al16  1  0.853638  0.333213  0.559229  1
  Al  Al17  1  0.185836  0.999091  0.559000  1
  Al  Al18  1  0.814214  0.001304  0.440868  1
  Al  Al19  1  0.352680  0.998569  0.056053  1
  Al  Al20  1  0.647463  0.001295  0.944085  1
  Al  Al21  1  0.556494  0.993524  0.671860  1
  Al  Al22  1  0.443021  0.005822  0.328265  1
  Al  Al23  1  0.520747  0.667157  0.561712  1
  Al  Al24  1  0.479479  0.332800  0.437969  1
  Al  Al25  1  0.684204  0.668334  0.047317  1
  Al  Al26  1  0.315942  0.331828  0.952808  1
  Al  Al27  1  0.146055  0.666326  0.440954  1
  Pd  Pd28  1  0.328579  0.671685  0.999976  1
  Pd  Pd29  1  0.546399  0.323886  0.637801  1
  Pd  Pd30  1  0.453570  0.676069  0.362032  1
  Pd  Pd31  1  0.889101  0.008869  0.639193  1
  Pd  Pd32  1  0.111014  0.991190  0.360748  1
  Pd  Pd33  1  0.671878  0.328473  0.000209  1
  Pd  Pd34  1  0.203576  0.666581  0.639197  1
  Pd  Pd35  1  0.000094  0.000017  0.999878  1
  Pt  Pt36  1  0.796346  0.333265  0.360795  1
