# generated using pymatgen
data_YLu19Cd3Ru2Au3
_symmetry_space_group_name_H-M   'P 1'
_cell_length_a   9.36040873
_cell_length_b   9.35402414
_cell_length_c   9.41834300
_cell_angle_alpha   90.00000000
_cell_angle_beta   90.00000000
_cell_angle_gamma   119.97745040
_symmetry_Int_Tables_number   1
_chemical_formula_structural   YLu19Cd3Ru2Au3
_chemical_formula_sum   'Y1 Lu19 Cd3 Ru2 Au3'
_cell_volume   714.32700896
_cell_formula_units_Z   1
loop_
 _symmetry_equiv_pos_site_id
 _symmetry_equiv_pos_as_xyz
  1  'x, y, z'
loop_
 _atom_site_type_symbol
 _atom_site_label
 _atom_site_symmetry_multiplicity
 _atom_site_fract_x
 _atom_site_fract_y
 _atom_site_fract_z
 _atom_site_occupancy
  Y  Y0  1  0.082933  0.541467  0.750000  1
  Lu  Lu1  1  0.999890  0.999945  0.461842  1
  Lu  Lu2  1  0.999890  0.999945  0.038158  1
  Lu  Lu3  1  0.210278  0.791476  0.440447  1
  Lu  Lu4  1  0.210278  0.418803  0.440447  1
  Lu  Lu5  1  0.580565  0.790283  0.441349  1
  Lu  Lu6  1  0.790314  0.207462  0.555821  1
  Lu  Lu7  1  0.790314  0.582850  0.555821  1
  Lu  Lu8  1  0.417009  0.208503  0.556381  1
  Lu  Lu9  1  0.790314  0.207462  0.944179  1
  Lu  Lu10  1  0.790314  0.582850  0.944179  1
  Lu  Lu11  1  0.417009  0.208503  0.943619  1
  Lu  Lu12  1  0.210278  0.791476  0.059553  1
  Lu  Lu13  1  0.210278  0.418803  0.059553  1
  Lu  Lu14  1  0.580565  0.790283  0.058651  1
  Lu  Lu15  1  0.539685  0.460370  0.250000  1
  Lu  Lu16  1  0.539685  0.079314  0.250000  1
  Lu  Lu17  1  0.920834  0.460417  0.250000  1
  Lu  Lu18  1  0.460098  0.540944  0.750000  1
  Lu  Lu19  1  0.460098  0.919155  0.750000  1
  Cd  Cd20  1  0.111144  0.891594  0.750000  1
  Cd  Cd21  1  0.111144  0.219549  0.750000  1
  Cd  Cd22  1  0.778837  0.889418  0.750000  1
  Ru  Ru23  1  0.333335  0.666668  0.250000  1
  Ru  Ru24  1  0.665112  0.332555  0.750000  1
  Au  Au25  1  0.870477  0.129318  0.250000  1
  Au  Au26  1  0.870477  0.741160  0.250000  1
  Au  Au27  1  0.258846  0.129423  0.250000  1
