# generated using pymatgen
data_Ti3ReSi3MoRh
_symmetry_space_group_name_H-M   'P 1'
_cell_length_a   6.79513263
_cell_length_b   6.77144076
_cell_length_c   3.34021300
_cell_angle_alpha   90.00000000
_cell_angle_beta   90.00000000
_cell_angle_gamma   120.48734307
_symmetry_Int_Tables_number   1
_chemical_formula_structural   Ti3ReSi3MoRh
_chemical_formula_sum   'Ti3 Re1 Si3 Mo1 Rh1'
_cell_volume   132.44332334
_cell_formula_units_Z   1
loop_
 _symmetry_equiv_pos_site_id
 _symmetry_equiv_pos_as_xyz
  1  'x, y, z'
loop_
 _atom_site_type_symbol
 _atom_site_label
 _atom_site_symmetry_multiplicity
 _atom_site_fract_x
 _atom_site_fract_y
 _atom_site_fract_z
 _atom_site_occupancy
  Ti  Ti0  1  0.388540  0.388325  0.500000  1
  Ti  Ti1  1  0.594892  0.016272  0.500000  1
  Ti  Ti2  1  0.016936  0.594751  0.500000  1
  Re  Re3  1  0.000620  0.259066  0.000000  1
  Si  Si4  1  0.671419  0.345570  0.000000  1
  Si  Si5  1  0.345007  0.669677  0.000000  1
  Si  Si6  1  0.984279  0.985005  0.500000  1
  Mo  Mo7  1  0.257791  0.000599  0.000000  1
  Rh  Rh8  1  0.740517  0.740737  0.000000  1
