# generated using pymatgen
data_TbYHo4(Co3P2)6
_symmetry_space_group_name_H-M   'P 1'
_cell_length_a   3.69721500
_cell_length_b   10.51083300
_cell_length_c   12.16944700
_cell_angle_alpha   90.00000000
_cell_angle_beta   90.00000000
_cell_angle_gamma   90.00000000
_symmetry_Int_Tables_number   1
_chemical_formula_structural   TbYHo4(Co3P2)6
_chemical_formula_sum   'Tb1 Y1 Ho4 Co18 P12'
_cell_volume   472.91456074
_cell_formula_units_Z   1
loop_
 _symmetry_equiv_pos_site_id
 _symmetry_equiv_pos_as_xyz
  1  'x, y, z'
loop_
 _atom_site_type_symbol
 _atom_site_label
 _atom_site_symmetry_multiplicity
 _atom_site_fract_x
 _atom_site_fract_y
 _atom_site_fract_z
 _atom_site_occupancy
  Tb  Tb0  1  0.500000  0.000000  0.477595  1
  Y  Y1  1  0.000000  0.500000  0.522339  1
  Ho  Ho2  1  0.500000  0.817421  0.205640  1
  Ho  Ho3  1  0.500000  0.182579  0.205640  1
  Ho  Ho4  1  0.000000  0.682576  0.794320  1
  Ho  Ho5  1  0.000000  0.317424  0.794320  1
  Co  Co6  1  0.000000  0.500000  0.986198  1
  Co  Co7  1  0.500000  0.000000  0.013801  1
  Co  Co8  1  0.500000  0.297110  0.430402  1
  Co  Co9  1  0.500000  0.702890  0.430402  1
  Co  Co10  1  0.000000  0.202998  0.569609  1
  Co  Co11  1  0.000000  0.797002  0.569609  1
  Co  Co12  1  0.500000  0.879182  0.710168  1
  Co  Co13  1  0.500000  0.120818  0.710168  1
  Co  Co14  1  0.000000  0.620798  0.289859  1
  Co  Co15  1  0.000000  0.379202  0.289859  1
  Co  Co16  1  0.500000  0.333436  0.994684  1
  Co  Co17  1  0.500000  0.666564  0.994684  1
  Co  Co18  1  0.000000  0.166611  0.005300  1
  Co  Co19  1  0.000000  0.833389  0.005300  1
  Co  Co20  1  0.500000  0.500000  0.158665  1
  Co  Co21  1  0.000000  0.000000  0.841349  1
  Co  Co22  1  0.500000  0.500000  0.704049  1
  Co  Co23  1  0.000000  0.000000  0.295962  1
  P  P24  1  0.500000  0.310270  0.616500  1
  P  P25  1  0.500000  0.689730  0.616500  1
  P  P26  1  0.000000  0.189860  0.383507  1
  P  P27  1  0.000000  0.810140  0.383507  1
  P  P28  1  0.500000  0.500000  0.882818  1
  P  P29  1  0.000000  0.000000  0.117197  1
  P  P30  1  0.500000  0.847224  0.893199  1
  P  P31  1  0.500000  0.152776  0.893199  1
  P  P32  1  0.000000  0.652751  0.106758  1
  P  P33  1  0.000000  0.347249  0.106758  1
  P  P34  1  0.500000  0.500000  0.343403  1
  P  P35  1  0.000000  0.000000  0.656734  1
