# generated using pymatgen
data_Zr2BIrRh5
_symmetry_space_group_name_H-M   'P 1'
_cell_length_a   5.73183463
_cell_length_b   5.72808909
_cell_length_c   5.72808823
_cell_angle_alpha   60.04325911
_cell_angle_beta   59.97836116
_cell_angle_gamma   59.97836520
_symmetry_Int_Tables_number   1
_chemical_formula_structural   Zr2BIrRh5
_chemical_formula_sum   'Zr2 B1 Ir1 Rh5'
_cell_volume   132.98348109
_cell_formula_units_Z   1
loop_
 _symmetry_equiv_pos_site_id
 _symmetry_equiv_pos_as_xyz
  1  'x, y, z'
loop_
 _atom_site_type_symbol
 _atom_site_label
 _atom_site_symmetry_multiplicity
 _atom_site_fract_x
 _atom_site_fract_y
 _atom_site_fract_z
 _atom_site_occupancy
  Zr  Zr0  1  0.749971  0.750029  0.750029  1
  Zr  Zr1  1  0.249971  0.250029  0.250029  1
  B  B2  1  0.999726  0.000274  0.000274  1
  Ir  Ir3  1  0.257681  0.742319  0.742319  1
  Rh  Rh4  1  0.742375  0.742608  0.257625  1
  Rh  Rh5  1  0.257392  0.742608  0.257625  1
  Rh  Rh6  1  0.743116  0.256884  0.256884  1
  Rh  Rh7  1  0.257392  0.257625  0.742608  1
  Rh  Rh8  1  0.742375  0.257625  0.742608  1
