# generated using pymatgen
data_Dy6Si4Ir3Pt
_symmetry_space_group_name_H-M   'P 1'
_cell_length_a   5.59921094
_cell_length_b   5.59921094
_cell_length_c   13.27088400
_cell_angle_alpha   90.00000000
_cell_angle_beta   90.00000000
_cell_angle_gamma   137.11426455
_symmetry_Int_Tables_number   1
_chemical_formula_structural   Dy6Si4Ir3Pt
_chemical_formula_sum   'Dy6 Si4 Ir3 Pt1'
_cell_volume   283.14323702
_cell_formula_units_Z   1
loop_
 _symmetry_equiv_pos_site_id
 _symmetry_equiv_pos_as_xyz
  1  'x, y, z'
loop_
 _atom_site_type_symbol
 _atom_site_label
 _atom_site_symmetry_multiplicity
 _atom_site_fract_x
 _atom_site_fract_y
 _atom_site_fract_z
 _atom_site_occupancy
  Dy  Dy0  1  0.774697  0.225303  0.604901  1
  Dy  Dy1  1  0.517656  0.482344  0.250000  1
  Dy  Dy2  1  0.224665  0.775335  0.398435  1
  Dy  Dy3  1  0.774697  0.225303  0.895099  1
  Dy  Dy4  1  0.483055  0.516945  0.750000  1
  Dy  Dy5  1  0.224665  0.775335  0.101565  1
  Si  Si6  1  0.061970  0.938030  0.590554  1
  Si  Si7  1  0.061970  0.938030  0.909446  1
  Si  Si8  1  0.939071  0.060929  0.411968  1
  Si  Si9  1  0.939071  0.060929  0.088032  1
  Ir  Ir10  1  0.188784  0.811216  0.750000  1
  Ir  Ir11  1  0.501317  0.498683  0.000009  1
  Ir  Ir12  1  0.501317  0.498683  0.499991  1
  Pt  Pt13  1  0.807065  0.192935  0.250000  1
