# generated using pymatgen
data_Dy2HoTm5(Si3Rh)4
_symmetry_space_group_name_H-M   'P 1'
_cell_length_a   8.15085733
_cell_length_b   8.14682130
_cell_length_c   7.80418100
_cell_angle_alpha   90.00000000
_cell_angle_beta   90.00000000
_cell_angle_gamma   119.98361728
_symmetry_Int_Tables_number   1
_chemical_formula_structural   Dy2HoTm5(Si3Rh)4
_chemical_formula_sum   'Dy2 Ho1 Tm5 Si12 Rh4'
_cell_volume   448.87055517
_cell_formula_units_Z   1
loop_
 _symmetry_equiv_pos_site_id
 _symmetry_equiv_pos_as_xyz
  1  'x, y, z'
loop_
 _atom_site_type_symbol
 _atom_site_label
 _atom_site_symmetry_multiplicity
 _atom_site_fract_x
 _atom_site_fract_y
 _atom_site_fract_z
 _atom_site_occupancy
  Dy  Dy0  1  0.000191  0.000095  0.250000  1
  Dy  Dy1  1  0.999841  0.999920  0.750000  1
  Ho  Ho2  1  0.018418  0.509209  0.750000  1
  Tm  Tm3  1  0.508988  0.490932  0.250000  1
  Tm  Tm4  1  0.508988  0.018056  0.250000  1
  Tm  Tm5  1  0.981924  0.490962  0.250000  1
  Tm  Tm6  1  0.491241  0.509072  0.750000  1
  Tm  Tm7  1  0.491241  0.982170  0.750000  1
  Si  Si8  1  0.167466  0.832991  0.499492  1
  Si  Si9  1  0.167466  0.334474  0.499492  1
  Si  Si10  1  0.665287  0.832643  0.499972  1
  Si  Si11  1  0.832616  0.167140  0.499757  1
  Si  Si12  1  0.832616  0.665477  0.499757  1
  Si  Si13  1  0.334620  0.167310  0.499890  1
  Si  Si14  1  0.832616  0.167140  0.000243  1
  Si  Si15  1  0.832616  0.665477  0.000243  1
  Si  Si16  1  0.334620  0.167310  0.000110  1
  Si  Si17  1  0.167466  0.832991  0.000508  1
  Si  Si18  1  0.167466  0.334474  0.000508  1
  Si  Si19  1  0.665287  0.832643  0.000028  1
  Rh  Rh20  1  0.333869  0.666935  0.464722  1
  Rh  Rh21  1  0.665642  0.332821  0.533623  1
  Rh  Rh22  1  0.665642  0.332821  0.966377  1
  Rh  Rh23  1  0.333869  0.666935  0.035278  1
