# generated using pymatgen
data_La3Nb(Ga3Pd)8
_symmetry_space_group_name_H-M   'P 1'
_cell_length_a   8.59937392
_cell_length_b   8.59937535
_cell_length_c   8.59937448
_cell_angle_alpha   89.92693546
_cell_angle_beta   89.92693269
_cell_angle_gamma   89.92694687
_symmetry_Int_Tables_number   1
_chemical_formula_structural   La3Nb(Ga3Pd)8
_chemical_formula_sum   'La3 Nb1 Ga24 Pd8'
_cell_volume   635.91569326
_cell_formula_units_Z   1
loop_
 _symmetry_equiv_pos_site_id
 _symmetry_equiv_pos_as_xyz
  1  'x, y, z'
loop_
 _atom_site_type_symbol
 _atom_site_label
 _atom_site_symmetry_multiplicity
 _atom_site_fract_x
 _atom_site_fract_y
 _atom_site_fract_z
 _atom_site_occupancy
  La  La0  1  0.000000  0.500000  0.000000  1
  La  La1  1  0.500000  0.000000  0.000000  1
  La  La2  1  0.000000  0.000000  0.500000  1
  Nb  Nb3  1  0.500000  0.500000  0.500000  1
  Ga  Ga4  1  0.990721  0.641419  0.641419  1
  Ga  Ga5  1  0.641419  0.641419  0.990721  1
  Ga  Ga6  1  0.641419  0.990721  0.641419  1
  Ga  Ga7  1  0.009279  0.358581  0.358581  1
  Ga  Ga8  1  0.358581  0.358581  0.009279  1
  Ga  Ga9  1  0.358581  0.009279  0.358581  1
  Ga  Ga10  1  0.734142  0.500000  0.265858  1
  Ga  Ga11  1  0.265858  0.500000  0.734142  1
  Ga  Ga12  1  0.500000  0.265858  0.734142  1
  Ga  Ga13  1  0.500000  0.734142  0.265858  1
  Ga  Ga14  1  0.265858  0.734142  0.500000  1
  Ga  Ga15  1  0.734142  0.265858  0.500000  1
  Ga  Ga16  1  0.838481  0.143116  0.838481  1
  Ga  Ga17  1  0.143116  0.838481  0.838481  1
  Ga  Ga18  1  0.838481  0.838481  0.143116  1
  Ga  Ga19  1  0.161519  0.856884  0.161519  1
  Ga  Ga20  1  0.856884  0.161519  0.161519  1
  Ga  Ga21  1  0.161519  0.161519  0.856884  1
  Ga  Ga22  1  0.728191  0.490114  0.728191  1
  Ga  Ga23  1  0.490114  0.728191  0.728191  1
  Ga  Ga24  1  0.728191  0.728191  0.490114  1
  Ga  Ga25  1  0.271809  0.509886  0.271809  1
  Ga  Ga26  1  0.509886  0.271809  0.271809  1
  Ga  Ga27  1  0.271809  0.271809  0.509886  1
  Pd  Pd28  1  0.836218  0.836218  0.836218  1
  Pd  Pd29  1  0.163782  0.163782  0.163782  1
  Pd  Pd30  1  0.664245  0.335755  0.000000  1
  Pd  Pd31  1  0.000000  0.335755  0.664245  1
  Pd  Pd32  1  0.335755  0.000000  0.664245  1
  Pd  Pd33  1  0.335755  0.664245  0.000000  1
  Pd  Pd34  1  0.000000  0.664245  0.335755  1
  Pd  Pd35  1  0.664245  0.000000  0.335755  1
