# generated using pymatgen
data_Eu2As6PPd12
_symmetry_space_group_name_H-M   'P 1'
_cell_length_a   10.13496600
_cell_length_b   10.13496662
_cell_length_c   4.16642600
_cell_angle_alpha   90.00000000
_cell_angle_beta   90.00000000
_cell_angle_gamma   120.00000071
_symmetry_Int_Tables_number   1
_chemical_formula_structural   Eu2As6PPd12
_chemical_formula_sum   'Eu2 As6 P1 Pd12'
_cell_volume   370.62859240
_cell_formula_units_Z   1
loop_
 _symmetry_equiv_pos_site_id
 _symmetry_equiv_pos_as_xyz
  1  'x, y, z'
loop_
 _atom_site_type_symbol
 _atom_site_label
 _atom_site_symmetry_multiplicity
 _atom_site_fract_x
 _atom_site_fract_y
 _atom_site_fract_z
 _atom_site_occupancy
  Eu  Eu0  1  0.666667  0.333333  0.247228  1
  Eu  Eu1  1  0.000000  0.000000  0.749971  1
  As  As2  1  0.742214  0.782885  0.248653  1
  As  As3  1  0.040671  0.257786  0.248653  1
  As  As4  1  0.217115  0.959329  0.248653  1
  As  As5  1  0.924178  0.551058  0.748179  1
  As  As6  1  0.626881  0.075822  0.748179  1
  As  As7  1  0.448942  0.373119  0.748179  1
  P  P8  1  0.333333  0.666667  0.485445  1
  Pd  Pd9  1  0.766571  0.045265  0.247114  1
  Pd  Pd10  1  0.278694  0.233429  0.247114  1
  Pd  Pd11  1  0.954735  0.721306  0.247114  1
  Pd  Pd12  1  0.901328  0.288412  0.749686  1
  Pd  Pd13  1  0.387083  0.098672  0.749686  1
  Pd  Pd14  1  0.711588  0.612917  0.749686  1
  Pd  Pd15  1  0.471244  0.562635  0.239003  1
  Pd  Pd16  1  0.091391  0.528756  0.239003  1
  Pd  Pd17  1  0.437365  0.908609  0.239003  1
  Pd  Pd18  1  0.197658  0.767978  0.756990  1
  Pd  Pd19  1  0.570320  0.802342  0.756990  1
  Pd  Pd20  1  0.232022  0.429680  0.756990  1
