# generated using pymatgen
data_Tb9CePr6(CdRu)4
_symmetry_space_group_name_H-M   'P 1'
_cell_length_a   9.85739683
_cell_length_b   9.85739690
_cell_length_c   9.85739769
_cell_angle_alpha   59.12340586
_cell_angle_beta   59.12340936
_cell_angle_gamma   59.12340778
_symmetry_Int_Tables_number   1
_chemical_formula_structural   Tb9CePr6(CdRu)4
_chemical_formula_sum   'Tb9 Ce1 Pr6 Cd4 Ru4'
_cell_volume   663.75262925
_cell_formula_units_Z   1
loop_
 _symmetry_equiv_pos_site_id
 _symmetry_equiv_pos_as_xyz
  1  'x, y, z'
loop_
 _atom_site_type_symbol
 _atom_site_label
 _atom_site_symmetry_multiplicity
 _atom_site_fract_x
 _atom_site_fract_y
 _atom_site_fract_z
 _atom_site_occupancy
  Tb  Tb0  1  0.187988  0.187988  0.813376  1
  Tb  Tb1  1  0.813166  0.187614  0.813166  1
  Tb  Tb2  1  0.187613  0.813167  0.813166  1
  Tb  Tb3  1  0.813166  0.813167  0.187614  1
  Tb  Tb4  1  0.187987  0.813376  0.187987  1
  Tb  Tb5  1  0.813376  0.187988  0.187988  1
  Tb  Tb6  1  0.345052  0.345052  0.961102  1
  Tb  Tb7  1  0.345052  0.961102  0.345052  1
  Tb  Tb8  1  0.961102  0.345052  0.345052  1
  Ce  Ce9  1  0.339475  0.339475  0.339475  1
  Pr  Pr10  1  0.559219  0.559219  0.940951  1
  Pr  Pr11  1  0.941536  0.557736  0.941536  1
  Pr  Pr12  1  0.557736  0.941536  0.941536  1
  Pr  Pr13  1  0.941536  0.941536  0.557736  1
  Pr  Pr14  1  0.559219  0.940951  0.559219  1
  Pr  Pr15  1  0.940951  0.559219  0.559219  1
  Cd  Cd16  1  0.578424  0.578424  0.263001  1
  Cd  Cd17  1  0.578424  0.263001  0.578424  1
  Cd  Cd18  1  0.263001  0.578424  0.578424  1
  Cd  Cd19  1  0.578773  0.578773  0.578773  1
  Ru  Ru20  1  0.146371  0.146371  0.575568  1
  Ru  Ru21  1  0.146371  0.575568  0.146371  1
  Ru  Ru22  1  0.575568  0.146371  0.146371  1
  Ru  Ru23  1  0.138894  0.138894  0.138894  1
