# generated using pymatgen
data_Li3LuTa2(SbPt)6
_symmetry_space_group_name_H-M   'P 1'
_cell_length_a   7.75016703
_cell_length_b   7.73280474
_cell_length_c   7.74145925
_cell_angle_alpha   99.72466242
_cell_angle_beta   99.46681584
_cell_angle_gamma   119.91549870
_symmetry_Int_Tables_number   1
_chemical_formula_structural   Li3LuTa2(SbPt)6
_chemical_formula_sum   'Li3 Lu1 Ta2 Sb6 Pt6'
_cell_volume   379.18648408
_cell_formula_units_Z   1
loop_
 _symmetry_equiv_pos_site_id
 _symmetry_equiv_pos_as_xyz
  1  'x, y, z'
loop_
 _atom_site_type_symbol
 _atom_site_label
 _atom_site_symmetry_multiplicity
 _atom_site_fract_x
 _atom_site_fract_y
 _atom_site_fract_z
 _atom_site_occupancy
  Li  Li0  1  0.332031  0.164624  0.498563  1
  Li  Li1  1  0.997473  0.503904  0.499828  1
  Li  Li2  1  0.165913  0.331474  0.999704  1
  Lu  Lu3  1  0.503626  0.999381  0.000948  1
  Ta  Ta4  1  0.667389  0.829854  0.498335  1
  Ta  Ta5  1  0.831901  0.669731  0.001481  1
  Sb  Sb6  1  0.933610  0.108396  0.251204  1
  Sb  Sb7  1  0.251927  0.745404  0.253533  1
  Sb  Sb8  1  0.573074  0.405859  0.261972  1
  Sb  Sb9  1  0.096137  0.921699  0.740430  1
  Sb  Sb10  1  0.755314  0.261536  0.743164  1
  Sb  Sb11  1  0.394381  0.561119  0.751539  1
  Pt  Pt12  1  0.188969  0.020951  0.116447  1
  Pt  Pt13  1  0.869941  0.391145  0.118702  1
  Pt  Pt14  1  0.563677  0.713418  0.136693  1
  Pt  Pt15  1  0.020531  0.187106  0.615871  1
  Pt  Pt16  1  0.392785  0.870811  0.621262  1
  Pt  Pt17  1  0.711275  0.563548  0.640325  1
