# generated using pymatgen
data_Pr12FeIrI17
_symmetry_space_group_name_H-M   'P 1'
_cell_length_a   10.12851370
_cell_length_b   12.12228775
_cell_length_c   12.16519093
_cell_angle_alpha   93.38622201
_cell_angle_beta   104.84423593
_cell_angle_gamma   114.56574209
_symmetry_Int_Tables_number   1
_chemical_formula_structural   Pr12FeIrI17
_chemical_formula_sum   'Pr12 Fe1 Ir1 I17'
_cell_volume   1289.61663521
_cell_formula_units_Z   1
loop_
 _symmetry_equiv_pos_site_id
 _symmetry_equiv_pos_as_xyz
  1  'x, y, z'
loop_
 _atom_site_type_symbol
 _atom_site_label
 _atom_site_symmetry_multiplicity
 _atom_site_fract_x
 _atom_site_fract_y
 _atom_site_fract_z
 _atom_site_occupancy
  Pr  Pr0  1  0.054565  0.506362  0.321044  1
  Pr  Pr1  1  0.989220  0.812341  0.579030  1
  Pr  Pr2  1  0.649241  0.240969  0.282637  1
  Pr  Pr3  1  0.008856  0.190846  0.413938  1
  Pr  Pr4  1  0.224780  0.668661  0.992295  1
  Pr  Pr5  1  0.262416  0.990048  0.893935  1
  Pr  Pr6  1  0.358630  0.759789  0.714537  1
  Pr  Pr7  1  0.939419  0.485362  0.675300  1
  Pr  Pr8  1  0.743236  0.018849  0.109835  1
  Pr  Pr9  1  0.146819  0.286466  0.152675  1
  Pr  Pr10  1  0.778774  0.328843  0.014557  1
  Pr  Pr11  1  0.844915  0.711964  0.849803  1
  Fe  Fe12  1  0.895786  0.261849  0.214265  1
  Ir  Ir13  1  0.104174  0.738265  0.785326  1
  I  I14  1  0.784976  0.529060  0.417848  1
  I  I15  1  0.641273  0.418738  0.758572  1
  I  I16  1  0.842192  0.894073  0.324174  1
  I  I17  1  0.324728  0.212242  0.369659  1
  I  I18  1  0.157402  0.105523  0.676039  1
  I  I19  1  0.587809  0.053008  0.843019  1
  I  I20  1  0.754113  0.182403  0.537380  1
  I  I21  1  0.548239  0.706627  0.953096  1
  I  I22  1  0.359104  0.581323  0.241923  1
  I  I23  1  0.214926  0.470907  0.582709  1
  I  I24  1  0.055241  0.367331  0.896793  1
  I  I25  1  0.452008  0.293242  0.046922  1
  I  I26  1  0.999843  0.999643  0.999694  1
  I  I27  1  0.245899  0.817342  0.462557  1
  I  I28  1  0.411621  0.946744  0.156800  1
  I  I29  1  0.674316  0.788070  0.630088  1
  I  I30  1  0.945479  0.633111  0.103552  1
