# generated using pymatgen
data_Y19Er(Cd3Tc)2
_symmetry_space_group_name_H-M   'P 1'
_cell_length_a   9.61700284
_cell_length_b   9.61700156
_cell_length_c   9.92370619
_cell_angle_alpha   90.06559723
_cell_angle_beta   89.93440020
_cell_angle_gamma   119.97243906
_symmetry_Int_Tables_number   1
_chemical_formula_structural   Y19Er(Cd3Tc)2
_chemical_formula_sum   'Y19 Er1 Cd6 Tc2'
_cell_volume   795.06773026
_cell_formula_units_Z   1
loop_
 _symmetry_equiv_pos_site_id
 _symmetry_equiv_pos_as_xyz
  1  'x, y, z'
loop_
 _atom_site_type_symbol
 _atom_site_label
 _atom_site_symmetry_multiplicity
 _atom_site_fract_x
 _atom_site_fract_y
 _atom_site_fract_z
 _atom_site_occupancy
  Y  Y0  1  0.000272  0.999728  0.499855  1
  Y  Y1  1  0.000022  0.999978  0.999979  1
  Y  Y2  1  0.210041  0.420601  0.440933  1
  Y  Y3  1  0.579399  0.789959  0.440933  1
  Y  Y4  1  0.789959  0.210041  0.559018  1
  Y  Y5  1  0.790336  0.580077  0.558868  1
  Y  Y6  1  0.419923  0.209664  0.558868  1
  Y  Y7  1  0.789958  0.210042  0.940983  1
  Y  Y8  1  0.790009  0.579897  0.940956  1
  Y  Y9  1  0.420103  0.209991  0.940956  1
  Y  Y10  1  0.210135  0.789865  0.059343  1
  Y  Y11  1  0.210037  0.420115  0.058989  1
  Y  Y12  1  0.579885  0.789963  0.058989  1
  Y  Y13  1  0.539821  0.460179  0.249971  1
  Y  Y14  1  0.539330  0.079129  0.250249  1
  Y  Y15  1  0.920871  0.460670  0.250249  1
  Y  Y16  1  0.460244  0.539756  0.749979  1
  Y  Y17  1  0.459947  0.920253  0.749670  1
  Y  Y18  1  0.079747  0.540053  0.749670  1
  Er  Er19  1  0.210537  0.789463  0.440625  1
  Cd  Cd20  1  0.885690  0.114310  0.250044  1
  Cd  Cd21  1  0.885704  0.771365  0.250013  1
  Cd  Cd22  1  0.228635  0.114296  0.250013  1
  Cd  Cd23  1  0.114345  0.885655  0.750007  1
  Cd  Cd24  1  0.114336  0.228643  0.749961  1
  Cd  Cd25  1  0.771357  0.885664  0.749961  1
  Tc  Tc26  1  0.332710  0.667290  0.250948  1
  Tc  Tc27  1  0.666645  0.333355  0.749971  1
