# generated using pymatgen
data_Pr3Dy5(AgRh)2
_symmetry_space_group_name_H-M   'P 1'
_cell_length_a   9.64212508
_cell_length_b   9.64212525
_cell_length_c   9.64212500
_cell_angle_alpha   59.99999743
_cell_angle_beta   59.99999684
_cell_angle_gamma   59.99999650
_symmetry_Int_Tables_number   1
_chemical_formula_structural   Pr3Dy5(AgRh)2
_chemical_formula_sum   'Pr6 Dy10 Ag4 Rh4'
_cell_volume   633.87446755
_cell_formula_units_Z   2
loop_
 _symmetry_equiv_pos_site_id
 _symmetry_equiv_pos_as_xyz
  1  'x, y, z'
loop_
 _atom_site_type_symbol
 _atom_site_label
 _atom_site_symmetry_multiplicity
 _atom_site_fract_x
 _atom_site_fract_y
 _atom_site_fract_z
 _atom_site_occupancy
  Pr  Pr0  1  0.938942  0.561058  0.561058  1
  Pr  Pr1  1  0.561058  0.938942  0.938942  1
  Pr  Pr2  1  0.561058  0.938942  0.561058  1
  Pr  Pr3  1  0.938942  0.561058  0.938942  1
  Pr  Pr4  1  0.561058  0.561058  0.938942  1
  Pr  Pr5  1  0.938942  0.938942  0.561058  1
  Dy  Dy6  1  0.350962  0.350962  0.350962  1
  Dy  Dy7  1  0.350962  0.350962  0.947113  1
  Dy  Dy8  1  0.350962  0.947113  0.350962  1
  Dy  Dy9  1  0.947113  0.350962  0.350962  1
  Dy  Dy10  1  0.813369  0.186631  0.186631  1
  Dy  Dy11  1  0.186631  0.813370  0.813369  1
  Dy  Dy12  1  0.186631  0.813369  0.186630  1
  Dy  Dy13  1  0.813369  0.186631  0.813369  1
  Dy  Dy14  1  0.186631  0.186631  0.813369  1
  Dy  Dy15  1  0.813370  0.813370  0.186630  1
  Ag  Ag16  1  0.579789  0.579789  0.579789  1
  Ag  Ag17  1  0.579789  0.579789  0.260632  1
  Ag  Ag18  1  0.579789  0.260632  0.579789  1
  Ag  Ag19  1  0.260632  0.579789  0.579789  1
  Rh  Rh20  1  0.142726  0.142726  0.142726  1
  Rh  Rh21  1  0.142726  0.142726  0.571823  1
  Rh  Rh22  1  0.142726  0.571823  0.142726  1
  Rh  Rh23  1  0.571823  0.142726  0.142726  1
