# generated using pymatgen
data_Ho10Cd2InRh
_symmetry_space_group_name_H-M   'P 1'
_cell_length_a   9.60988900
_cell_length_b   9.65422196
_cell_length_c   9.62120500
_cell_angle_alpha   90.00000000
_cell_angle_beta   90.00000000
_cell_angle_gamma   120.15271147
_symmetry_Int_Tables_number   1
_chemical_formula_structural   Ho10Cd2InRh
_chemical_formula_sum   'Ho20 Cd4 In2 Rh2'
_cell_volume   771.83663746
_cell_formula_units_Z   2
loop_
 _symmetry_equiv_pos_site_id
 _symmetry_equiv_pos_as_xyz
  1  'x, y, z'
loop_
 _atom_site_type_symbol
 _atom_site_label
 _atom_site_symmetry_multiplicity
 _atom_site_fract_x
 _atom_site_fract_y
 _atom_site_fract_z
 _atom_site_occupancy
  Ho  Ho0  1  0.003525  0.001762  0.504616  1
  Ho  Ho1  1  0.003525  0.001762  0.995384  1
  Ho  Ho2  1  0.539481  0.453888  0.250000  1
  Ho  Ho3  1  0.539481  0.085594  0.250000  1
  Ho  Ho4  1  0.913977  0.456988  0.250000  1
  Ho  Ho5  1  0.456599  0.544118  0.750000  1
  Ho  Ho6  1  0.456599  0.912480  0.750000  1
  Ho  Ho7  1  0.086431  0.543215  0.750000  1
  Ho  Ho8  1  0.209461  0.790232  0.440638  1
  Ho  Ho9  1  0.209461  0.419230  0.440638  1
  Ho  Ho10  1  0.582082  0.791041  0.439302  1
  Ho  Ho11  1  0.790060  0.209005  0.559519  1
  Ho  Ho12  1  0.790060  0.581054  0.559519  1
  Ho  Ho13  1  0.418920  0.209459  0.561643  1
  Ho  Ho14  1  0.790060  0.209005  0.940481  1
  Ho  Ho15  1  0.790060  0.581054  0.940481  1
  Ho  Ho16  1  0.418920  0.209459  0.938357  1
  Ho  Ho17  1  0.209461  0.790232  0.059362  1
  Ho  Ho18  1  0.209461  0.419230  0.059362  1
  Ho  Ho19  1  0.582082  0.791041  0.060698  1
  Cd  Cd20  1  0.229159  0.114579  0.250000  1
  Cd  Cd21  1  0.115710  0.882323  0.750000  1
  Cd  Cd22  1  0.115710  0.233388  0.750000  1
  Cd  Cd23  1  0.768197  0.884098  0.750000  1
  In  In24  1  0.885268  0.115391  0.250000  1
  In  In25  1  0.885268  0.769875  0.250000  1
  Rh  Rh26  1  0.331773  0.665886  0.250000  1
  Rh  Rh27  1  0.669210  0.334605  0.750000  1
