# generated using pymatgen
data_LaUP7Ru12
_symmetry_space_group_name_H-M   'P 1'
_cell_length_a   9.50544775
_cell_length_b   9.50399661
_cell_length_c   3.93122400
_cell_angle_alpha   90.00000000
_cell_angle_beta   90.00000000
_cell_angle_gamma   119.98739014
_symmetry_Int_Tables_number   1
_chemical_formula_structural   LaUP7Ru12
_chemical_formula_sum   'La1 U1 P7 Ru12'
_cell_volume   307.60432948
_cell_formula_units_Z   1
loop_
 _symmetry_equiv_pos_site_id
 _symmetry_equiv_pos_as_xyz
  1  'x, y, z'
loop_
 _atom_site_type_symbol
 _atom_site_label
 _atom_site_symmetry_multiplicity
 _atom_site_fract_x
 _atom_site_fract_y
 _atom_site_fract_z
 _atom_site_occupancy
  La  La0  1  0.333345  0.666646  0.000000  1
  U  U1  1  0.666719  0.333352  0.500000  1
  P  P2  1  0.603923  0.716259  0.500000  1
  P  P3  1  0.000083  0.999988  0.000000  1
  P  P4  1  0.283745  0.887618  0.500000  1
  P  P5  1  0.112351  0.396121  0.500000  1
  P  P6  1  0.892898  0.583463  0.000000  1
  P  P7  1  0.416547  0.309454  0.000000  1
  P  P8  1  0.690516  0.107092  0.000000  1
  Ru  Ru9  1  0.563343  0.959073  0.500000  1
  Ru  Ru10  1  0.395717  0.436610  0.500000  1
  Ru  Ru11  1  0.909534  0.123380  0.500000  1
  Ru  Ru12  1  0.213666  0.090375  0.500000  1
  Ru  Ru13  1  0.876724  0.786215  0.500000  1
  Ru  Ru14  1  0.728094  0.885177  0.000000  1
  Ru  Ru15  1  0.114892  0.843010  0.000000  1
  Ru  Ru16  1  0.156994  0.271876  0.000000  1
  Ru  Ru17  1  0.432885  0.077950  0.000000  1
  Ru  Ru18  1  0.922024  0.355039  0.000000  1
  Ru  Ru19  1  0.644999  0.567034  0.000000  1
  Ru  Ru20  1  0.041000  0.604268  0.500000  1
