# generated using pymatgen
data_Th3Sc2Tc3
_symmetry_space_group_name_H-M   'P 1'
_cell_length_a   8.20346200
_cell_length_b   8.20346107
_cell_length_c   6.08663500
_cell_angle_alpha   90.00000000
_cell_angle_beta   90.00000000
_cell_angle_gamma   119.99999567
_symmetry_Int_Tables_number   1
_chemical_formula_structural   Th3Sc2Tc3
_chemical_formula_sum   'Th6 Sc4 Tc6'
_cell_volume   354.73349850
_cell_formula_units_Z   2
loop_
 _symmetry_equiv_pos_site_id
 _symmetry_equiv_pos_as_xyz
  1  'x, y, z'
loop_
 _atom_site_type_symbol
 _atom_site_label
 _atom_site_symmetry_multiplicity
 _atom_site_fract_x
 _atom_site_fract_y
 _atom_site_fract_z
 _atom_site_occupancy
  Th  Th0  1  0.252872  0.000000  0.250000  1
  Th  Th1  1  0.000000  0.252873  0.250000  1
  Th  Th2  1  0.747128  0.747128  0.250000  1
  Th  Th3  1  0.747128  0.000000  0.750000  1
  Th  Th4  1  0.252872  0.252873  0.750000  1
  Th  Th5  1  0.000000  0.747128  0.750000  1
  Sc  Sc6  1  0.666667  0.333333  0.000000  1
  Sc  Sc7  1  0.333333  0.666666  0.000000  1
  Sc  Sc8  1  0.666667  0.333333  0.500001  1
  Sc  Sc9  1  0.333333  0.666666  0.500001  1
  Tc  Tc10  1  0.604317  0.000000  0.250000  1
  Tc  Tc11  1  0.395682  0.395682  0.250000  1
  Tc  Tc12  1  0.000000  0.604317  0.250000  1
  Tc  Tc13  1  0.395683  0.000000  0.750000  1
  Tc  Tc14  1  0.000000  0.395682  0.750000  1
  Tc  Tc15  1  0.604318  0.604317  0.750000  1
