# generated using pymatgen
data_SrPr6TcBr12
_symmetry_space_group_name_H-M   'P 1'
_cell_length_a   9.66314960
_cell_length_b   9.65950903
_cell_length_c   9.66603783
_cell_angle_alpha   106.22645880
_cell_angle_beta   106.36937497
_cell_angle_gamma   106.22453790
_symmetry_Int_Tables_number   1
_chemical_formula_structural   SrPr6TcBr12
_chemical_formula_sum   'Sr1 Pr6 Tc1 Br12'
_cell_volume   765.79742047
_cell_formula_units_Z   1
loop_
 _symmetry_equiv_pos_site_id
 _symmetry_equiv_pos_as_xyz
  1  'x, y, z'
loop_
 _atom_site_type_symbol
 _atom_site_label
 _atom_site_symmetry_multiplicity
 _atom_site_fract_x
 _atom_site_fract_y
 _atom_site_fract_z
 _atom_site_occupancy
  Sr  Sr0  1  0.500000  0.500000  0.500000  1
  Pr  Pr1  1  0.103158  0.309989  0.019659  1
  Pr  Pr2  1  0.310737  0.019737  0.104090  1
  Pr  Pr3  1  0.019546  0.103453  0.309987  1
  Pr  Pr4  1  0.980453  0.896547  0.690013  1
  Pr  Pr5  1  0.689263  0.980262  0.895909  1
  Pr  Pr6  1  0.896842  0.690011  0.980341  1
  Tc  Tc7  1  0.000000  0.000000  0.000000  1
  Br  Br8  1  0.217259  0.680748  0.072365  1
  Br  Br9  1  0.448804  0.366961  0.152500  1
  Br  Br10  1  0.680645  0.072276  0.216475  1
  Br  Br11  1  0.927639  0.782875  0.318983  1
  Br  Br12  1  0.152552  0.449164  0.366775  1
  Br  Br13  1  0.366602  0.152190  0.449096  1
  Br  Br14  1  0.633398  0.847810  0.550904  1
  Br  Br15  1  0.847447  0.550836  0.633225  1
  Br  Br16  1  0.072362  0.217126  0.681018  1
  Br  Br17  1  0.319356  0.927725  0.783525  1
  Br  Br18  1  0.551195  0.633038  0.847500  1
  Br  Br19  1  0.782741  0.319253  0.927635  1
