# generated using pymatgen
data_Tm4Fe5Co7(P3Ru2)4
_symmetry_space_group_name_H-M   'P 1'
_cell_length_a   3.74498000
_cell_length_b   10.46720391
_cell_length_c   11.89080394
_cell_angle_alpha   89.86795233
_cell_angle_beta   90.00000000
_cell_angle_gamma   90.00000000
_symmetry_Int_Tables_number   1
_chemical_formula_structural   Tm4Fe5Co7(P3Ru2)4
_chemical_formula_sum   'Tm4 Fe5 Co7 P12 Ru8'
_cell_volume   466.11196610
_cell_formula_units_Z   1
loop_
 _symmetry_equiv_pos_site_id
 _symmetry_equiv_pos_as_xyz
  1  'x, y, z'
loop_
 _atom_site_type_symbol
 _atom_site_label
 _atom_site_symmetry_multiplicity
 _atom_site_fract_x
 _atom_site_fract_y
 _atom_site_fract_z
 _atom_site_occupancy
  Tm  Tm0  1  0.250000  0.581064  0.709457  1
  Tm  Tm1  1  0.250000  0.917167  0.209281  1
  Tm  Tm2  1  0.750000  0.417295  0.290970  1
  Tm  Tm3  1  0.750000  0.083823  0.790890  1
  Fe  Fe4  1  0.750000  0.380146  0.800092  1
  Fe  Fe5  1  0.250000  0.462606  0.935657  1
  Fe  Fe6  1  0.250000  0.037900  0.433139  1
  Fe  Fe7  1  0.750000  0.538539  0.067467  1
  Fe  Fe8  1  0.750000  0.961507  0.566668  1
  Co  Co9  1  0.250000  0.226476  0.177752  1
  Co  Co10  1  0.250000  0.271802  0.675299  1
  Co  Co11  1  0.750000  0.772686  0.822802  1
  Co  Co12  1  0.750000  0.727402  0.322209  1
  Co  Co13  1  0.250000  0.880662  0.700586  1
  Co  Co14  1  0.250000  0.619377  0.200994  1
  Co  Co15  1  0.750000  0.118968  0.299355  1
  P  P16  1  0.250000  0.425682  0.114496  1
  P  P17  1  0.250000  0.073728  0.613309  1
  P  P18  1  0.750000  0.571571  0.885628  1
  P  P19  1  0.750000  0.926018  0.386480  1
  P  P20  1  0.250000  0.273752  0.860868  1
  P  P21  1  0.250000  0.228954  0.363351  1
  P  P22  1  0.750000  0.729024  0.136603  1
  P  P23  1  0.750000  0.770414  0.636943  1
  P  P24  1  0.250000  0.601330  0.386643  1
  P  P25  1  0.250000  0.898826  0.886591  1
  P  P26  1  0.750000  0.398847  0.614768  1
  P  P27  1  0.750000  0.101577  0.113086  1
  Ru  Ru28  1  0.250000  0.703945  0.984541  1
  Ru  Ru29  1  0.250000  0.796382  0.483508  1
  Ru  Ru30  1  0.750000  0.297075  0.017249  1
  Ru  Ru31  1  0.750000  0.203981  0.515783  1
  Ru  Ru32  1  0.250000  0.403046  0.484329  1
  Ru  Ru33  1  0.250000  0.098172  0.984633  1
  Ru  Ru34  1  0.750000  0.597136  0.514024  1
  Ru  Ru35  1  0.750000  0.903120  0.014547  1
