# generated using pymatgen
data_La2NdGa2IrRh
_symmetry_space_group_name_H-M   'P 1'
_cell_length_a   5.78141767
_cell_length_b   8.30470234
_cell_length_c   13.69514946
_cell_angle_alpha   89.98117684
_cell_angle_beta   89.95077594
_cell_angle_gamma   90.02636574
_symmetry_Int_Tables_number   1
_chemical_formula_structural   La2NdGa2IrRh
_chemical_formula_sum   'La8 Nd4 Ga8 Ir4 Rh4'
_cell_volume   657.54421821
_cell_formula_units_Z   4
loop_
 _symmetry_equiv_pos_site_id
 _symmetry_equiv_pos_as_xyz
  1  'x, y, z'
loop_
 _atom_site_type_symbol
 _atom_site_label
 _atom_site_symmetry_multiplicity
 _atom_site_fract_x
 _atom_site_fract_y
 _atom_site_fract_z
 _atom_site_occupancy
  La  La0  1  0.155381  0.398969  0.095713  1
  La  La1  1  0.845541  0.599814  0.904194  1
  La  La2  1  0.845802  0.600873  0.597633  1
  La  La3  1  0.845146  0.899053  0.402369  1
  La  La4  1  0.150688  0.404616  0.403705  1
  La  La5  1  0.151541  0.095620  0.595974  1
  La  La6  1  0.150834  0.096792  0.902360  1
  La  La7  1  0.849981  0.904028  0.098001  1
  Nd  Nd8  1  0.635288  0.259388  0.250194  1
  Nd  Nd9  1  0.365376  0.743304  0.750132  1
  Nd  Nd10  1  0.363539  0.759242  0.249414  1
  Nd  Nd11  1  0.636988  0.238157  0.750204  1
  Ga  Ga12  1  0.140838  0.111095  0.250843  1
  Ga  Ga13  1  0.860049  0.889771  0.750597  1
  Ga  Ga14  1  0.859470  0.608514  0.248880  1
  Ga  Ga15  1  0.141360  0.390857  0.749736  1
  Ga  Ga16  1  0.628531  0.249932  0.999155  1
  Ga  Ga17  1  0.372362  0.750043  0.000972  1
  Ga  Ga18  1  0.372124  0.749853  0.499882  1
  Ga  Ga19  1  0.627375  0.250086  0.500033  1
  Ir  Ir20  1  0.358302  0.030797  0.092698  1
  Ir  Ir21  1  0.641888  0.969546  0.908317  1
  Ir  Ir22  1  0.642896  0.970746  0.592185  1
  Ir  Ir23  1  0.642860  0.529136  0.407410  1
  Rh  Rh24  1  0.358007  0.029394  0.409267  1
  Rh  Rh25  1  0.358002  0.470585  0.591097  1
  Rh  Rh26  1  0.356309  0.471657  0.908709  1
  Rh  Rh27  1  0.643522  0.528130  0.090327  1
