# generated using pymatgen
data_Rb2Zr12BCI28
_symmetry_space_group_name_H-M   'P 1'
_cell_length_a   11.02967382
_cell_length_b   11.02967363
_cell_length_c   13.12100724
_cell_angle_alpha   89.91391243
_cell_angle_beta   89.91391055
_cell_angle_gamma   94.02441153
_symmetry_Int_Tables_number   1
_chemical_formula_structural   Rb2Zr12BCI28
_chemical_formula_sum   'Rb2 Zr12 B1 C1 I28'
_cell_volume   1592.27935140
_cell_formula_units_Z   1
loop_
 _symmetry_equiv_pos_site_id
 _symmetry_equiv_pos_as_xyz
  1  'x, y, z'
loop_
 _atom_site_type_symbol
 _atom_site_label
 _atom_site_symmetry_multiplicity
 _atom_site_fract_x
 _atom_site_fract_y
 _atom_site_fract_z
 _atom_site_occupancy
  Rb  Rb0  1  0.500000  0.500000  0.000000  1
  Rb  Rb1  1  0.000000  0.000000  0.500000  1
  Zr  Zr2  1  0.374148  0.374148  0.406058  1
  Zr  Zr3  1  0.625852  0.625852  0.593942  1
  Zr  Zr4  1  0.130152  0.130152  0.902951  1
  Zr  Zr5  1  0.869848  0.869848  0.097049  1
  Zr  Zr6  1  0.955787  0.167416  0.109003  1
  Zr  Zr7  1  0.044213  0.832584  0.890997  1
  Zr  Zr8  1  0.543016  0.335803  0.607033  1
  Zr  Zr9  1  0.664197  0.456984  0.392967  1
  Zr  Zr10  1  0.456984  0.664197  0.392967  1
  Zr  Zr11  1  0.335803  0.543016  0.607033  1
  Zr  Zr12  1  0.832584  0.044213  0.890997  1
  Zr  Zr13  1  0.167416  0.955787  0.109003  1
  B  B14  1  0.000000  0.000000  0.000000  1
  C  C15  1  0.500000  0.500000  0.500000  1
  I  I16  1  0.109315  0.358512  0.007606  1
  I  I17  1  0.890685  0.641488  0.992394  1
  I  I18  1  0.391309  0.143059  0.507433  1
  I  I19  1  0.856941  0.608691  0.492567  1
  I  I20  1  0.608691  0.856941  0.492567  1
  I  I21  1  0.143059  0.391309  0.507433  1
  I  I22  1  0.641488  0.890685  0.992394  1
  I  I23  1  0.358512  0.109315  0.007606  1
  I  I24  1  0.749947  0.250053  0.000000  1
  I  I25  1  0.250053  0.749947  0.000000  1
  I  I26  1  0.749322  0.250678  0.500000  1
  I  I27  1  0.250678  0.749322  0.500000  1
  I  I28  1  0.893920  0.396267  0.250558  1
  I  I29  1  0.106080  0.603733  0.749442  1
  I  I30  1  0.603733  0.106080  0.749442  1
  I  I31  1  0.396267  0.893920  0.250558  1
  I  I32  1  0.151048  0.151048  0.260745  1
  I  I33  1  0.848952  0.848952  0.739255  1
  I  I34  1  0.349082  0.349082  0.761123  1
  I  I35  1  0.650918  0.650918  0.238877  1
  I  I36  1  0.289130  0.535242  0.251884  1
  I  I37  1  0.710870  0.464758  0.748116  1
  I  I38  1  0.211476  0.964524  0.750596  1
  I  I39  1  0.035476  0.788524  0.249404  1
  I  I40  1  0.788524  0.035476  0.249404  1
  I  I41  1  0.964524  0.211476  0.750596  1
  I  I42  1  0.464758  0.710870  0.748116  1
  I  I43  1  0.535242  0.289130  0.251884  1
