# generated using pymatgen
data_Tb4Nd2CoBr10
_symmetry_space_group_name_H-M   'P 1'
_cell_length_a   7.44210396
_cell_length_b   9.24036374
_cell_length_c   9.34336683
_cell_angle_alpha   108.72566447
_cell_angle_beta   97.11646278
_cell_angle_gamma   104.70822252
_symmetry_Int_Tables_number   1
_chemical_formula_structural   Tb4Nd2CoBr10
_chemical_formula_sum   'Tb4 Nd2 Co1 Br10'
_cell_volume   573.58478766
_cell_formula_units_Z   1
loop_
 _symmetry_equiv_pos_site_id
 _symmetry_equiv_pos_as_xyz
  1  'x, y, z'
loop_
 _atom_site_type_symbol
 _atom_site_label
 _atom_site_symmetry_multiplicity
 _atom_site_fract_x
 _atom_site_fract_y
 _atom_site_fract_z
 _atom_site_occupancy
  Tb  Tb0  1  0.878383  0.956371  0.745491  1
  Tb  Tb1  1  0.121617  0.043629  0.254509  1
  Tb  Tb2  1  0.356914  0.132471  0.678729  1
  Tb  Tb3  1  0.643086  0.867529  0.321271  1
  Nd  Nd4  1  0.030949  0.711738  0.409626  1
  Nd  Nd5  1  0.969051  0.288262  0.590374  1
  Co  Co6  1  0.000000  0.000000  0.500000  1
  Br  Br7  1  0.458792  0.825239  0.585269  1
  Br  Br8  1  0.541208  0.174761  0.414731  1
  Br  Br9  1  0.910552  0.636531  0.679403  1
  Br  Br10  1  0.089448  0.363469  0.320597  1
  Br  Br11  1  0.250198  0.084532  0.956337  1
  Br  Br12  1  0.749802  0.915468  0.043663  1
  Br  Br13  1  0.361077  0.451727  0.773391  1
  Br  Br14  1  0.638923  0.548273  0.226609  1
  Br  Br15  1  0.780583  0.252108  0.851424  1
  Br  Br16  1  0.219417  0.747892  0.148576  1
