# generated using pymatgen
data_LiEu2ScSn2
_symmetry_space_group_name_H-M   'P 1'
_cell_length_a   4.92102900
_cell_length_b   7.99625700
_cell_length_c   8.78720300
_cell_angle_alpha   90.00000000
_cell_angle_beta   90.00000000
_cell_angle_gamma   90.00000000
_symmetry_Int_Tables_number   1
_chemical_formula_structural   LiEu2ScSn2
_chemical_formula_sum   'Li2 Eu4 Sc2 Sn4'
_cell_volume   345.77479123
_cell_formula_units_Z   2
loop_
 _symmetry_equiv_pos_site_id
 _symmetry_equiv_pos_as_xyz
  1  'x, y, z'
loop_
 _atom_site_type_symbol
 _atom_site_label
 _atom_site_symmetry_multiplicity
 _atom_site_fract_x
 _atom_site_fract_y
 _atom_site_fract_z
 _atom_site_occupancy
  Li  Li0  1  0.250000  0.148892  0.934945  1
  Li  Li1  1  0.250000  0.648892  0.565055  1
  Eu  Eu2  1  0.250000  0.010650  0.307655  1
  Eu  Eu3  1  0.250000  0.510650  0.192345  1
  Eu  Eu4  1  0.750000  0.991143  0.696785  1
  Eu  Eu5  1  0.750000  0.491143  0.803215  1
  Sc  Sc6  1  0.750000  0.848070  0.074909  1
  Sc  Sc7  1  0.750000  0.348070  0.425091  1
  Sn  Sn8  1  0.250000  0.279866  0.600605  1
  Sn  Sn9  1  0.250000  0.779866  0.899395  1
  Sn  Sn10  1  0.750000  0.721379  0.397488  1
  Sn  Sn11  1  0.750000  0.221379  0.102512  1
