# generated using pymatgen
data_KBa2Be8TlAs8
_symmetry_space_group_name_H-M   'P 1'
_cell_length_a   7.58217179
_cell_length_b   8.36618590
_cell_length_c   7.42537670
_cell_angle_alpha   63.74170673
_cell_angle_beta   75.87086819
_cell_angle_gamma   96.54294605
_symmetry_Int_Tables_number   1
_chemical_formula_structural   KBa2Be8TlAs8
_chemical_formula_sum   'K1 Ba2 Be8 Tl1 As8'
_cell_volume   396.07197247
_cell_formula_units_Z   1
loop_
 _symmetry_equiv_pos_site_id
 _symmetry_equiv_pos_as_xyz
  1  'x, y, z'
loop_
 _atom_site_type_symbol
 _atom_site_label
 _atom_site_symmetry_multiplicity
 _atom_site_fract_x
 _atom_site_fract_y
 _atom_site_fract_z
 _atom_site_occupancy
  K  K0  1  0.999857  0.016671  0.991543  1
  Ba  Ba1  1  0.000145  0.977457  0.511507  1
  Ba  Ba2  1  0.000192  0.510652  0.244059  1
  Be  Be3  1  0.497901  0.624396  0.312300  1
  Be  Be4  1  0.498046  0.623640  0.814996  1
  Be  Be5  1  0.500281  0.126007  0.062270  1
  Be  Be6  1  0.496009  0.126162  0.562437  1
  Be  Be7  1  0.499012  0.374191  0.686893  1
  Be  Be8  1  0.503238  0.376944  0.186747  1
  Be  Be9  1  0.502754  0.875987  0.436988  1
  Be  Be10  1  0.502614  0.876758  0.935647  1
  Tl  Tl11  1  0.999970  0.485854  0.756997  1
  As  As12  1  0.302200  0.327449  0.508956  1
  As  As13  1  0.304764  0.326217  0.012033  1
  As  As14  1  0.307524  0.827893  0.258759  1
  As  As15  1  0.306030  0.826436  0.760522  1
  As  As16  1  0.693028  0.671782  0.490932  1
  As  As17  1  0.695448  0.674704  0.989423  1
  As  As18  1  0.696102  0.175097  0.240190  1
  As  As19  1  0.694886  0.175701  0.736801  1
