# generated using pymatgen
data_CaMnCu(Sb6Os)2
_symmetry_space_group_name_H-M   'P 1'
_cell_length_a   8.15925531
_cell_length_b   8.13135166
_cell_length_c   8.10807002
_cell_angle_alpha   109.44470532
_cell_angle_beta   109.51606683
_cell_angle_gamma   109.52151657
_symmetry_Int_Tables_number   1
_chemical_formula_structural   CaMnCu(Sb6Os)2
_chemical_formula_sum   'Ca1 Mn1 Cu1 Sb12 Os2'
_cell_volume   413.75219744
_cell_formula_units_Z   1
loop_
 _symmetry_equiv_pos_site_id
 _symmetry_equiv_pos_as_xyz
  1  'x, y, z'
loop_
 _atom_site_type_symbol
 _atom_site_label
 _atom_site_symmetry_multiplicity
 _atom_site_fract_x
 _atom_site_fract_y
 _atom_site_fract_z
 _atom_site_occupancy
  Ca  Ca0  1  0.000000  0.000000  0.000000  1
  Mn  Mn1  1  0.000000  0.500000  0.000000  1
  Cu  Cu2  1  0.500000  0.000000  0.000000  1
  Sb  Sb3  1  0.841423  0.660151  0.503505  1
  Sb  Sb4  1  0.158577  0.339849  0.496495  1
  Sb  Sb5  1  0.147031  0.650145  0.817053  1
  Sb  Sb6  1  0.852969  0.349855  0.182947  1
  Sb  Sb7  1  0.672546  0.504737  0.845403  1
  Sb  Sb8  1  0.327454  0.495263  0.154597  1
  Sb  Sb9  1  0.658540  0.810983  0.156834  1
  Sb  Sb10  1  0.341460  0.189017  0.843166  1
  Sb  Sb11  1  0.502334  0.843881  0.654907  1
  Sb  Sb12  1  0.497666  0.156119  0.345093  1
  Sb  Sb13  1  0.172688  0.834373  0.328764  1
  Sb  Sb14  1  0.827312  0.165627  0.671236  1
  Os  Os15  1  0.500000  0.500000  0.500000  1
  Os  Os16  1  0.000000  0.000000  0.500000  1
