# generated using pymatgen
data_Gd5(CoTe)2
_symmetry_space_group_name_H-M   'P 1'
_cell_length_a   4.05234400
_cell_length_b   7.88114742
_cell_length_c   15.20895000
_cell_angle_alpha   90.00000000
_cell_angle_beta   90.00000000
_cell_angle_gamma   75.10247842
_symmetry_Int_Tables_number   1
_chemical_formula_structural   Gd5(CoTe)2
_chemical_formula_sum   'Gd10 Co4 Te4'
_cell_volume   469.40332133
_cell_formula_units_Z   2
loop_
 _symmetry_equiv_pos_site_id
 _symmetry_equiv_pos_as_xyz
  1  'x, y, z'
loop_
 _atom_site_type_symbol
 _atom_site_label
 _atom_site_symmetry_multiplicity
 _atom_site_fract_x
 _atom_site_fract_y
 _atom_site_fract_z
 _atom_site_occupancy
  Gd  Gd0  1  0.039801  0.920397  0.125446  1
  Gd  Gd1  1  0.742383  0.515236  0.129682  1
  Gd  Gd2  1  0.394091  0.211814  0.250000  1
  Gd  Gd3  1  0.742383  0.515236  0.370318  1
  Gd  Gd4  1  0.039801  0.920397  0.374554  1
  Gd  Gd5  1  0.960199  0.079603  0.625446  1
  Gd  Gd6  1  0.257618  0.484762  0.629682  1
  Gd  Gd7  1  0.605909  0.788186  0.750000  1
  Gd  Gd8  1  0.257618  0.484762  0.870318  1
  Gd  Gd9  1  0.960199  0.079603  0.874554  1
  Co  Co10  1  0.178615  0.642769  0.250000  1
  Co  Co11  1  0.591466  0.817070  0.250000  1
  Co  Co12  1  0.408535  0.182928  0.750000  1
  Co  Co13  1  0.821385  0.357230  0.750000  1
  Te  Te14  1  0.382509  0.234980  0.039007  1
  Te  Te15  1  0.382509  0.234980  0.460993  1
  Te  Te16  1  0.617492  0.765019  0.539007  1
  Te  Te17  1  0.617492  0.765019  0.960993  1
