# generated using pymatgen
data_CaZr(SiTc2)4
_symmetry_space_group_name_H-M   'P 1'
_cell_length_a   7.32412023
_cell_length_b   7.32412023
_cell_length_c   4.13162200
_cell_angle_alpha   90.00000000
_cell_angle_beta   90.00000000
_cell_angle_gamma   88.59791556
_symmetry_Int_Tables_number   1
_chemical_formula_structural   CaZr(SiTc2)4
_chemical_formula_sum   'Ca1 Zr1 Si4 Tc8'
_cell_volume   221.56515653
_cell_formula_units_Z   1
loop_
 _symmetry_equiv_pos_site_id
 _symmetry_equiv_pos_as_xyz
  1  'x, y, z'
loop_
 _atom_site_type_symbol
 _atom_site_label
 _atom_site_symmetry_multiplicity
 _atom_site_fract_x
 _atom_site_fract_y
 _atom_site_fract_z
 _atom_site_occupancy
  Ca  Ca0  1  0.500000  0.500000  0.000000  1
  Zr  Zr1  1  0.000000  0.000000  0.500000  1
  Si  Si2  1  0.201619  0.798381  0.000000  1
  Si  Si3  1  0.286558  0.286558  0.500000  1
  Si  Si4  1  0.713442  0.713442  0.500000  1
  Si  Si5  1  0.798381  0.201619  0.000000  1
  Tc  Tc6  1  0.603520  0.150564  0.500000  1
  Tc  Tc7  1  0.396480  0.849436  0.500000  1
  Tc  Tc8  1  0.150564  0.603520  0.500000  1
  Tc  Tc9  1  0.849436  0.396480  0.500000  1
  Tc  Tc10  1  0.087276  0.340689  0.000000  1
  Tc  Tc11  1  0.912724  0.659311  0.000000  1
  Tc  Tc12  1  0.659311  0.912724  0.000000  1
  Tc  Tc13  1  0.340689  0.087276  0.000000  1
