# generated using pymatgen
data_Dy9Ho11(Bi2P)4
_symmetry_space_group_name_H-M   'P 1'
_cell_length_a   7.97767202
_cell_length_b   8.96573400
_cell_length_c   12.13562803
_cell_angle_alpha   89.99795776
_cell_angle_beta   89.99290641
_cell_angle_gamma   90.00129176
_symmetry_Int_Tables_number   1
_chemical_formula_structural   Dy9Ho11(Bi2P)4
_chemical_formula_sum   'Dy9 Ho11 Bi8 P4'
_cell_volume   868.00910300
_cell_formula_units_Z   1
loop_
 _symmetry_equiv_pos_site_id
 _symmetry_equiv_pos_as_xyz
  1  'x, y, z'
loop_
 _atom_site_type_symbol
 _atom_site_label
 _atom_site_symmetry_multiplicity
 _atom_site_fract_x
 _atom_site_fract_y
 _atom_site_fract_z
 _atom_site_occupancy
  Dy  Dy0  1  0.850100  0.749973  0.793993  1
  Dy  Dy1  1  0.149912  0.250026  0.206049  1
  Dy  Dy2  1  0.350141  0.250010  0.706089  1
  Dy  Dy3  1  0.649917  0.750039  0.293911  1
  Dy  Dy4  1  0.375770  0.750024  0.699684  1
  Dy  Dy5  1  0.624265  0.249992  0.300268  1
  Dy  Dy6  1  0.875759  0.250066  0.800387  1
  Dy  Dy7  1  0.124295  0.749990  0.199645  1
  Dy  Dy8  1  0.682616  0.050308  0.564040  1
  Ho  Ho9  1  0.958355  0.749984  0.501936  1
  Ho  Ho10  1  0.041793  0.250003  0.497979  1
  Ho  Ho11  1  0.458265  0.250018  0.998040  1
  Ho  Ho12  1  0.541710  0.749987  0.001974  1
  Ho  Ho13  1  0.317588  0.949510  0.436019  1
  Ho  Ho14  1  0.182404  0.949510  0.936023  1
  Ho  Ho15  1  0.317552  0.550458  0.436039  1
  Ho  Ho16  1  0.817618  0.050452  0.063979  1
  Ho  Ho17  1  0.682380  0.449627  0.564011  1
  Ho  Ho18  1  0.817610  0.449573  0.064000  1
  Ho  Ho19  1  0.182378  0.550508  0.936016  1
  Bi  Bi20  1  0.576523  0.490705  0.826836  1
  Bi  Bi21  1  0.423486  0.509284  0.173150  1
  Bi  Bi22  1  0.076520  0.509289  0.673154  1
  Bi  Bi23  1  0.423469  0.990720  0.173148  1
  Bi  Bi24  1  0.923503  0.490721  0.326823  1
  Bi  Bi25  1  0.576490  0.009301  0.826895  1
  Bi  Bi26  1  0.923483  0.009316  0.326780  1
  Bi  Bi27  1  0.076541  0.990731  0.673190  1
  P  P28  1  0.575212  0.749654  0.512809  1
  P  P29  1  0.424414  0.250237  0.487092  1
  P  P30  1  0.075340  0.249982  0.987178  1
  P  P31  1  0.924591  0.750000  0.012863  1
