# generated using pymatgen
data_NaSrTm2(ReN3)4
_symmetry_space_group_name_H-M   'P 1'
_cell_length_a   7.37220144
_cell_length_b   7.37220373
_cell_length_c   6.22974746
_cell_angle_alpha   75.62426491
_cell_angle_beta   75.62425793
_cell_angle_gamma   85.30899318
_symmetry_Int_Tables_number   1
_chemical_formula_structural   NaSrTm2(ReN3)4
_chemical_formula_sum   'Na1 Sr1 Tm2 Re4 N12'
_cell_volume   317.63847080
_cell_formula_units_Z   1
loop_
 _symmetry_equiv_pos_site_id
 _symmetry_equiv_pos_as_xyz
  1  'x, y, z'
loop_
 _atom_site_type_symbol
 _atom_site_label
 _atom_site_symmetry_multiplicity
 _atom_site_fract_x
 _atom_site_fract_y
 _atom_site_fract_z
 _atom_site_occupancy
  Na  Na0  1  0.292275  0.707725  0.750000  1
  Sr  Sr1  1  0.702361  0.297639  0.250000  1
  Tm  Tm2  1  0.913911  0.086089  0.750000  1
  Tm  Tm3  1  0.095061  0.904939  0.250000  1
  Re  Re4  1  0.625222  0.798706  0.252902  1
  Re  Re5  1  0.201294  0.374778  0.247098  1
  Re  Re6  1  0.375305  0.205854  0.748653  1
  Re  Re7  1  0.794146  0.624695  0.751347  1
  N  N8  1  0.346233  0.354899  0.960288  1
  N  N9  1  0.020650  0.198754  0.356474  1
  N  N10  1  0.801246  0.979350  0.143526  1
  N  N11  1  0.206569  0.020565  0.858747  1
  N  N12  1  0.657210  0.648216  0.040300  1
  N  N13  1  0.880277  0.388373  0.799650  1
  N  N14  1  0.103938  0.603643  0.209222  1
  N  N15  1  0.979435  0.793431  0.641253  1
  N  N16  1  0.396357  0.896062  0.290778  1
  N  N17  1  0.645101  0.653767  0.539712  1
  N  N18  1  0.611627  0.119723  0.700350  1
  N  N19  1  0.351784  0.342790  0.459700  1
