# generated using pymatgen
data_TmTh3Mg2(ZnRh2)2
_symmetry_space_group_name_H-M   'P 1'
_cell_length_a   4.03165200
_cell_length_b   7.20147905
_cell_length_c   8.60449686
_cell_angle_alpha   90.65640988
_cell_angle_beta   90.00000000
_cell_angle_gamma   90.00000000
_symmetry_Int_Tables_number   1
_chemical_formula_structural   TmTh3Mg2(ZnRh2)2
_chemical_formula_sum   'Tm1 Th3 Mg2 Zn2 Rh4'
_cell_volume   249.80534031
_cell_formula_units_Z   1
loop_
 _symmetry_equiv_pos_site_id
 _symmetry_equiv_pos_as_xyz
  1  'x, y, z'
loop_
 _atom_site_type_symbol
 _atom_site_label
 _atom_site_symmetry_multiplicity
 _atom_site_fract_x
 _atom_site_fract_y
 _atom_site_fract_z
 _atom_site_occupancy
  Tm  Tm0  1  0.250000  0.049648  0.313562  1
  Th  Th1  1  0.250000  0.547923  0.191200  1
  Th  Th2  1  0.750000  0.450230  0.817843  1
  Th  Th3  1  0.750000  0.949643  0.674692  1
  Mg  Mg4  1  0.750000  0.365648  0.444972  1
  Mg  Mg5  1  0.750000  0.885974  0.059296  1
  Zn  Zn6  1  0.250000  0.624552  0.558199  1
  Zn  Zn7  1  0.250000  0.127668  0.942087  1
  Rh  Rh8  1  0.250000  0.737074  0.870117  1
  Rh  Rh9  1  0.750000  0.269616  0.123105  1
  Rh  Rh10  1  0.750000  0.756337  0.372176  1
  Rh  Rh11  1  0.250000  0.235689  0.632750  1
