# generated using pymatgen
data_Ta8NbNi2GePt2
_symmetry_space_group_name_H-M   'P 1'
_cell_length_a   5.12882632
_cell_length_b   9.80261413
_cell_length_c   9.81363846
_cell_angle_alpha   86.04948034
_cell_angle_beta   74.85213006
_cell_angle_gamma   74.83468316
_symmetry_Int_Tables_number   1
_chemical_formula_structural   Ta8NbNi2GePt2
_chemical_formula_sum   'Ta16 Nb2 Ni4 Ge2 Pt4'
_cell_volume   459.66121570
_cell_formula_units_Z   2
loop_
 _symmetry_equiv_pos_site_id
 _symmetry_equiv_pos_as_xyz
  1  'x, y, z'
loop_
 _atom_site_type_symbol
 _atom_site_label
 _atom_site_symmetry_multiplicity
 _atom_site_fract_x
 _atom_site_fract_y
 _atom_site_fract_z
 _atom_site_occupancy
  Ta  Ta0  1  0.750102  0.500000  0.500000  1
  Ta  Ta1  1  0.249898  0.500000  0.500000  1
  Ta  Ta2  1  0.790200  0.780252  0.639345  1
  Ta  Ta3  1  0.209800  0.219748  0.360655  1
  Ta  Ta4  1  0.710193  0.359595  0.220021  1
  Ta  Ta5  1  0.289807  0.640405  0.779979  1
  Ta  Ta6  1  0.570519  0.639280  0.219685  1
  Ta  Ta7  1  0.429481  0.360720  0.780315  1
  Ta  Ta8  1  0.070414  0.219777  0.639397  1
  Ta  Ta9  1  0.929586  0.780223  0.360603  1
  Ta  Ta10  1  0.585580  0.077043  0.751798  1
  Ta  Ta11  1  0.414420  0.922957  0.248202  1
  Ta  Ta12  1  0.914712  0.247659  0.922917  1
  Ta  Ta13  1  0.085288  0.752341  0.077083  1
  Ta  Ta14  1  0.662455  0.751591  0.923499  1
  Ta  Ta15  1  0.337545  0.248409  0.076501  1
  Nb  Nb16  1  0.161612  0.922731  0.754047  1
  Nb  Nb17  1  0.838388  0.077269  0.245953  1
  Ni  Ni18  1  0.500000  0.000000  0.500000  1
  Ni  Ni19  1  0.000000  0.000000  0.500000  1
  Ni  Ni20  1  0.500000  0.500000  0.000000  1
  Ni  Ni21  1  0.000000  0.500000  0.000000  1
  Ge  Ge22  1  0.250144  0.000000  0.000000  1
  Ge  Ge23  1  0.749856  0.000000  0.000000  1
  Pt  Pt24  1  0.130129  0.500175  0.239567  1
  Pt  Pt25  1  0.869871  0.499825  0.760433  1
  Pt  Pt26  1  0.370025  0.760386  0.499564  1
  Pt  Pt27  1  0.629975  0.239614  0.500436  1
