# generated using pymatgen
data_DyEr4AlSb2
_symmetry_space_group_name_H-M   'P 1'
_cell_length_a   8.83103385
_cell_length_b   8.82791351
_cell_length_c   6.35681300
_cell_angle_alpha   90.00000000
_cell_angle_beta   90.00000000
_cell_angle_gamma   119.98830604
_symmetry_Int_Tables_number   1
_chemical_formula_structural   DyEr4AlSb2
_chemical_formula_sum   'Dy2 Er8 Al2 Sb4'
_cell_volume   429.23077272
_cell_formula_units_Z   2
loop_
 _symmetry_equiv_pos_site_id
 _symmetry_equiv_pos_as_xyz
  1  'x, y, z'
loop_
 _atom_site_type_symbol
 _atom_site_label
 _atom_site_symmetry_multiplicity
 _atom_site_fract_x
 _atom_site_fract_y
 _atom_site_fract_z
 _atom_site_occupancy
  Dy  Dy0  1  0.008667  0.766497  0.750000  1
  Dy  Dy1  1  0.008667  0.242170  0.250000  1
  Er  Er2  1  0.755381  0.756513  0.250000  1
  Er  Er3  1  0.755381  0.998869  0.750000  1
  Er  Er4  1  0.242067  0.232519  0.750000  1
  Er  Er5  1  0.242067  0.009548  0.250000  1
  Er  Er6  1  0.335865  0.667933  0.500000  1
  Er  Er7  1  0.655672  0.327836  0.000000  1
  Er  Er8  1  0.655672  0.327836  0.500000  1
  Er  Er9  1  0.335865  0.667933  0.000000  1
  Al  Al10  1  0.398258  0.997315  0.750000  1
  Al  Al11  1  0.398258  0.400942  0.250000  1
  Sb  Sb12  1  0.998546  0.606791  0.250000  1
  Sb  Sb13  1  0.998546  0.391754  0.750000  1
  Sb  Sb14  1  0.605543  0.604935  0.750000  1
  Sb  Sb15  1  0.605543  0.000608  0.250000  1
