# generated using pymatgen
data_Nd2SmPa(BiTe)4
_symmetry_space_group_name_H-M   'P 1'
_cell_length_a   4.46526700
_cell_length_b   4.46536900
_cell_length_c   18.86157407
_cell_angle_alpha   90.00433619
_cell_angle_beta   90.00000000
_cell_angle_gamma   90.00000000
_symmetry_Int_Tables_number   1
_chemical_formula_structural   Nd2SmPa(BiTe)4
_chemical_formula_sum   'Nd2 Sm1 Pa1 Bi4 Te4'
_cell_volume   376.08214736
_cell_formula_units_Z   1
loop_
 _symmetry_equiv_pos_site_id
 _symmetry_equiv_pos_as_xyz
  1  'x, y, z'
loop_
 _atom_site_type_symbol
 _atom_site_label
 _atom_site_symmetry_multiplicity
 _atom_site_fract_x
 _atom_site_fract_y
 _atom_site_fract_z
 _atom_site_occupancy
  Nd  Nd0  1  0.750000  0.255941  0.357962  1
  Nd  Nd1  1  0.750000  0.244676  0.861771  1
  Sm  Sm2  1  0.250000  0.743450  0.641218  1
  Pa  Pa3  1  0.250000  0.754231  0.139829  1
  Bi  Bi4  1  0.250000  0.251505  0.005413  1
  Bi  Bi5  1  0.750000  0.750588  0.497915  1
  Bi  Bi6  1  0.250000  0.250034  0.497889  1
  Bi  Bi7  1  0.750000  0.751187  0.005438  1
  Te  Te8  1  0.750000  0.255114  0.180369  1
  Te  Te9  1  0.250000  0.756583  0.308199  1
  Te  Te10  1  0.750000  0.242853  0.687431  1
  Te  Te11  1  0.250000  0.743839  0.816568  1
