# generated using pymatgen
data_Pr8Ho2InSi4Ge
_symmetry_space_group_name_H-M   'P 1'
_cell_length_a   7.71751600
_cell_length_b   9.28565522
_cell_length_c   7.71751600
_cell_angle_alpha   114.55466949
_cell_angle_beta   90.00000000
_cell_angle_gamma   114.55466949
_symmetry_Int_Tables_number   1
_chemical_formula_structural   Pr8Ho2InSi4Ge
_chemical_formula_sum   'Pr8 Ho2 In1 Si4 Ge1'
_cell_volume   447.46747300
_cell_formula_units_Z   1
loop_
 _symmetry_equiv_pos_site_id
 _symmetry_equiv_pos_as_xyz
  1  'x, y, z'
loop_
 _atom_site_type_symbol
 _atom_site_label
 _atom_site_symmetry_multiplicity
 _atom_site_fract_x
 _atom_site_fract_y
 _atom_site_fract_z
 _atom_site_occupancy
  Pr  Pr0  1  0.525051  0.721907  0.673853  1
  Pr  Pr1  1  0.196858  0.721907  0.048056  1
  Pr  Pr2  1  0.673853  0.721907  0.196858  1
  Pr  Pr3  1  0.048056  0.721907  0.525051  1
  Pr  Pr4  1  0.451944  0.278093  0.303142  1
  Pr  Pr5  1  0.826147  0.278093  0.974949  1
  Pr  Pr6  1  0.303142  0.278093  0.826147  1
  Pr  Pr7  1  0.974949  0.278093  0.451944  1
  Ho  Ho8  1  0.979946  0.959892  0.979946  1
  Ho  Ho9  1  0.520054  0.040108  0.520054  1
  In  In10  1  0.750000  0.500000  0.750000  1
  Si  Si11  1  0.880701  0.000000  0.619299  1
  Si  Si12  1  0.119299  0.000000  0.380701  1
  Si  Si13  1  0.619299  0.000000  0.119299  1
  Si  Si14  1  0.380701  0.000000  0.880701  1
  Ge  Ge15  1  0.250000  0.500000  0.250000  1
