# generated using pymatgen
data_AuI28
_symmetry_space_group_name_H-M   'P 1'
_cell_length_a   10.67681737
_cell_length_b   14.33344904
_cell_length_c   12.98270300
_cell_angle_alpha   108.44914254
_cell_angle_beta   105.43469067
_cell_angle_gamma   86.57346759
_symmetry_Int_Tables_number   1
_chemical_formula_structural   AuI28
_chemical_formula_sum   'Au1 I28'
_cell_volume   1816.08072199
_cell_formula_units_Z   1
loop_
 _symmetry_equiv_pos_site_id
 _symmetry_equiv_pos_as_xyz
  1  'x, y, z'
loop_
 _atom_site_type_symbol
 _atom_site_label
 _atom_site_symmetry_multiplicity
 _atom_site_fract_x
 _atom_site_fract_y
 _atom_site_fract_z
 _atom_site_occupancy
  Au  Au0  1  0.500000  0.000000  0.000000  1
  I  I1  1  0.065735  0.092647  0.403677  1
  I  I2  1  0.567965  0.145287  0.403679  1
  I  I3  1  0.269778  0.249596  0.856499  1
  I  I4  1  0.764869  0.283118  0.856604  1
  I  I5  1  0.218192  0.484125  0.656098  1
  I  I6  1  0.806791  0.581119  0.733463  1
  I  I7  1  0.432035  0.854713  0.596321  1
  I  I8  1  0.934265  0.907353  0.596323  1
  I  I9  1  0.235131  0.716882  0.143396  1
  I  I10  1  0.730222  0.750404  0.143501  1
  I  I11  1  0.193209  0.418881  0.266537  1
  I  I12  1  0.781808  0.515875  0.343902  1
  I  I13  1  0.851845  0.089738  0.734997  1
  I  I14  1  0.314076  0.949822  0.804786  1
  I  I15  1  0.024412  0.645897  0.943116  1
  I  I16  1  0.528951  0.805600  0.962826  1
  I  I17  1  0.664595  0.380112  0.404614  1
  I  I18  1  0.136020  0.255522  0.334393  1
  I  I19  1  0.685924  0.050178  0.195214  1
  I  I20  1  0.148155  0.910262  0.265003  1
  I  I21  1  0.471049  0.194400  0.037174  1
  I  I22  1  0.975588  0.354103  0.056884  1
  I  I23  1  0.863980  0.744478  0.665607  1
  I  I24  1  0.335405  0.619888  0.595386  1
  I  I25  1  0.076461  0.326059  0.706349  1
  I  I26  1  0.483119  0.227724  0.597086  1
  I  I27  1  0.516881  0.772276  0.402914  1
  I  I28  1  0.923539  0.673941  0.293651  1
