# generated using pymatgen
data_Pu3AgSn3Ir2
_symmetry_space_group_name_H-M   'P 1'
_cell_length_a   7.54652413
_cell_length_b   7.54652559
_cell_length_c   4.10580200
_cell_angle_alpha   90.00000000
_cell_angle_beta   90.00000000
_cell_angle_gamma   119.99999633
_symmetry_Int_Tables_number   1
_chemical_formula_structural   Pu3AgSn3Ir2
_chemical_formula_sum   'Pu3 Ag1 Sn3 Ir2'
_cell_volume   202.49889768
_cell_formula_units_Z   1
loop_
 _symmetry_equiv_pos_site_id
 _symmetry_equiv_pos_as_xyz
  1  'x, y, z'
loop_
 _atom_site_type_symbol
 _atom_site_label
 _atom_site_symmetry_multiplicity
 _atom_site_fract_x
 _atom_site_fract_y
 _atom_site_fract_z
 _atom_site_occupancy
  Pu  Pu0  1  0.607584  0.027188  0.000000  1
  Pu  Pu1  1  0.972812  0.580396  0.000000  1
  Pu  Pu2  1  0.419604  0.392416  0.000000  1
  Ag  Ag3  1  0.333333  0.666667  0.500000  1
  Sn  Sn4  1  0.250140  0.995847  0.500000  1
  Sn  Sn5  1  0.004153  0.254293  0.500000  1
  Sn  Sn6  1  0.745707  0.749860  0.500000  1
  Ir  Ir7  1  0.666667  0.333333  0.500000  1
  Ir  Ir8  1  0.000000  0.000000  0.000000  1
