# generated using pymatgen
data_La5U(Sb4Pt3)2
_symmetry_space_group_name_H-M   'P 1'
_cell_length_a   8.67486420
_cell_length_b   8.68331442
_cell_length_c   8.67409100
_cell_angle_alpha   109.48731731
_cell_angle_beta   109.42244620
_cell_angle_gamma   109.46730748
_symmetry_Int_Tables_number   1
_chemical_formula_structural   La5U(Sb4Pt3)2
_chemical_formula_sum   'La5 U1 Sb8 Pt6'
_cell_volume   503.20639290
_cell_formula_units_Z   1
loop_
 _symmetry_equiv_pos_site_id
 _symmetry_equiv_pos_as_xyz
  1  'x, y, z'
loop_
 _atom_site_type_symbol
 _atom_site_label
 _atom_site_symmetry_multiplicity
 _atom_site_fract_x
 _atom_site_fract_y
 _atom_site_fract_z
 _atom_site_occupancy
  La  La0  1  0.624851  0.749975  0.374746  1
  La  La1  1  0.251885  0.125755  0.874258  1
  La  La2  1  0.748453  0.374205  0.626064  1
  La  La3  1  0.125703  0.877811  0.251866  1
  La  La4  1  0.374106  0.622212  0.747910  1
  U  U5  1  0.875412  0.249986  0.125401  1
  Sb  Sb6  1  0.669856  0.503465  0.003741  1
  Sb  Sb7  1  0.500271  0.996542  0.666413  1
  Sb  Sb8  1  0.997690  0.667855  0.500672  1
  Sb  Sb9  1  0.832720  0.832093  0.829749  1
  Sb  Sb10  1  0.499570  0.997460  0.166826  1
  Sb  Sb11  1  0.169311  0.502549  0.002104  1
  Sb  Sb12  1  0.996682  0.166779  0.499583  1
  Sb  Sb13  1  0.332807  0.333222  0.329869  1
  Pt  Pt14  1  0.375278  0.249989  0.625333  1
  Pt  Pt15  1  0.125355  0.750137  0.875419  1
  Pt  Pt16  1  0.220370  0.600657  0.359366  1
  Pt  Pt17  1  0.758700  0.899342  0.119697  1
  Pt  Pt18  1  0.640666  0.361032  0.241390  1
  Pt  Pt19  1  0.880315  0.138934  0.779591  1
