# generated using pymatgen
data_La2TbDyB4I5
_symmetry_space_group_name_H-M   'P 1'
_cell_length_a   9.86010156
_cell_length_b   9.86010030
_cell_length_c   9.76856038
_cell_angle_alpha   75.52161647
_cell_angle_beta   75.52161894
_cell_angle_gamma   25.31581258
_symmetry_Int_Tables_number   1
_chemical_formula_structural   La2TbDyB4I5
_chemical_formula_sum   'La2 Tb1 Dy1 B4 I5'
_cell_volume   392.54629095
_cell_formula_units_Z   1
loop_
 _symmetry_equiv_pos_site_id
 _symmetry_equiv_pos_as_xyz
  1  'x, y, z'
loop_
 _atom_site_type_symbol
 _atom_site_label
 _atom_site_symmetry_multiplicity
 _atom_site_fract_x
 _atom_site_fract_y
 _atom_site_fract_z
 _atom_site_occupancy
  La  La0  1  0.134985  0.134985  0.930686  1
  La  La1  1  0.866951  0.866951  0.067921  1
  Tb  Tb2  1  0.503084  0.503084  0.752819  1
  Dy  Dy3  1  0.498900  0.498900  0.245056  1
  B  B4  1  0.315715  0.686169  0.999768  1
  B  B5  1  0.686169  0.315715  0.999768  1
  B  B6  1  0.000902  0.000902  0.097055  1
  B  B7  1  0.001011  0.001011  0.902628  1
  I  I8  1  0.669822  0.669822  0.664298  1
  I  I9  1  0.332635  0.332635  0.334477  1
  I  I10  1  0.331603  0.331603  0.830988  1
  I  I11  1  0.670440  0.670440  0.166702  1
  I  I12  1  0.002084  0.002084  0.498032  1
