# generated using pymatgen
data_Dy11ThTc3Ru
_symmetry_space_group_name_H-M   'P 1'
_cell_length_a   6.30833762
_cell_length_b   7.36380463
_cell_length_c   9.24967500
_cell_angle_alpha   90.00000000
_cell_angle_beta   90.00000000
_cell_angle_gamma   90.34684200
_symmetry_Int_Tables_number   1
_chemical_formula_structural   Dy11ThTc3Ru
_chemical_formula_sum   'Dy11 Th1 Tc3 Ru1'
_cell_volume   429.67066351
_cell_formula_units_Z   1
loop_
 _symmetry_equiv_pos_site_id
 _symmetry_equiv_pos_as_xyz
  1  'x, y, z'
loop_
 _atom_site_type_symbol
 _atom_site_label
 _atom_site_symmetry_multiplicity
 _atom_site_fract_x
 _atom_site_fract_y
 _atom_site_fract_z
 _atom_site_occupancy
  Dy  Dy0  1  0.336278  0.677844  0.064044  1
  Dy  Dy1  1  0.163218  0.176241  0.437870  1
  Dy  Dy2  1  0.664353  0.321687  0.566240  1
  Dy  Dy3  1  0.834522  0.825657  0.934127  1
  Dy  Dy4  1  0.664353  0.321687  0.933760  1
  Dy  Dy5  1  0.834522  0.825657  0.565873  1
  Dy  Dy6  1  0.336278  0.677844  0.435956  1
  Dy  Dy7  1  0.163218  0.176241  0.062130  1
  Dy  Dy8  1  0.625892  0.042285  0.250000  1
  Dy  Dy9  1  0.132990  0.460551  0.750000  1
  Dy  Dy10  1  0.370071  0.954987  0.750000  1
  Th  Th11  1  0.863380  0.549151  0.250000  1
  Tc  Tc12  1  0.023120  0.871569  0.250000  1
  Tc  Tc13  1  0.484519  0.388533  0.250000  1
  Tc  Tc14  1  0.966925  0.115777  0.750000  1
  Ru  Ru15  1  0.536364  0.614290  0.750000  1
