# generated using pymatgen
data_NdHoMnIr3
_symmetry_space_group_name_H-M   'P 1'
_cell_length_a   5.23257807
_cell_length_b   5.23257921
_cell_length_c   5.23257767
_cell_angle_alpha   63.65791683
_cell_angle_beta   63.65791119
_cell_angle_gamma   63.65791859
_symmetry_Int_Tables_number   1
_chemical_formula_structural   NdHoMnIr3
_chemical_formula_sum   'Nd1 Ho1 Mn1 Ir3'
_cell_volume   109.48937469
_cell_formula_units_Z   1
loop_
 _symmetry_equiv_pos_site_id
 _symmetry_equiv_pos_as_xyz
  1  'x, y, z'
loop_
 _atom_site_type_symbol
 _atom_site_label
 _atom_site_symmetry_multiplicity
 _atom_site_fract_x
 _atom_site_fract_y
 _atom_site_fract_z
 _atom_site_occupancy
  Nd  Nd0  1  0.250082  0.250082  0.250082  1
  Ho  Ho1  1  0.998185  0.998185  0.998185  1
  Mn  Mn2  1  0.625374  0.625374  0.625374  1
  Ir  Ir3  1  0.626123  0.626123  0.124110  1
  Ir  Ir4  1  0.626123  0.124110  0.626123  1
  Ir  Ir5  1  0.124110  0.626123  0.626123  1
