# generated using pymatgen
data_HoTm15Cd4CoNi3
_symmetry_space_group_name_H-M   'P 1'
_cell_length_a   9.41296750
_cell_length_b   9.41296764
_cell_length_c   9.41296645
_cell_angle_alpha   60.01155476
_cell_angle_beta   60.01155389
_cell_angle_gamma   60.01155814
_symmetry_Int_Tables_number   1
_chemical_formula_structural   HoTm15Cd4CoNi3
_chemical_formula_sum   'Ho1 Tm15 Cd4 Co1 Ni3'
_cell_volume   589.90000128
_cell_formula_units_Z   1
loop_
 _symmetry_equiv_pos_site_id
 _symmetry_equiv_pos_as_xyz
  1  'x, y, z'
loop_
 _atom_site_type_symbol
 _atom_site_label
 _atom_site_symmetry_multiplicity
 _atom_site_fract_x
 _atom_site_fract_y
 _atom_site_fract_z
 _atom_site_occupancy
  Ho  Ho0  1  0.348969  0.348969  0.348969  1
  Tm  Tm1  1  0.346250  0.346250  0.957038  1
  Tm  Tm2  1  0.346250  0.957038  0.346250  1
  Tm  Tm3  1  0.957038  0.346250  0.346250  1
  Tm  Tm4  1  0.815147  0.187908  0.187908  1
  Tm  Tm5  1  0.188675  0.811185  0.811185  1
  Tm  Tm6  1  0.187908  0.815147  0.187908  1
  Tm  Tm7  1  0.811185  0.188675  0.811185  1
  Tm  Tm8  1  0.187908  0.187908  0.815147  1
  Tm  Tm9  1  0.811185  0.811185  0.188675  1
  Tm  Tm10  1  0.935891  0.563980  0.563980  1
  Tm  Tm11  1  0.562323  0.936752  0.936752  1
  Tm  Tm12  1  0.563980  0.935891  0.563980  1
  Tm  Tm13  1  0.936752  0.562323  0.936752  1
  Tm  Tm14  1  0.563980  0.563980  0.935891  1
  Tm  Tm15  1  0.936752  0.936752  0.562323  1
  Cd  Cd16  1  0.581238  0.581238  0.581238  1
  Cd  Cd17  1  0.581839  0.581839  0.255652  1
  Cd  Cd18  1  0.581839  0.255652  0.581839  1
  Cd  Cd19  1  0.255652  0.581839  0.581839  1
  Co  Co20  1  0.142047  0.142047  0.142047  1
  Ni  Ni21  1  0.141571  0.141571  0.574051  1
  Ni  Ni22  1  0.141571  0.574051  0.141571  1
  Ni  Ni23  1  0.574051  0.141571  0.141571  1
