# generated using pymatgen
data_Sm3Th5(Si3Pd)4
_symmetry_space_group_name_H-M   'P 1'
_cell_length_a   8.24331308
_cell_length_b   8.24719371
_cell_length_c   8.48057500
_cell_angle_alpha   90.00000000
_cell_angle_beta   90.00000000
_cell_angle_gamma   119.95886386
_symmetry_Int_Tables_number   1
_chemical_formula_structural   Sm3Th5(Si3Pd)4
_chemical_formula_sum   'Sm3 Th5 Si12 Pd4'
_cell_volume   499.50954694
_cell_formula_units_Z   1
loop_
 _symmetry_equiv_pos_site_id
 _symmetry_equiv_pos_as_xyz
  1  'x, y, z'
loop_
 _atom_site_type_symbol
 _atom_site_label
 _atom_site_symmetry_multiplicity
 _atom_site_fract_x
 _atom_site_fract_y
 _atom_site_fract_z
 _atom_site_occupancy
  Sm  Sm0  1  0.500458  0.001021  0.250000  1
  Sm  Sm1  1  0.499415  0.998868  0.750000  1
  Sm  Sm2  1  0.998914  0.499450  0.250000  1
  Th  Th3  1  0.001048  0.500566  0.750000  1
  Th  Th4  1  0.500406  0.499468  0.250000  1
  Th  Th5  1  0.499519  0.500520  0.750000  1
  Th  Th6  1  0.000016  0.000006  0.250000  1
  Th  Th7  1  0.000002  0.999993  0.750000  1
  Si  Si8  1  0.164812  0.330317  0.000329  1
  Si  Si9  1  0.835178  0.669663  0.999502  1
  Si  Si10  1  0.668095  0.834946  0.000506  1
  Si  Si11  1  0.835178  0.669663  0.500498  1
  Si  Si12  1  0.331981  0.165110  0.999560  1
  Si  Si13  1  0.164812  0.330317  0.499671  1
  Si  Si14  1  0.167108  0.833858  0.000167  1
  Si  Si15  1  0.331981  0.165110  0.500440  1
  Si  Si16  1  0.832881  0.166162  0.999180  1
  Si  Si17  1  0.668095  0.834946  0.499494  1
  Si  Si18  1  0.832881  0.166162  0.500820  1
  Si  Si19  1  0.167108  0.833858  0.499833  1
  Pd  Pd20  1  0.333477  0.665411  0.999651  1
  Pd  Pd21  1  0.666579  0.334585  0.996439  1
  Pd  Pd22  1  0.666579  0.334585  0.503561  1
  Pd  Pd23  1  0.333477  0.665411  0.500349  1
