# generated using pymatgen
data_KGa2Ag3
_symmetry_space_group_name_H-M   'P 1'
_cell_length_a   5.48447100
_cell_length_b   7.34706600
_cell_length_c   13.96071500
_cell_angle_alpha   90.00000000
_cell_angle_beta   90.00000000
_cell_angle_gamma   90.00000000
_symmetry_Int_Tables_number   1
_chemical_formula_structural   KGa2Ag3
_chemical_formula_sum   'K4 Ga8 Ag12'
_cell_volume   562.54380571
_cell_formula_units_Z   4
loop_
 _symmetry_equiv_pos_site_id
 _symmetry_equiv_pos_as_xyz
  1  'x, y, z'
loop_
 _atom_site_type_symbol
 _atom_site_label
 _atom_site_symmetry_multiplicity
 _atom_site_fract_x
 _atom_site_fract_y
 _atom_site_fract_z
 _atom_site_occupancy
  K  K0  1  0.250000  0.126181  0.081923  1
  K  K1  1  0.250000  0.373819  0.581923  1
  K  K2  1  0.750000  0.873819  0.918077  1
  K  K3  1  0.750000  0.626181  0.418077  1
  Ga  Ga4  1  0.000561  0.863371  0.649015  1
  Ga  Ga5  1  0.499439  0.636629  0.149015  1
  Ga  Ga6  1  0.500561  0.136629  0.350985  1
  Ga  Ga7  1  0.999439  0.363371  0.850985  1
  Ga  Ga8  1  0.999439  0.136629  0.350985  1
  Ga  Ga9  1  0.500561  0.363371  0.850985  1
  Ga  Ga10  1  0.499439  0.863371  0.649015  1
  Ga  Ga11  1  0.000561  0.636629  0.149015  1
  Ag  Ag12  1  0.250000  0.076811  0.781046  1
  Ag  Ag13  1  0.250000  0.423189  0.281046  1
  Ag  Ag14  1  0.750000  0.923189  0.218954  1
  Ag  Ag15  1  0.750000  0.576811  0.718954  1
  Ag  Ag16  1  0.250000  0.663728  0.781312  1
  Ag  Ag17  1  0.250000  0.836272  0.281312  1
  Ag  Ag18  1  0.750000  0.336272  0.218688  1
  Ag  Ag19  1  0.750000  0.163728  0.718688  1
  Ag  Ag20  1  0.250000  0.570733  0.985462  1
  Ag  Ag21  1  0.250000  0.929267  0.485462  1
  Ag  Ag22  1  0.750000  0.429267  0.014538  1
  Ag  Ag23  1  0.750000  0.070733  0.514538  1
