# generated using pymatgen
data_Rb2TaAgSe4
_symmetry_space_group_name_H-M   'P 1'
_cell_length_a   14.46477456
_cell_length_b   12.90660379
_cell_length_c   7.84637177
_cell_angle_alpha   84.64104091
_cell_angle_beta   62.67016012
_cell_angle_gamma   32.68880805
_symmetry_Int_Tables_number   1
_chemical_formula_structural   Rb2TaAgSe4
_chemical_formula_sum   'Rb4 Ta2 Ag2 Se8'
_cell_volume   556.54653770
_cell_formula_units_Z   2
loop_
 _symmetry_equiv_pos_site_id
 _symmetry_equiv_pos_as_xyz
  1  'x, y, z'
loop_
 _atom_site_type_symbol
 _atom_site_label
 _atom_site_symmetry_multiplicity
 _atom_site_fract_x
 _atom_site_fract_y
 _atom_site_fract_z
 _atom_site_occupancy
  Rb  Rb0  1  0.070743  0.070743  0.429257  1
  Rb  Rb1  1  0.179257  0.179257  0.820743  1
  Rb  Rb2  1  0.429257  0.429257  0.070743  1
  Rb  Rb3  1  0.820743  0.820743  0.179257  1
  Ta  Ta4  1  0.000000  0.000000  0.000000  1
  Ta  Ta5  1  0.250000  0.250000  0.250000  1
  Ag  Ag6  1  0.500000  0.500000  0.500000  1
  Ag  Ag7  1  0.750000  0.750000  0.750000  1
  Se  Se8  1  0.060371  0.825948  0.738833  1
  Se  Se9  1  0.374848  0.738833  0.825948  1
  Se  Se10  1  0.738833  0.374848  0.060371  1
  Se  Se11  1  0.825948  0.060371  0.374848  1
  Se  Se12  1  0.189629  0.424052  0.511167  1
  Se  Se13  1  0.424052  0.189629  0.875152  1
  Se  Se14  1  0.511167  0.875152  0.189629  1
  Se  Se15  1  0.875152  0.511167  0.424052  1
