# generated using pymatgen
data_NaLi3LaP12Ir19
_symmetry_space_group_name_H-M   'P 1'
_cell_length_a   12.62284841
_cell_length_b   12.62893021
_cell_length_c   3.94961900
_cell_angle_alpha   90.00000000
_cell_angle_beta   90.00000000
_cell_angle_gamma   119.92989511
_symmetry_Int_Tables_number   1
_chemical_formula_structural   NaLi3LaP12Ir19
_chemical_formula_sum   'Na1 Li3 La1 P12 Ir19'
_cell_volume   545.65247285
_cell_formula_units_Z   1
loop_
 _symmetry_equiv_pos_site_id
 _symmetry_equiv_pos_as_xyz
  1  'x, y, z'
loop_
 _atom_site_type_symbol
 _atom_site_label
 _atom_site_symmetry_multiplicity
 _atom_site_fract_x
 _atom_site_fract_y
 _atom_site_fract_z
 _atom_site_occupancy
  Na  Na0  1  0.183174  0.181355  0.500000  1
  Li  Li1  1  0.001593  0.819331  0.500000  1
  Li  Li2  1  0.333688  0.667930  0.000000  1
  Li  Li3  1  0.665598  0.332130  0.000000  1
  La  La4  1  0.823353  0.999474  0.500000  1
  P  P5  1  0.009097  0.186628  0.000000  1
  P  P6  1  0.823248  0.812565  0.000000  1
  P  P7  1  0.180564  0.998746  0.000000  1
  P  P8  1  0.510881  0.689112  0.500000  1
  P  P9  1  0.309293  0.822029  0.500000  1
  P  P10  1  0.178972  0.491505  0.500000  1
  P  P11  1  0.486955  0.177615  0.500000  1
  P  P12  1  0.687775  0.508944  0.500000  1
  P  P13  1  0.821297  0.311087  0.500000  1
  P  P14  1  0.999720  0.640987  0.000000  1
  P  P15  1  0.360078  0.360264  0.000000  1
  P  P16  1  0.636250  0.999961  0.000000  1
  Ir  Ir17  1  0.000788  0.294581  0.500000  1
  Ir  Ir18  1  0.707598  0.706305  0.500000  1
  Ir  Ir19  1  0.290966  0.999313  0.500000  1
  Ir  Ir20  1  0.619951  0.799958  0.000000  1
  Ir  Ir21  1  0.194486  0.816960  0.000000  1
  Ir  Ir22  1  0.184513  0.382874  0.000000  1
  Ir  Ir23  1  0.380032  0.182721  0.000000  1
  Ir  Ir24  1  0.803411  0.618573  0.000000  1
  Ir  Ir25  1  0.819963  0.199468  0.000000  1
  Ir  Ir26  1  0.506648  0.868955  0.500000  1
  Ir  Ir27  1  0.128185  0.638941  0.500000  1
  Ir  Ir28  1  0.361738  0.493662  0.500000  1
  Ir  Ir29  1  0.490134  0.361655  0.500000  1
  Ir  Ir30  1  0.868453  0.507204  0.500000  1
  Ir  Ir31  1  0.637661  0.131096  0.500000  1
  Ir  Ir32  1  0.999511  0.997618  0.000000  1
  Ir  Ir33  1  0.997809  0.457859  0.000000  1
  Ir  Ir34  1  0.540700  0.542651  0.000000  1
  Ir  Ir35  1  0.455915  0.999945  0.000000  1
