# generated using pymatgen
data_Sm(Fe2Tc)4
_symmetry_space_group_name_H-M   'P 1'
_cell_length_a   4.73646511
_cell_length_b   6.56142985
_cell_length_c   6.56142833
_cell_angle_alpha   82.49199956
_cell_angle_beta   68.84619171
_cell_angle_gamma   68.84619241
_symmetry_Int_Tables_number   1
_chemical_formula_structural   Sm(Fe2Tc)4
_chemical_formula_sum   'Sm1 Fe8 Tc4'
_cell_volume   177.36013014
_cell_formula_units_Z   1
loop_
 _symmetry_equiv_pos_site_id
 _symmetry_equiv_pos_as_xyz
  1  'x, y, z'
loop_
 _atom_site_type_symbol
 _atom_site_label
 _atom_site_symmetry_multiplicity
 _atom_site_fract_x
 _atom_site_fract_y
 _atom_site_fract_z
 _atom_site_occupancy
  Sm  Sm0  1  0.000000  0.000000  0.000000  1
  Fe  Fe1  1  0.000000  0.000000  0.500000  1
  Fe  Fe2  1  0.500000  0.000000  0.500000  1
  Fe  Fe3  1  0.500000  0.500000  0.000000  1
  Fe  Fe4  1  0.000000  0.500000  0.000000  1
  Fe  Fe5  1  0.500000  0.780531  0.219469  1
  Fe  Fe6  1  0.500000  0.219469  0.780531  1
  Fe  Fe7  1  0.719493  0.780515  0.780515  1
  Fe  Fe8  1  0.280507  0.219485  0.219485  1
  Tc  Tc9  1  0.000000  0.360488  0.639512  1
  Tc  Tc10  1  0.000000  0.639512  0.360488  1
  Tc  Tc11  1  0.639544  0.360461  0.360461  1
  Tc  Tc12  1  0.360456  0.639539  0.639539  1
