# generated using pymatgen
data_La10Bi6As
_symmetry_space_group_name_H-M   'P 1'
_cell_length_a   7.01598328
_cell_length_b   9.67256993
_cell_length_c   9.66967200
_cell_angle_alpha   120.00045169
_cell_angle_beta   90.01606344
_cell_angle_gamma   89.98263269
_symmetry_Int_Tables_number   1
_chemical_formula_structural   La10Bi6As
_chemical_formula_sum   'La10 Bi6 As1'
_cell_volume   568.29102357
_cell_formula_units_Z   1
loop_
 _symmetry_equiv_pos_site_id
 _symmetry_equiv_pos_as_xyz
  1  'x, y, z'
loop_
 _atom_site_type_symbol
 _atom_site_label
 _atom_site_symmetry_multiplicity
 _atom_site_fract_x
 _atom_site_fract_y
 _atom_site_fract_z
 _atom_site_occupancy
  La  La0  1  0.500063  0.333217  0.666381  1
  La  La1  1  0.499986  0.666914  0.333612  1
  La  La2  1  0.999929  0.666810  0.333427  1
  La  La3  1  0.000050  0.333345  0.666424  1
  La  La4  1  0.748333  0.251527  0.000035  1
  La  La5  1  0.748070  0.748386  0.748447  1
  La  La6  1  0.748156  0.999875  0.251458  1
  La  La7  1  0.251714  0.748447  0.000123  1
  La  La8  1  0.251782  0.251519  0.251498  1
  La  La9  1  0.251846  0.999974  0.748516  1
  Bi  Bi10  1  0.750862  0.609541  0.999949  1
  Bi  Bi11  1  0.750992  0.390343  0.390265  1
  Bi  Bi12  1  0.751052  0.000116  0.609760  1
  Bi  Bi13  1  0.249121  0.390376  0.999996  1
  Bi  Bi14  1  0.249044  0.609644  0.609691  1
  Bi  Bi15  1  0.249011  0.000009  0.390405  1
  As  As16  1  0.499991  0.999960  0.000011  1
