# generated using pymatgen
data_MnAg6Rh2F18
_symmetry_space_group_name_H-M   'P 1'
_cell_length_a   9.75121701
_cell_length_b   9.75373969
_cell_length_c   5.22154272
_cell_angle_alpha   89.97671085
_cell_angle_beta   89.96552482
_cell_angle_gamma   119.99133229
_symmetry_Int_Tables_number   1
_chemical_formula_structural   MnAg6Rh2F18
_chemical_formula_sum   'Mn1 Ag6 Rh2 F18'
_cell_volume   430.12744240
_cell_formula_units_Z   1
loop_
 _symmetry_equiv_pos_site_id
 _symmetry_equiv_pos_as_xyz
  1  'x, y, z'
loop_
 _atom_site_type_symbol
 _atom_site_label
 _atom_site_symmetry_multiplicity
 _atom_site_fract_x
 _atom_site_fract_y
 _atom_site_fract_z
 _atom_site_occupancy
  Mn  Mn0  1  0.666669  0.333286  0.503769  1
  Ag  Ag1  1  0.999576  0.624499  0.001410  1
  Ag  Ag2  1  0.997498  0.291198  0.501129  1
  Ag  Ag3  1  0.375658  0.375321  0.001273  1
  Ag  Ag4  1  0.293886  0.002762  0.500730  1
  Ag  Ag5  1  0.708744  0.706036  0.501006  1
  Ag  Ag6  1  0.624784  0.000154  0.001066  1
  Rh  Rh7  1  0.333225  0.666743  0.499214  1
  Rh  Rh8  1  0.000013  0.000036  0.996149  1
  F  F9  1  0.088464  0.893223  0.787020  1
  F  F10  1  0.219023  0.745191  0.286443  1
  F  F11  1  0.141235  0.544681  0.712720  1
  F  F12  1  0.403231  0.858720  0.712342  1
  F  F13  1  0.254955  0.474006  0.286819  1
  F  F14  1  0.106919  0.195280  0.786923  1
  F  F15  1  0.195306  0.108005  0.205485  1
  F  F16  1  0.455353  0.596798  0.712712  1
  F  F17  1  0.526206  0.780983  0.286434  1
  F  F18  1  0.485762  0.264639  0.708372  1
  F  F19  1  0.600555  0.447758  0.297859  1
  F  F20  1  0.804909  0.911612  0.786958  1
  F  F21  1  0.552300  0.152722  0.298023  1
  F  F22  1  0.778566  0.513876  0.708513  1
  F  F23  1  0.912502  0.804520  0.205482  1
  F  F24  1  0.735188  0.221065  0.708566  1
  F  F25  1  0.847499  0.399459  0.298081  1
  F  F26  1  0.891975  0.087426  0.205503  1
