# generated using pymatgen
data_DyEr3Ga4(CuIr)2
_symmetry_space_group_name_H-M   'P 1'
_cell_length_a   4.34345700
_cell_length_b   6.86094606
_cell_length_c   7.58250507
_cell_angle_alpha   89.98474366
_cell_angle_beta   90.00078873
_cell_angle_gamma   90.00089951
_symmetry_Int_Tables_number   1
_chemical_formula_structural   DyEr3Ga4(CuIr)2
_chemical_formula_sum   'Dy1 Er3 Ga4 Cu2 Ir2'
_cell_volume   225.96034292
_cell_formula_units_Z   1
loop_
 _symmetry_equiv_pos_site_id
 _symmetry_equiv_pos_as_xyz
  1  'x, y, z'
loop_
 _atom_site_type_symbol
 _atom_site_label
 _atom_site_symmetry_multiplicity
 _atom_site_fract_x
 _atom_site_fract_y
 _atom_site_fract_z
 _atom_site_occupancy
  Dy  Dy0  1  0.749997  0.022361  0.688608  1
  Er  Er1  1  0.249998  0.989754  0.296380  1
  Er  Er2  1  0.250001  0.489767  0.203164  1
  Er  Er3  1  0.750001  0.522995  0.811602  1
  Ga  Ga4  1  0.249999  0.326619  0.579871  1
  Ga  Ga5  1  0.249999  0.825827  0.920452  1
  Ga  Ga6  1  0.750003  0.672405  0.432445  1
  Ga  Ga7  1  0.750005  0.172953  0.067858  1
  Cu  Cu8  1  0.250002  0.214885  0.899307  1
  Cu  Cu9  1  0.250003  0.714124  0.600988  1
  Ir  Ir10  1  0.749999  0.773637  0.102191  1
  Ir  Ir11  1  0.749994  0.274673  0.397136  1
