# generated using pymatgen
data_Yb4BeRu7
_symmetry_space_group_name_H-M   'P 1'
_cell_length_a   5.22360477
_cell_length_b   5.21001941
_cell_length_c   8.70292800
_cell_angle_alpha   90.00000000
_cell_angle_beta   90.00000000
_cell_angle_gamma   120.09308791
_symmetry_Int_Tables_number   1
_chemical_formula_structural   Yb4BeRu7
_chemical_formula_sum   'Yb4 Be1 Ru7'
_cell_volume   204.92622196
_cell_formula_units_Z   1
loop_
 _symmetry_equiv_pos_site_id
 _symmetry_equiv_pos_as_xyz
  1  'x, y, z'
loop_
 _atom_site_type_symbol
 _atom_site_label
 _atom_site_symmetry_multiplicity
 _atom_site_fract_x
 _atom_site_fract_y
 _atom_site_fract_z
 _atom_site_occupancy
  Yb  Yb0  1  0.667046  0.334095  0.564073  1
  Yb  Yb1  1  0.331104  0.662177  0.435033  1
  Yb  Yb2  1  0.331104  0.662177  0.064967  1
  Yb  Yb3  1  0.667046  0.334095  0.935927  1
  Be  Be4  1  0.166966  0.333933  0.750000  1
  Ru  Ru5  1  0.991531  0.983056  0.508902  1
  Ru  Ru6  1  0.991531  0.983056  0.991098  1
  Ru  Ru7  1  0.186983  0.840743  0.750000  1
  Ru  Ru8  1  0.653718  0.840748  0.750000  1
  Ru  Ru9  1  0.838153  0.676258  0.250000  1
  Ru  Ru10  1  0.826774  0.174824  0.250000  1
  Ru  Ru11  1  0.348043  0.174840  0.250000  1
