# generated using pymatgen
data_Yb2Si4Pt7
_symmetry_space_group_name_H-M   'P 1'
_cell_length_a   4.00573300
_cell_length_b   11.30279900
_cell_length_c   19.61589500
_cell_angle_alpha   90.00000000
_cell_angle_beta   90.00000000
_cell_angle_gamma   90.00000000
_symmetry_Int_Tables_number   1
_chemical_formula_structural   Yb2Si4Pt7
_chemical_formula_sum   'Yb8 Si16 Pt28'
_cell_volume   888.12916289
_cell_formula_units_Z   4
loop_
 _symmetry_equiv_pos_site_id
 _symmetry_equiv_pos_as_xyz
  1  'x, y, z'
loop_
 _atom_site_type_symbol
 _atom_site_label
 _atom_site_symmetry_multiplicity
 _atom_site_fract_x
 _atom_site_fract_y
 _atom_site_fract_z
 _atom_site_occupancy
  Yb  Yb0  1  0.750000  0.744986  0.026280  1
  Yb  Yb1  1  0.750000  0.755014  0.526280  1
  Yb  Yb2  1  0.250000  0.255014  0.973720  1
  Yb  Yb3  1  0.250000  0.015278  0.279391  1
  Yb  Yb4  1  0.250000  0.244986  0.473720  1
  Yb  Yb5  1  0.750000  0.984722  0.720609  1
  Yb  Yb6  1  0.250000  0.484722  0.779391  1
  Yb  Yb7  1  0.750000  0.515278  0.220609  1
  Si  Si8  1  0.750000  0.420841  0.413832  1
  Si  Si9  1  0.250000  0.288366  0.257423  1
  Si  Si10  1  0.250000  0.563016  0.085804  1
  Si  Si11  1  0.250000  0.920841  0.086168  1
  Si  Si12  1  0.250000  0.211634  0.757423  1
  Si  Si13  1  0.750000  0.248299  0.595920  1
  Si  Si14  1  0.750000  0.436984  0.914196  1
  Si  Si15  1  0.250000  0.748299  0.904080  1
  Si  Si16  1  0.250000  0.936984  0.585804  1
  Si  Si17  1  0.750000  0.063016  0.414196  1
  Si  Si18  1  0.750000  0.711634  0.742577  1
  Si  Si19  1  0.750000  0.788366  0.242577  1
  Si  Si20  1  0.250000  0.751701  0.404080  1
  Si  Si21  1  0.750000  0.251701  0.095920  1
  Si  Si22  1  0.250000  0.579159  0.586168  1
  Si  Si23  1  0.750000  0.079159  0.913832  1
  Pt  Pt24  1  0.750000  0.452155  0.042844  1
  Pt  Pt25  1  0.750000  0.618211  0.372612  1
  Pt  Pt26  1  0.750000  0.434819  0.533208  1
  Pt  Pt27  1  0.750000  0.881789  0.872612  1
  Pt  Pt28  1  0.750000  0.065181  0.033208  1
  Pt  Pt29  1  0.250000  0.547845  0.957156  1
  Pt  Pt30  1  0.250000  0.118211  0.127388  1
  Pt  Pt31  1  0.750000  0.561469  0.659658  1
  Pt  Pt32  1  0.750000  0.938531  0.159658  1
  Pt  Pt33  1  0.750000  0.259703  0.851680  1
  Pt  Pt34  1  0.250000  0.740297  0.148320  1
  Pt  Pt35  1  0.250000  0.381789  0.627388  1
  Pt  Pt36  1  0.250000  0.810833  0.784358  1
  Pt  Pt37  1  0.750000  0.240297  0.351680  1
  Pt  Pt38  1  0.750000  0.867679  0.364720  1
  Pt  Pt39  1  0.250000  0.934819  0.966792  1
  Pt  Pt40  1  0.250000  0.689167  0.284358  1
  Pt  Pt41  1  0.750000  0.310833  0.715642  1
  Pt  Pt42  1  0.750000  0.632321  0.864720  1
  Pt  Pt43  1  0.250000  0.061469  0.840342  1
  Pt  Pt44  1  0.250000  0.132321  0.635280  1
  Pt  Pt45  1  0.250000  0.952155  0.457156  1
  Pt  Pt46  1  0.750000  0.047845  0.542844  1
  Pt  Pt47  1  0.250000  0.565181  0.466792  1
  Pt  Pt48  1  0.250000  0.438531  0.340342  1
  Pt  Pt49  1  0.250000  0.759703  0.648320  1
  Pt  Pt50  1  0.250000  0.367679  0.135280  1
  Pt  Pt51  1  0.750000  0.189167  0.215642  1
