# generated using pymatgen
data_SmY(B2Rh3)3
_symmetry_space_group_name_H-M   'P 1'
_cell_length_a   5.62902300
_cell_length_b   5.62902332
_cell_length_c   8.58563800
_cell_angle_alpha   90.00000000
_cell_angle_beta   90.00000000
_cell_angle_gamma   120.00000398
_symmetry_Int_Tables_number   1
_chemical_formula_structural   SmY(B2Rh3)3
_chemical_formula_sum   'Sm1 Y1 B6 Rh9'
_cell_volume   235.59673020
_cell_formula_units_Z   1
loop_
 _symmetry_equiv_pos_site_id
 _symmetry_equiv_pos_as_xyz
  1  'x, y, z'
loop_
 _atom_site_type_symbol
 _atom_site_label
 _atom_site_symmetry_multiplicity
 _atom_site_fract_x
 _atom_site_fract_y
 _atom_site_fract_z
 _atom_site_occupancy
  Sm  Sm0  1  0.000000  0.000000  0.707538  1
  Y  Y1  1  0.000000  0.000000  0.291530  1
  B  B2  1  0.666667  0.333333  0.000573  1
  B  B3  1  0.333333  0.666667  0.000573  1
  B  B4  1  0.666667  0.333333  0.667412  1
  B  B5  1  0.333333  0.666667  0.667412  1
  B  B6  1  0.333333  0.666667  0.332195  1
  B  B7  1  0.666667  0.333333  0.332195  1
  Rh  Rh8  1  0.500000  0.500000  0.836166  1
  Rh  Rh9  1  0.500000  0.000000  0.836166  1
  Rh  Rh10  1  0.000000  0.500000  0.836166  1
  Rh  Rh11  1  0.500000  0.500000  0.164588  1
  Rh  Rh12  1  0.500000  0.000000  0.164588  1
  Rh  Rh13  1  0.000000  0.500000  0.164588  1
  Rh  Rh14  1  0.500000  0.500000  0.499436  1
  Rh  Rh15  1  0.500000  0.000000  0.499436  1
  Rh  Rh16  1  0.000000  0.500000  0.499436  1
