# generated using pymatgen
data_Ta6CoS12
_symmetry_space_group_name_H-M   'P 1'
_cell_length_a   5.76816449
_cell_length_b   5.76816467
_cell_length_c   12.67201589
_cell_angle_alpha   85.65856340
_cell_angle_beta   85.65856395
_cell_angle_gamma   120.00077163
_symmetry_Int_Tables_number   1
_chemical_formula_structural   Ta6CoS12
_chemical_formula_sum   'Ta6 Co1 S12'
_cell_volume   360.92151829
_cell_formula_units_Z   1
loop_
 _symmetry_equiv_pos_site_id
 _symmetry_equiv_pos_as_xyz
  1  'x, y, z'
loop_
 _atom_site_type_symbol
 _atom_site_label
 _atom_site_symmetry_multiplicity
 _atom_site_fract_x
 _atom_site_fract_y
 _atom_site_fract_z
 _atom_site_occupancy
  Ta  Ta0  1  0.078529  0.078529  0.764479  1
  Ta  Ta1  1  0.410259  0.743514  0.769219  1
  Ta  Ta2  1  0.743514  0.410259  0.769219  1
  Ta  Ta3  1  0.256486  0.589741  0.230781  1
  Ta  Ta4  1  0.589741  0.256486  0.230781  1
  Ta  Ta5  1  0.921471  0.921471  0.235521  1
  Co  Co6  1  0.000000  0.000000  0.000000  1
  S  S7  1  0.295197  0.295197  0.106916  1
  S  S8  1  0.633367  0.964303  0.106909  1
  S  S9  1  0.964303  0.633367  0.106909  1
  S  S10  1  0.035697  0.366633  0.893091  1
  S  S11  1  0.366633  0.035697  0.893091  1
  S  S12  1  0.704803  0.704803  0.893084  1
  S  S13  1  0.216333  0.216333  0.357950  1
  S  S14  1  0.545205  0.880856  0.357905  1
  S  S15  1  0.880856  0.545205  0.357905  1
  S  S16  1  0.119144  0.454795  0.642095  1
  S  S17  1  0.454795  0.119144  0.642095  1
  S  S18  1  0.783667  0.783667  0.642050  1
