# generated using pymatgen
data_TbHo3(Si4Tc3)2
_symmetry_space_group_name_H-M   'P 1'
_cell_length_a   6.79092778
_cell_length_b   6.77878751
_cell_length_c   6.77988237
_cell_angle_alpha   69.76141903
_cell_angle_beta   90.02096792
_cell_angle_gamma   89.95967468
_symmetry_Int_Tables_number   1
_chemical_formula_structural   TbHo3(Si4Tc3)2
_chemical_formula_sum   'Tb1 Ho3 Si8 Tc6'
_cell_volume   292.83732563
_cell_formula_units_Z   1
loop_
 _symmetry_equiv_pos_site_id
 _symmetry_equiv_pos_as_xyz
  1  'x, y, z'
loop_
 _atom_site_type_symbol
 _atom_site_label
 _atom_site_symmetry_multiplicity
 _atom_site_fract_x
 _atom_site_fract_y
 _atom_site_fract_z
 _atom_site_occupancy
  Tb  Tb0  1  0.667177  0.442103  0.190836  1
  Ho  Ho1  1  0.167776  0.057787  0.808482  1
  Ho  Ho2  1  0.332160  0.557878  0.808308  1
  Ho  Ho3  1  0.832278  0.942067  0.191603  1
  Si  Si4  1  0.448564  0.121767  0.102284  1
  Si  Si5  1  0.949036  0.377641  0.896706  1
  Si  Si6  1  0.551222  0.878347  0.896771  1
  Si  Si7  1  0.051983  0.622672  0.102362  1
  Si  Si8  1  0.858816  0.130726  0.513446  1
  Si  Si9  1  0.357880  0.368488  0.487818  1
  Si  Si10  1  0.141469  0.868473  0.487541  1
  Si  Si11  1  0.641575  0.631745  0.513679  1
  Tc  Tc12  1  0.499710  0.999198  0.500459  1
  Tc  Tc13  1  0.000426  0.500043  0.500338  1
  Tc  Tc14  1  0.150452  0.242442  0.239508  1
  Tc  Tc15  1  0.650191  0.257273  0.759967  1
  Tc  Tc16  1  0.850226  0.757826  0.760178  1
  Tc  Tc17  1  0.349061  0.743525  0.239714  1
