# generated using pymatgen
data_Pr3CCl3
_symmetry_space_group_name_H-M   'P 1'
_cell_length_a   9.73803059
_cell_length_b   9.73803129
_cell_length_c   9.73803100
_cell_angle_alpha   109.47122420
_cell_angle_beta   109.47122565
_cell_angle_gamma   109.47121710
_symmetry_Int_Tables_number   1
_chemical_formula_structural   Pr3CCl3
_chemical_formula_sum   'Pr12 C4 Cl12'
_cell_volume   710.87220661
_cell_formula_units_Z   4
loop_
 _symmetry_equiv_pos_site_id
 _symmetry_equiv_pos_as_xyz
  1  'x, y, z'
loop_
 _atom_site_type_symbol
 _atom_site_label
 _atom_site_symmetry_multiplicity
 _atom_site_fract_x
 _atom_site_fract_y
 _atom_site_fract_z
 _atom_site_occupancy
  Pr  Pr0  1  0.483212  0.750000  0.016788  1
  Pr  Pr1  1  0.750000  0.233212  0.266788  1
  Pr  Pr2  1  0.233212  0.266788  0.750000  1
  Pr  Pr3  1  0.466424  0.483212  0.233212  1
  Pr  Pr4  1  0.266788  0.016788  0.033576  1
  Pr  Pr5  1  0.233212  0.466424  0.483212  1
  Pr  Pr6  1  0.016788  0.033576  0.266788  1
  Pr  Pr7  1  0.016788  0.483212  0.750000  1
  Pr  Pr8  1  0.483212  0.233212  0.466424  1
  Pr  Pr9  1  0.750000  0.016788  0.483212  1
  Pr  Pr10  1  0.033576  0.266788  0.016788  1
  Pr  Pr11  1  0.266788  0.750000  0.233212  1
  C  C12  1  0.250000  0.250000  0.250000  1
  C  C13  1  0.000000  0.250000  0.500000  1
  C  C14  1  0.250000  0.500000  0.000000  1
  C  C15  1  0.500000  0.000000  0.250000  1
  Cl  Cl16  1  0.993211  0.986422  0.743211  1
  Cl  Cl17  1  0.756789  0.743211  0.250000  1
  Cl  Cl18  1  0.986422  0.743211  0.993211  1
  Cl  Cl19  1  0.250000  0.993211  0.506789  1
  Cl  Cl20  1  0.743211  0.993211  0.986422  1
  Cl  Cl21  1  0.506789  0.250000  0.993211  1
  Cl  Cl22  1  0.743211  0.250000  0.756789  1
  Cl  Cl23  1  0.506789  0.756789  0.513578  1
  Cl  Cl24  1  0.756789  0.513578  0.506789  1
  Cl  Cl25  1  0.250000  0.756789  0.743211  1
  Cl  Cl26  1  0.513578  0.506789  0.756789  1
  Cl  Cl27  1  0.993211  0.506789  0.250000  1
