# generated using pymatgen
data_Tb5Dy2LuAu4
_symmetry_space_group_name_H-M   'P 1'
_cell_length_a   4.94411600
_cell_length_b   7.17403162
_cell_length_c   8.94326464
_cell_angle_alpha   90.20196030
_cell_angle_beta   90.00000000
_cell_angle_gamma   90.00000000
_symmetry_Int_Tables_number   1
_chemical_formula_structural   Tb5Dy2LuAu4
_chemical_formula_sum   'Tb5 Dy2 Lu1 Au4'
_cell_volume   317.20886947
_cell_formula_units_Z   1
loop_
 _symmetry_equiv_pos_site_id
 _symmetry_equiv_pos_as_xyz
  1  'x, y, z'
loop_
 _atom_site_type_symbol
 _atom_site_label
 _atom_site_symmetry_multiplicity
 _atom_site_fract_x
 _atom_site_fract_y
 _atom_site_fract_z
 _atom_site_occupancy
  Tb  Tb0  1  0.750000  0.648494  0.417722  1
  Tb  Tb1  1  0.250000  0.483065  0.175747  1
  Tb  Tb2  1  0.250000  0.987541  0.324351  1
  Tb  Tb3  1  0.750000  0.513091  0.823980  1
  Tb  Tb4  1  0.750000  0.014140  0.677482  1
  Dy  Dy5  1  0.250000  0.851403  0.922245  1
  Dy  Dy6  1  0.250000  0.351771  0.580500  1
  Lu  Lu7  1  0.750000  0.148729  0.079093  1
  Au  Au8  1  0.250000  0.253806  0.903249  1
  Au  Au9  1  0.250000  0.755500  0.601054  1
  Au  Au10  1  0.750000  0.749690  0.098510  1
  Au  Au11  1  0.750000  0.242771  0.396066  1
