# generated using pymatgen
data_Er2MgSi5PPd20
_symmetry_space_group_name_H-M   'P 1'
_cell_length_a   8.66606883
_cell_length_b   8.66886795
_cell_length_c   8.66886845
_cell_angle_alpha   59.97864040
_cell_angle_beta   60.01068507
_cell_angle_gamma   60.01068715
_symmetry_Int_Tables_number   1
_chemical_formula_structural   Er2MgSi5PPd20
_chemical_formula_sum   'Er2 Mg1 Si5 P1 Pd20'
_cell_volume   460.50238899
_cell_formula_units_Z   1
loop_
 _symmetry_equiv_pos_site_id
 _symmetry_equiv_pos_as_xyz
  1  'x, y, z'
loop_
 _atom_site_type_symbol
 _atom_site_label
 _atom_site_symmetry_multiplicity
 _atom_site_fract_x
 _atom_site_fract_y
 _atom_site_fract_z
 _atom_site_occupancy
  Er  Er0  1  0.249668  0.250332  0.250332  1
  Er  Er1  1  0.749668  0.750332  0.750332  1
  Mg  Mg2  1  0.000744  0.999256  0.999256  1
  Si  Si3  1  0.266450  0.733550  0.733550  1
  Si  Si4  1  0.265563  0.734437  0.266680  1
  Si  Si5  1  0.733320  0.266680  0.734437  1
  Si  Si6  1  0.265563  0.266680  0.734437  1
  Si  Si7  1  0.733320  0.734437  0.266680  1
  P  P8  1  0.734422  0.265578  0.265578  1
  Pd  Pd9  1  0.344670  0.999593  0.999593  1
  Pd  Pd10  1  0.656143  0.999593  0.999593  1
  Pd  Pd11  1  0.000407  0.343857  0.655330  1
  Pd  Pd12  1  0.000407  0.655330  0.343857  1
  Pd  Pd13  1  0.998320  0.343403  0.001680  1
  Pd  Pd14  1  0.656597  0.001680  0.343403  1
  Pd  Pd15  1  0.000077  0.656016  0.999923  1
  Pd  Pd16  1  0.343984  0.999923  0.656016  1
  Pd  Pd17  1  0.998320  0.001680  0.343403  1
  Pd  Pd18  1  0.000077  0.999923  0.656016  1
  Pd  Pd19  1  0.656597  0.343403  0.001680  1
  Pd  Pd20  1  0.343984  0.656016  0.999923  1
  Pd  Pd21  1  0.384882  0.382787  0.382787  1
  Pd  Pd22  1  0.616982  0.616787  0.616787  1
  Pd  Pd23  1  0.383213  0.383018  0.850559  1
  Pd  Pd24  1  0.383213  0.850559  0.383018  1
  Pd  Pd25  1  0.617213  0.615118  0.150454  1
  Pd  Pd26  1  0.617213  0.150454  0.615118  1
  Pd  Pd27  1  0.849546  0.382787  0.382787  1
  Pd  Pd28  1  0.149441  0.616787  0.616787  1
