# generated using pymatgen
data_Er5Sc5(GaBi)3
_symmetry_space_group_name_H-M   'P 1'
_cell_length_a   8.61428000
_cell_length_b   8.58431884
_cell_length_c   6.20221200
_cell_angle_alpha   90.00000000
_cell_angle_beta   90.00000000
_cell_angle_gamma   120.11552286
_symmetry_Int_Tables_number   1
_chemical_formula_structural   Er5Sc5(GaBi)3
_chemical_formula_sum   'Er5 Sc5 Ga3 Bi3'
_cell_volume   396.73026190
_cell_formula_units_Z   1
loop_
 _symmetry_equiv_pos_site_id
 _symmetry_equiv_pos_as_xyz
  1  'x, y, z'
loop_
 _atom_site_type_symbol
 _atom_site_label
 _atom_site_symmetry_multiplicity
 _atom_site_fract_x
 _atom_site_fract_y
 _atom_site_fract_z
 _atom_site_occupancy
  Er  Er0  1  0.235664  0.000000  0.250000  1
  Er  Er1  1  0.242991  0.227723  0.750000  1
  Er  Er2  1  0.015268  0.772277  0.750000  1
  Er  Er3  1  0.016587  0.250406  0.250000  1
  Er  Er4  1  0.766181  0.749594  0.250000  1
  Sc  Sc5  1  0.325047  0.667008  0.005061  1
  Sc  Sc6  1  0.658040  0.332992  0.494939  1
  Sc  Sc7  1  0.658040  0.332992  0.005061  1
  Sc  Sc8  1  0.325047  0.667008  0.494939  1
  Sc  Sc9  1  0.752483  0.000000  0.750000  1
  Ga  Ga10  1  0.998707  0.599090  0.250000  1
  Ga  Ga11  1  0.399617  0.400910  0.250000  1
  Ga  Ga12  1  0.405518  0.000000  0.750000  1
  Bi  Bi13  1  0.606833  0.000000  0.250000  1
  Bi  Bi14  1  0.601480  0.608985  0.750000  1
  Bi  Bi15  1  0.992496  0.391015  0.750000  1
