# generated using pymatgen
data_K2NiF5
_symmetry_space_group_name_H-M   'P 1'
_cell_length_a   4.00785715
_cell_length_b   5.83119229
_cell_length_c   7.07972509
_cell_angle_alpha   89.63315254
_cell_angle_beta   55.51900658
_cell_angle_gamma   89.89181878
_symmetry_Int_Tables_number   1
_chemical_formula_structural   K2NiF5
_chemical_formula_sum   'K2 Ni1 F5'
_cell_volume   136.38569465
_cell_formula_units_Z   1
loop_
 _symmetry_equiv_pos_site_id
 _symmetry_equiv_pos_as_xyz
  1  'x, y, z'
loop_
 _atom_site_type_symbol
 _atom_site_label
 _atom_site_symmetry_multiplicity
 _atom_site_fract_x
 _atom_site_fract_y
 _atom_site_fract_z
 _atom_site_occupancy
  K  K0  1  0.125269  0.985700  0.396112  1
  K  K1  1  0.620877  0.489188  0.899759  1
  Ni  Ni2  1  0.125976  0.986377  0.895390  1
  F  F3  1  0.910657  0.216736  0.110260  1
  F  F4  1  0.895361  0.769924  0.126473  1
  F  F5  1  0.625374  0.985379  0.896069  1
  F  F6  1  0.356943  0.202487  0.664465  1
  F  F7  1  0.341194  0.755821  0.680712  1
