# generated using pymatgen
data_K3Ag(AsAu)2
_symmetry_space_group_name_H-M   'P 1'
_cell_length_a   7.88832045
_cell_length_b   7.88832019
_cell_length_c   7.69787221
_cell_angle_alpha   46.58829379
_cell_angle_beta   46.58829334
_cell_angle_gamma   47.36416031
_symmetry_Int_Tables_number   1
_chemical_formula_structural   K3Ag(AsAu)2
_chemical_formula_sum   'K3 Ag1 As2 Au2'
_cell_volume   232.91244268
_cell_formula_units_Z   1
loop_
 _symmetry_equiv_pos_site_id
 _symmetry_equiv_pos_as_xyz
  1  'x, y, z'
loop_
 _atom_site_type_symbol
 _atom_site_label
 _atom_site_symmetry_multiplicity
 _atom_site_fract_x
 _atom_site_fract_y
 _atom_site_fract_z
 _atom_site_occupancy
  K  K0  1  0.088535  0.088535  0.087569  1
  K  K1  1  0.911465  0.911465  0.912431  1
  K  K2  1  0.500000  0.500000  0.500000  1
  Ag  Ag3  1  0.500000  0.500000  0.000000  1
  As  As4  1  0.755496  0.755496  0.750277  1
  As  As5  1  0.244504  0.244504  0.249723  1
  Au  Au6  1  0.000000  0.500000  0.500000  1
  Au  Au7  1  0.500000  0.000000  0.500000  1
