# generated using pymatgen
data_Ho(ErPt4)3
_symmetry_space_group_name_H-M   'P 1'
_cell_length_a   5.76033100
_cell_length_b   5.76033120
_cell_length_c   8.12312300
_cell_angle_alpha   90.00000000
_cell_angle_beta   90.00000000
_cell_angle_gamma   90.01508901
_symmetry_Int_Tables_number   1
_chemical_formula_structural   Ho(ErPt4)3
_chemical_formula_sum   'Ho1 Er3 Pt12'
_cell_volume   269.53670098
_cell_formula_units_Z   1
loop_
 _symmetry_equiv_pos_site_id
 _symmetry_equiv_pos_as_xyz
  1  'x, y, z'
loop_
 _atom_site_type_symbol
 _atom_site_label
 _atom_site_symmetry_multiplicity
 _atom_site_fract_x
 _atom_site_fract_y
 _atom_site_fract_z
 _atom_site_occupancy
  Ho  Ho0  1  0.000000  0.500000  0.749983  1
  Er  Er1  1  0.500000  0.000000  0.249765  1
  Er  Er2  1  0.000000  0.500000  0.249916  1
  Er  Er3  1  0.500000  0.000000  0.750290  1
  Pt  Pt4  1  0.249897  0.250103  0.000239  1
  Pt  Pt5  1  0.750140  0.250140  0.499802  1
  Pt  Pt6  1  0.749238  0.249238  0.000319  1
  Pt  Pt7  1  0.750103  0.749897  0.000239  1
  Pt  Pt8  1  0.500000  0.500000  0.750067  1
  Pt  Pt9  1  0.250926  0.249074  0.499689  1
  Pt  Pt10  1  0.749074  0.750926  0.499689  1
  Pt  Pt11  1  0.249860  0.749860  0.499802  1
  Pt  Pt12  1  0.500000  0.500000  0.249908  1
  Pt  Pt13  1  0.000000  0.000000  0.750067  1
  Pt  Pt14  1  0.000000  0.000000  0.249908  1
  Pt  Pt15  1  0.250762  0.750762  0.000319  1
