# generated using pymatgen
data_Nd5TcMoO12
_symmetry_space_group_name_H-M   'P 1'
_cell_length_a   7.06175033
_cell_length_b   7.06174918
_cell_length_c   7.80287097
_cell_angle_alpha   73.91766560
_cell_angle_beta   73.91766934
_cell_angle_gamma   49.73868873
_symmetry_Int_Tables_number   1
_chemical_formula_structural   Nd5TcMoO12
_chemical_formula_sum   'Nd5 Tc1 Mo1 O12'
_cell_volume   282.75639805
_cell_formula_units_Z   1
loop_
 _symmetry_equiv_pos_site_id
 _symmetry_equiv_pos_as_xyz
  1  'x, y, z'
loop_
 _atom_site_type_symbol
 _atom_site_label
 _atom_site_symmetry_multiplicity
 _atom_site_fract_x
 _atom_site_fract_y
 _atom_site_fract_z
 _atom_site_occupancy
  Nd  Nd0  1  0.317314  0.296412  0.357986  1
  Nd  Nd1  1  0.703588  0.682686  0.642014  1
  Nd  Nd2  1  0.315914  0.307759  0.829099  1
  Nd  Nd3  1  0.692241  0.684086  0.170901  1
  Nd  Nd4  1  0.006100  0.993900  0.500000  1
  Tc  Tc5  1  0.765704  0.234296  0.000000  1
  Mo  Mo6  1  0.211689  0.788311  0.000000  1
  O  O7  1  0.908058  0.421498  0.919324  1
  O  O8  1  0.408188  0.902996  0.921496  1
  O  O9  1  0.097004  0.591812  0.078504  1
  O  O10  1  0.578502  0.091942  0.080676  1
  O  O11  1  0.103811  0.589883  0.574442  1
  O  O12  1  0.596382  0.088385  0.579667  1
  O  O13  1  0.911615  0.403618  0.420333  1
  O  O14  1  0.410117  0.896189  0.425558  1
  O  O15  1  0.993579  0.007416  0.805085  1
  O  O16  1  0.992584  0.006421  0.194915  1
  O  O17  1  0.493794  0.506183  0.829038  1
  O  O18  1  0.493817  0.506206  0.170962  1
