# generated using pymatgen
data_Er2Tm4TcSb2
_symmetry_space_group_name_H-M   'P 1'
_cell_length_a   8.08003100
_cell_length_b   8.08408363
_cell_length_c   4.23621100
_cell_angle_alpha   90.00000000
_cell_angle_beta   90.00000000
_cell_angle_gamma   119.98342230
_symmetry_Int_Tables_number   1
_chemical_formula_structural   Er2Tm4TcSb2
_chemical_formula_sum   'Er2 Tm4 Tc1 Sb2'
_cell_volume   239.67600853
_cell_formula_units_Z   1
loop_
 _symmetry_equiv_pos_site_id
 _symmetry_equiv_pos_as_xyz
  1  'x, y, z'
loop_
 _atom_site_type_symbol
 _atom_site_label
 _atom_site_symmetry_multiplicity
 _atom_site_fract_x
 _atom_site_fract_y
 _atom_site_fract_z
 _atom_site_occupancy
  Er  Er0  1  0.000127  0.605932  0.500000  1
  Er  Er1  1  0.394195  0.394068  0.500000  1
  Tm  Tm2  1  0.235416  0.000000  0.000000  1
  Tm  Tm3  1  0.764503  0.764685  0.000000  1
  Tm  Tm4  1  0.999818  0.235315  0.000000  1
  Tm  Tm5  1  0.606105  0.000000  0.500000  1
  Tc  Tc6  1  0.999674  0.000000  0.500000  1
  Sb  Sb7  1  0.333504  0.666849  0.000000  1
  Sb  Sb8  1  0.666657  0.333151  0.000000  1
