# generated using pymatgen
data_Sr6La2FeCo2NiO16
_symmetry_space_group_name_H-M   'P 1'
_cell_length_a   5.43504700
_cell_length_b   12.64638021
_cell_length_c   5.46104800
_cell_angle_alpha   89.98957507
_cell_angle_beta   90.00002108
_cell_angle_gamma   89.99941556
_symmetry_Int_Tables_number   1
_chemical_formula_structural   Sr6La2FeCo2NiO16
_chemical_formula_sum   'Sr6 La2 Fe1 Co2 Ni1 O16'
_cell_volume   375.35786934
_cell_formula_units_Z   1
loop_
 _symmetry_equiv_pos_site_id
 _symmetry_equiv_pos_as_xyz
  1  'x, y, z'
loop_
 _atom_site_type_symbol
 _atom_site_label
 _atom_site_symmetry_multiplicity
 _atom_site_fract_x
 _atom_site_fract_y
 _atom_site_fract_z
 _atom_site_occupancy
  Sr  Sr0  1  0.500023  0.143540  0.999988  1
  Sr  Sr1  1  0.499694  0.643626  0.499998  1
  Sr  Sr2  1  0.000035  0.141155  0.499982  1
  Sr  Sr3  1  0.999919  0.640847  0.000038  1
  Sr  Sr4  1  0.000212  0.356803  0.999965  1
  Sr  Sr5  1  0.000015  0.855994  0.500030  1
  La  La6  1  0.500409  0.359379  0.499987  1
  La  La7  1  0.499993  0.860029  0.000011  1
  Fe  Fe8  1  0.499996  0.502096  0.999976  1
  Co  Co9  1  0.999715  0.501385  0.500008  1
  Co  Co10  1  0.999990  0.001531  0.000007  1
  Ni  Ni11  1  0.500018  0.003194  0.499993  1
  O  O12  1  0.999827  0.341069  0.500005  1
  O  O13  1  0.999927  0.839695  0.000030  1
  O  O14  1  0.500211  0.338547  0.000018  1
  O  O15  1  0.499978  0.838089  0.500016  1
  O  O16  1  0.500048  0.172894  0.499989  1
  O  O17  1  0.499939  0.670812  0.999992  1
  O  O18  1  0.000012  0.156148  0.999964  1
  O  O19  1  0.000216  0.655201  0.500017  1
  O  O20  1  0.248094  0.497420  0.742174  1
  O  O21  1  0.239906  0.997219  0.236025  1
  O  O22  1  0.751803  0.497617  0.257741  1
  O  O23  1  0.760098  0.997237  0.763967  1
  O  O24  1  0.751778  0.497620  0.742249  1
  O  O25  1  0.754918  0.996722  0.239702  1
  O  O26  1  0.248141  0.497426  0.257813  1
  O  O27  1  0.245088  0.996710  0.760316  1
