# generated using pymatgen
data_Y3Er3Tm2(CdNi)2
_symmetry_space_group_name_H-M   'P 1'
_cell_length_a   9.50375143
_cell_length_b   9.50410071
_cell_length_c   9.50410001
_cell_angle_alpha   59.99758089
_cell_angle_beta   60.00120975
_cell_angle_gamma   60.00121284
_symmetry_Int_Tables_number   1
_chemical_formula_structural   Y3Er3Tm2(CdNi)2
_chemical_formula_sum   'Y6 Er6 Tm4 Cd4 Ni4'
_cell_volume   607.01875270
_cell_formula_units_Z   2
loop_
 _symmetry_equiv_pos_site_id
 _symmetry_equiv_pos_as_xyz
  1  'x, y, z'
loop_
 _atom_site_type_symbol
 _atom_site_label
 _atom_site_symmetry_multiplicity
 _atom_site_fract_x
 _atom_site_fract_y
 _atom_site_fract_z
 _atom_site_occupancy
  Y  Y0  1  0.187751  0.812249  0.812249  1
  Y  Y1  1  0.812249  0.187751  0.187751  1
  Y  Y2  1  0.812259  0.187741  0.812259  1
  Y  Y3  1  0.187741  0.812259  0.187741  1
  Y  Y4  1  0.812259  0.812259  0.187741  1
  Y  Y5  1  0.187741  0.187741  0.812259  1
  Er  Er6  1  0.598002  0.598174  0.598174  1
  Er  Er7  1  0.598174  0.598002  0.205648  1
  Er  Er8  1  0.598174  0.205648  0.598002  1
  Er  Er9  1  0.205648  0.598174  0.598174  1
  Er  Er10  1  0.062358  0.437642  0.437642  1
  Er  Er11  1  0.437642  0.062358  0.062358  1
  Tm  Tm12  1  0.437757  0.062243  0.437757  1
  Tm  Tm13  1  0.062243  0.437757  0.062243  1
  Tm  Tm14  1  0.437757  0.437757  0.062243  1
  Tm  Tm15  1  0.062243  0.062243  0.437757  1
  Cd  Cd16  1  0.830682  0.830622  0.830622  1
  Cd  Cd17  1  0.830622  0.830682  0.508072  1
  Cd  Cd18  1  0.830622  0.508072  0.830682  1
  Cd  Cd19  1  0.508072  0.830622  0.830622  1
  Ni  Ni20  1  0.392358  0.392196  0.392196  1
  Ni  Ni21  1  0.392196  0.392358  0.823253  1
  Ni  Ni22  1  0.392196  0.823253  0.392358  1
  Ni  Ni23  1  0.823253  0.392196  0.392196  1
