# generated using pymatgen
data_Ho16Er4Fe3CoBi8
_symmetry_space_group_name_H-M   'P 1'
_cell_length_a   7.94209744
_cell_length_b   8.90834338
_cell_length_c   12.38931651
_cell_angle_alpha   89.96846905
_cell_angle_beta   89.91414916
_cell_angle_gamma   89.98940598
_symmetry_Int_Tables_number   1
_chemical_formula_structural   Ho16Er4Fe3CoBi8
_chemical_formula_sum   'Ho16 Er4 Fe3 Co1 Bi8'
_cell_volume   876.55454819
_cell_formula_units_Z   1
loop_
 _symmetry_equiv_pos_site_id
 _symmetry_equiv_pos_as_xyz
  1  'x, y, z'
loop_
 _atom_site_type_symbol
 _atom_site_label
 _atom_site_symmetry_multiplicity
 _atom_site_fract_x
 _atom_site_fract_y
 _atom_site_fract_z
 _atom_site_occupancy
  Ho  Ho0  1  0.347507  0.749879  0.701212  1
  Ho  Ho1  1  0.653568  0.250113  0.299413  1
  Ho  Ho2  1  0.847472  0.250125  0.798532  1
  Ho  Ho3  1  0.150675  0.749950  0.198431  1
  Ho  Ho4  1  0.883190  0.749774  0.812342  1
  Ho  Ho5  1  0.115246  0.250155  0.188330  1
  Ho  Ho6  1  0.383058  0.250377  0.686814  1
  Ho  Ho7  1  0.614971  0.749691  0.314629  1
  Ho  Ho8  1  0.825906  0.536560  0.062387  1
  Ho  Ho9  1  0.672823  0.967667  0.562641  1
  Ho  Ho10  1  0.825351  0.963270  0.062487  1
  Ho  Ho11  1  0.173100  0.036313  0.937751  1
  Ho  Ho12  1  0.058924  0.749857  0.495426  1
  Ho  Ho13  1  0.947538  0.250488  0.503994  1
  Ho  Ho14  1  0.557247  0.250105  0.005088  1
  Ho  Ho15  1  0.444482  0.749525  0.995433  1
  Er  Er16  1  0.671989  0.533680  0.562650  1
  Er  Er17  1  0.325460  0.458159  0.435866  1
  Er  Er18  1  0.172880  0.462517  0.937507  1
  Er  Er19  1  0.325365  0.041375  0.435884  1
  Fe  Fe20  1  0.070889  0.750085  0.989669  1
  Fe  Fe21  1  0.930070  0.250336  0.008208  1
  Fe  Fe22  1  0.569290  0.249803  0.508803  1
  Co  Co23  1  0.434310  0.749945  0.493754  1
  Bi  Bi24  1  0.569821  0.506837  0.827163  1
  Bi  Bi25  1  0.429084  0.492843  0.173742  1
  Bi  Bi26  1  0.070301  0.493461  0.673114  1
  Bi  Bi27  1  0.429146  0.007003  0.173687  1
  Bi  Bi28  1  0.929866  0.508676  0.327313  1
  Bi  Bi29  1  0.569977  0.993157  0.827259  1
  Bi  Bi30  1  0.929754  0.991541  0.327465  1
  Bi  Bi31  1  0.070738  0.006732  0.673001  1
