# generated using pymatgen
data_LiY12InNi4
_symmetry_space_group_name_H-M   'P 1'
_cell_length_a   8.41532129
_cell_length_b   8.41730724
_cell_length_c   8.41532100
_cell_angle_alpha   106.54923662
_cell_angle_beta   109.79758720
_cell_angle_gamma   112.10508169
_symmetry_Int_Tables_number   1
_chemical_formula_structural   LiY12InNi4
_chemical_formula_sum   'Li1 Y12 In1 Ni4'
_cell_volume   457.84329696
_cell_formula_units_Z   1
loop_
 _symmetry_equiv_pos_site_id
 _symmetry_equiv_pos_as_xyz
  1  'x, y, z'
loop_
 _atom_site_type_symbol
 _atom_site_label
 _atom_site_symmetry_multiplicity
 _atom_site_fract_x
 _atom_site_fract_y
 _atom_site_fract_z
 _atom_site_occupancy
  Li  Li0  1  0.000000  0.000000  0.000000  1
  Y  Y1  1  0.482786  0.298089  0.184703  1
  Y  Y2  1  0.113386  0.298089  0.815302  1
  Y  Y3  1  0.886614  0.701911  0.184698  1
  Y  Y4  1  0.517214  0.701911  0.815297  1
  Y  Y5  1  0.303496  0.625405  0.321908  1
  Y  Y6  1  0.303538  0.981618  0.678079  1
  Y  Y7  1  0.696504  0.374595  0.678092  1
  Y  Y8  1  0.696462  0.018382  0.321921  1
  Y  Y9  1  0.198023  0.223294  0.421331  1
  Y  Y10  1  0.801977  0.776706  0.578669  1
  Y  Y11  1  0.198036  0.776706  0.974728  1
  Y  Y12  1  0.801964  0.223294  0.025272  1
  In  In13  1  0.000000  0.500000  0.500000  1
  Ni  Ni14  1  0.500015  0.624822  0.124807  1
  Ni  Ni15  1  0.499985  0.375178  0.875193  1
  Ni  Ni16  1  0.358338  0.000000  0.358338  1
  Ni  Ni17  1  0.641662  0.000000  0.641662  1
