# generated using pymatgen
data_Ho3In3HgPd2
_symmetry_space_group_name_H-M   'P 1'
_cell_length_a   7.91291700
_cell_length_b   7.91291626
_cell_length_c   3.76577600
_cell_angle_alpha   90.00000000
_cell_angle_beta   90.00000000
_cell_angle_gamma   120.00000726
_symmetry_Int_Tables_number   1
_chemical_formula_structural   Ho3In3HgPd2
_chemical_formula_sum   'Ho3 In3 Hg1 Pd2'
_cell_volume   204.20118755
_cell_formula_units_Z   1
loop_
 _symmetry_equiv_pos_site_id
 _symmetry_equiv_pos_as_xyz
  1  'x, y, z'
loop_
 _atom_site_type_symbol
 _atom_site_label
 _atom_site_symmetry_multiplicity
 _atom_site_fract_x
 _atom_site_fract_y
 _atom_site_fract_z
 _atom_site_occupancy
  Ho  Ho0  1  0.981688  0.588061  0.000000  1
  Ho  Ho1  1  0.411939  0.393627  0.000000  1
  Ho  Ho2  1  0.606373  0.018312  0.000000  1
  In  In3  1  0.743544  0.738257  0.500000  1
  In  In4  1  0.994712  0.256456  0.500000  1
  In  In5  1  0.261743  0.005288  0.500000  1
  Hg  Hg6  1  0.333333  0.666667  0.500000  1
  Pd  Pd7  1  0.000000  0.000000  0.000000  1
  Pd  Pd8  1  0.666667  0.333333  0.500000  1
