# generated using pymatgen
data_Zr6Sc8Al8Ir3Rh4
_symmetry_space_group_name_H-M   'P 1'
_cell_length_a   9.10189551
_cell_length_b   9.10189513
_cell_length_c   9.10454900
_cell_angle_alpha   59.99035074
_cell_angle_beta   59.99035210
_cell_angle_gamma   60.01930003
_symmetry_Int_Tables_number   1
_chemical_formula_structural   Zr6Sc8Al8Ir3Rh4
_chemical_formula_sum   'Zr6 Sc8 Al8 Ir3 Rh4'
_cell_volume   533.34355099
_cell_formula_units_Z   1
loop_
 _symmetry_equiv_pos_site_id
 _symmetry_equiv_pos_as_xyz
  1  'x, y, z'
loop_
 _atom_site_type_symbol
 _atom_site_label
 _atom_site_symmetry_multiplicity
 _atom_site_fract_x
 _atom_site_fract_y
 _atom_site_fract_z
 _atom_site_occupancy
  Zr  Zr0  1  0.677458  0.677458  0.322542  1
  Zr  Zr1  1  0.321696  0.678304  0.321696  1
  Zr  Zr2  1  0.678304  0.321696  0.321696  1
  Zr  Zr3  1  0.322542  0.322542  0.677458  1
  Zr  Zr4  1  0.678304  0.321696  0.678304  1
  Zr  Zr5  1  0.321696  0.678304  0.678304  1
  Sc  Sc6  1  0.877880  0.877880  0.367354  1
  Sc  Sc7  1  0.876886  0.367354  0.877880  1
  Sc  Sc8  1  0.367354  0.876886  0.877880  1
  Sc  Sc9  1  0.877880  0.877880  0.876886  1
  Sc  Sc10  1  0.122120  0.122120  0.632646  1
  Sc  Sc11  1  0.123114  0.632646  0.122120  1
  Sc  Sc12  1  0.632646  0.123114  0.122120  1
  Sc  Sc13  1  0.122120  0.122120  0.123114  1
  Al  Al14  1  0.661550  0.661550  0.015070  1
  Al  Al15  1  0.661830  0.015070  0.661550  1
  Al  Al16  1  0.015070  0.661830  0.661550  1
  Al  Al17  1  0.661550  0.661550  0.661830  1
  Al  Al18  1  0.338450  0.338450  0.984930  1
  Al  Al19  1  0.338170  0.984930  0.338450  1
  Al  Al20  1  0.984930  0.338170  0.338450  1
  Al  Al21  1  0.338450  0.338450  0.338170  1
  Ir  Ir22  1  0.000000  0.000000  0.000000  1
  Ir  Ir23  1  0.000000  0.000000  0.500000  1
  Ir  Ir24  1  0.500000  0.500000  0.000000  1
  Rh  Rh25  1  0.500000  0.000000  0.500000  1
  Rh  Rh26  1  0.000000  0.500000  0.500000  1
  Rh  Rh27  1  0.000000  0.500000  0.000000  1
  Rh  Rh28  1  0.500000  0.000000  0.000000  1
