# generated using pymatgen
data_Tb4PrNdRuBr10
_symmetry_space_group_name_H-M   'P 1'
_cell_length_a   7.49592780
_cell_length_b   9.43019468
_cell_length_c   9.36097282
_cell_angle_alpha   107.80989689
_cell_angle_beta   95.79515282
_cell_angle_gamma   106.56957142
_symmetry_Int_Tables_number   1
_chemical_formula_structural   Tb4PrNdRuBr10
_chemical_formula_sum   'Tb4 Pr1 Nd1 Ru1 Br10'
_cell_volume   590.85558749
_cell_formula_units_Z   1
loop_
 _symmetry_equiv_pos_site_id
 _symmetry_equiv_pos_as_xyz
  1  'x, y, z'
loop_
 _atom_site_type_symbol
 _atom_site_label
 _atom_site_symmetry_multiplicity
 _atom_site_fract_x
 _atom_site_fract_y
 _atom_site_fract_z
 _atom_site_occupancy
  Tb  Tb0  1  0.976430  0.303977  0.096969  1
  Tb  Tb1  1  0.023780  0.696054  0.902659  1
  Tb  Tb2  1  0.367189  0.140264  0.180716  1
  Tb  Tb3  1  0.632991  0.859849  0.819026  1
  Pr  Pr4  1  0.876519  0.953502  0.238998  1
  Nd  Nd5  1  0.122853  0.046225  0.761689  1
  Ru  Ru6  1  0.000104  0.000014  0.999722  1
  Br  Br7  1  0.551685  0.174833  0.919638  1
  Br  Br8  1  0.447239  0.824779  0.079813  1
  Br  Br9  1  0.355009  0.452856  0.272060  1
  Br  Br10  1  0.644986  0.547168  0.727982  1
  Br  Br11  1  0.263937  0.087413  0.451374  1
  Br  Br12  1  0.737322  0.913007  0.549593  1
  Br  Br13  1  0.789061  0.264406  0.344325  1
  Br  Br14  1  0.210707  0.736579  0.655807  1
  Br  Br15  1  0.086174  0.375145  0.833570  1
  Br  Br16  1  0.914014  0.623929  0.166057  1
