# generated using pymatgen
data_Tb3Er5(CdIr)2
_symmetry_space_group_name_H-M   'P 1'
_cell_length_a   9.60210537
_cell_length_b   9.60210534
_cell_length_c   9.60210600
_cell_angle_alpha   59.99999774
_cell_angle_beta   59.99999783
_cell_angle_gamma   59.99999846
_symmetry_Int_Tables_number   1
_chemical_formula_structural   Tb3Er5(CdIr)2
_chemical_formula_sum   'Tb6 Er10 Cd4 Ir4'
_cell_volume   626.01452832
_cell_formula_units_Z   2
loop_
 _symmetry_equiv_pos_site_id
 _symmetry_equiv_pos_as_xyz
  1  'x, y, z'
loop_
 _atom_site_type_symbol
 _atom_site_label
 _atom_site_symmetry_multiplicity
 _atom_site_fract_x
 _atom_site_fract_y
 _atom_site_fract_z
 _atom_site_occupancy
  Tb  Tb0  1  0.188279  0.811721  0.811721  1
  Tb  Tb1  1  0.811721  0.188279  0.188279  1
  Tb  Tb2  1  0.811721  0.188279  0.811721  1
  Tb  Tb3  1  0.188279  0.811721  0.188279  1
  Tb  Tb4  1  0.811721  0.811721  0.188279  1
  Tb  Tb5  1  0.188279  0.188279  0.811721  1
  Er  Er6  1  0.598909  0.598909  0.598909  1
  Er  Er7  1  0.598909  0.598909  0.203274  1
  Er  Er8  1  0.598909  0.203274  0.598909  1
  Er  Er9  1  0.203274  0.598909  0.598909  1
  Er  Er10  1  0.061095  0.438905  0.438905  1
  Er  Er11  1  0.438905  0.061095  0.061095  1
  Er  Er12  1  0.438905  0.061095  0.438905  1
  Er  Er13  1  0.061095  0.438905  0.061095  1
  Er  Er14  1  0.438905  0.438905  0.061095  1
  Er  Er15  1  0.061095  0.061095  0.438905  1
  Cd  Cd16  1  0.830924  0.830924  0.830924  1
  Cd  Cd17  1  0.830924  0.830924  0.507229  1
  Cd  Cd18  1  0.830924  0.507229  0.830924  1
  Cd  Cd19  1  0.507229  0.830924  0.830924  1
  Ir  Ir20  1  0.391776  0.391776  0.391776  1
  Ir  Ir21  1  0.391776  0.391776  0.824672  1
  Ir  Ir22  1  0.391776  0.824672  0.391776  1
  Ir  Ir23  1  0.824672  0.391776  0.391776  1
