# generated using pymatgen
data_Dy3Ho(Si3Rh)2
_symmetry_space_group_name_H-M   'P 1'
_cell_length_a   8.16902202
_cell_length_b   8.16902185
_cell_length_c   7.90163800
_cell_angle_alpha   90.00000000
_cell_angle_beta   90.00000000
_cell_angle_gamma   120.00845760
_symmetry_Int_Tables_number   1
_chemical_formula_structural   Dy3Ho(Si3Rh)2
_chemical_formula_sum   'Dy6 Ho2 Si12 Rh4'
_cell_volume   456.61572822
_cell_formula_units_Z   2
loop_
 _symmetry_equiv_pos_site_id
 _symmetry_equiv_pos_as_xyz
  1  'x, y, z'
loop_
 _atom_site_type_symbol
 _atom_site_label
 _atom_site_symmetry_multiplicity
 _atom_site_fract_x
 _atom_site_fract_y
 _atom_site_fract_z
 _atom_site_occupancy
  Dy  Dy0  1  0.999960  0.000040  0.250000  1
  Dy  Dy1  1  0.000031  0.999969  0.750000  1
  Dy  Dy2  1  0.508881  0.491119  0.250000  1
  Dy  Dy3  1  0.508896  0.017759  0.250000  1
  Dy  Dy4  1  0.982241  0.491104  0.250000  1
  Dy  Dy5  1  0.491042  0.508958  0.750000  1
  Ho  Ho6  1  0.491097  0.982302  0.750000  1
  Ho  Ho7  1  0.017698  0.508903  0.750000  1
  Si  Si8  1  0.166936  0.833064  0.499978  1
  Si  Si9  1  0.166767  0.333772  0.499782  1
  Si  Si10  1  0.666228  0.833233  0.499782  1
  Si  Si11  1  0.833085  0.166915  0.500632  1
  Si  Si12  1  0.833182  0.666210  0.500578  1
  Si  Si13  1  0.333790  0.166818  0.500578  1
  Si  Si14  1  0.833085  0.166915  0.999368  1
  Si  Si15  1  0.833182  0.666210  0.999422  1
  Si  Si16  1  0.333790  0.166818  0.999422  1
  Si  Si17  1  0.166936  0.833064  0.000022  1
  Si  Si18  1  0.166767  0.333772  0.000218  1
  Si  Si19  1  0.666228  0.833233  0.000218  1
  Rh  Rh20  1  0.333234  0.666766  0.466969  1
  Rh  Rh21  1  0.666854  0.333146  0.534258  1
  Rh  Rh22  1  0.666854  0.333146  0.965742  1
  Rh  Rh23  1  0.333234  0.666766  0.033031  1
