# generated using pymatgen
data_KRb3(AlI4)4
_symmetry_space_group_name_H-M   'P 1'
_cell_length_a   8.28963282
_cell_length_b   8.83553596
_cell_length_c   16.81999611
_cell_angle_alpha   85.70219011
_cell_angle_beta   90.29646709
_cell_angle_gamma   90.16772029
_symmetry_Int_Tables_number   1
_chemical_formula_structural   KRb3(AlI4)4
_chemical_formula_sum   'K1 Rb3 Al4 I16'
_cell_volume   1228.46816018
_cell_formula_units_Z   1
loop_
 _symmetry_equiv_pos_site_id
 _symmetry_equiv_pos_as_xyz
  1  'x, y, z'
loop_
 _atom_site_type_symbol
 _atom_site_label
 _atom_site_symmetry_multiplicity
 _atom_site_fract_x
 _atom_site_fract_y
 _atom_site_fract_z
 _atom_site_occupancy
  K  K0  1  0.998306  0.255358  0.138299  1
  Rb  Rb1  1  0.505136  0.256125  0.639830  1
  Rb  Rb2  1  0.005396  0.743447  0.861206  1
  Rb  Rb3  1  0.494611  0.744007  0.358856  1
  Al  Al4  1  0.353407  0.247214  0.359631  1
  Al  Al5  1  0.861363  0.753557  0.139450  1
  Al  Al6  1  0.642722  0.752360  0.639125  1
  Al  Al7  1  0.141576  0.246280  0.862359  1
  I  I8  1  0.864523  0.145010  0.908944  1
  I  I9  1  0.366955  0.853444  0.589714  1
  I  I10  1  0.135934  0.858265  0.090659  1
  I  I11  1  0.629881  0.147449  0.408679  1
  I  I12  1  0.387801  0.403891  0.225355  1
  I  I13  1  0.894100  0.593014  0.272630  1
  I  I14  1  0.607322  0.595793  0.773336  1
  I  I15  1  0.107126  0.405440  0.728821  1
  I  I16  1  0.664176  0.972094  0.159514  1
  I  I17  1  0.154290  0.029204  0.339524  1
  I  I18  1  0.342067  0.031016  0.841381  1
  I  I19  1  0.842487  0.969638  0.659633  1
  I  I20  1  0.239476  0.417657  0.463484  1
  I  I21  1  0.743513  0.582258  0.036130  1
  I  I22  1  0.760305  0.582771  0.535867  1
  I  I23  1  0.257529  0.414710  0.967574  1
