# generated using pymatgen
data_Sm3Be(SiRh3)2
_symmetry_space_group_name_H-M   'P 1'
_cell_length_a   5.61092200
_cell_length_b   5.61092114
_cell_length_c   14.94122500
_cell_angle_alpha   90.00000000
_cell_angle_beta   90.00000000
_cell_angle_gamma   120.00000506
_symmetry_Int_Tables_number   1
_chemical_formula_structural   Sm3Be(SiRh3)2
_chemical_formula_sum   'Sm6 Be2 Si4 Rh12'
_cell_volume   407.36640633
_cell_formula_units_Z   2
loop_
 _symmetry_equiv_pos_site_id
 _symmetry_equiv_pos_as_xyz
  1  'x, y, z'
loop_
 _atom_site_type_symbol
 _atom_site_label
 _atom_site_symmetry_multiplicity
 _atom_site_fract_x
 _atom_site_fract_y
 _atom_site_fract_z
 _atom_site_occupancy
  Sm  Sm0  1  0.333333  0.666667  0.537428  1
  Sm  Sm1  1  0.666667  0.333333  0.462572  1
  Sm  Sm2  1  0.666667  0.333333  0.037428  1
  Sm  Sm3  1  0.333333  0.666667  0.962572  1
  Sm  Sm4  1  0.333333  0.666667  0.750000  1
  Sm  Sm5  1  0.666667  0.333333  0.250000  1
  Be  Be6  1  0.000000  0.000000  0.250000  1
  Be  Be7  1  0.000000  0.000000  0.750000  1
  Si  Si8  1  0.333333  0.666667  0.250000  1
  Si  Si9  1  0.666667  0.333333  0.750000  1
  Si  Si10  1  0.000000  0.000000  0.000000  1
  Si  Si11  1  0.000000  0.000000  0.500000  1
  Rh  Rh12  1  0.163946  0.327894  0.133501  1
  Rh  Rh13  1  0.836054  0.672106  0.866499  1
  Rh  Rh14  1  0.672106  0.836054  0.133501  1
  Rh  Rh15  1  0.836054  0.672106  0.633501  1
  Rh  Rh16  1  0.327894  0.163946  0.866499  1
  Rh  Rh17  1  0.163946  0.327894  0.366499  1
  Rh  Rh18  1  0.163946  0.836054  0.133501  1
  Rh  Rh19  1  0.327894  0.163946  0.633501  1
  Rh  Rh20  1  0.836054  0.163946  0.866499  1
  Rh  Rh21  1  0.672106  0.836054  0.366499  1
  Rh  Rh22  1  0.836054  0.163946  0.633501  1
  Rh  Rh23  1  0.163946  0.836054  0.366499  1
