# generated using pymatgen
data_Ho7Th7IrRh5
_symmetry_space_group_name_H-M   'P 1'
_cell_length_a   9.92289894
_cell_length_b   9.82074938
_cell_length_c   6.33233068
_cell_angle_alpha   89.99152122
_cell_angle_beta   90.11501730
_cell_angle_gamma   120.41554691
_symmetry_Int_Tables_number   1
_chemical_formula_structural   Ho7Th7IrRh5
_chemical_formula_sum   'Ho7 Th7 Ir1 Rh5'
_cell_volume   532.16035142
_cell_formula_units_Z   1
loop_
 _symmetry_equiv_pos_site_id
 _symmetry_equiv_pos_as_xyz
  1  'x, y, z'
loop_
 _atom_site_type_symbol
 _atom_site_label
 _atom_site_symmetry_multiplicity
 _atom_site_fract_x
 _atom_site_fract_y
 _atom_site_fract_z
 _atom_site_occupancy
  Ho  Ho0  1  0.873212  0.745210  0.742931  1
  Ho  Ho1  1  0.540296  0.462839  0.446174  1
  Ho  Ho2  1  0.922631  0.462416  0.445761  1
  Ho  Ho3  1  0.538209  0.077535  0.445911  1
  Ho  Ho4  1  0.463544  0.539327  0.942399  1
  Ho  Ho5  1  0.076712  0.539041  0.943987  1
  Ho  Ho6  1  0.463750  0.925084  0.945507  1
  Th  Th7  1  0.332839  0.667374  0.465292  1
  Th  Th8  1  0.666283  0.333432  0.962686  1
  Th  Th9  1  0.127122  0.869796  0.244080  1
  Th  Th10  1  0.745036  0.870269  0.242148  1
  Th  Th11  1  0.127429  0.255114  0.240219  1
  Th  Th12  1  0.868741  0.125856  0.741587  1
  Th  Th13  1  0.254492  0.124739  0.740498  1
  Ir  Ir14  1  0.812307  0.186593  0.192555  1
  Rh  Rh15  1  0.371513  0.185442  0.192915  1
  Rh  Rh16  1  0.812647  0.627462  0.195740  1
  Rh  Rh17  1  0.192956  0.816014  0.689734  1
  Rh  Rh18  1  0.623320  0.815108  0.687905  1
  Rh  Rh19  1  0.186960  0.371352  0.695509  1
