# generated using pymatgen
data_Sm5Lu(CI5)2
_symmetry_space_group_name_H-M   'P 1'
_cell_length_a   7.76536875
_cell_length_b   9.59933572
_cell_length_c   9.68620425
_cell_angle_alpha   107.09693655
_cell_angle_beta   96.39873835
_cell_angle_gamma   104.33562030
_symmetry_Int_Tables_number   1
_chemical_formula_structural   Sm5Lu(CI5)2
_chemical_formula_sum   'Sm5 Lu1 C2 I10'
_cell_volume   655.26947000
_cell_formula_units_Z   1
loop_
 _symmetry_equiv_pos_site_id
 _symmetry_equiv_pos_as_xyz
  1  'x, y, z'
loop_
 _atom_site_type_symbol
 _atom_site_label
 _atom_site_symmetry_multiplicity
 _atom_site_fract_x
 _atom_site_fract_y
 _atom_site_fract_z
 _atom_site_occupancy
  Sm  Sm0  1  0.103911  0.038217  0.777585  1
  Sm  Sm1  1  0.373281  0.132185  0.177691  1
  Sm  Sm2  1  0.893401  0.960860  0.221419  1
  Sm  Sm3  1  0.028923  0.737725  0.923382  1
  Sm  Sm4  1  0.969404  0.262553  0.076157  1
  Lu  Lu5  1  0.633298  0.869894  0.825615  1
  C  C6  1  0.906871  0.969494  0.958204  1
  C  C7  1  0.086652  0.029129  0.039775  1
  I  I8  1  0.208128  0.738256  0.651053  1
  I  I9  1  0.088224  0.368144  0.819535  1
  I  I10  1  0.459320  0.807808  0.084297  1
  I  I11  1  0.253576  0.083413  0.460256  1
  I  I12  1  0.544946  0.181535  0.901564  1
  I  I13  1  0.807574  0.266360  0.356501  1
  I  I14  1  0.345906  0.456340  0.272693  1
  I  I15  1  0.911506  0.631824  0.179905  1
  I  I16  1  0.648861  0.553470  0.727302  1
  I  I17  1  0.736221  0.912792  0.547065  1
