# generated using pymatgen
data_Mg5Sc3(B6Ir)4
_symmetry_space_group_name_H-M   'P 1'
_cell_length_a   8.86962791
_cell_length_b   11.20117658
_cell_length_c   3.47049200
_cell_angle_alpha   90.00000000
_cell_angle_beta   90.00000000
_cell_angle_gamma   89.90778701
_symmetry_Int_Tables_number   1
_chemical_formula_structural   Mg5Sc3(B6Ir)4
_chemical_formula_sum   'Mg5 Sc3 B24 Ir4'
_cell_volume   344.79386516
_cell_formula_units_Z   1
loop_
 _symmetry_equiv_pos_site_id
 _symmetry_equiv_pos_as_xyz
  1  'x, y, z'
loop_
 _atom_site_type_symbol
 _atom_site_label
 _atom_site_symmetry_multiplicity
 _atom_site_fract_x
 _atom_site_fract_y
 _atom_site_fract_z
 _atom_site_occupancy
  Mg  Mg0  1  0.313045  0.421273  0.000000  1
  Mg  Mg1  1  0.683560  0.588206  0.000000  1
  Mg  Mg2  1  0.055192  0.624225  0.000000  1
  Mg  Mg3  1  0.552275  0.875160  0.000000  1
  Mg  Mg4  1  0.189129  0.911088  0.000000  1
  Sc  Sc5  1  0.814974  0.080979  0.000000  1
  Sc  Sc6  1  0.444741  0.122594  0.000000  1
  Sc  Sc7  1  0.944962  0.376449  0.000000  1
  B  B8  1  0.601693  0.026825  0.500001  1
  B  B9  1  0.053587  0.063977  0.500001  1
  B  B10  1  0.252118  0.076394  0.500001  1
  B  B11  1  0.630620  0.180099  0.500001  1
  B  B12  1  0.979760  0.213672  0.500001  1
  B  B13  1  0.293185  0.235344  0.500001  1
  B  B14  1  0.793993  0.264006  0.500001  1
  B  B15  1  0.479575  0.285773  0.500001  1
  B  B16  1  0.130567  0.319392  0.500001  1
  B  B17  1  0.751547  0.423153  0.500001  1
  B  B18  1  0.553580  0.435989  0.500001  1
  B  B19  1  0.099898  0.474067  0.500001  1
  B  B20  1  0.900694  0.528863  0.500001  1
  B  B21  1  0.445714  0.564857  0.500001  1
  B  B22  1  0.247528  0.579472  0.500001  1
  B  B23  1  0.871246  0.683546  0.500001  1
  B  B24  1  0.521452  0.712520  0.500001  1
  B  B25  1  0.206540  0.736584  0.500001  1
  B  B26  1  0.706073  0.763391  0.500001  1
  B  B27  1  0.021712  0.787238  0.500001  1
  B  B28  1  0.371321  0.817010  0.500001  1
  B  B29  1  0.747250  0.920876  0.500001  1
  B  B30  1  0.945612  0.935248  0.500001  1
  B  B31  1  0.399670  0.971104  0.500001  1
  Ir  Ir32  1  0.137168  0.179156  0.000000  1
  Ir  Ir33  1  0.637732  0.319809  0.000000  1
  Ir  Ir34  1  0.361293  0.679994  0.000000  1
  Ir  Ir35  1  0.860999  0.821666  0.000000  1
