# generated using pymatgen
data_Y5Mn2P12Ir17
_symmetry_space_group_name_H-M   'P 1'
_cell_length_a   12.63333100
_cell_length_b   12.72459085
_cell_length_c   3.97152100
_cell_angle_alpha   90.00000000
_cell_angle_beta   90.00000000
_cell_angle_gamma   119.76303418
_symmetry_Int_Tables_number   1
_chemical_formula_structural   Y5Mn2P12Ir17
_chemical_formula_sum   'Y5 Mn2 P12 Ir17'
_cell_volume   554.21882244
_cell_formula_units_Z   1
loop_
 _symmetry_equiv_pos_site_id
 _symmetry_equiv_pos_as_xyz
  1  'x, y, z'
loop_
 _atom_site_type_symbol
 _atom_site_label
 _atom_site_symmetry_multiplicity
 _atom_site_fract_x
 _atom_site_fract_y
 _atom_site_fract_z
 _atom_site_occupancy
  Y  Y0  1  0.332368  0.663600  0.500000  1
  Y  Y1  1  0.668768  0.336400  0.500000  1
  Y  Y2  1  0.000080  0.811400  0.000000  1
  Y  Y3  1  0.188680  0.188600  0.000000  1
  Y  Y4  1  0.813439  0.000000  0.000000  1
  Mn  Mn5  1  0.999609  0.457858  0.500000  1
  Mn  Mn6  1  0.541751  0.542142  0.500000  1
  P  P7  1  0.999731  0.634755  0.500000  1
  P  P8  1  0.364976  0.365245  0.500000  1
  P  P9  1  0.643353  0.000000  0.500000  1
  P  P10  1  0.515683  0.683962  0.000000  1
  P  P11  1  0.309012  0.824536  0.000000  1
  P  P12  1  0.166499  0.480946  0.000000  1
  P  P13  1  0.484477  0.175464  0.000000  1
  P  P14  1  0.685552  0.519054  0.000000  1
  P  P15  1  0.831721  0.316038  0.000000  1
  P  P16  1  0.999767  0.177893  0.500000  1
  P  P17  1  0.821874  0.822107  0.500000  1
  P  P18  1  0.179304  0.000000  0.500000  1
  Ir  Ir19  1  0.505890  0.866147  0.000000  1
  Ir  Ir20  1  0.129107  0.638158  0.000000  1
  Ir  Ir21  1  0.358547  0.491687  0.000000  1
  Ir  Ir22  1  0.490951  0.361842  0.000000  1
  Ir  Ir23  1  0.866861  0.508313  0.000000  1
  Ir  Ir24  1  0.639744  0.133853  0.000000  1
  Ir  Ir25  1  0.462195  0.000000  0.500000  1
  Ir  Ir26  1  0.998083  0.282615  0.000000  1
  Ir  Ir27  1  0.715468  0.717385  0.000000  1
  Ir  Ir28  1  0.287601  0.000000  0.000000  1
  Ir  Ir29  1  0.622057  0.804046  0.500000  1
  Ir  Ir30  1  0.198559  0.821471  0.500000  1
  Ir  Ir31  1  0.178011  0.373512  0.500000  1
  Ir  Ir32  1  0.377088  0.178529  0.500000  1
  Ir  Ir33  1  0.804499  0.626488  0.500000  1
  Ir  Ir34  1  0.818010  0.195954  0.500000  1
  Ir  Ir35  1  0.000685  0.000000  0.500000  1
