# generated using pymatgen
data_Ti6Fe2Tc3Pt
_symmetry_space_group_name_H-M   'P 1'
_cell_length_a   4.33310600
_cell_length_b   6.12416000
_cell_length_c   13.01146700
_cell_angle_alpha   90.00000000
_cell_angle_beta   89.99947574
_cell_angle_gamma   90.00000000
_symmetry_Int_Tables_number   1
_chemical_formula_structural   Ti6Fe2Tc3Pt
_chemical_formula_sum   'Ti12 Fe4 Tc6 Pt2'
_cell_volume   345.28054331
_cell_formula_units_Z   2
loop_
 _symmetry_equiv_pos_site_id
 _symmetry_equiv_pos_as_xyz
  1  'x, y, z'
loop_
 _atom_site_type_symbol
 _atom_site_label
 _atom_site_symmetry_multiplicity
 _atom_site_fract_x
 _atom_site_fract_y
 _atom_site_fract_z
 _atom_site_occupancy
  Ti  Ti0  1  0.500003  0.255194  0.008021  1
  Ti  Ti1  1  0.500003  0.744806  0.008021  1
  Ti  Ti2  1  0.000066  0.249013  0.168295  1
  Ti  Ti3  1  0.000066  0.750987  0.168295  1
  Ti  Ti4  1  0.500065  0.251029  0.331709  1
  Ti  Ti5  1  0.500065  0.748972  0.331709  1
  Ti  Ti6  1  0.000007  0.244841  0.491984  1
  Ti  Ti7  1  0.000007  0.755159  0.491984  1
  Ti  Ti8  1  0.499906  0.242815  0.658567  1
  Ti  Ti9  1  0.499906  0.757186  0.658567  1
  Ti  Ti10  1  0.999911  0.257180  0.841422  1
  Ti  Ti11  1  0.999911  0.742820  0.841422  1
  Fe  Fe12  1  0.999944  0.500000  0.000454  1
  Fe  Fe13  1  0.500192  0.000000  0.166342  1
  Fe  Fe14  1  0.000026  0.500000  0.333688  1
  Fe  Fe15  1  0.500135  0.000000  0.499560  1
  Tc  Tc16  1  0.999990  0.000000  0.001587  1
  Tc  Tc17  1  0.500058  0.500000  0.168087  1
  Tc  Tc18  1  0.000053  0.000000  0.331906  1
  Tc  Tc19  1  0.499990  0.500000  0.498409  1
  Tc  Tc20  1  0.999905  0.000000  0.666479  1
  Tc  Tc21  1  0.499908  0.500000  0.833507  1
  Pt  Pt22  1  0.999937  0.500000  0.665880  1
  Pt  Pt23  1  0.499947  0.000000  0.834104  1
