# generated using pymatgen
data_Y7Ho(Si4Mo3)4
_symmetry_space_group_name_H-M   'P 1'
_cell_length_a   6.78079908
_cell_length_b   6.96258048
_cell_length_c   12.94569797
_cell_angle_alpha   90.00644305
_cell_angle_beta   90.00974881
_cell_angle_gamma   89.97396873
_symmetry_Int_Tables_number   1
_chemical_formula_structural   Y7Ho(Si4Mo3)4
_chemical_formula_sum   'Y7 Ho1 Si16 Mo12'
_cell_volume   611.19039569
_cell_formula_units_Z   1
loop_
 _symmetry_equiv_pos_site_id
 _symmetry_equiv_pos_as_xyz
  1  'x, y, z'
loop_
 _atom_site_type_symbol
 _atom_site_label
 _atom_site_symmetry_multiplicity
 _atom_site_fract_x
 _atom_site_fract_y
 _atom_site_fract_z
 _atom_site_occupancy
  Y  Y0  1  0.497397  0.333057  0.094072  1
  Y  Y1  1  0.997572  0.166921  0.405966  1
  Y  Y2  1  0.502626  0.666836  0.594129  1
  Y  Y3  1  0.002305  0.833030  0.906324  1
  Y  Y4  1  0.502304  0.667247  0.906271  1
  Y  Y5  1  0.002350  0.833072  0.594114  1
  Y  Y6  1  0.497293  0.333005  0.405461  1
  Ho  Ho7  1  0.997028  0.166842  0.094076  1
  Si  Si8  1  0.658294  0.042361  0.547640  1
  Si  Si9  1  0.158506  0.457500  0.952748  1
  Si  Si10  1  0.340804  0.958388  0.047836  1
  Si  Si11  1  0.841565  0.542243  0.452135  1
  Si  Si12  1  0.341760  0.957552  0.452062  1
  Si  Si13  1  0.841762  0.541561  0.047857  1
  Si  Si14  1  0.658423  0.042270  0.952737  1
  Si  Si15  1  0.158435  0.457938  0.547646  1
  Si  Si16  1  0.534949  0.364993  0.750265  1
  Si  Si17  1  0.034830  0.134788  0.750074  1
  Si  Si18  1  0.465361  0.635278  0.249605  1
  Si  Si19  1  0.965490  0.865712  0.249649  1
  Si  Si20  1  0.802952  0.628001  0.750343  1
  Si  Si21  1  0.302773  0.871600  0.750180  1
  Si  Si22  1  0.196791  0.371391  0.249625  1
  Si  Si23  1  0.697477  0.128390  0.249765  1
  Mo  Mo24  1  0.830752  0.334875  0.625383  1
  Mo  Mo25  1  0.330253  0.165035  0.874972  1
  Mo  Mo26  1  0.169387  0.665136  0.125262  1
  Mo  Mo27  1  0.669764  0.835158  0.374411  1
  Mo  Mo28  1  0.169268  0.665216  0.374275  1
  Mo  Mo29  1  0.669904  0.835236  0.125070  1
  Mo  Mo30  1  0.830838  0.334282  0.874976  1
  Mo  Mo31  1  0.330543  0.164812  0.625263  1
  Mo  Mo32  1  0.665994  0.999845  0.750177  1
  Mo  Mo33  1  0.166033  0.500114  0.750178  1
  Mo  Mo34  1  0.334151  0.000650  0.249707  1
  Mo  Mo35  1  0.834070  0.499662  0.249749  1
