# generated using pymatgen
data_La2Nd14Cd4OsPt3
_symmetry_space_group_name_H-M   'P 1'
_cell_length_a   10.05664002
_cell_length_b   10.05664053
_cell_length_c   10.08302445
_cell_angle_alpha   59.56220445
_cell_angle_beta   59.56221170
_cell_angle_gamma   59.67531532
_symmetry_Int_Tables_number   1
_chemical_formula_structural   La2Nd14Cd4OsPt3
_chemical_formula_sum   'La2 Nd14 Cd4 Os1 Pt3'
_cell_volume   714.51796987
_cell_formula_units_Z   1
loop_
 _symmetry_equiv_pos_site_id
 _symmetry_equiv_pos_as_xyz
  1  'x, y, z'
loop_
 _atom_site_type_symbol
 _atom_site_label
 _atom_site_symmetry_multiplicity
 _atom_site_fract_x
 _atom_site_fract_y
 _atom_site_fract_z
 _atom_site_occupancy
  La  La0  1  0.350575  0.350575  0.351365  1
  La  La1  1  0.345570  0.345570  0.954521  1
  Nd  Nd2  1  0.347935  0.950662  0.348402  1
  Nd  Nd3  1  0.950662  0.347935  0.348402  1
  Nd  Nd4  1  0.817025  0.188843  0.188677  1
  Nd  Nd5  1  0.189036  0.809554  0.808633  1
  Nd  Nd6  1  0.188843  0.817025  0.188677  1
  Nd  Nd7  1  0.809554  0.189036  0.808633  1
  Nd  Nd8  1  0.188418  0.188418  0.816096  1
  Nd  Nd9  1  0.808794  0.808794  0.188761  1
  Nd  Nd10  1  0.936545  0.564175  0.564250  1
  Nd  Nd11  1  0.557726  0.937216  0.937392  1
  Nd  Nd12  1  0.564175  0.936545  0.564250  1
  Nd  Nd13  1  0.937216  0.557726  0.937392  1
  Nd  Nd14  1  0.564442  0.564442  0.935946  1
  Nd  Nd15  1  0.937715  0.937715  0.557662  1
  Cd  Cd16  1  0.580165  0.580165  0.578925  1
  Cd  Cd17  1  0.580976  0.580976  0.258236  1
  Cd  Cd18  1  0.581585  0.257848  0.579927  1
  Cd  Cd19  1  0.257848  0.581585  0.579927  1
  Os  Os20  1  0.143804  0.143804  0.141815  1
  Pt  Pt21  1  0.144092  0.144092  0.572575  1
  Pt  Pt22  1  0.143703  0.573600  0.144770  1
  Pt  Pt23  1  0.573600  0.143703  0.144770  1
