# generated using pymatgen
data_Ta2Co4Si3Mo2P
_symmetry_space_group_name_H-M   'P 1'
_cell_length_a   6.13099102
_cell_length_b   3.61324600
_cell_length_c   6.97926529
_cell_angle_alpha   90.00000000
_cell_angle_beta   89.90704556
_cell_angle_gamma   90.00000000
_symmetry_Int_Tables_number   1
_chemical_formula_structural   Ta2Co4Si3Mo2P
_chemical_formula_sum   'Ta2 Co4 Si3 Mo2 P1'
_cell_volume   154.60991660
_cell_formula_units_Z   1
loop_
 _symmetry_equiv_pos_site_id
 _symmetry_equiv_pos_as_xyz
  1  'x, y, z'
loop_
 _atom_site_type_symbol
 _atom_site_label
 _atom_site_symmetry_multiplicity
 _atom_site_fract_x
 _atom_site_fract_y
 _atom_site_fract_z
 _atom_site_occupancy
  Ta  Ta0  1  0.974681  0.750000  0.173845  1
  Ta  Ta1  1  0.476307  0.750000  0.327632  1
  Co  Co2  1  0.142157  0.250000  0.434505  1
  Co  Co3  1  0.648597  0.250000  0.070326  1
  Co  Co4  1  0.853396  0.750000  0.554083  1
  Co  Co5  1  0.356911  0.750000  0.941129  1
  Si  Si6  1  0.276616  0.250000  0.114906  1
  Si  Si7  1  0.222381  0.750000  0.630397  1
  Si  Si8  1  0.721812  0.750000  0.870537  1
  Mo  Mo9  1  0.024130  0.250000  0.829252  1
  Mo  Mo10  1  0.526549  0.250000  0.668218  1
  P  P11  1  0.776464  0.250000  0.385170  1
