# generated using pymatgen
data_Be8VCo2Cu
_symmetry_space_group_name_H-M   'P 1'
_cell_length_a   4.19841000
_cell_length_b   4.19840888
_cell_length_c   6.90160300
_cell_angle_alpha   90.00000000
_cell_angle_beta   90.00000000
_cell_angle_gamma   119.99999306
_symmetry_Int_Tables_number   1
_chemical_formula_structural   Be8VCo2Cu
_chemical_formula_sum   'Be8 V1 Co2 Cu1'
_cell_volume   105.35380263
_cell_formula_units_Z   1
loop_
 _symmetry_equiv_pos_site_id
 _symmetry_equiv_pos_as_xyz
  1  'x, y, z'
loop_
 _atom_site_type_symbol
 _atom_site_label
 _atom_site_symmetry_multiplicity
 _atom_site_fract_x
 _atom_site_fract_y
 _atom_site_fract_z
 _atom_site_occupancy
  Be  Be0  1  0.000000  0.000000  0.999998  1
  Be  Be1  1  0.000000  0.000000  0.505480  1
  Be  Be2  1  0.831466  0.662929  0.244391  1
  Be  Be3  1  0.169833  0.830167  0.756285  1
  Be  Be4  1  0.660333  0.830167  0.756285  1
  Be  Be5  1  0.337071  0.168534  0.244391  1
  Be  Be6  1  0.831466  0.168534  0.244391  1
  Be  Be7  1  0.169833  0.339667  0.756285  1
  V  V8  1  0.333333  0.666667  0.435649  1
  Co  Co9  1  0.333333  0.666667  0.079464  1
  Co  Co10  1  0.666667  0.333333  0.542713  1
  Cu  Cu11  1  0.666667  0.333333  0.934664  1
