# generated using pymatgen
data_Ca11GaP9
_symmetry_space_group_name_H-M   'P 1'
_cell_length_a   10.85028703
_cell_length_b   10.85028713
_cell_length_c   10.85028700
_cell_angle_alpha   120.98970023
_cell_angle_beta   117.38862382
_cell_angle_gamma   91.43784662
_symmetry_Int_Tables_number   1
_chemical_formula_structural   Ca11GaP9
_chemical_formula_sum   'Ca22 Ga2 P18'
_cell_volume   912.91558628
_cell_formula_units_Z   2
loop_
 _symmetry_equiv_pos_site_id
 _symmetry_equiv_pos_as_xyz
  1  'x, y, z'
loop_
 _atom_site_type_symbol
 _atom_site_label
 _atom_site_symmetry_multiplicity
 _atom_site_fract_x
 _atom_site_fract_y
 _atom_site_fract_z
 _atom_site_occupancy
  Ca  Ca0  1  0.294878  0.093285  0.354443  1
  Ca  Ca1  1  0.738841  0.940435  0.645557  1
  Ca  Ca2  1  0.238841  0.593285  0.798407  1
  Ca  Ca3  1  0.794878  0.440435  0.201593  1
  Ca  Ca4  1  0.604961  0.423397  0.366533  1
  Ca  Ca5  1  0.056864  0.238428  0.633467  1
  Ca  Ca6  1  0.556864  0.923397  0.818435  1
  Ca  Ca7  1  0.104961  0.738428  0.181565  1
  Ca  Ca8  1  0.098791  0.360424  0.369977  1
  Ca  Ca9  1  0.990447  0.728813  0.630023  1
  Ca  Ca10  1  0.490447  0.860424  0.261633  1
  Ca  Ca11  1  0.598791  0.228813  0.738367  1
  Ca  Ca12  1  0.496936  0.513556  0.665779  1
  Ca  Ca13  1  0.847776  0.831156  0.334221  1
  Ca  Ca14  1  0.347776  0.013556  0.016620  1
  Ca  Ca15  1  0.996936  0.331156  0.983380  1
  Ca  Ca16  1  0.993362  0.993362  0.000000  1
  Ca  Ca17  1  0.493362  0.493362  0.000000  1
  Ca  Ca18  1  0.361784  0.619461  0.372933  1
  Ca  Ca19  1  0.246526  0.988850  0.627067  1
  Ca  Ca20  1  0.746526  0.119461  0.257676  1
  Ca  Ca21  1  0.861784  0.488850  0.742324  1
  Ga  Ga22  1  0.277388  0.277388  0.000000  1
  Ga  Ga23  1  0.777388  0.777388  0.000000  1
  P  P24  1  0.723545  0.717961  0.723223  1
  P  P25  1  0.994737  0.000321  0.276777  1
  P  P26  1  0.494737  0.217961  0.994417  1
  P  P27  1  0.223545  0.500321  0.005583  1
  P  P28  1  0.581499  0.207347  0.436050  1
  P  P29  1  0.771297  0.145450  0.563950  1
  P  P30  1  0.271297  0.707347  0.625848  1
  P  P31  1  0.081499  0.645450  0.374152  1
  P  P32  1  0.285816  0.300762  0.242008  1
  P  P33  1  0.058753  0.043807  0.757992  1
  P  P34  1  0.558753  0.800762  0.014946  1
  P  P35  1  0.785816  0.543807  0.985054  1
  P  P36  1  0.922936  0.422936  0.500000  1
  P  P37  1  0.422936  0.922936  0.500000  1
  P  P38  1  0.671568  0.666243  0.353648  1
  P  P39  1  0.312595  0.317920  0.646352  1
  P  P40  1  0.812595  0.166243  0.994675  1
  P  P41  1  0.171568  0.817920  0.005325  1
