# generated using pymatgen
data_CoH7F12
_symmetry_space_group_name_H-M   'P 1'
_cell_length_a   7.82672860
_cell_length_b   7.82673627
_cell_length_c   5.16154116
_cell_angle_alpha   75.97222506
_cell_angle_beta   75.97177257
_cell_angle_gamma   48.91299449
_symmetry_Int_Tables_number   1
_chemical_formula_structural   CoH7F12
_chemical_formula_sum   'Co1 H7 F12'
_cell_volume   229.70743423
_cell_formula_units_Z   1
loop_
 _symmetry_equiv_pos_site_id
 _symmetry_equiv_pos_as_xyz
  1  'x, y, z'
loop_
 _atom_site_type_symbol
 _atom_site_label
 _atom_site_symmetry_multiplicity
 _atom_site_fract_x
 _atom_site_fract_y
 _atom_site_fract_z
 _atom_site_occupancy
  Co  Co0  1  0.000506  0.999520  0.999942  1
  H  H1  1  0.813308  0.832780  0.820264  1
  H  H2  1  0.167224  0.186714  0.179745  1
  H  H3  1  0.722523  0.743216  0.588169  1
  H  H4  1  0.256760  0.277467  0.411899  1
  H  H5  1  0.634699  0.638768  0.369552  1
  H  H6  1  0.361206  0.365274  0.630506  1
  H  H7  1  0.501173  0.498801  0.500025  1
  F  F8  1  0.923271  0.921143  0.771536  1
  F  F9  1  0.078854  0.076752  0.228382  1
  F  F10  1  0.570056  0.567083  0.321164  1
  F  F11  1  0.432915  0.429911  0.678871  1
  F  F12  1  0.716727  0.726525  0.398592  1
  F  F13  1  0.273448  0.283259  0.601495  1
  F  F14  1  0.881295  0.264077  0.804203  1
  F  F15  1  0.735948  0.118730  0.195683  1
  F  F16  1  0.119687  0.735345  0.196342  1
  F  F17  1  0.264685  0.880338  0.803563  1
  F  F18  1  0.734215  0.768506  0.826200  1
  F  F19  1  0.231498  0.265792  0.173866  1
