# generated using pymatgen
data_YbPu3Al2Si3Ge
_symmetry_space_group_name_H-M   'P 1'
_cell_length_a   6.82705250
_cell_length_b   6.82705237
_cell_length_c   4.43194100
_cell_angle_alpha   90.00000000
_cell_angle_beta   90.00000000
_cell_angle_gamma   90.01059971
_symmetry_Int_Tables_number   1
_chemical_formula_structural   YbPu3Al2Si3Ge
_chemical_formula_sum   'Yb1 Pu3 Al2 Si3 Ge1'
_cell_volume   206.56676101
_cell_formula_units_Z   1
loop_
 _symmetry_equiv_pos_site_id
 _symmetry_equiv_pos_as_xyz
  1  'x, y, z'
loop_
 _atom_site_type_symbol
 _atom_site_label
 _atom_site_symmetry_multiplicity
 _atom_site_fract_x
 _atom_site_fract_y
 _atom_site_fract_z
 _atom_site_occupancy
  Yb  Yb0  1  0.674687  0.174687  0.500000  1
  Pu  Pu1  1  0.325228  0.825228  0.500000  1
  Pu  Pu2  1  0.829240  0.676967  0.500000  1
  Pu  Pu3  1  0.176967  0.329240  0.500000  1
  Al  Al4  1  0.495514  0.502994  0.000000  1
  Al  Al5  1  0.002994  0.995514  0.000000  1
  Si  Si6  1  0.622406  0.872398  0.000000  1
  Si  Si7  1  0.372398  0.122406  0.000000  1
  Si  Si8  1  0.127555  0.627555  0.000000  1
  Ge  Ge9  1  0.873011  0.373011  0.000000  1
