# generated using pymatgen
data_Y5Sc5CoSi20Ir7
_symmetry_space_group_name_H-M   'P 1'
_cell_length_a   12.47697558
_cell_length_b   12.45612359
_cell_length_c   4.15550400
_cell_angle_alpha   90.00000000
_cell_angle_beta   90.00000000
_cell_angle_gamma   90.09824795
_symmetry_Int_Tables_number   1
_chemical_formula_structural   Y5Sc5CoSi20Ir7
_chemical_formula_sum   'Y5 Sc5 Co1 Si20 Ir7'
_cell_volume   645.82566488
_cell_formula_units_Z   1
loop_
 _symmetry_equiv_pos_site_id
 _symmetry_equiv_pos_as_xyz
  1  'x, y, z'
loop_
 _atom_site_type_symbol
 _atom_site_label
 _atom_site_symmetry_multiplicity
 _atom_site_fract_x
 _atom_site_fract_y
 _atom_site_fract_z
 _atom_site_occupancy
  Y  Y0  1  0.999863  0.999223  0.000000  1
  Y  Y1  1  0.882729  0.387183  0.500000  1
  Y  Y2  1  0.114631  0.614040  0.500000  1
  Y  Y3  1  0.385323  0.116492  0.500000  1
  Y  Y4  1  0.615153  0.882872  0.500000  1
  Sc  Sc5  1  0.505056  0.500421  0.000000  1
  Sc  Sc6  1  0.673135  0.177233  0.500000  1
  Sc  Sc7  1  0.326716  0.825278  0.500000  1
  Sc  Sc8  1  0.174683  0.327784  0.500000  1
  Sc  Sc9  1  0.824740  0.670718  0.500000  1
  Co  Co10  1  0.742268  0.520896  0.000000  1
  Si  Si11  1  0.566930  0.069131  0.000000  1
  Si  Si12  1  0.434146  0.931284  0.000000  1
  Si  Si13  1  0.067601  0.434155  0.000000  1
  Si  Si14  1  0.924918  0.563968  0.000000  1
  Si  Si15  1  0.666412  0.690542  0.000000  1
  Si  Si16  1  0.335037  0.301211  0.000000  1
  Si  Si17  1  0.165616  0.799465  0.000000  1
  Si  Si18  1  0.832409  0.203010  0.000000  1
  Si  Si19  1  0.301605  0.665489  0.000000  1
  Si  Si20  1  0.698518  0.343896  0.000000  1
  Si  Si21  1  0.199763  0.166174  0.000000  1
  Si  Si22  1  0.798436  0.831408  0.000000  1
  Si  Si23  1  0.661198  0.507373  0.500000  1
  Si  Si24  1  0.350794  0.492764  0.500000  1
  Si  Si25  1  0.157574  0.993443  0.500000  1
  Si  Si26  1  0.842773  0.007239  0.500000  1
  Si  Si27  1  0.489931  0.650620  0.500000  1
  Si  Si28  1  0.505277  0.349518  0.500000  1
  Si  Si29  1  0.006089  0.157345  0.500000  1
  Si  Si30  1  0.991080  0.841196  0.500000  1
  Ir  Ir31  1  0.257071  0.479975  0.000000  1
  Ir  Ir32  1  0.247495  0.979259  0.000000  1
  Ir  Ir33  1  0.752771  0.020199  0.000000  1
  Ir  Ir34  1  0.481789  0.742895  0.000000  1
  Ir  Ir35  1  0.521546  0.257906  0.000000  1
  Ir  Ir36  1  0.020241  0.247212  0.000000  1
  Ir  Ir37  1  0.978684  0.751183  0.000000  1
