# generated using pymatgen
data_Mn(AgCl3)2
_symmetry_space_group_name_H-M   'P 1'
_cell_length_a   7.02156441
_cell_length_b   7.02156488
_cell_length_c   7.02156365
_cell_angle_alpha   56.43310078
_cell_angle_beta   56.43309511
_cell_angle_gamma   56.43308719
_symmetry_Int_Tables_number   1
_chemical_formula_structural   Mn(AgCl3)2
_chemical_formula_sum   'Mn1 Ag2 Cl6'
_cell_volume   224.59854583
_cell_formula_units_Z   1
loop_
 _symmetry_equiv_pos_site_id
 _symmetry_equiv_pos_as_xyz
  1  'x, y, z'
loop_
 _atom_site_type_symbol
 _atom_site_label
 _atom_site_symmetry_multiplicity
 _atom_site_fract_x
 _atom_site_fract_y
 _atom_site_fract_z
 _atom_site_occupancy
  Mn  Mn0  1  0.500000  0.500000  0.500000  1
  Ag  Ag1  1  0.765775  0.765775  0.765775  1
  Ag  Ag2  1  0.234225  0.234225  0.234225  1
  Cl  Cl3  1  0.392234  0.159641  0.720627  1
  Cl  Cl4  1  0.159641  0.720627  0.392234  1
  Cl  Cl5  1  0.720627  0.392234  0.159641  1
  Cl  Cl6  1  0.279373  0.607766  0.840359  1
  Cl  Cl7  1  0.840359  0.279373  0.607766  1
  Cl  Cl8  1  0.607766  0.840359  0.279373  1
