# generated using pymatgen
data_Sm2Ta2Bi2O11
_symmetry_space_group_name_H-M   'P 1'
_cell_length_a   6.64008918
_cell_length_b   7.72506919
_cell_length_c   9.85132644
_cell_angle_alpha   101.27109261
_cell_angle_beta   90.42244270
_cell_angle_gamma   90.00265244
_symmetry_Int_Tables_number   1
_chemical_formula_structural   Sm2Ta2Bi2O11
_chemical_formula_sum   'Sm4 Ta4 Bi4 O22'
_cell_volume   495.56520209
_cell_formula_units_Z   2
loop_
 _symmetry_equiv_pos_site_id
 _symmetry_equiv_pos_as_xyz
  1  'x, y, z'
loop_
 _atom_site_type_symbol
 _atom_site_label
 _atom_site_symmetry_multiplicity
 _atom_site_fract_x
 _atom_site_fract_y
 _atom_site_fract_z
 _atom_site_occupancy
  Sm  Sm0  1  0.748454  0.369850  0.482421  1
  Sm  Sm1  1  0.251546  0.630150  0.517579  1
  Sm  Sm2  1  0.759396  0.872602  0.488473  1
  Sm  Sm3  1  0.240604  0.127398  0.511527  1
  Ta  Ta4  1  0.913700  0.701338  0.805945  1
  Ta  Ta5  1  0.086300  0.298662  0.194055  1
  Ta  Ta6  1  0.915074  0.200237  0.808699  1
  Ta  Ta7  1  0.084926  0.799763  0.191301  1
  Bi  Bi8  1  0.434306  0.953519  0.815555  1
  Bi  Bi9  1  0.565694  0.046481  0.184445  1
  Bi  Bi10  1  0.390784  0.454943  0.826947  1
  Bi  Bi11  1  0.609216  0.545057  0.173053  1
  O  O12  1  0.217403  0.725347  0.759798  1
  O  O13  1  0.782597  0.274653  0.240202  1
  O  O14  1  0.632045  0.663256  0.840357  1
  O  O15  1  0.367955  0.336744  0.159643  1
  O  O16  1  0.632709  0.255483  0.844457  1
  O  O17  1  0.367291  0.744517  0.155543  1
  O  O18  1  0.892088  0.155881  0.592724  1
  O  O19  1  0.107912  0.844119  0.407276  1
  O  O20  1  0.215780  0.150938  0.757409  1
  O  O21  1  0.784220  0.849062  0.242591  1
  O  O22  1  0.896766  0.640826  0.594103  1
  O  O23  1  0.103234  0.359174  0.405897  1
  O  O24  1  0.024660  0.549813  0.195522  1
  O  O25  1  0.975340  0.450187  0.804478  1
  O  O26  1  0.997982  0.784240  0.999945  1
  O  O27  1  0.002018  0.215760  0.000055  1
  O  O28  1  0.572221  0.598571  0.391601  1
  O  O29  1  0.427779  0.401429  0.608399  1
  O  O30  1  0.164254  0.055225  0.219332  1
  O  O31  1  0.835746  0.944775  0.780668  1
  O  O32  1  0.546349  0.102659  0.400854  1
  O  O33  1  0.453651  0.897341  0.599146  1
