# generated using pymatgen
data_Ho3MgZn2PdPt2
_symmetry_space_group_name_H-M   'P 1'
_cell_length_a   7.37163613
_cell_length_b   7.37163638
_cell_length_c   3.84820400
_cell_angle_alpha   90.00000000
_cell_angle_beta   90.00000000
_cell_angle_gamma   119.78368432
_symmetry_Int_Tables_number   1
_chemical_formula_structural   Ho3MgZn2PdPt2
_chemical_formula_sum   'Ho3 Mg1 Zn2 Pd1 Pt2'
_cell_volume   181.49264971
_cell_formula_units_Z   1
loop_
 _symmetry_equiv_pos_site_id
 _symmetry_equiv_pos_as_xyz
  1  'x, y, z'
loop_
 _atom_site_type_symbol
 _atom_site_label
 _atom_site_symmetry_multiplicity
 _atom_site_fract_x
 _atom_site_fract_y
 _atom_site_fract_z
 _atom_site_occupancy
  Ho  Ho0  1  0.391679  0.391679  0.000000  1
  Ho  Ho1  1  0.585193  0.011230  0.000000  1
  Ho  Ho2  1  0.011230  0.585193  0.000000  1
  Mg  Mg3  1  0.754800  0.754800  0.500000  1
  Zn  Zn4  1  0.250650  0.995673  0.500000  1
  Zn  Zn5  1  0.995673  0.250650  0.500000  1
  Pd  Pd6  1  0.005704  0.005704  0.000000  1
  Pt  Pt7  1  0.665959  0.339113  0.500000  1
  Pt  Pt8  1  0.339113  0.665959  0.500000  1
