# generated using pymatgen
data_ThTi2(GaPd)2
_symmetry_space_group_name_H-M   'P 1'
_cell_length_a   5.60211390
_cell_length_b   5.60211301
_cell_length_c   5.60211481
_cell_angle_alpha   100.86245206
_cell_angle_beta   102.58262819
_cell_angle_gamma   126.42007359
_symmetry_Int_Tables_number   1
_chemical_formula_structural   ThTi2(GaPd)2
_chemical_formula_sum   'Th1 Ti2 Ga2 Pd2'
_cell_volume   126.26897688
_cell_formula_units_Z   1
loop_
 _symmetry_equiv_pos_site_id
 _symmetry_equiv_pos_as_xyz
  1  'x, y, z'
loop_
 _atom_site_type_symbol
 _atom_site_label
 _atom_site_symmetry_multiplicity
 _atom_site_fract_x
 _atom_site_fract_y
 _atom_site_fract_z
 _atom_site_occupancy
  Th  Th0  1  0.001855  0.000000  0.001855  1
  Ti  Ti1  1  0.249858  0.751309  0.498551  1
  Ti  Ti2  1  0.747242  0.248691  0.498551  1
  Ga  Ga3  1  0.307294  0.299999  0.607289  1
  Ga  Ga4  1  0.307294  0.700001  0.007295  1
  Pd  Pd5  1  0.693230  0.298445  0.991674  1
  Pd  Pd6  1  0.693230  0.701555  0.394786  1
