# generated using pymatgen
data_Yb2HoCoSn6
_symmetry_space_group_name_H-M   'P 1'
_cell_length_a   8.31801714
_cell_length_b   8.31801706
_cell_length_c   13.29814100
_cell_angle_alpha   90.00000000
_cell_angle_beta   90.00000000
_cell_angle_gamma   147.34167770
_symmetry_Int_Tables_number   1
_chemical_formula_structural   Yb2HoCoSn6
_chemical_formula_sum   'Yb4 Ho2 Co2 Sn12'
_cell_volume   496.50664896
_cell_formula_units_Z   2
loop_
 _symmetry_equiv_pos_site_id
 _symmetry_equiv_pos_as_xyz
  1  'x, y, z'
loop_
 _atom_site_type_symbol
 _atom_site_label
 _atom_site_symmetry_multiplicity
 _atom_site_fract_x
 _atom_site_fract_y
 _atom_site_fract_z
 _atom_site_occupancy
  Yb  Yb0  1  0.901274  0.098726  0.097430  1
  Yb  Yb1  1  0.098726  0.901274  0.597430  1
  Yb  Yb2  1  0.098726  0.901274  0.902570  1
  Yb  Yb3  1  0.901274  0.098726  0.402570  1
  Ho  Ho4  1  0.901262  0.098738  0.750000  1
  Ho  Ho5  1  0.098738  0.901262  0.250000  1
  Co  Co6  1  0.294460  0.705540  0.250000  1
  Co  Co7  1  0.705540  0.294460  0.750000  1
  Sn  Sn8  1  0.756419  0.243581  0.570707  1
  Sn  Sn9  1  0.425345  0.574655  0.577647  1
  Sn  Sn10  1  0.574655  0.425345  0.422353  1
  Sn  Sn11  1  0.731375  0.268625  0.250000  1
  Sn  Sn12  1  0.268625  0.731375  0.750000  1
  Sn  Sn13  1  0.243581  0.756419  0.070707  1
  Sn  Sn14  1  0.243581  0.756419  0.429293  1
  Sn  Sn15  1  0.574655  0.425345  0.077647  1
  Sn  Sn16  1  0.454065  0.545935  0.250000  1
  Sn  Sn17  1  0.545935  0.454065  0.750000  1
  Sn  Sn18  1  0.756419  0.243581  0.929293  1
  Sn  Sn19  1  0.425345  0.574655  0.922353  1
