# generated using pymatgen
data_Nd2Y2TmSi4
_symmetry_space_group_name_H-M   'P 1'
_cell_length_a   7.73846900
_cell_length_b   7.73846900
_cell_length_c   14.46467900
_cell_angle_alpha   90.00000000
_cell_angle_beta   90.00000000
_cell_angle_gamma   90.00000000
_symmetry_Int_Tables_number   1
_chemical_formula_structural   Nd2Y2TmSi4
_chemical_formula_sum   'Nd8 Y8 Tm4 Si16'
_cell_volume   866.20142641
_cell_formula_units_Z   4
loop_
 _symmetry_equiv_pos_site_id
 _symmetry_equiv_pos_as_xyz
  1  'x, y, z'
loop_
 _atom_site_type_symbol
 _atom_site_label
 _atom_site_symmetry_multiplicity
 _atom_site_fract_x
 _atom_site_fract_y
 _atom_site_fract_z
 _atom_site_occupancy
  Nd  Nd0  1  0.633904  0.989951  0.454334  1
  Nd  Nd1  1  0.366096  0.010049  0.954334  1
  Nd  Nd2  1  0.989951  0.633904  0.545666  1
  Nd  Nd3  1  0.489951  0.866096  0.204334  1
  Nd  Nd4  1  0.510049  0.133904  0.704334  1
  Nd  Nd5  1  0.866096  0.489951  0.795666  1
  Nd  Nd6  1  0.133904  0.510049  0.295666  1
  Nd  Nd7  1  0.010049  0.366096  0.045666  1
  Y  Y8  1  0.487742  0.365605  0.125051  1
  Y  Y9  1  0.987742  0.134395  0.624949  1
  Y  Y10  1  0.865605  0.012258  0.875051  1
  Y  Y11  1  0.134395  0.987742  0.375051  1
  Y  Y12  1  0.512258  0.634395  0.625051  1
  Y  Y13  1  0.365605  0.487742  0.874949  1
  Y  Y14  1  0.634395  0.512258  0.374949  1
  Y  Y15  1  0.012258  0.865605  0.124949  1
  Tm  Tm16  1  0.313875  0.313875  0.500000  1
  Tm  Tm17  1  0.186125  0.813875  0.750000  1
  Tm  Tm18  1  0.813875  0.186125  0.250000  1
  Tm  Tm19  1  0.686125  0.686125  0.000000  1
  Si  Si20  1  0.287312  0.930720  0.561773  1
  Si  Si21  1  0.712688  0.069280  0.061773  1
  Si  Si22  1  0.930720  0.287312  0.438227  1
  Si  Si23  1  0.430720  0.212688  0.311773  1
  Si  Si24  1  0.569280  0.787312  0.811773  1
  Si  Si25  1  0.212688  0.430720  0.688227  1
  Si  Si26  1  0.787312  0.569280  0.188227  1
  Si  Si27  1  0.069280  0.712688  0.938227  1
  Si  Si28  1  0.802157  0.839176  0.694224  1
  Si  Si29  1  0.197843  0.160824  0.194224  1
  Si  Si30  1  0.839176  0.802157  0.305776  1
  Si  Si31  1  0.339176  0.697843  0.444224  1
  Si  Si32  1  0.660824  0.302157  0.944224  1
  Si  Si33  1  0.697843  0.339176  0.555776  1
  Si  Si34  1  0.302157  0.660824  0.055776  1
  Si  Si35  1  0.160824  0.197843  0.805776  1
