# generated using pymatgen
data_MnCd6IO12
_symmetry_space_group_name_H-M   'P 1'
_cell_length_a   5.70194959
_cell_length_b   5.53429316
_cell_length_c   9.78895858
_cell_angle_alpha   56.06558165
_cell_angle_beta   90.59883569
_cell_angle_gamma   90.16854751
_symmetry_Int_Tables_number   1
_chemical_formula_structural   MnCd6IO12
_chemical_formula_sum   'Mn1 Cd6 I1 O12'
_cell_volume   256.27412651
_cell_formula_units_Z   1
loop_
 _symmetry_equiv_pos_site_id
 _symmetry_equiv_pos_as_xyz
  1  'x, y, z'
loop_
 _atom_site_type_symbol
 _atom_site_label
 _atom_site_symmetry_multiplicity
 _atom_site_fract_x
 _atom_site_fract_y
 _atom_site_fract_z
 _atom_site_occupancy
  Mn  Mn0  1  0.000000  0.000000  0.000000  1
  Cd  Cd1  1  0.957948  0.277322  0.220861  1
  Cd  Cd2  1  0.444409  0.788963  0.231797  1
  Cd  Cd3  1  0.042052  0.722678  0.779139  1
  Cd  Cd4  1  0.555591  0.211037  0.768203  1
  Cd  Cd5  1  0.000000  0.500000  0.500000  1
  Cd  Cd6  1  0.500000  0.500000  0.000000  1
  I  I7  1  0.500000  0.000000  0.500000  1
  O  O8  1  0.271100  0.895728  0.924169  1
  O  O9  1  0.779840  0.066671  0.584823  1
  O  O10  1  0.728900  0.104272  0.075831  1
  O  O11  1  0.220160  0.933329  0.415177  1
  O  O12  1  0.188292  0.231864  0.048809  1
  O  O13  1  0.667029  0.774959  0.439831  1
  O  O14  1  0.811708  0.768136  0.951191  1
  O  O15  1  0.332971  0.225041  0.560169  1
  O  O16  1  0.427063  0.655769  0.713672  1
  O  O17  1  0.932680  0.335845  0.773886  1
  O  O18  1  0.572937  0.344231  0.286328  1
  O  O19  1  0.067320  0.664155  0.226114  1
