# generated using pymatgen
data_Mn8TcW3
_symmetry_space_group_name_H-M   'P 1'
_cell_length_a   4.69724600
_cell_length_b   4.69724482
_cell_length_c   7.74070400
_cell_angle_alpha   90.00000000
_cell_angle_beta   90.00000000
_cell_angle_gamma   120.00000832
_symmetry_Int_Tables_number   1
_chemical_formula_structural   Mn8TcW3
_chemical_formula_sum   'Mn8 Tc1 W3'
_cell_volume   147.91000687
_cell_formula_units_Z   1
loop_
 _symmetry_equiv_pos_site_id
 _symmetry_equiv_pos_as_xyz
  1  'x, y, z'
loop_
 _atom_site_type_symbol
 _atom_site_label
 _atom_site_symmetry_multiplicity
 _atom_site_fract_x
 _atom_site_fract_y
 _atom_site_fract_z
 _atom_site_occupancy
  Mn  Mn0  1  0.000000  0.000000  0.501114  1
  Mn  Mn1  1  0.000000  0.000000  0.001035  1
  Mn  Mn2  1  0.827502  0.172498  0.250776  1
  Mn  Mn3  1  0.827502  0.655005  0.250776  1
  Mn  Mn4  1  0.344995  0.172498  0.250776  1
  Mn  Mn5  1  0.172293  0.827707  0.749253  1
  Mn  Mn6  1  0.172293  0.344586  0.749253  1
  Mn  Mn7  1  0.655414  0.827707  0.749253  1
  Tc  Tc8  1  0.333333  0.666667  0.432013  1
  W  W9  1  0.666667  0.333333  0.563197  1
  W  W10  1  0.666667  0.333333  0.934789  1
  W  W11  1  0.333333  0.666667  0.067769  1
