# generated using pymatgen
data_Cs11K(FeSe3)4
_symmetry_space_group_name_H-M   'P 1'
_cell_length_a   10.95223633
_cell_length_b   10.95223647
_cell_length_c   14.05732044
_cell_angle_alpha   89.80388558
_cell_angle_beta   89.80388457
_cell_angle_gamma   139.86024170
_symmetry_Int_Tables_number   1
_chemical_formula_structural   Cs11K(FeSe3)4
_chemical_formula_sum   'Cs11 K1 Fe4 Se12'
_cell_volume   1086.95963932
_cell_formula_units_Z   1
loop_
 _symmetry_equiv_pos_site_id
 _symmetry_equiv_pos_as_xyz
  1  'x, y, z'
loop_
 _atom_site_type_symbol
 _atom_site_label
 _atom_site_symmetry_multiplicity
 _atom_site_fract_x
 _atom_site_fract_y
 _atom_site_fract_z
 _atom_site_occupancy
  Cs  Cs0  1  0.138667  0.138667  0.321336  1
  Cs  Cs1  1  0.639579  0.639579  0.174620  1
  Cs  Cs2  1  0.360748  0.360748  0.818175  1
  Cs  Cs3  1  0.167584  0.522264  0.127264  1
  Cs  Cs4  1  0.482325  0.830941  0.875103  1
  Cs  Cs5  1  0.975183  0.330015  0.629307  1
  Cs  Cs6  1  0.669885  0.020044  0.375574  1
  Cs  Cs7  1  0.830941  0.482325  0.875103  1
  Cs  Cs8  1  0.522264  0.167584  0.127264  1
  Cs  Cs9  1  0.020044  0.669885  0.375574  1
  Cs  Cs10  1  0.330015  0.975183  0.629307  1
  K  K11  1  0.843484  0.843484  0.662891  1
  Fe  Fe12  1  0.923619  0.084364  0.997768  1
  Fe  Fe13  1  0.415276  0.573443  0.503011  1
  Fe  Fe14  1  0.084364  0.923619  0.997768  1
  Fe  Fe15  1  0.573443  0.415276  0.503011  1
  Se  Se16  1  0.273202  0.273202  0.567752  1
  Se  Se17  1  0.706172  0.706172  0.432571  1
  Se  Se18  1  0.212297  0.212297  0.066697  1
  Se  Se19  1  0.808227  0.808227  0.917595  1
  Se  Se20  1  0.714045  0.003785  0.116840  1
  Se  Se21  1  0.000658  0.298743  0.885637  1
  Se  Se22  1  0.502573  0.784657  0.621738  1
  Se  Se23  1  0.211933  0.506289  0.386940  1
  Se  Se24  1  0.298743  0.000658  0.885637  1
  Se  Se25  1  0.003785  0.714045  0.116840  1
  Se  Se26  1  0.506289  0.211933  0.386940  1
  Se  Se27  1  0.784657  0.502573  0.621738  1
