# generated using pymatgen
data_Ho7UAlPd24
_symmetry_space_group_name_H-M   'P 1'
_cell_length_a   8.30626530
_cell_length_b   8.30626542
_cell_length_c   8.30626600
_cell_angle_alpha   89.84271391
_cell_angle_beta   89.84271391
_cell_angle_gamma   89.84271729
_symmetry_Int_Tables_number   1
_chemical_formula_structural   Ho7UAlPd24
_chemical_formula_sum   'Ho7 U1 Al1 Pd24'
_cell_volume   573.07641769
_cell_formula_units_Z   1
loop_
 _symmetry_equiv_pos_site_id
 _symmetry_equiv_pos_as_xyz
  1  'x, y, z'
loop_
 _atom_site_type_symbol
 _atom_site_label
 _atom_site_symmetry_multiplicity
 _atom_site_fract_x
 _atom_site_fract_y
 _atom_site_fract_z
 _atom_site_occupancy
  Ho  Ho0  1  0.747242  0.747242  0.747242  1
  Ho  Ho1  1  0.747756  0.747756  0.252164  1
  Ho  Ho2  1  0.747756  0.252164  0.747756  1
  Ho  Ho3  1  0.252344  0.252344  0.748782  1
  Ho  Ho4  1  0.252344  0.748782  0.252344  1
  Ho  Ho5  1  0.252164  0.747756  0.747756  1
  Ho  Ho6  1  0.748782  0.252344  0.252344  1
  U  U7  1  0.254241  0.254241  0.254241  1
  Al  Al8  1  0.998257  0.998257  0.998257  1
  Pd  Pd9  1  0.259286  0.497246  0.004447  1
  Pd  Pd10  1  0.740954  0.499044  0.000261  1
  Pd  Pd11  1  0.004447  0.259286  0.497246  1
  Pd  Pd12  1  0.497246  0.259286  0.004447  1
  Pd  Pd13  1  0.000261  0.740954  0.499044  1
  Pd  Pd14  1  0.499044  0.740954  0.000261  1
  Pd  Pd15  1  0.497246  0.004447  0.259286  1
  Pd  Pd16  1  0.259286  0.004447  0.497246  1
  Pd  Pd17  1  0.499044  0.000261  0.740954  1
  Pd  Pd18  1  0.740954  0.000261  0.499044  1
  Pd  Pd19  1  0.004447  0.497246  0.259286  1
  Pd  Pd20  1  0.000261  0.499044  0.740954  1
  Pd  Pd21  1  0.252995  0.496972  0.496972  1
  Pd  Pd22  1  0.747516  0.499414  0.499414  1
  Pd  Pd23  1  0.496972  0.252995  0.496972  1
  Pd  Pd24  1  0.499414  0.747516  0.499414  1
  Pd  Pd25  1  0.496972  0.496972  0.252995  1
  Pd  Pd26  1  0.499414  0.499414  0.747516  1
  Pd  Pd27  1  0.287022  0.002667  0.002667  1
  Pd  Pd28  1  0.711313  0.999839  0.999839  1
  Pd  Pd29  1  0.002667  0.287022  0.002667  1
  Pd  Pd30  1  0.999839  0.711313  0.999839  1
  Pd  Pd31  1  0.002667  0.002667  0.287022  1
  Pd  Pd32  1  0.999839  0.999839  0.711313  1
