# generated using pymatgen
data_Tb3ErAl18RePd5
_symmetry_space_group_name_H-M   'P 1'
_cell_length_a   7.62829185
_cell_length_b   7.63111098
_cell_length_c   9.50963179
_cell_angle_alpha   89.81909463
_cell_angle_beta   89.77751458
_cell_angle_gamma   119.31468039
_symmetry_Int_Tables_number   1
_chemical_formula_structural   Tb3ErAl18RePd5
_chemical_formula_sum   'Tb3 Er1 Al18 Re1 Pd5'
_cell_volume   482.67711563
_cell_formula_units_Z   1
loop_
 _symmetry_equiv_pos_site_id
 _symmetry_equiv_pos_as_xyz
  1  'x, y, z'
loop_
 _atom_site_type_symbol
 _atom_site_label
 _atom_site_symmetry_multiplicity
 _atom_site_fract_x
 _atom_site_fract_y
 _atom_site_fract_z
 _atom_site_occupancy
  Tb  Tb0  1  0.995738  0.674202  0.248092  1
  Tb  Tb1  1  0.004527  0.325719  0.751844  1
  Tb  Tb2  1  0.674052  0.995580  0.248172  1
  Er  Er3  1  0.325091  0.004405  0.752389  1
  Al  Al4  1  0.132355  0.132272  0.247333  1
  Al  Al5  1  0.868173  0.867833  0.752488  1
  Al  Al6  1  0.000327  0.331056  0.074810  1
  Al  Al7  1  0.000404  0.669501  0.924704  1
  Al  Al8  1  0.998950  0.663166  0.578811  1
  Al  Al9  1  0.337284  0.001501  0.422012  1
  Al  Al10  1  0.001576  0.337375  0.421550  1
  Al  Al11  1  0.662005  0.998422  0.578871  1
  Al  Al12  1  0.668342  0.999706  0.924805  1
  Al  Al13  1  0.331198  0.000278  0.074280  1
  Al  Al14  1  0.334054  0.333541  0.556668  1
  Al  Al15  1  0.665985  0.665965  0.443856  1
  Al  Al16  1  0.670206  0.670177  0.052536  1
  Al  Al17  1  0.329976  0.329439  0.946938  1
  Al  Al18  1  0.342294  0.549332  0.249190  1
  Al  Al19  1  0.657267  0.450002  0.750763  1
  Al  Al20  1  0.549305  0.342168  0.249224  1
  Al  Al21  1  0.450474  0.658074  0.750764  1
  Re  Re22  1  0.000380  0.000158  0.999610  1
  Pd  Pd23  1  0.671925  0.327825  0.999813  1
  Pd  Pd24  1  0.327972  0.672238  0.999809  1
  Pd  Pd25  1  0.327693  0.672556  0.500205  1
  Pd  Pd26  1  0.672139  0.327481  0.500180  1
  Pd  Pd27  1  0.000305  0.000028  0.500282  1
