# generated using pymatgen
data_Ho6Zr4SnSb5
_symmetry_space_group_name_H-M   'P 1'
_cell_length_a   8.80263000
_cell_length_b   8.80318582
_cell_length_c   5.98806900
_cell_angle_alpha   90.00000000
_cell_angle_beta   90.00000000
_cell_angle_gamma   119.99791141
_symmetry_Int_Tables_number   1
_chemical_formula_structural   Ho6Zr4SnSb5
_chemical_formula_sum   'Ho6 Zr4 Sn1 Sb5'
_cell_volume   401.86379787
_cell_formula_units_Z   1
loop_
 _symmetry_equiv_pos_site_id
 _symmetry_equiv_pos_as_xyz
  1  'x, y, z'
loop_
 _atom_site_type_symbol
 _atom_site_label
 _atom_site_symmetry_multiplicity
 _atom_site_fract_x
 _atom_site_fract_y
 _atom_site_fract_z
 _atom_site_occupancy
  Ho  Ho0  1  0.001021  0.751763  0.750000  1
  Ho  Ho1  1  0.999167  0.246451  0.250000  1
  Ho  Ho2  1  0.752715  0.753549  0.250000  1
  Ho  Ho3  1  0.753489  0.000000  0.750000  1
  Ho  Ho4  1  0.249257  0.248237  0.750000  1
  Ho  Ho5  1  0.246667  0.000000  0.250000  1
  Zr  Zr6  1  0.332516  0.665204  0.500700  1
  Zr  Zr7  1  0.667313  0.334796  0.999300  1
  Zr  Zr8  1  0.667313  0.334796  0.500700  1
  Zr  Zr9  1  0.332516  0.665204  0.999300  1
  Sn  Sn10  1  0.602624  0.000000  0.250000  1
  Sb  Sb11  1  0.395213  0.000000  0.750000  1
  Sb  Sb12  1  0.393589  0.393844  0.250000  1
  Sb  Sb13  1  0.999744  0.606156  0.250000  1
  Sb  Sb14  1  0.999666  0.392477  0.750000  1
  Sb  Sb15  1  0.607189  0.607523  0.750000  1
