# generated using pymatgen
data_SrMnV2F10
_symmetry_space_group_name_H-M   'P 1'
_cell_length_a   10.63931586
_cell_length_b   9.19647590
_cell_length_c   7.69330001
_cell_angle_alpha   77.52478542
_cell_angle_beta   57.56254321
_cell_angle_gamma   44.91267656
_symmetry_Int_Tables_number   1
_chemical_formula_structural   SrMnV2F10
_chemical_formula_sum   'Sr2 Mn2 V4 F20'
_cell_volume   431.25167191
_cell_formula_units_Z   2
loop_
 _symmetry_equiv_pos_site_id
 _symmetry_equiv_pos_as_xyz
  1  'x, y, z'
loop_
 _atom_site_type_symbol
 _atom_site_label
 _atom_site_symmetry_multiplicity
 _atom_site_fract_x
 _atom_site_fract_y
 _atom_site_fract_z
 _atom_site_occupancy
  Sr  Sr0  1  0.005446  0.994554  0.994554  1
  Sr  Sr1  1  0.255446  0.244554  0.244554  1
  Mn  Mn2  1  0.505219  0.494781  0.494781  1
  Mn  Mn3  1  0.755219  0.744781  0.744781  1
  V  V4  1  0.262331  0.249243  0.737354  1
  V  V5  1  0.751072  0.737354  0.249243  1
  V  V6  1  0.512646  0.498928  0.987669  1
  V  V7  1  0.000757  0.987669  0.498928  1
  F  F8  1  0.152285  0.129524  0.844624  1
  F  F9  1  0.873568  0.844624  0.129524  1
  F  F10  1  0.405376  0.376432  0.097715  1
  F  F11  1  0.120476  0.097715  0.376432  1
  F  F12  1  0.805438  0.200247  0.785870  1
  F  F13  1  0.208447  0.785870  0.200247  1
  F  F14  1  0.464130  0.041553  0.444562  1
  F  F15  1  0.049753  0.444562  0.041553  1
  F  F16  1  0.857066  0.633997  0.436656  1
  F  F17  1  0.072281  0.436656  0.633997  1
  F  F18  1  0.813344  0.177719  0.392934  1
  F  F19  1  0.616003  0.392934  0.177719  1
  F  F20  1  0.630301  0.625138  0.369367  1
  F  F21  1  0.375195  0.369367  0.625138  1
  F  F22  1  0.880633  0.874805  0.619699  1
  F  F23  1  0.624862  0.619699  0.874805  1
  F  F24  1  0.447756  0.060737  0.845104  1
  F  F25  1  0.646404  0.845104  0.060737  1
  F  F26  1  0.404896  0.603596  0.802244  1
  F  F27  1  0.189263  0.802244  0.603596  1
