# generated using pymatgen
data_Tm2VFe4P6Rh5
_symmetry_space_group_name_H-M   'P 1'
_cell_length_a   3.77627900
_cell_length_b   10.51438400
_cell_length_c   12.30932900
_cell_angle_alpha   90.00000000
_cell_angle_beta   90.00000000
_cell_angle_gamma   90.00000000
_symmetry_Int_Tables_number   1
_chemical_formula_structural   Tm2VFe4P6Rh5
_chemical_formula_sum   'Tm4 V2 Fe8 P12 Rh10'
_cell_volume   488.74495447
_cell_formula_units_Z   2
loop_
 _symmetry_equiv_pos_site_id
 _symmetry_equiv_pos_as_xyz
  1  'x, y, z'
loop_
 _atom_site_type_symbol
 _atom_site_label
 _atom_site_symmetry_multiplicity
 _atom_site_fract_x
 _atom_site_fract_y
 _atom_site_fract_z
 _atom_site_occupancy
  Tm  Tm0  1  0.250000  0.580671  0.711033  1
  Tm  Tm1  1  0.250000  0.919329  0.211033  1
  Tm  Tm2  1  0.750000  0.424718  0.290334  1
  Tm  Tm3  1  0.750000  0.075282  0.790334  1
  V  V4  1  0.250000  0.700257  0.991236  1
  V  V5  1  0.250000  0.799743  0.491236  1
  Fe  Fe6  1  0.250000  0.875081  0.695063  1
  Fe  Fe7  1  0.250000  0.624919  0.195063  1
  Fe  Fe8  1  0.750000  0.120752  0.301740  1
  Fe  Fe9  1  0.750000  0.379248  0.801740  1
  Fe  Fe10  1  0.250000  0.458484  0.936896  1
  Fe  Fe11  1  0.250000  0.041516  0.436896  1
  Fe  Fe12  1  0.750000  0.536378  0.063082  1
  Fe  Fe13  1  0.750000  0.963622  0.563082  1
  P  P14  1  0.250000  0.440202  0.114095  1
  P  P15  1  0.250000  0.059798  0.614095  1
  P  P16  1  0.750000  0.565312  0.888435  1
  P  P17  1  0.750000  0.934688  0.388435  1
  P  P18  1  0.250000  0.271042  0.862516  1
  P  P19  1  0.250000  0.228958  0.362516  1
  P  P20  1  0.750000  0.725723  0.134807  1
  P  P21  1  0.750000  0.774277  0.634807  1
  P  P22  1  0.250000  0.602431  0.381982  1
  P  P23  1  0.250000  0.897569  0.881982  1
  P  P24  1  0.750000  0.401158  0.618442  1
  P  P25  1  0.750000  0.098842  0.118442  1
  Rh  Rh26  1  0.750000  0.291833  0.009813  1
  Rh  Rh27  1  0.750000  0.208167  0.509813  1
  Rh  Rh28  1  0.250000  0.405532  0.479049  1
  Rh  Rh29  1  0.250000  0.094468  0.979049  1
  Rh  Rh30  1  0.750000  0.595829  0.521691  1
  Rh  Rh31  1  0.750000  0.904171  0.021691  1
  Rh  Rh32  1  0.250000  0.231307  0.174832  1
  Rh  Rh33  1  0.250000  0.268693  0.674832  1
  Rh  Rh34  1  0.750000  0.771486  0.824955  1
  Rh  Rh35  1  0.750000  0.728514  0.324955  1
