# generated using pymatgen
data_Tm5In2Sb
_symmetry_space_group_name_H-M   'P 1'
_cell_length_a   8.87513700
_cell_length_b   8.87237035
_cell_length_c   6.45787900
_cell_angle_alpha   90.00000000
_cell_angle_beta   90.00000000
_cell_angle_gamma   120.01031943
_symmetry_Int_Tables_number   1
_chemical_formula_structural   Tm5In2Sb
_chemical_formula_sum   'Tm10 In4 Sb2'
_cell_volume   440.34198227
_cell_formula_units_Z   2
loop_
 _symmetry_equiv_pos_site_id
 _symmetry_equiv_pos_as_xyz
  1  'x, y, z'
loop_
 _atom_site_type_symbol
 _atom_site_label
 _atom_site_symmetry_multiplicity
 _atom_site_fract_x
 _atom_site_fract_y
 _atom_site_fract_z
 _atom_site_occupancy
  Tm  Tm0  1  0.331563  0.665251  0.003568  1
  Tm  Tm1  1  0.666313  0.334749  0.496432  1
  Tm  Tm2  1  0.666313  0.334749  0.003568  1
  Tm  Tm3  1  0.331563  0.665251  0.496432  1
  Tm  Tm4  1  0.237045  0.000000  0.250000  1
  Tm  Tm5  1  0.759621  0.000000  0.750000  1
  Tm  Tm6  1  0.000090  0.238961  0.250000  1
  Tm  Tm7  1  0.761129  0.761039  0.250000  1
  Tm  Tm8  1  0.239379  0.235807  0.750000  1
  Tm  Tm9  1  0.003572  0.764193  0.750000  1
  In  In10  1  0.603773  0.000000  0.250000  1
  In  In11  1  0.400222  0.000000  0.750000  1
  In  In12  1  0.999302  0.605943  0.250000  1
  In  In13  1  0.393359  0.394057  0.250000  1
  Sb  Sb14  1  0.606561  0.606365  0.750000  1
  Sb  Sb15  1  0.000196  0.393635  0.750000  1
