# generated using pymatgen
data_Yb5YEr2(Si3Au)4
_symmetry_space_group_name_H-M   'P 1'
_cell_length_a   8.29007850
_cell_length_b   8.29007935
_cell_length_c   8.15967200
_cell_angle_alpha   90.00000000
_cell_angle_beta   90.00000000
_cell_angle_gamma   120.34009342
_symmetry_Int_Tables_number   1
_chemical_formula_structural   Yb5YEr2(Si3Au)4
_chemical_formula_sum   'Yb5 Y1 Er2 Si12 Au4'
_cell_volume   483.97408682
_cell_formula_units_Z   1
loop_
 _symmetry_equiv_pos_site_id
 _symmetry_equiv_pos_as_xyz
  1  'x, y, z'
loop_
 _atom_site_type_symbol
 _atom_site_label
 _atom_site_symmetry_multiplicity
 _atom_site_fract_x
 _atom_site_fract_y
 _atom_site_fract_z
 _atom_site_occupancy
  Yb  Yb0  1  0.503107  0.005797  0.250000  1
  Yb  Yb1  1  0.496440  0.993257  0.750000  1
  Yb  Yb2  1  0.994203  0.496893  0.250000  1
  Yb  Yb3  1  0.006743  0.503560  0.750000  1
  Yb  Yb4  1  0.502938  0.497062  0.250000  1
  Y  Y5  1  0.999533  0.000467  0.250000  1
  Er  Er6  1  0.497914  0.502086  0.750000  1
  Er  Er7  1  0.999943  0.000057  0.750000  1
  Si  Si8  1  0.163000  0.324047  0.997155  1
  Si  Si9  1  0.837404  0.676552  0.995035  1
  Si  Si10  1  0.675953  0.837000  0.997155  1
  Si  Si11  1  0.837404  0.676552  0.504965  1
  Si  Si12  1  0.323448  0.162596  0.995035  1
  Si  Si13  1  0.163000  0.324047  0.502845  1
  Si  Si14  1  0.161803  0.838197  0.000857  1
  Si  Si15  1  0.323448  0.162596  0.504965  1
  Si  Si16  1  0.838037  0.161963  0.996740  1
  Si  Si17  1  0.675953  0.837000  0.502845  1
  Si  Si18  1  0.838037  0.161963  0.503260  1
  Si  Si19  1  0.161803  0.838197  0.499143  1
  Au  Au20  1  0.333072  0.666928  0.004294  1
  Au  Au21  1  0.666872  0.333128  0.988108  1
  Au  Au22  1  0.666872  0.333128  0.511892  1
  Au  Au23  1  0.333072  0.666928  0.495706  1
