# generated using pymatgen
data_Lu8ReB24Ir2W
_symmetry_space_group_name_H-M   'P 1'
_cell_length_a   3.60228300
_cell_length_b   9.07050710
_cell_length_c   11.45158201
_cell_angle_alpha   90.28771134
_cell_angle_beta   90.00000000
_cell_angle_gamma   90.00000000
_symmetry_Int_Tables_number   1
_chemical_formula_structural   Lu8ReB24Ir2W
_chemical_formula_sum   'Lu8 Re1 B24 Ir2 W1'
_cell_volume   374.17038258
_cell_formula_units_Z   1
loop_
 _symmetry_equiv_pos_site_id
 _symmetry_equiv_pos_as_xyz
  1  'x, y, z'
loop_
 _atom_site_type_symbol
 _atom_site_label
 _atom_site_symmetry_multiplicity
 _atom_site_fract_x
 _atom_site_fract_y
 _atom_site_fract_z
 _atom_site_occupancy
  Lu  Lu0  1  0.000000  0.315389  0.410670  1
  Lu  Lu1  1  0.000000  0.684761  0.589717  1
  Lu  Lu2  1  0.000000  0.824798  0.081934  1
  Lu  Lu3  1  0.000000  0.173860  0.916667  1
  Lu  Lu4  1  0.000000  0.945424  0.373741  1
  Lu  Lu5  1  0.000000  0.053826  0.628107  1
  Lu  Lu6  1  0.000000  0.443668  0.125215  1
  Lu  Lu7  1  0.000000  0.558636  0.873859  1
  Re  Re8  1  0.000000  0.861142  0.819573  1
  B  B9  1  0.500000  0.554009  0.435154  1
  B  B10  1  0.500000  0.446036  0.565134  1
  B  B11  1  0.500000  0.050460  0.064490  1
  B  B12  1  0.500000  0.946939  0.932389  1
  B  B13  1  0.500000  0.750361  0.421966  1
  B  B14  1  0.500000  0.249580  0.578396  1
  B  B15  1  0.500000  0.251598  0.078143  1
  B  B16  1  0.500000  0.750851  0.919319  1
  B  B17  1  0.500000  0.791665  0.265981  1
  B  B18  1  0.500000  0.207930  0.734775  1
  B  B19  1  0.500000  0.296381  0.236626  1
  B  B20  1  0.500000  0.706245  0.764697  1
  B  B21  1  0.500000  0.631709  0.183565  1
  B  B22  1  0.500000  0.368638  0.816587  1
  B  B23  1  0.500000  0.131625  0.318015  1
  B  B24  1  0.500000  0.868428  0.684162  1
  B  B25  1  0.500000  0.977538  0.213772  1
  B  B26  1  0.500000  0.018563  0.786559  1
  B  B27  1  0.500000  0.482069  0.287608  1
  B  B28  1  0.500000  0.518604  0.712546  1
  B  B29  1  0.500000  0.605415  0.029028  1
  B  B30  1  0.500000  0.396192  0.969976  1
  B  B31  1  0.500000  0.105657  0.472415  1
  B  B32  1  0.500000  0.894001  0.529062  1
  Ir  Ir33  1  0.000000  0.637157  0.322421  1
  Ir  Ir34  1  0.000000  0.362792  0.678280  1
  W  W35  1  0.000000  0.138057  0.179451  1
