# generated using pymatgen
data_Re2TcTe4Cl
_symmetry_space_group_name_H-M   'P 1'
_cell_length_a   12.32668200
_cell_length_b   7.09739979
_cell_length_c   11.69358263
_cell_angle_alpha   67.30635736
_cell_angle_beta   90.00000000
_cell_angle_gamma   90.00000000
_symmetry_Int_Tables_number   1
_chemical_formula_structural   Re2TcTe4Cl
_chemical_formula_sum   'Re8 Tc4 Te16 Cl4'
_cell_volume   943.83811452
_cell_formula_units_Z   4
loop_
 _symmetry_equiv_pos_site_id
 _symmetry_equiv_pos_as_xyz
  1  'x, y, z'
loop_
 _atom_site_type_symbol
 _atom_site_label
 _atom_site_symmetry_multiplicity
 _atom_site_fract_x
 _atom_site_fract_y
 _atom_site_fract_z
 _atom_site_occupancy
  Re  Re0  1  0.581481  0.016905  0.357808  1
  Re  Re1  1  0.918519  0.016905  0.857808  1
  Re  Re2  1  0.418519  0.983095  0.642192  1
  Re  Re3  1  0.081481  0.983095  0.142192  1
  Re  Re4  1  0.367691  0.978739  0.421560  1
  Re  Re5  1  0.132309  0.978739  0.921560  1
  Re  Re6  1  0.632309  0.021261  0.578440  1
  Re  Re7  1  0.867691  0.021261  0.078440  1
  Tc  Tc8  1  0.513571  0.710505  0.563462  1
  Tc  Tc9  1  0.986429  0.710505  0.063462  1
  Tc  Tc10  1  0.486429  0.289495  0.436538  1
  Tc  Tc11  1  0.013571  0.289495  0.936538  1
  Te  Te12  1  0.459009  0.719813  0.327192  1
  Te  Te13  1  0.040991  0.719813  0.827192  1
  Te  Te14  1  0.540991  0.280187  0.672808  1
  Te  Te15  1  0.959009  0.280187  0.172808  1
  Te  Te16  1  0.303527  0.666049  0.632108  1
  Te  Te17  1  0.196473  0.666049  0.132108  1
  Te  Te18  1  0.696473  0.333951  0.367892  1
  Te  Te19  1  0.803527  0.333951  0.867892  1
  Te  Te20  1  0.434999  0.287444  0.211639  1
  Te  Te21  1  0.065001  0.287444  0.711639  1
  Te  Te22  1  0.565001  0.712556  0.788361  1
  Te  Te23  1  0.934999  0.712556  0.288361  1
  Te  Te24  1  0.725644  0.742430  0.504515  1
  Te  Te25  1  0.774356  0.742430  0.004515  1
  Te  Te26  1  0.274356  0.257570  0.495485  1
  Te  Te27  1  0.225644  0.257570  0.995485  1
  Cl  Cl28  1  0.179883  0.941014  0.341295  1
  Cl  Cl29  1  0.320117  0.941014  0.841295  1
  Cl  Cl30  1  0.820117  0.058986  0.658705  1
  Cl  Cl31  1  0.679883  0.058986  0.158705  1
