# generated using pymatgen
data_CsPr2CuS4
_symmetry_space_group_name_H-M   'P 1'
_cell_length_a   4.14621900
_cell_length_b   7.55652964
_cell_length_c   14.22508000
_cell_angle_alpha   90.00000000
_cell_angle_beta   90.00000000
_cell_angle_gamma   105.92308577
_symmetry_Int_Tables_number   1
_chemical_formula_structural   CsPr2CuS4
_chemical_formula_sum   'Cs2 Pr4 Cu2 S8'
_cell_volume   428.58575414
_cell_formula_units_Z   2
loop_
 _symmetry_equiv_pos_site_id
 _symmetry_equiv_pos_as_xyz
  1  'x, y, z'
loop_
 _atom_site_type_symbol
 _atom_site_label
 _atom_site_symmetry_multiplicity
 _atom_site_fract_x
 _atom_site_fract_y
 _atom_site_fract_z
 _atom_site_occupancy
  Cs  Cs0  1  0.104754  0.209508  0.250000  1
  Cs  Cs1  1  0.895245  0.790491  0.750000  1
  Pr  Pr2  1  0.366280  0.732560  0.059875  1
  Pr  Pr3  1  0.366280  0.732560  0.440125  1
  Pr  Pr4  1  0.633719  0.267440  0.559875  1
  Pr  Pr5  1  0.633719  0.267440  0.940125  1
  Cu  Cu6  1  0.833105  0.666211  0.250000  1
  Cu  Cu7  1  0.166894  0.333789  0.750000  1
  S  S8  1  0.000000  0.000000  0.000000  1
  S  S9  1  0.743713  0.487426  0.110118  1
  S  S10  1  0.416910  0.833820  0.250000  1
  S  S11  1  0.743713  0.487426  0.389882  1
  S  S12  1  0.000000  0.000000  0.500000  1
  S  S13  1  0.256287  0.512574  0.610118  1
  S  S14  1  0.583089  0.166179  0.750000  1
  S  S15  1  0.256287  0.512574  0.889882  1
