# generated using pymatgen
data_Y6Al21Co2(SiOs2)3
_symmetry_space_group_name_H-M   'P 1'
_cell_length_a   8.68775500
_cell_length_b   8.68775429
_cell_length_c   9.50730100
_cell_angle_alpha   90.00000000
_cell_angle_beta   90.00000000
_cell_angle_gamma   119.99999890
_symmetry_Int_Tables_number   1
_chemical_formula_structural   Y6Al21Co2(SiOs2)3
_chemical_formula_sum   'Y6 Al21 Co2 Si3 Os6'
_cell_volume   621.44539607
_cell_formula_units_Z   1
loop_
 _symmetry_equiv_pos_site_id
 _symmetry_equiv_pos_as_xyz
  1  'x, y, z'
loop_
 _atom_site_type_symbol
 _atom_site_label
 _atom_site_symmetry_multiplicity
 _atom_site_fract_x
 _atom_site_fract_y
 _atom_site_fract_z
 _atom_site_occupancy
  Y  Y0  1  0.195071  0.390143  0.248304  1
  Y  Y1  1  0.804399  0.608797  0.752403  1
  Y  Y2  1  0.609857  0.804929  0.248304  1
  Y  Y3  1  0.391203  0.195601  0.752403  1
  Y  Y4  1  0.195071  0.804929  0.248304  1
  Y  Y5  1  0.804399  0.195601  0.752403  1
  Al  Al6  1  0.333333  0.666667  0.484356  1
  Al  Al7  1  0.159768  0.319536  0.573998  1
  Al  Al8  1  0.839179  0.678357  0.424220  1
  Al  Al9  1  0.680464  0.840232  0.573998  1
  Al  Al10  1  0.839101  0.678202  0.076031  1
  Al  Al11  1  0.321643  0.160821  0.424220  1
  Al  Al12  1  0.160899  0.321800  0.923052  1
  Al  Al13  1  0.159768  0.840232  0.573998  1
  Al  Al14  1  0.321798  0.160899  0.076031  1
  Al  Al15  1  0.839179  0.160821  0.424220  1
  Al  Al16  1  0.678200  0.839101  0.923052  1
  Al  Al17  1  0.839101  0.160899  0.076031  1
  Al  Al18  1  0.160899  0.839101  0.923052  1
  Al  Al19  1  0.563565  0.127132  0.248632  1
  Al  Al20  1  0.437247  0.874493  0.748461  1
  Al  Al21  1  0.872868  0.436435  0.248632  1
  Al  Al22  1  0.125507  0.562753  0.748461  1
  Al  Al23  1  0.563565  0.436435  0.248632  1
  Al  Al24  1  0.437247  0.562753  0.748461  1
  Al  Al25  1  0.000000  0.000000  0.249381  1
  Al  Al26  1  0.000000  0.000000  0.749786  1
  Co  Co27  1  0.000000  0.000000  0.999526  1
  Co  Co28  1  0.000000  0.000000  0.499228  1
  Si  Si29  1  0.333333  0.666667  0.031193  1
  Si  Si30  1  0.666667  0.333333  0.967855  1
  Si  Si31  1  0.666667  0.333333  0.534759  1
  Os  Os32  1  0.499563  0.999127  0.998841  1
  Os  Os33  1  0.000873  0.500437  0.998841  1
  Os  Os34  1  0.504092  0.008183  0.500696  1
  Os  Os35  1  0.499563  0.500437  0.998841  1
  Os  Os36  1  0.991817  0.495908  0.500696  1
  Os  Os37  1  0.504092  0.495908  0.500696  1
