# generated using pymatgen
data_Pr3Nd5Zn3Si12Rh
_symmetry_space_group_name_H-M   'P 1'
_cell_length_a   8.22284510
_cell_length_b   8.22284506
_cell_length_c   8.58033502
_cell_angle_alpha   89.99387801
_cell_angle_beta   90.00612445
_cell_angle_gamma   120.01682237
_symmetry_Int_Tables_number   1
_chemical_formula_structural   Pr3Nd5Zn3Si12Rh
_chemical_formula_sum   'Pr3 Nd5 Zn3 Si12 Rh1'
_cell_volume   502.34888926
_cell_formula_units_Z   1
loop_
 _symmetry_equiv_pos_site_id
 _symmetry_equiv_pos_as_xyz
  1  'x, y, z'
loop_
 _atom_site_type_symbol
 _atom_site_label
 _atom_site_symmetry_multiplicity
 _atom_site_fract_x
 _atom_site_fract_y
 _atom_site_fract_z
 _atom_site_occupancy
  Pr  Pr0  1  0.999906  0.000094  0.750430  1
  Pr  Pr1  1  0.999970  0.000030  0.249906  1
  Pr  Pr2  1  0.499318  0.500682  0.750242  1
  Nd  Nd3  1  0.499007  0.998067  0.750539  1
  Nd  Nd4  1  0.001933  0.500993  0.750539  1
  Nd  Nd5  1  0.499521  0.500479  0.249273  1
  Nd  Nd6  1  0.001052  0.500572  0.249154  1
  Nd  Nd7  1  0.499428  0.998948  0.249154  1
  Zn  Zn8  1  0.666921  0.333079  0.999673  1
  Zn  Zn9  1  0.666934  0.333066  0.501865  1
  Zn  Zn10  1  0.333222  0.666778  0.496477  1
  Si  Si11  1  0.837010  0.162990  0.000337  1
  Si  Si12  1  0.837165  0.674149  0.000650  1
  Si  Si13  1  0.325851  0.162835  0.000650  1
  Si  Si14  1  0.833567  0.166433  0.499723  1
  Si  Si15  1  0.833816  0.667241  0.499241  1
  Si  Si16  1  0.332759  0.166184  0.499241  1
  Si  Si17  1  0.166837  0.833163  0.500165  1
  Si  Si18  1  0.666443  0.833434  0.499642  1
  Si  Si19  1  0.166566  0.333557  0.499642  1
  Si  Si20  1  0.170512  0.829488  0.999855  1
  Si  Si21  1  0.658761  0.829568  0.000523  1
  Si  Si22  1  0.170432  0.341239  0.000523  1
  Rh  Rh23  1  0.333071  0.666929  0.002557  1
