# generated using pymatgen
data_Sr2Cd3InAu2
_symmetry_space_group_name_H-M   'P 1'
_cell_length_a   5.95174497
_cell_length_b   5.95174404
_cell_length_c   8.39623876
_cell_angle_alpha   90.40857321
_cell_angle_beta   89.59143595
_cell_angle_gamma   135.44208587
_symmetry_Int_Tables_number   1
_chemical_formula_structural   Sr2Cd3InAu2
_chemical_formula_sum   'Sr2 Cd3 In1 Au2'
_cell_volume   208.67407814
_cell_formula_units_Z   1
loop_
 _symmetry_equiv_pos_site_id
 _symmetry_equiv_pos_as_xyz
  1  'x, y, z'
loop_
 _atom_site_type_symbol
 _atom_site_label
 _atom_site_symmetry_multiplicity
 _atom_site_fract_x
 _atom_site_fract_y
 _atom_site_fract_z
 _atom_site_occupancy
  Sr  Sr0  1  0.432785  0.567215  0.246518  1
  Sr  Sr1  1  0.568253  0.431747  0.754609  1
  Cd  Cd2  1  0.860252  0.139748  0.948204  1
  Cd  Cd3  1  0.140441  0.859559  0.054532  1
  Cd  Cd4  1  0.136772  0.863228  0.443014  1
  In  In5  1  0.858703  0.141297  0.553630  1
  Au  Au6  1  0.724058  0.275942  0.251930  1
  Au  Au7  1  0.278736  0.721264  0.747564  1
