# generated using pymatgen
data_Pr7Ho9(LuSi4)4
_symmetry_space_group_name_H-M   'P 1'
_cell_length_a   7.70882233
_cell_length_b   7.71484769
_cell_length_c   14.24072100
_cell_angle_alpha   90.00846643
_cell_angle_beta   89.85023507
_cell_angle_gamma   90.08558476
_symmetry_Int_Tables_number   1
_chemical_formula_structural   Pr7Ho9(LuSi4)4
_chemical_formula_sum   'Pr7 Ho9 Lu4 Si16'
_cell_volume   846.92586854
_cell_formula_units_Z   1
loop_
 _symmetry_equiv_pos_site_id
 _symmetry_equiv_pos_as_xyz
  1  'x, y, z'
loop_
 _atom_site_type_symbol
 _atom_site_label
 _atom_site_symmetry_multiplicity
 _atom_site_fract_x
 _atom_site_fract_y
 _atom_site_fract_z
 _atom_site_occupancy
  Pr  Pr0  1  0.358381  0.007919  0.958727  1
  Pr  Pr1  1  0.992158  0.643160  0.540159  1
  Pr  Pr2  1  0.489839  0.857828  0.210019  1
  Pr  Pr3  1  0.509875  0.139534  0.707386  1
  Pr  Pr4  1  0.859998  0.489931  0.791335  1
  Pr  Pr5  1  0.139461  0.509230  0.292583  1
  Pr  Pr6  1  0.007617  0.357747  0.042552  1
  Ho  Ho7  1  0.491750  0.361277  0.125006  1
  Ho  Ho8  1  0.992070  0.136349  0.624126  1
  Ho  Ho9  1  0.862311  0.008020  0.874773  1
  Ho  Ho10  1  0.136861  0.993400  0.375217  1
  Ho  Ho11  1  0.511116  0.639763  0.622722  1
  Ho  Ho12  1  0.361306  0.491401  0.875154  1
  Ho  Ho13  1  0.639471  0.509910  0.376116  1
  Ho  Ho14  1  0.006242  0.861751  0.126757  1
  Ho  Ho15  1  0.636171  0.996181  0.456186  1
  Lu  Lu16  1  0.317392  0.316549  0.499695  1
  Lu  Lu17  1  0.185141  0.815858  0.749019  1
  Lu  Lu18  1  0.814177  0.183174  0.250760  1
  Lu  Lu19  1  0.683181  0.682369  0.000529  1
  Si  Si20  1  0.293550  0.938978  0.560711  1
  Si  Si21  1  0.709754  0.062874  0.062728  1
  Si  Si22  1  0.933142  0.287392  0.437354  1
  Si  Si23  1  0.438227  0.209875  0.313725  1
  Si  Si24  1  0.564851  0.787656  0.812379  1
  Si  Si25  1  0.212571  0.436482  0.686723  1
  Si  Si26  1  0.787709  0.564646  0.188234  1
  Si  Si27  1  0.064430  0.710724  0.938010  1
  Si  Si28  1  0.800266  0.844190  0.691271  1
  Si  Si29  1  0.202247  0.153269  0.190130  1
  Si  Si30  1  0.842971  0.802388  0.314178  1
  Si  Si31  1  0.350605  0.707106  0.438046  1
  Si  Si32  1  0.653133  0.296410  0.940122  1
  Si  Si33  1  0.700910  0.341973  0.558196  1
  Si  Si34  1  0.296449  0.653329  0.060499  1
  Si  Si35  1  0.154666  0.201358  0.808876  1
