# generated using pymatgen
data_Zr6Ta3TiAl12Ir7
_symmetry_space_group_name_H-M   'P 1'
_cell_length_a   8.83967814
_cell_length_b   8.83967821
_cell_length_c   8.83967885
_cell_angle_alpha   60.06060653
_cell_angle_beta   60.06060892
_cell_angle_gamma   60.06061183
_symmetry_Int_Tables_number   1
_chemical_formula_structural   Zr6Ta3TiAl12Ir7
_chemical_formula_sum   'Zr6 Ta3 Ti1 Al12 Ir7'
_cell_volume   489.09198932
_cell_formula_units_Z   1
loop_
 _symmetry_equiv_pos_site_id
 _symmetry_equiv_pos_as_xyz
  1  'x, y, z'
loop_
 _atom_site_type_symbol
 _atom_site_label
 _atom_site_symmetry_multiplicity
 _atom_site_fract_x
 _atom_site_fract_y
 _atom_site_fract_z
 _atom_site_occupancy
  Zr  Zr0  1  0.689694  0.689694  0.309667  1
  Zr  Zr1  1  0.311408  0.688273  0.311408  1
  Zr  Zr2  1  0.688273  0.311408  0.311408  1
  Zr  Zr3  1  0.311408  0.311408  0.688273  1
  Zr  Zr4  1  0.689694  0.309667  0.689694  1
  Zr  Zr5  1  0.309667  0.689694  0.689694  1
  Ta  Ta6  1  0.879174  0.879174  0.361717  1
  Ta  Ta7  1  0.879174  0.361717  0.879174  1
  Ta  Ta8  1  0.361717  0.879174  0.879174  1
  Ti  Ti9  1  0.879866  0.879866  0.879866  1
  Al  Al10  1  0.120540  0.120540  0.633628  1
  Al  Al11  1  0.120540  0.633628  0.120540  1
  Al  Al12  1  0.633628  0.120540  0.120540  1
  Al  Al13  1  0.122326  0.122326  0.122326  1
  Al  Al14  1  0.661793  0.661793  0.020131  1
  Al  Al15  1  0.661793  0.020131  0.661793  1
  Al  Al16  1  0.020131  0.661793  0.661793  1
  Al  Al17  1  0.658670  0.658670  0.658670  1
  Al  Al18  1  0.338607  0.338607  0.984726  1
  Al  Al19  1  0.338607  0.984726  0.338607  1
  Al  Al20  1  0.984726  0.338607  0.338607  1
  Al  Al21  1  0.338201  0.338201  0.338201  1
  Ir  Ir22  1  0.000220  0.000220  0.000220  1
  Ir  Ir23  1  0.997295  0.997295  0.500690  1
  Ir  Ir24  1  0.504089  0.996689  0.504089  1
  Ir  Ir25  1  0.996689  0.504089  0.504089  1
  Ir  Ir26  1  0.504089  0.504089  0.996689  1
  Ir  Ir27  1  0.997295  0.500690  0.997295  1
  Ir  Ir28  1  0.500690  0.997295  0.997295  1
