# generated using pymatgen
data_NaPrNd(As3Pd10)2
_symmetry_space_group_name_H-M   'P 1'
_cell_length_a   8.92479285
_cell_length_b   8.92479333
_cell_length_c   8.92479300
_cell_angle_alpha   59.99999750
_cell_angle_beta   59.99999574
_cell_angle_gamma   59.99999678
_symmetry_Int_Tables_number   1
_chemical_formula_structural   NaPrNd(As3Pd10)2
_chemical_formula_sum   'Na1 Pr1 Nd1 As6 Pd20'
_cell_volume   502.66591095
_cell_formula_units_Z   1
loop_
 _symmetry_equiv_pos_site_id
 _symmetry_equiv_pos_as_xyz
  1  'x, y, z'
loop_
 _atom_site_type_symbol
 _atom_site_label
 _atom_site_symmetry_multiplicity
 _atom_site_fract_x
 _atom_site_fract_y
 _atom_site_fract_z
 _atom_site_occupancy
  Na  Na0  1  0.000000  0.000000  0.000000  1
  Pr  Pr1  1  0.250000  0.250000  0.250000  1
  Nd  Nd2  1  0.750000  0.750000  0.750000  1
  As  As3  1  0.738994  0.261006  0.261006  1
  As  As4  1  0.261006  0.738994  0.738994  1
  As  As5  1  0.261006  0.738994  0.261006  1
  As  As6  1  0.738994  0.261006  0.738994  1
  As  As7  1  0.261006  0.261006  0.738994  1
  As  As8  1  0.738994  0.738994  0.261006  1
  Pd  Pd9  1  0.385318  0.385318  0.385318  1
  Pd  Pd10  1  0.615205  0.615205  0.615205  1
  Pd  Pd11  1  0.385318  0.385318  0.844048  1
  Pd  Pd12  1  0.385318  0.844048  0.385318  1
  Pd  Pd13  1  0.615205  0.615205  0.154383  1
  Pd  Pd14  1  0.615205  0.154383  0.615205  1
  Pd  Pd15  1  0.844048  0.385318  0.385318  1
  Pd  Pd16  1  0.154383  0.615205  0.615205  1
  Pd  Pd17  1  0.351023  0.999733  0.999733  1
  Pd  Pd18  1  0.649512  0.999733  0.999733  1
  Pd  Pd19  1  0.999733  0.351023  0.649512  1
  Pd  Pd20  1  0.999733  0.649512  0.351023  1
  Pd  Pd21  1  0.999733  0.351023  0.999733  1
  Pd  Pd22  1  0.649512  0.999733  0.351023  1
  Pd  Pd23  1  0.999733  0.649512  0.999733  1
  Pd  Pd24  1  0.351023  0.999733  0.649512  1
  Pd  Pd25  1  0.999733  0.999733  0.351023  1
  Pd  Pd26  1  0.999733  0.999733  0.649512  1
  Pd  Pd27  1  0.649512  0.351023  0.999733  1
  Pd  Pd28  1  0.351023  0.649512  0.999733  1
