# generated using pymatgen
data_Ho11Er5(ScIr3)4
_symmetry_space_group_name_H-M   'P 1'
_cell_length_a   10.72976000
_cell_length_b   10.72755801
_cell_length_c   6.25146900
_cell_angle_alpha   89.99638920
_cell_angle_beta   90.00269295
_cell_angle_gamma   90.00099336
_symmetry_Int_Tables_number   1
_chemical_formula_structural   Ho11Er5(ScIr3)4
_chemical_formula_sum   'Ho11 Er5 Sc4 Ir12'
_cell_volume   719.56985383
_cell_formula_units_Z   1
loop_
 _symmetry_equiv_pos_site_id
 _symmetry_equiv_pos_as_xyz
  1  'x, y, z'
loop_
 _atom_site_type_symbol
 _atom_site_label
 _atom_site_symmetry_multiplicity
 _atom_site_fract_x
 _atom_site_fract_y
 _atom_site_fract_z
 _atom_site_occupancy
  Ho  Ho0  1  0.288188  0.086426  0.376935  1
  Ho  Ho1  1  0.288190  0.913571  0.876950  1
  Ho  Ho2  1  0.711810  0.086426  0.876957  1
  Ho  Ho3  1  0.711813  0.913555  0.376964  1
  Ho  Ho4  1  0.586447  0.788195  0.876977  1
  Ho  Ho5  1  0.586403  0.211778  0.377029  1
  Ho  Ho6  1  0.413601  0.788225  0.377010  1
  Ho  Ho7  1  0.413604  0.211768  0.877029  1
  Ho  Ho8  1  0.211626  0.413626  0.623003  1
  Ho  Ho9  1  0.211634  0.586372  0.123012  1
  Ho  Ho10  1  0.788356  0.413670  0.122992  1
  Er  Er11  1  0.788473  0.586294  0.622852  1
  Er  Er12  1  0.913724  0.711631  0.122832  1
  Er  Er13  1  0.913749  0.288401  0.622858  1
  Er  Er14  1  0.086178  0.711635  0.622834  1
  Er  Er15  1  0.086243  0.288345  0.122830  1
  Sc  Sc16  1  0.999985  0.999993  0.500079  1
  Sc  Sc17  1  0.999997  0.000001  0.000076  1
  Sc  Sc18  1  0.500010  0.500002  0.000054  1
  Sc  Sc19  1  0.500073  0.500034  0.500100  1
  Ir  Ir20  1  0.852026  0.148246  0.250164  1
  Ir  Ir21  1  0.851994  0.851650  0.750113  1
  Ir  Ir22  1  0.147983  0.148235  0.750159  1
  Ir  Ir23  1  0.147976  0.851754  0.250166  1
  Ir  Ir24  1  0.648280  0.351944  0.749886  1
  Ir  Ir25  1  0.648302  0.648115  0.250165  1
  Ir  Ir26  1  0.351771  0.351840  0.249949  1
  Ir  Ir27  1  0.351772  0.648166  0.749949  1
  Ir  Ir28  1  0.500004  0.000007  0.122370  1
  Ir  Ir29  1  0.499999  0.999996  0.622362  1
  Ir  Ir30  1  0.999896  0.500050  0.877558  1
  Ir  Ir31  1  0.999891  0.500049  0.377785  1
