# generated using pymatgen
data_Tb2Si2Tc
_symmetry_space_group_name_H-M   'P 1'
_cell_length_a   5.85247949
_cell_length_b   5.85247968
_cell_length_c   10.15431837
_cell_angle_alpha   63.34469957
_cell_angle_beta   63.34469839
_cell_angle_gamma   42.01805477
_symmetry_Int_Tables_number   1
_chemical_formula_structural   Tb2Si2Tc
_chemical_formula_sum   'Tb4 Si4 Tc2'
_cell_volume   204.16058917
_cell_formula_units_Z   2
loop_
 _symmetry_equiv_pos_site_id
 _symmetry_equiv_pos_as_xyz
  1  'x, y, z'
loop_
 _atom_site_type_symbol
 _atom_site_label
 _atom_site_symmetry_multiplicity
 _atom_site_fract_x
 _atom_site_fract_y
 _atom_site_fract_z
 _atom_site_occupancy
  Tb  Tb0  1  0.005487  0.005487  0.322594  1
  Tb  Tb1  1  0.994513  0.994513  0.677406  1
  Tb  Tb2  1  0.811805  0.811805  0.109068  1
  Tb  Tb3  1  0.188195  0.188195  0.890932  1
  Si  Si4  1  0.644169  0.644169  0.439444  1
  Si  Si5  1  0.355831  0.355831  0.560556  1
  Si  Si6  1  0.499612  0.499612  0.122452  1
  Si  Si7  1  0.500388  0.500388  0.877548  1
  Tc  Tc8  1  0.727099  0.727099  0.629096  1
  Tc  Tc9  1  0.272901  0.272901  0.370904  1
