# generated using pymatgen
data_Ho6Lu9Th(CdPt)4
_symmetry_space_group_name_H-M   'P 1'
_cell_length_a   9.56131300
_cell_length_b   9.56131368
_cell_length_c   9.56131312
_cell_angle_alpha   60.33954507
_cell_angle_beta   60.33954393
_cell_angle_gamma   60.33954074
_symmetry_Int_Tables_number   1
_chemical_formula_structural   Ho6Lu9Th(CdPt)4
_chemical_formula_sum   'Ho6 Lu9 Th1 Cd4 Pt4'
_cell_volume   622.81776420
_cell_formula_units_Z   1
loop_
 _symmetry_equiv_pos_site_id
 _symmetry_equiv_pos_as_xyz
  1  'x, y, z'
loop_
 _atom_site_type_symbol
 _atom_site_label
 _atom_site_symmetry_multiplicity
 _atom_site_fract_x
 _atom_site_fract_y
 _atom_site_fract_z
 _atom_site_occupancy
  Ho  Ho0  1  0.185367  0.816206  0.816206  1
  Ho  Ho1  1  0.812641  0.188000  0.188000  1
  Ho  Ho2  1  0.816206  0.185367  0.816206  1
  Ho  Ho3  1  0.188000  0.812641  0.188000  1
  Ho  Ho4  1  0.816206  0.816206  0.185367  1
  Ho  Ho5  1  0.188000  0.188000  0.812641  1
  Lu  Lu6  1  0.604013  0.604013  0.188872  1
  Lu  Lu7  1  0.604013  0.188872  0.604013  1
  Lu  Lu8  1  0.188872  0.604013  0.604013  1
  Lu  Lu9  1  0.064465  0.437278  0.437278  1
  Lu  Lu10  1  0.439822  0.061600  0.061600  1
  Lu  Lu11  1  0.437278  0.064465  0.437278  1
  Lu  Lu12  1  0.061600  0.439822  0.061600  1
  Lu  Lu13  1  0.437278  0.437278  0.064465  1
  Lu  Lu14  1  0.061600  0.061600  0.439822  1
  Th  Th15  1  0.599549  0.599549  0.599549  1
  Cd  Cd16  1  0.831658  0.831658  0.831658  1
  Cd  Cd17  1  0.833278  0.833278  0.503352  1
  Cd  Cd18  1  0.833278  0.503352  0.833278  1
  Cd  Cd19  1  0.503352  0.833278  0.833278  1
  Pt  Pt20  1  0.394086  0.394086  0.394086  1
  Pt  Pt21  1  0.388528  0.388528  0.822380  1
  Pt  Pt22  1  0.388528  0.822380  0.388528  1
  Pt  Pt23  1  0.822380  0.388528  0.388528  1
