# generated using pymatgen
data_Sr2Li3DyPt3
_symmetry_space_group_name_H-M   'P 1'
_cell_length_a   7.43520201
_cell_length_b   7.47027325
_cell_length_c   4.17523200
_cell_angle_alpha   90.00000000
_cell_angle_beta   90.00000000
_cell_angle_gamma   120.15613237
_symmetry_Int_Tables_number   1
_chemical_formula_structural   Sr2Li3DyPt3
_chemical_formula_sum   'Sr2 Li3 Dy1 Pt3'
_cell_volume   200.51879208
_cell_formula_units_Z   1
loop_
 _symmetry_equiv_pos_site_id
 _symmetry_equiv_pos_as_xyz
  1  'x, y, z'
loop_
 _atom_site_type_symbol
 _atom_site_label
 _atom_site_symmetry_multiplicity
 _atom_site_fract_x
 _atom_site_fract_y
 _atom_site_fract_z
 _atom_site_occupancy
  Sr  Sr0  1  0.414575  0.416581  0.000000  1
  Sr  Sr1  1  0.585425  0.002005  0.000000  1
  Li  Li2  1  0.774825  0.765773  0.500000  1
  Li  Li3  1  0.225175  0.990948  0.500000  1
  Li  Li4  1  0.000000  0.233467  0.500000  1
  Dy  Dy5  1  0.000000  0.595719  0.000000  1
  Pt  Pt6  1  0.000000  0.975225  0.000000  1
  Pt  Pt7  1  0.705888  0.363084  0.500000  1
  Pt  Pt8  1  0.294112  0.657197  0.500000  1
