# generated using pymatgen
data_Ho2LuZr(Al3Rh)6
_symmetry_space_group_name_H-M   'P 1'
_cell_length_a   7.52674552
_cell_length_b   7.51481804
_cell_length_c   9.38871600
_cell_angle_alpha   90.00000000
_cell_angle_beta   90.00000000
_cell_angle_gamma   119.44629472
_symmetry_Int_Tables_number   1
_chemical_formula_structural   Ho2LuZr(Al3Rh)6
_chemical_formula_sum   'Ho2 Lu1 Zr1 Al18 Rh6'
_cell_volume   462.44356668
_cell_formula_units_Z   1
loop_
 _symmetry_equiv_pos_site_id
 _symmetry_equiv_pos_as_xyz
  1  'x, y, z'
loop_
 _atom_site_type_symbol
 _atom_site_label
 _atom_site_symmetry_multiplicity
 _atom_site_fract_x
 _atom_site_fract_y
 _atom_site_fract_z
 _atom_site_occupancy
  Ho  Ho0  1  0.006462  0.326230  0.750000  1
  Ho  Ho1  1  0.327492  0.006900  0.750000  1
  Lu  Lu2  1  0.672969  0.995935  0.250000  1
  Zr  Zr3  1  0.996156  0.672235  0.250000  1
  Al  Al4  1  0.124014  0.121811  0.250000  1
  Al  Al5  1  0.869703  0.868833  0.750000  1
  Al  Al6  1  0.999590  0.338224  0.080611  1
  Al  Al7  1  0.999431  0.664187  0.927513  1
  Al  Al8  1  0.999431  0.664187  0.572487  1
  Al  Al9  1  0.333260  0.997646  0.419300  1
  Al  Al10  1  0.999590  0.338224  0.419389  1
  Al  Al11  1  0.663696  0.998402  0.575052  1
  Al  Al12  1  0.663696  0.998402  0.924948  1
  Al  Al13  1  0.333260  0.997646  0.080700  1
  Al  Al14  1  0.334025  0.334080  0.547891  1
  Al  Al15  1  0.670023  0.668378  0.443514  1
  Al  Al16  1  0.670023  0.668378  0.056486  1
  Al  Al17  1  0.334025  0.334080  0.952109  1
  Al  Al18  1  0.337149  0.553067  0.250000  1
  Al  Al19  1  0.660215  0.449988  0.750000  1
  Al  Al20  1  0.557623  0.344167  0.250000  1
  Al  Al21  1  0.448462  0.658661  0.750000  1
  Rh  Rh22  1  0.673036  0.328035  0.001323  1
  Rh  Rh23  1  0.327886  0.673015  0.002055  1
  Rh  Rh24  1  0.327886  0.673015  0.497945  1
  Rh  Rh25  1  0.673036  0.328035  0.498677  1
  Rh  Rh26  1  0.998930  0.999121  0.001300  1
  Rh  Rh27  1  0.998930  0.999121  0.498700  1
