# generated using pymatgen
data_Nd3Cd3CuPdPt
_symmetry_space_group_name_H-M   'P 1'
_cell_length_a   7.85781800
_cell_length_b   7.85781749
_cell_length_c   3.87890700
_cell_angle_alpha   90.00000000
_cell_angle_beta   90.00000000
_cell_angle_gamma   119.99999371
_symmetry_Int_Tables_number   1
_chemical_formula_structural   Nd3Cd3CuPdPt
_chemical_formula_sum   'Nd3 Cd3 Cu1 Pd1 Pt1'
_cell_volume   207.41679997
_cell_formula_units_Z   1
loop_
 _symmetry_equiv_pos_site_id
 _symmetry_equiv_pos_as_xyz
  1  'x, y, z'
loop_
 _atom_site_type_symbol
 _atom_site_label
 _atom_site_symmetry_multiplicity
 _atom_site_fract_x
 _atom_site_fract_y
 _atom_site_fract_z
 _atom_site_occupancy
  Nd  Nd0  1  0.584286  0.995386  0.000000  1
  Nd  Nd1  1  0.004614  0.588900  0.000000  1
  Nd  Nd2  1  0.411100  0.415714  0.000000  1
  Cd  Cd3  1  0.247091  0.002182  0.500000  1
  Cd  Cd4  1  0.997818  0.244909  0.500000  1
  Cd  Cd5  1  0.755091  0.752909  0.500000  1
  Cu  Cu6  1  0.000000  0.000000  0.000000  1
  Pd  Pd7  1  0.666667  0.333333  0.500000  1
  Pt  Pt8  1  0.333333  0.666667  0.500000  1
