# generated using pymatgen
data_Hf3Zr6Re3NiW
_symmetry_space_group_name_H-M   'P 1'
_cell_length_a   8.73021500
_cell_length_b   8.73021528
_cell_length_c   8.47763000
_cell_angle_alpha   90.00000000
_cell_angle_beta   90.00000000
_cell_angle_gamma   120.00000275
_symmetry_Int_Tables_number   1
_chemical_formula_structural   Hf3Zr6Re3NiW
_chemical_formula_sum   'Hf6 Zr12 Re6 Ni2 W2'
_cell_volume   559.57070516
_cell_formula_units_Z   2
loop_
 _symmetry_equiv_pos_site_id
 _symmetry_equiv_pos_as_xyz
  1  'x, y, z'
loop_
 _atom_site_type_symbol
 _atom_site_label
 _atom_site_symmetry_multiplicity
 _atom_site_fract_x
 _atom_site_fract_y
 _atom_site_fract_z
 _atom_site_occupancy
  Hf  Hf0  1  0.802336  0.197664  0.943336  1
  Hf  Hf1  1  0.802336  0.604672  0.943336  1
  Hf  Hf2  1  0.395328  0.197664  0.943336  1
  Hf  Hf3  1  0.197664  0.802336  0.056664  1
  Hf  Hf4  1  0.197664  0.395328  0.056664  1
  Hf  Hf5  1  0.604672  0.802336  0.056664  1
  Zr  Zr6  1  0.198486  0.801514  0.442854  1
  Zr  Zr7  1  0.198486  0.396971  0.442854  1
  Zr  Zr8  1  0.603029  0.801514  0.442854  1
  Zr  Zr9  1  0.801514  0.198486  0.557146  1
  Zr  Zr10  1  0.801514  0.603029  0.557146  1
  Zr  Zr11  1  0.396971  0.198486  0.557146  1
  Zr  Zr12  1  0.541648  0.458352  0.247330  1
  Zr  Zr13  1  0.541648  0.083296  0.247330  1
  Zr  Zr14  1  0.916704  0.458352  0.247330  1
  Zr  Zr15  1  0.458352  0.541648  0.752670  1
  Zr  Zr16  1  0.458352  0.916704  0.752670  1
  Zr  Zr17  1  0.083296  0.541648  0.752670  1
  Re  Re18  1  0.890624  0.109376  0.248201  1
  Re  Re19  1  0.890624  0.781245  0.248201  1
  Re  Re20  1  0.218755  0.109376  0.248201  1
  Re  Re21  1  0.109376  0.890624  0.751799  1
  Re  Re22  1  0.109376  0.218755  0.751799  1
  Re  Re23  1  0.781245  0.890624  0.751799  1
  Ni  Ni24  1  0.333333  0.666667  0.246014  1
  Ni  Ni25  1  0.666667  0.333333  0.753986  1
  W  W26  1  0.000000  0.000000  0.500000  1
  W  W27  1  0.000000  0.000000  0.000000  1
