# generated using pymatgen
data_Tb8TaNb11Si16
_symmetry_space_group_name_H-M   'P 1'
_cell_length_a   7.08988276
_cell_length_b   7.08988203
_cell_length_c   13.09481343
_cell_angle_alpha   89.98458778
_cell_angle_beta   90.01541176
_cell_angle_gamma   90.02957344
_symmetry_Int_Tables_number   1
_chemical_formula_structural   Tb8TaNb11Si16
_chemical_formula_sum   'Tb8 Ta1 Nb11 Si16'
_cell_volume   658.22941831
_cell_formula_units_Z   1
loop_
 _symmetry_equiv_pos_site_id
 _symmetry_equiv_pos_as_xyz
  1  'x, y, z'
loop_
 _atom_site_type_symbol
 _atom_site_label
 _atom_site_symmetry_multiplicity
 _atom_site_fract_x
 _atom_site_fract_y
 _atom_site_fract_z
 _atom_site_occupancy
  Tb  Tb0  1  0.341866  0.003021  0.467300  1
  Tb  Tb1  1  0.497094  0.842022  0.717414  1
  Tb  Tb2  1  0.502450  0.157925  0.217674  1
  Tb  Tb3  1  0.842022  0.497094  0.282586  1
  Tb  Tb4  1  0.157925  0.502450  0.782326  1
  Tb  Tb5  1  0.658118  0.997374  0.967417  1
  Tb  Tb6  1  0.003021  0.341866  0.532700  1
  Tb  Tb7  1  0.997374  0.658118  0.032583  1
  Ta  Ta8  1  0.671879  0.671879  0.500000  1
  Nb  Nb9  1  0.328263  0.328263  0.000000  1
  Nb  Nb10  1  0.171833  0.828104  0.250217  1
  Nb  Nb11  1  0.828104  0.171833  0.749783  1
  Nb  Nb12  1  0.153244  0.007281  0.874206  1
  Nb  Nb13  1  0.492898  0.653187  0.124347  1
  Nb  Nb14  1  0.507391  0.346611  0.624123  1
  Nb  Nb15  1  0.653187  0.492898  0.875653  1
  Nb  Nb16  1  0.346611  0.507391  0.375877  1
  Nb  Nb17  1  0.846381  0.992775  0.374337  1
  Nb  Nb18  1  0.007281  0.153244  0.125794  1
  Nb  Nb19  1  0.992775  0.846381  0.625663  1
  Si  Si20  1  0.203754  0.132768  0.682863  1
  Si  Si21  1  0.367088  0.703557  0.932994  1
  Si  Si22  1  0.633197  0.297515  0.433345  1
  Si  Si23  1  0.703557  0.367088  0.067006  1
  Si  Si24  1  0.297515  0.633197  0.566655  1
  Si  Si25  1  0.796219  0.866940  0.183102  1
  Si  Si26  1  0.132768  0.203754  0.317137  1
  Si  Si27  1  0.866940  0.796219  0.816898  1
  Si  Si28  1  0.292732  0.953430  0.063757  1
  Si  Si29  1  0.546883  0.792438  0.314252  1
  Si  Si30  1  0.453617  0.207222  0.813532  1
  Si  Si31  1  0.792438  0.546883  0.685748  1
  Si  Si32  1  0.207222  0.453617  0.186468  1
  Si  Si33  1  0.707203  0.045722  0.563417  1
  Si  Si34  1  0.953430  0.292732  0.936243  1
  Si  Si35  1  0.045722  0.707203  0.436583  1
