# generated using pymatgen
data_Yb2Mn2C3
_symmetry_space_group_name_H-M   'P 1'
_cell_length_a   5.27267524
_cell_length_b   5.27267459
_cell_length_c   5.43027514
_cell_angle_alpha   75.82014220
_cell_angle_beta   75.82014537
_cell_angle_gamma   39.79392519
_symmetry_Int_Tables_number   1
_chemical_formula_structural   Yb2Mn2C3
_chemical_formula_sum   'Yb2 Mn2 C3'
_cell_volume   93.28703951
_cell_formula_units_Z   1
loop_
 _symmetry_equiv_pos_site_id
 _symmetry_equiv_pos_as_xyz
  1  'x, y, z'
loop_
 _atom_site_type_symbol
 _atom_site_label
 _atom_site_symmetry_multiplicity
 _atom_site_fract_x
 _atom_site_fract_y
 _atom_site_fract_z
 _atom_site_occupancy
  Yb  Yb0  1  0.596849  0.596849  0.189492  1
  Yb  Yb1  1  0.403151  0.403151  0.810508  1
  Mn  Mn2  1  0.839834  0.839834  0.408696  1
  Mn  Mn3  1  0.160166  0.160166  0.591304  1
  C  C4  1  0.000000  0.000000  0.500000  1
  C  C5  1  0.317029  0.317029  0.302814  1
  C  C6  1  0.682971  0.682971  0.697186  1
