# generated using pymatgen
data_Pr7USe12
_symmetry_space_group_name_H-M   'P 1'
_cell_length_a   4.20650600
_cell_length_b   11.20309803
_cell_length_c   11.56464117
_cell_angle_alpha   89.87662083
_cell_angle_beta   90.00000000
_cell_angle_gamma   90.00000000
_symmetry_Int_Tables_number   1
_chemical_formula_structural   Pr7USe12
_chemical_formula_sum   'Pr7 U1 Se12'
_cell_volume   544.99284918
_cell_formula_units_Z   1
loop_
 _symmetry_equiv_pos_site_id
 _symmetry_equiv_pos_as_xyz
  1  'x, y, z'
loop_
 _atom_site_type_symbol
 _atom_site_label
 _atom_site_symmetry_multiplicity
 _atom_site_fract_x
 _atom_site_fract_y
 _atom_site_fract_z
 _atom_site_occupancy
  Pr  Pr0  1  0.750000  0.814009  0.489422  1
  Pr  Pr1  1  0.750000  0.496089  0.308816  1
  Pr  Pr2  1  0.250000  0.996702  0.193927  1
  Pr  Pr3  1  0.750000  0.004267  0.804405  1
  Pr  Pr4  1  0.250000  0.312308  0.010016  1
  Pr  Pr5  1  0.750000  0.687636  0.988489  1
  Pr  Pr6  1  0.250000  0.502576  0.693722  1
  U  U7  1  0.250000  0.187402  0.508272  1
  Se  Se8  1  0.250000  0.552943  0.122969  1
  Se  Se9  1  0.750000  0.364485  0.546626  1
  Se  Se10  1  0.250000  0.623877  0.455859  1
  Se  Se11  1  0.250000  0.295915  0.275489  1
  Se  Se12  1  0.250000  0.203666  0.763786  1
  Se  Se13  1  0.750000  0.126087  0.045567  1
  Se  Se14  1  0.750000  0.701292  0.728154  1
  Se  Se15  1  0.250000  0.875223  0.954112  1
  Se  Se16  1  0.750000  0.801133  0.230312  1
  Se  Se17  1  0.750000  0.061002  0.383000  1
  Se  Se18  1  0.750000  0.444596  0.878111  1
  Se  Se19  1  0.250000  0.948791  0.618946  1
