# generated using pymatgen
data_Sm2LuZr3(SnRh)6
_symmetry_space_group_name_H-M   'P 1'
_cell_length_a   7.51522668
_cell_length_b   7.52756794
_cell_length_c   7.55398400
_cell_angle_alpha   90.00000000
_cell_angle_beta   90.00000000
_cell_angle_gamma   120.05912840
_symmetry_Int_Tables_number   1
_chemical_formula_structural   Sm2LuZr3(SnRh)6
_chemical_formula_sum   'Sm2 Lu1 Zr3 Sn6 Rh6'
_cell_volume   369.86598473
_cell_formula_units_Z   1
loop_
 _symmetry_equiv_pos_site_id
 _symmetry_equiv_pos_as_xyz
  1  'x, y, z'
loop_
 _atom_site_type_symbol
 _atom_site_label
 _atom_site_symmetry_multiplicity
 _atom_site_fract_x
 _atom_site_fract_y
 _atom_site_fract_z
 _atom_site_occupancy
  Sm  Sm0  1  0.591940  0.999189  0.750000  1
  Sm  Sm1  1  0.407833  0.407547  0.750000  1
  Lu  Lu2  1  0.999836  0.596408  0.750000  1
  Zr  Zr3  1  0.606590  0.002533  0.250000  1
  Zr  Zr4  1  0.394103  0.395138  0.250000  1
  Zr  Zr5  1  0.999231  0.602439  0.250000  1
  Sn  Sn6  1  0.263956  0.998160  0.009586  1
  Sn  Sn7  1  0.735680  0.734728  0.490312  1
  Sn  Sn8  1  0.000327  0.266299  0.495978  1
  Sn  Sn9  1  0.000327  0.266299  0.004022  1
  Sn  Sn10  1  0.735680  0.734728  0.009688  1
  Sn  Sn11  1  0.263956  0.998160  0.490414  1
  Rh  Rh12  1  0.668977  0.335113  0.034199  1
  Rh  Rh13  1  0.668977  0.335113  0.465801  1
  Rh  Rh14  1  0.330989  0.665974  0.036611  1
  Rh  Rh15  1  0.330989  0.665974  0.463389  1
  Rh  Rh16  1  0.000493  0.993868  0.750000  1
  Rh  Rh17  1  0.000116  0.002332  0.250000  1
