# generated using pymatgen
data_Ca3ErAl18OsPd5
_symmetry_space_group_name_H-M   'P 1'
_cell_length_a   7.63585277
_cell_length_b   7.63728806
_cell_length_c   9.55062425
_cell_angle_alpha   89.89159620
_cell_angle_beta   89.89002106
_cell_angle_gamma   119.42072633
_symmetry_Int_Tables_number   1
_chemical_formula_structural   Ca3ErAl18OsPd5
_chemical_formula_sum   'Ca3 Er1 Al18 Os1 Pd5'
_cell_volume   485.13383767
_cell_formula_units_Z   1
loop_
 _symmetry_equiv_pos_site_id
 _symmetry_equiv_pos_as_xyz
  1  'x, y, z'
loop_
 _atom_site_type_symbol
 _atom_site_label
 _atom_site_symmetry_multiplicity
 _atom_site_fract_x
 _atom_site_fract_y
 _atom_site_fract_z
 _atom_site_occupancy
  Ca  Ca0  1  0.994921  0.670367  0.248521  1
  Ca  Ca1  1  0.003735  0.329080  0.751220  1
  Ca  Ca2  1  0.672119  0.995750  0.248857  1
  Er  Er3  1  0.327566  0.002374  0.752316  1
  Al  Al4  1  0.128213  0.128741  0.246483  1
  Al  Al5  1  0.872765  0.870787  0.752512  1
  Al  Al6  1  0.999929  0.329027  0.072410  1
  Al  Al7  1  0.999956  0.669510  0.925325  1
  Al  Al8  1  0.999072  0.665013  0.578892  1
  Al  Al9  1  0.335280  0.001799  0.423223  1
  Al  Al10  1  0.002273  0.335548  0.423536  1
  Al  Al11  1  0.664209  0.998850  0.577952  1
  Al  Al12  1  0.670895  0.001050  0.925568  1
  Al  Al13  1  0.329763  0.999608  0.074120  1
  Al  Al14  1  0.333567  0.332882  0.555137  1
  Al  Al15  1  0.665747  0.665852  0.447853  1
  Al  Al16  1  0.672709  0.672802  0.049568  1
  Al  Al17  1  0.329136  0.328582  0.947764  1
  Al  Al18  1  0.339466  0.544962  0.249351  1
  Al  Al19  1  0.655980  0.452289  0.750705  1
  Al  Al20  1  0.543770  0.340059  0.249431  1
  Al  Al21  1  0.456558  0.663921  0.750525  1
  Os  Os22  1  0.002713  0.000728  0.997681  1
  Pd  Pd23  1  0.669909  0.328082  0.999126  1
  Pd  Pd24  1  0.329062  0.671800  0.998439  1
  Pd  Pd25  1  0.328606  0.672185  0.501416  1
  Pd  Pd26  1  0.670883  0.328096  0.500870  1
  Pd  Pd27  1  0.001198  0.000256  0.501197  1
