# generated using pymatgen
data_Ca8HoPaIr4
_symmetry_space_group_name_H-M   'P 1'
_cell_length_a   6.69869220
_cell_length_b   7.36171759
_cell_length_c   8.76183433
_cell_angle_alpha   97.54437625
_cell_angle_beta   112.47407088
_cell_angle_gamma   89.99999441
_symmetry_Int_Tables_number   1
_chemical_formula_structural   Ca8HoPaIr4
_chemical_formula_sum   'Ca8 Ho1 Pa1 Ir4'
_cell_volume   395.21394619
_cell_formula_units_Z   1
loop_
 _symmetry_equiv_pos_site_id
 _symmetry_equiv_pos_as_xyz
  1  'x, y, z'
loop_
 _atom_site_type_symbol
 _atom_site_label
 _atom_site_symmetry_multiplicity
 _atom_site_fract_x
 _atom_site_fract_y
 _atom_site_fract_z
 _atom_site_occupancy
  Ca  Ca0  1  0.979009  0.922763  0.175880  1
  Ca  Ca1  1  0.803130  0.577237  0.824120  1
  Ca  Ca2  1  0.023120  0.081582  0.824130  1
  Ca  Ca3  1  0.198987  0.418418  0.175870  1
  Ca  Ca4  1  0.638656  0.815714  0.438964  1
  Ca  Ca5  1  0.199692  0.684286  0.561036  1
  Ca  Ca6  1  0.363774  0.183626  0.570009  1
  Ca  Ca7  1  0.793765  0.316374  0.429991  1
  Ho  Ho8  1  0.568369  0.250000  0.000000  1
  Pa  Pa9  1  0.438642  0.750000  0.000000  1
  Ir  Ir10  1  0.786399  0.581290  0.198233  1
  Ir  Ir11  1  0.588168  0.918710  0.801767  1
  Ir  Ir12  1  0.213800  0.448883  0.809311  1
  Ir  Ir13  1  0.404488  0.051117  0.190689  1
