# generated using pymatgen
data_U2Si5Ir2Ru
_symmetry_space_group_name_H-M   'P 1'
_cell_length_a   8.11551917
_cell_length_b   8.11551908
_cell_length_c   5.87387493
_cell_angle_alpha   68.74456012
_cell_angle_beta   68.74455988
_cell_angle_gamma   89.17668792
_symmetry_Int_Tables_number   1
_chemical_formula_structural   U2Si5Ir2Ru
_chemical_formula_sum   'U4 Si10 Ir4 Ru2'
_cell_volume   332.95396268
_cell_formula_units_Z   2
loop_
 _symmetry_equiv_pos_site_id
 _symmetry_equiv_pos_as_xyz
  1  'x, y, z'
loop_
 _atom_site_type_symbol
 _atom_site_label
 _atom_site_symmetry_multiplicity
 _atom_site_fract_x
 _atom_site_fract_y
 _atom_site_fract_z
 _atom_site_occupancy
  U  U0  1  0.862273  0.599140  0.770058  1
  U  U1  1  0.400860  0.137727  0.729942  1
  U  U2  1  0.137727  0.400860  0.229942  1
  U  U3  1  0.599140  0.862273  0.270058  1
  Si  Si4  1  0.047909  0.255801  0.846994  1
  Si  Si5  1  0.744199  0.952091  0.653006  1
  Si  Si6  1  0.952091  0.744199  0.153006  1
  Si  Si7  1  0.255801  0.047909  0.346994  1
  Si  Si8  1  0.222970  0.777030  0.750000  1
  Si  Si9  1  0.777030  0.222970  0.250000  1
  Si  Si10  1  0.500340  0.499660  0.750000  1
  Si  Si11  1  0.499660  0.500340  0.250000  1
  Si  Si12  1  0.776484  0.223516  0.750000  1
  Si  Si13  1  0.223516  0.776484  0.250000  1
  Ir  Ir14  1  0.244141  0.526029  0.615772  1
  Ir  Ir15  1  0.473971  0.755859  0.884228  1
  Ir  Ir16  1  0.755859  0.473971  0.384228  1
  Ir  Ir17  1  0.526029  0.244141  0.115772  1
  Ru  Ru18  1  0.000247  0.999753  0.750000  1
  Ru  Ru19  1  0.999753  0.000247  0.250000  1
