# generated using pymatgen
data_NdCdIr2O7
_symmetry_space_group_name_H-M   'P 1'
_cell_length_a   7.31421508
_cell_length_b   7.31421588
_cell_length_c   7.46902300
_cell_angle_alpha   59.29735905
_cell_angle_beta   59.29735533
_cell_angle_gamma   59.21751710
_symmetry_Int_Tables_number   1
_chemical_formula_structural   NdCdIr2O7
_chemical_formula_sum   'Nd2 Cd2 Ir4 O14'
_cell_volume   277.84996170
_cell_formula_units_Z   2
loop_
 _symmetry_equiv_pos_site_id
 _symmetry_equiv_pos_as_xyz
  1  'x, y, z'
loop_
 _atom_site_type_symbol
 _atom_site_label
 _atom_site_symmetry_multiplicity
 _atom_site_fract_x
 _atom_site_fract_y
 _atom_site_fract_z
 _atom_site_occupancy
  Nd  Nd0  1  0.125000  0.125000  0.625000  1
  Nd  Nd1  1  0.125000  0.125000  0.125000  1
  Cd  Cd2  1  0.625000  0.125000  0.125000  1
  Cd  Cd3  1  0.125000  0.625000  0.125000  1
  Ir  Ir4  1  0.125000  0.625000  0.625000  1
  Ir  Ir5  1  0.625000  0.125000  0.625000  1
  Ir  Ir6  1  0.625000  0.625000  0.125000  1
  Ir  Ir7  1  0.625000  0.625000  0.625000  1
  O  O8  1  0.697090  0.697090  0.302910  1
  O  O9  1  0.291173  0.291173  0.708827  1
  O  O10  1  0.703741  0.297243  0.698779  1
  O  O11  1  0.297243  0.703741  0.300237  1
  O  O12  1  0.297243  0.703741  0.698779  1
  O  O13  1  0.703741  0.297243  0.300237  1
  O  O14  1  0.552910  0.552910  0.947090  1
  O  O15  1  0.958827  0.958827  0.541173  1
  O  O16  1  0.546259  0.952757  0.551221  1
  O  O17  1  0.952757  0.546259  0.949763  1
  O  O18  1  0.952757  0.546259  0.551221  1
  O  O19  1  0.546259  0.952757  0.949763  1
  O  O20  1  0.257502  0.257502  0.242498  1
  O  O21  1  0.992498  0.992498  0.007502  1
