# generated using pymatgen
data_Zr6Zn15Cu8S
_symmetry_space_group_name_H-M   'P 1'
_cell_length_a   8.60909598
_cell_length_b   8.60937075
_cell_length_c   8.60914544
_cell_angle_alpha   59.97047987
_cell_angle_beta   59.97082937
_cell_angle_gamma   59.96764108
_symmetry_Int_Tables_number   1
_chemical_formula_structural   Zr6Zn15Cu8S
_chemical_formula_sum   'Zr6 Zn15 Cu8 S1'
_cell_volume   450.89456968
_cell_formula_units_Z   1
loop_
 _symmetry_equiv_pos_site_id
 _symmetry_equiv_pos_as_xyz
  1  'x, y, z'
loop_
 _atom_site_type_symbol
 _atom_site_label
 _atom_site_symmetry_multiplicity
 _atom_site_fract_x
 _atom_site_fract_y
 _atom_site_fract_z
 _atom_site_occupancy
  Zr  Zr0  1  0.712634  0.291471  0.291488  1
  Zr  Zr1  1  0.295502  0.705052  0.705018  1
  Zr  Zr2  1  0.291457  0.712630  0.291492  1
  Zr  Zr3  1  0.705070  0.295520  0.705001  1
  Zr  Zr4  1  0.291478  0.291496  0.712610  1
  Zr  Zr5  1  0.705035  0.705001  0.295555  1
  Zn  Zn6  1  0.879647  0.879655  0.879670  1
  Zn  Zn7  1  0.120586  0.120581  0.637903  1
  Zn  Zn8  1  0.120569  0.637910  0.120581  1
  Zn  Zn9  1  0.880768  0.880768  0.360701  1
  Zn  Zn10  1  0.880784  0.360692  0.880762  1
  Zn  Zn11  1  0.637912  0.120564  0.120584  1
  Zn  Zn12  1  0.360691  0.880777  0.880756  1
  Zn  Zn13  1  0.334835  0.334826  0.334813  1
  Zn  Zn14  1  0.667233  0.667248  0.667280  1
  Zn  Zn15  1  0.330314  0.330300  0.004093  1
  Zn  Zn16  1  0.330300  0.004110  0.330281  1
  Zn  Zn17  1  0.666526  0.666539  0.999572  1
  Zn  Zn18  1  0.666540  0.999556  0.666550  1
  Zn  Zn19  1  0.004137  0.330280  0.330275  1
  Zn  Zn20  1  0.999529  0.666555  0.666554  1
  Cu  Cu21  1  0.120527  0.120535  0.120515  1
  Cu  Cu22  1  0.501394  0.999435  0.999434  1
  Cu  Cu23  1  0.999776  0.499543  0.499543  1
  Cu  Cu24  1  0.999434  0.501406  0.999433  1
  Cu  Cu25  1  0.499544  0.999775  0.499544  1
  Cu  Cu26  1  0.999437  0.999435  0.501399  1
  Cu  Cu27  1  0.499542  0.499538  0.999779  1
  Cu  Cu28  1  0.000450  0.000449  0.000450  1
  S  S29  1  0.498347  0.498356  0.498366  1
