# generated using pymatgen
data_Cd4BiIr3O14
_symmetry_space_group_name_H-M   'P 1'
_cell_length_a   7.49377261
_cell_length_b   7.29587827
_cell_length_c   7.29587800
_cell_angle_alpha   120.00000787
_cell_angle_beta   119.13022146
_cell_angle_gamma   60.86978019
_symmetry_Int_Tables_number   1
_chemical_formula_structural   Cd4BiIr3O14
_chemical_formula_sum   'Cd4 Bi1 Ir3 O14'
_cell_volume   285.71088425
_cell_formula_units_Z   1
loop_
 _symmetry_equiv_pos_site_id
 _symmetry_equiv_pos_as_xyz
  1  'x, y, z'
loop_
 _atom_site_type_symbol
 _atom_site_label
 _atom_site_symmetry_multiplicity
 _atom_site_fract_x
 _atom_site_fract_y
 _atom_site_fract_z
 _atom_site_occupancy
  Cd  Cd0  1  0.000000  0.000000  0.000000  1
  Cd  Cd1  1  0.500000  0.000000  0.000000  1
  Cd  Cd2  1  0.000000  0.500000  0.000000  1
  Cd  Cd3  1  0.000000  0.000000  0.500001  1
  Bi  Bi4  1  0.000000  0.499999  0.499999  1
  Ir  Ir5  1  0.500000  0.500000  0.000000  1
  Ir  Ir6  1  0.500000  0.500000  0.499999  1
  Ir  Ir7  1  0.499999  0.000000  0.499999  1
  O  O8  1  0.852892  0.882371  0.117631  1
  O  O9  1  0.821348  0.405356  0.132061  1
  O  O10  1  0.475392  0.807411  0.192586  1
  O  O11  1  0.475393  0.409783  0.192588  1
  O  O12  1  0.524607  0.192588  0.409781  1
  O  O13  1  0.178651  0.594643  0.405355  1
  O  O14  1  0.178650  0.132062  0.405357  1
  O  O15  1  0.821349  0.405357  0.594644  1
  O  O16  1  0.475393  0.807412  0.590218  1
  O  O17  1  0.821349  0.867937  0.594644  1
  O  O18  1  0.524607  0.192588  0.807412  1
  O  O19  1  0.178651  0.594643  0.867937  1
  O  O20  1  0.524608  0.590218  0.807412  1
  O  O21  1  0.147108  0.117629  0.882370  1
