# generated using pymatgen
data_Nd2CdRhAu
_symmetry_space_group_name_H-M   'P 1'
_cell_length_a   7.93688693
_cell_length_b   7.93688693
_cell_length_c   3.89806000
_cell_angle_alpha   90.00000000
_cell_angle_beta   90.00000000
_cell_angle_gamma   89.50206597
_symmetry_Int_Tables_number   1
_chemical_formula_structural   Nd2CdRhAu
_chemical_formula_sum   'Nd4 Cd2 Rh2 Au2'
_cell_volume   245.54579759
_cell_formula_units_Z   2
loop_
 _symmetry_equiv_pos_site_id
 _symmetry_equiv_pos_as_xyz
  1  'x, y, z'
loop_
 _atom_site_type_symbol
 _atom_site_label
 _atom_site_symmetry_multiplicity
 _atom_site_fract_x
 _atom_site_fract_y
 _atom_site_fract_z
 _atom_site_occupancy
  Nd  Nd0  1  0.658865  0.158865  0.500000  1
  Nd  Nd1  1  0.341135  0.841135  0.500000  1
  Nd  Nd2  1  0.185170  0.314830  0.500000  1
  Nd  Nd3  1  0.814830  0.685170  0.500000  1
  Cd  Cd4  1  0.000000  0.000000  0.000000  1
  Cd  Cd5  1  0.500000  0.500000  0.000000  1
  Rh  Rh6  1  0.632509  0.867491  0.000000  1
  Rh  Rh7  1  0.367491  0.132509  0.000000  1
  Au  Au8  1  0.130506  0.630506  0.000000  1
  Au  Au9  1  0.869494  0.369494  0.000000  1
