# generated using pymatgen
data_SrTb6PtBr12
_symmetry_space_group_name_H-M   'P 1'
_cell_length_a   9.30536519
_cell_length_b   9.30536545
_cell_length_c   9.30536618
_cell_angle_alpha   106.24904027
_cell_angle_beta   106.24904088
_cell_angle_gamma   106.24904140
_symmetry_Int_Tables_number   1
_chemical_formula_structural   SrTb6PtBr12
_chemical_formula_sum   'Sr1 Tb6 Pt1 Br12'
_cell_volume   684.31760537
_cell_formula_units_Z   1
loop_
 _symmetry_equiv_pos_site_id
 _symmetry_equiv_pos_as_xyz
  1  'x, y, z'
loop_
 _atom_site_type_symbol
 _atom_site_label
 _atom_site_symmetry_multiplicity
 _atom_site_fract_x
 _atom_site_fract_y
 _atom_site_fract_z
 _atom_site_occupancy
  Sr  Sr0  1  0.500000  0.500000  0.500000  1
  Tb  Tb1  1  0.100961  0.022339  0.312504  1
  Tb  Tb2  1  0.312504  0.100961  0.022339  1
  Tb  Tb3  1  0.022339  0.312504  0.100961  1
  Tb  Tb4  1  0.899039  0.977661  0.687496  1
  Tb  Tb5  1  0.687496  0.899039  0.977661  1
  Tb  Tb6  1  0.977661  0.687496  0.899039  1
  Pt  Pt7  1  0.000000  0.000000  0.000000  1
  Br  Br8  1  0.074215  0.678019  0.219978  1
  Br  Br9  1  0.219978  0.074215  0.678019  1
  Br  Br10  1  0.678019  0.219978  0.074215  1
  Br  Br11  1  0.925785  0.321981  0.780022  1
  Br  Br12  1  0.780022  0.925785  0.321981  1
  Br  Br13  1  0.321981  0.780022  0.925785  1
  Br  Br14  1  0.447242  0.142063  0.368162  1
  Br  Br15  1  0.368162  0.447242  0.142063  1
  Br  Br16  1  0.142063  0.368162  0.447242  1
  Br  Br17  1  0.552758  0.857937  0.631838  1
  Br  Br18  1  0.631838  0.552758  0.857937  1
  Br  Br19  1  0.857937  0.631838  0.552758  1
