# generated using pymatgen
data_Yb2Th6Tl3Pt8Pb
_symmetry_space_group_name_H-M   'P 1'
_cell_length_a   8.07666797
_cell_length_b   8.08043418
_cell_length_c   7.44400500
_cell_angle_alpha   90.00000000
_cell_angle_beta   90.00000000
_cell_angle_gamma   91.18633776
_symmetry_Int_Tables_number   1
_chemical_formula_structural   Yb2Th6Tl3Pt8Pb
_chemical_formula_sum   'Yb2 Th6 Tl3 Pt8 Pb1'
_cell_volume   485.71384291
_cell_formula_units_Z   1
loop_
 _symmetry_equiv_pos_site_id
 _symmetry_equiv_pos_as_xyz
  1  'x, y, z'
loop_
 _atom_site_type_symbol
 _atom_site_label
 _atom_site_symmetry_multiplicity
 _atom_site_fract_x
 _atom_site_fract_y
 _atom_site_fract_z
 _atom_site_occupancy
  Yb  Yb0  1  0.837005  0.161395  0.000190  1
  Yb  Yb1  1  0.162995  0.838605  0.000190  1
  Th  Th2  1  0.676464  0.678393  0.999468  1
  Th  Th3  1  0.336179  0.333518  0.499531  1
  Th  Th4  1  0.822058  0.175355  0.500358  1
  Th  Th5  1  0.663821  0.666482  0.499531  1
  Th  Th6  1  0.323536  0.321607  0.999468  1
  Th  Th7  1  0.177942  0.824645  0.500358  1
  Tl  Tl8  1  0.500000  0.000000  0.755849  1
  Tl  Tl9  1  0.500000  0.000000  0.244228  1
  Tl  Tl10  1  0.000000  0.500000  0.755288  1
  Pt  Pt11  1  0.871291  0.871253  0.734702  1
  Pt  Pt12  1  0.128709  0.128747  0.734702  1
  Pt  Pt13  1  0.628341  0.372024  0.762513  1
  Pt  Pt14  1  0.626443  0.371134  0.237092  1
  Pt  Pt15  1  0.373557  0.628866  0.237092  1
  Pt  Pt16  1  0.129117  0.127751  0.265573  1
  Pt  Pt17  1  0.870883  0.872249  0.265573  1
  Pt  Pt18  1  0.371659  0.627976  0.762513  1
  Pb  Pb19  1  0.000000  0.500000  0.245782  1
