# generated using pymatgen
data_Th4MnCo13B6
_symmetry_space_group_name_H-M   'P 1'
_cell_length_a   5.08234100
_cell_length_b   5.08234174
_cell_length_c   13.10247800
_cell_angle_alpha   90.00000000
_cell_angle_beta   90.00000000
_cell_angle_gamma   119.99679968
_symmetry_Int_Tables_number   1
_chemical_formula_structural   Th4MnCo13B6
_chemical_formula_sum   'Th4 Mn1 Co13 B6'
_cell_volume   293.10669639
_cell_formula_units_Z   1
loop_
 _symmetry_equiv_pos_site_id
 _symmetry_equiv_pos_as_xyz
  1  'x, y, z'
loop_
 _atom_site_type_symbol
 _atom_site_label
 _atom_site_symmetry_multiplicity
 _atom_site_fract_x
 _atom_site_fract_y
 _atom_site_fract_z
 _atom_site_occupancy
  Th  Th0  1  0.000006  0.999994  0.256580  1
  Th  Th1  1  0.000004  0.999996  0.500000  1
  Th  Th2  1  0.999983  0.000017  0.000000  1
  Th  Th3  1  0.000006  0.999994  0.743420  1
  Mn  Mn4  1  0.333253  0.666747  0.000000  1
  Co  Co5  1  0.499827  0.999637  0.616529  1
  Co  Co6  1  0.501096  0.002186  0.842730  1
  Co  Co7  1  0.501091  0.498909  0.842743  1
  Co  Co8  1  0.499822  0.500178  0.383429  1
  Co  Co9  1  0.000363  0.500173  0.616529  1
  Co  Co10  1  0.997814  0.498904  0.157270  1
  Co  Co11  1  0.997814  0.498904  0.842730  1
  Co  Co12  1  0.501091  0.498909  0.157257  1
  Co  Co13  1  0.499827  0.999637  0.383471  1
  Co  Co14  1  0.501096  0.002186  0.157270  1
  Co  Co15  1  0.499822  0.500178  0.616571  1
  Co  Co16  1  0.666702  0.333298  0.000000  1
  Co  Co17  1  0.000363  0.500173  0.383471  1
  B  B18  1  0.666642  0.333358  0.731836  1
  B  B19  1  0.333360  0.666640  0.732838  1
  B  B20  1  0.333360  0.666640  0.267162  1
  B  B21  1  0.666602  0.333398  0.500000  1
  B  B22  1  0.666642  0.333358  0.268164  1
  B  B23  1  0.333415  0.666585  0.500000  1
