# generated using pymatgen
data_Ca3SmAl19Ir5
_symmetry_space_group_name_H-M   'P 1'
_cell_length_a   7.62501740
_cell_length_b   7.62420584
_cell_length_c   9.61362873
_cell_angle_alpha   90.04127384
_cell_angle_beta   89.89889505
_cell_angle_gamma   119.38557343
_symmetry_Int_Tables_number   1
_chemical_formula_structural   Ca3SmAl19Ir5
_chemical_formula_sum   'Ca3 Sm1 Al19 Ir5'
_cell_volume   486.97701790
_cell_formula_units_Z   1
loop_
 _symmetry_equiv_pos_site_id
 _symmetry_equiv_pos_as_xyz
  1  'x, y, z'
loop_
 _atom_site_type_symbol
 _atom_site_label
 _atom_site_symmetry_multiplicity
 _atom_site_fract_x
 _atom_site_fract_y
 _atom_site_fract_z
 _atom_site_occupancy
  Ca  Ca0  1  0.996086  0.677307  0.249887  1
  Ca  Ca1  1  0.002596  0.322139  0.749975  1
  Ca  Ca2  1  0.679370  0.997601  0.250504  1
  Sm  Sm3  1  0.321809  0.001257  0.752007  1
  Al  Al4  1  0.140979  0.142139  0.260930  1
  Al  Al5  1  0.859459  0.858565  0.738603  1
  Al  Al6  1  0.003102  0.348586  0.078510  1
  Al  Al7  1  0.995184  0.649635  0.921668  1
  Al  Al8  1  0.999408  0.661928  0.567478  1
  Al  Al9  1  0.336313  0.998469  0.428966  1
  Al  Al10  1  0.998485  0.336165  0.431392  1
  Al  Al11  1  0.664498  0.001558  0.568440  1
  Al  Al12  1  0.654162  0.996932  0.921951  1
  Al  Al13  1  0.350263  0.002966  0.081380  1
  Al  Al14  1  0.332352  0.333385  0.546465  1
  Al  Al15  1  0.667164  0.667988  0.452345  1
  Al  Al16  1  0.652988  0.653176  0.059241  1
  Al  Al17  1  0.345785  0.347282  0.940945  1
  Al  Al18  1  0.339538  0.552783  0.252024  1
  Al  Al19  1  0.659180  0.448198  0.748153  1
  Al  Al20  1  0.552235  0.340674  0.252035  1
  Al  Al21  1  0.449304  0.661902  0.748184  1
  Al  Al22  1  0.001713  0.000047  0.998289  1
  Ir  Ir23  1  0.669748  0.328453  0.999794  1
  Ir  Ir24  1  0.328809  0.671110  0.999590  1
  Ir  Ir25  1  0.329534  0.670738  0.500786  1
  Ir  Ir26  1  0.668977  0.329246  0.500304  1
  Ir  Ir27  1  0.000960  0.999772  0.500156  1
