# generated using pymatgen
data_La4TbDy5Sn8
_symmetry_space_group_name_H-M   'P 1'
_cell_length_a   8.15424100
_cell_length_b   8.33013210
_cell_length_c   15.70953600
_cell_angle_alpha   89.99107906
_cell_angle_beta   90.00000000
_cell_angle_gamma   90.00000000
_symmetry_Int_Tables_number   1
_chemical_formula_structural   La4TbDy5Sn8
_chemical_formula_sum   'La8 Tb2 Dy10 Sn16'
_cell_volume   1067.08443249
_cell_formula_units_Z   2
loop_
 _symmetry_equiv_pos_site_id
 _symmetry_equiv_pos_as_xyz
  1  'x, y, z'
loop_
 _atom_site_type_symbol
 _atom_site_label
 _atom_site_symmetry_multiplicity
 _atom_site_fract_x
 _atom_site_fract_y
 _atom_site_fract_z
 _atom_site_occupancy
  La  La0  1  0.513768  0.321809  0.903255  1
  La  La1  1  0.013768  0.178191  0.596745  1
  La  La2  1  0.486277  0.678122  0.403207  1
  La  La3  1  0.986277  0.821878  0.096793  1
  La  La4  1  0.486258  0.678115  0.096820  1
  La  La5  1  0.986258  0.821885  0.403180  1
  La  La6  1  0.513662  0.321749  0.596735  1
  La  La7  1  0.013662  0.178251  0.903265  1
  Tb  Tb8  1  0.359894  0.835908  0.877164  1
  Tb  Tb9  1  0.859894  0.664092  0.622836  1
  Dy  Dy10  1  0.640211  0.163997  0.376824  1
  Dy  Dy11  1  0.140211  0.336003  0.123176  1
  Dy  Dy12  1  0.640185  0.163953  0.123051  1
  Dy  Dy13  1  0.140185  0.336047  0.376949  1
  Dy  Dy14  1  0.359699  0.835975  0.623017  1
  Dy  Dy15  1  0.859699  0.664025  0.876983  1
  Dy  Dy16  1  0.193830  0.502548  0.749955  1
  Dy  Dy17  1  0.693830  0.997452  0.750045  1
  Dy  Dy18  1  0.806165  0.497271  0.249973  1
  Dy  Dy19  1  0.306165  0.002729  0.250027  1
  Sn  Sn20  1  0.305438  0.041627  0.042556  1
  Sn  Sn21  1  0.805438  0.458373  0.457444  1
  Sn  Sn22  1  0.694028  0.959164  0.542136  1
  Sn  Sn23  1  0.194028  0.540836  0.957864  1
  Sn  Sn24  1  0.695144  0.958850  0.957871  1
  Sn  Sn25  1  0.195144  0.541150  0.542129  1
  Sn  Sn26  1  0.305579  0.041331  0.457751  1
  Sn  Sn27  1  0.805579  0.458669  0.042249  1
  Sn  Sn28  1  0.559193  0.624418  0.750026  1
  Sn  Sn29  1  0.059193  0.875582  0.749974  1
  Sn  Sn30  1  0.440839  0.375206  0.249998  1
  Sn  Sn31  1  0.940839  0.124794  0.250002  1
  Sn  Sn32  1  0.322293  0.140890  0.749888  1
  Sn  Sn33  1  0.822293  0.359110  0.750112  1
  Sn  Sn34  1  0.677536  0.859243  0.249993  1
  Sn  Sn35  1  0.177536  0.640757  0.250007  1
