# generated using pymatgen
data_Pr2Y3Si4
_symmetry_space_group_name_H-M   'P 1'
_cell_length_a   7.53469400
_cell_length_b   7.83229700
_cell_length_c   14.88518400
_cell_angle_alpha   90.00000000
_cell_angle_beta   90.00000000
_cell_angle_gamma   90.00000000
_symmetry_Int_Tables_number   1
_chemical_formula_structural   Pr2Y3Si4
_chemical_formula_sum   'Pr8 Y12 Si16'
_cell_volume   878.43367121
_cell_formula_units_Z   4
loop_
 _symmetry_equiv_pos_site_id
 _symmetry_equiv_pos_as_xyz
  1  'x, y, z'
loop_
 _atom_site_type_symbol
 _atom_site_label
 _atom_site_symmetry_multiplicity
 _atom_site_fract_x
 _atom_site_fract_y
 _atom_site_fract_z
 _atom_site_occupancy
  Pr  Pr0  1  0.022952  0.179109  0.402254  1
  Pr  Pr1  1  0.522952  0.320891  0.402254  1
  Pr  Pr2  1  0.477048  0.679109  0.902254  1
  Pr  Pr3  1  0.477048  0.679109  0.597746  1
  Pr  Pr4  1  0.977048  0.820891  0.597746  1
  Pr  Pr5  1  0.977048  0.820891  0.902254  1
  Pr  Pr6  1  0.522952  0.320891  0.097746  1
  Pr  Pr7  1  0.022952  0.179109  0.097746  1
  Y  Y8  1  0.322000  0.179477  0.622937  1
  Y  Y9  1  0.678000  0.820523  0.377063  1
  Y  Y10  1  0.652817  0.988195  0.750000  1
  Y  Y11  1  0.178000  0.679477  0.377063  1
  Y  Y12  1  0.822000  0.320523  0.877063  1
  Y  Y13  1  0.822000  0.320523  0.622937  1
  Y  Y14  1  0.847183  0.488195  0.250000  1
  Y  Y15  1  0.347183  0.011805  0.250000  1
  Y  Y16  1  0.322000  0.179477  0.877063  1
  Y  Y17  1  0.178000  0.679477  0.122937  1
  Y  Y18  1  0.678000  0.820523  0.122937  1
  Y  Y19  1  0.152817  0.511805  0.750000  1
  Si  Si20  1  0.270341  0.880892  0.750000  1
  Si  Si21  1  0.471520  0.610686  0.250000  1
  Si  Si22  1  0.028480  0.110686  0.750000  1
  Si  Si23  1  0.528480  0.389314  0.750000  1
  Si  Si24  1  0.144968  0.469603  0.539525  1
  Si  Si25  1  0.971520  0.889314  0.250000  1
  Si  Si26  1  0.729659  0.119108  0.250000  1
  Si  Si27  1  0.855032  0.530397  0.039525  1
  Si  Si28  1  0.355032  0.969603  0.039525  1
  Si  Si29  1  0.144968  0.469603  0.960475  1
  Si  Si30  1  0.644968  0.030397  0.539525  1
  Si  Si31  1  0.355032  0.969603  0.460475  1
  Si  Si32  1  0.855032  0.530397  0.460475  1
  Si  Si33  1  0.770341  0.619108  0.750000  1
  Si  Si34  1  0.229659  0.380892  0.250000  1
  Si  Si35  1  0.644968  0.030397  0.960475  1
