# generated using pymatgen
data_Tm10Si4BiRu
_symmetry_space_group_name_H-M   'P 1'
_cell_length_a   8.76382130
_cell_length_b   8.76382212
_cell_length_c   8.76382218
_cell_angle_alpha   129.86812385
_cell_angle_beta   129.86812391
_cell_angle_gamma   73.61767981
_symmetry_Int_Tables_number   1
_chemical_formula_structural   Tm10Si4BiRu
_chemical_formula_sum   'Tm10 Si4 Bi1 Ru1'
_cell_volume   386.91385844
_cell_formula_units_Z   1
loop_
 _symmetry_equiv_pos_site_id
 _symmetry_equiv_pos_as_xyz
  1  'x, y, z'
loop_
 _atom_site_type_symbol
 _atom_site_label
 _atom_site_symmetry_multiplicity
 _atom_site_fract_x
 _atom_site_fract_y
 _atom_site_fract_z
 _atom_site_occupancy
  Tm  Tm0  1  0.983574  0.983574  0.000000  1
  Tm  Tm1  1  0.516426  0.516426  0.000000  1
  Tm  Tm2  1  0.837147  0.287753  0.840134  1
  Tm  Tm3  1  0.212247  0.662853  0.159866  1
  Tm  Tm4  1  0.447619  0.997013  0.159866  1
  Tm  Tm5  1  0.287753  0.447619  0.450605  1
  Tm  Tm6  1  0.052381  0.212247  0.549395  1
  Tm  Tm7  1  0.502987  0.052381  0.840134  1
  Tm  Tm8  1  0.662853  0.502987  0.450605  1
  Tm  Tm9  1  0.997013  0.837147  0.549395  1
  Si  Si10  1  0.127670  0.627670  0.755339  1
  Si  Si11  1  0.872330  0.372330  0.244661  1
  Si  Si12  1  0.627670  0.872330  0.500000  1
  Si  Si13  1  0.372330  0.127670  0.500000  1
  Bi  Bi14  1  0.750000  0.750000  0.000000  1
  Ru  Ru15  1  0.250000  0.250000  0.000000  1
