# generated using pymatgen
data_TmSe23
_symmetry_space_group_name_H-M   'P 1'
_cell_length_a   5.23736715
_cell_length_b   10.19426330
_cell_length_c   16.49151900
_cell_angle_alpha   88.31348080
_cell_angle_beta   86.83688808
_cell_angle_gamma   91.83957472
_symmetry_Int_Tables_number   1
_chemical_formula_structural   TmSe23
_chemical_formula_sum   'Tm1 Se23'
_cell_volume   878.27619183
_cell_formula_units_Z   1
loop_
 _symmetry_equiv_pos_site_id
 _symmetry_equiv_pos_as_xyz
  1  'x, y, z'
loop_
 _atom_site_type_symbol
 _atom_site_label
 _atom_site_symmetry_multiplicity
 _atom_site_fract_x
 _atom_site_fract_y
 _atom_site_fract_z
 _atom_site_occupancy
  Tm  Tm0  1  0.559393  0.457482  0.465022  1
  Se  Se1  1  0.567451  0.835058  0.371998  1
  Se  Se2  1  0.012962  0.315998  0.118841  1
  Se  Se3  1  0.806939  0.225016  0.503917  1
  Se  Se4  1  0.272542  0.744861  0.475521  1
  Se  Se5  1  0.240152  0.270352  0.995813  1
  Se  Se6  1  0.748231  0.709329  0.003711  1
  Se  Se7  1  0.118651  0.387923  0.386484  1
  Se  Se8  1  0.848105  0.654343  0.368294  1
  Se  Se9  1  0.760270  0.127485  0.161642  1
  Se  Se10  1  0.252703  0.868693  0.127411  1
  Se  Se11  1  0.727851  0.598867  0.619000  1
  Se  Se12  1  0.218146  0.336873  0.615147  1
  Se  Se13  1  0.227613  0.857966  0.840731  1
  Se  Se14  1  0.740448  0.122069  0.864639  1
  Se  Se15  1  0.021453  0.669525  0.110181  1
  Se  Se16  1  0.493214  0.792386  0.599388  1
  Se  Se17  1  0.463351  0.147259  0.596903  1
  Se  Se18  1  0.977941  0.666874  0.880278  1
  Se  Se19  1  0.983208  0.317008  0.885553  1
  Se  Se20  1  0.484492  0.450208  0.301326  1
  Se  Se21  1  0.034658  0.987047  0.229858  1
  Se  Se22  1  0.474665  0.459585  0.711176  1
  Se  Se23  1  0.965559  0.997793  0.767170  1
