# generated using pymatgen
data_CeHo2Zn3AgIr2
_symmetry_space_group_name_H-M   'P 1'
_cell_length_a   7.33481823
_cell_length_b   7.33481740
_cell_length_c   3.79582100
_cell_angle_alpha   90.00000000
_cell_angle_beta   90.00000000
_cell_angle_gamma   118.57931375
_symmetry_Int_Tables_number   1
_chemical_formula_structural   CeHo2Zn3AgIr2
_chemical_formula_sum   'Ce1 Ho2 Zn3 Ag1 Ir2'
_cell_volume   179.33123294
_cell_formula_units_Z   1
loop_
 _symmetry_equiv_pos_site_id
 _symmetry_equiv_pos_as_xyz
  1  'x, y, z'
loop_
 _atom_site_type_symbol
 _atom_site_label
 _atom_site_symmetry_multiplicity
 _atom_site_fract_x
 _atom_site_fract_y
 _atom_site_fract_z
 _atom_site_occupancy
  Ce  Ce0  1  0.427334  0.427334  0.500000  1
  Ho  Ho1  1  0.584518  0.997844  0.500000  1
  Ho  Ho2  1  0.997844  0.584518  0.500000  1
  Zn  Zn3  1  0.749479  0.749479  0.000000  1
  Zn  Zn4  1  0.263881  0.993643  0.000000  1
  Zn  Zn5  1  0.993643  0.263881  0.000000  1
  Ag  Ag6  1  0.002050  0.002050  0.500000  1
  Ir  Ir7  1  0.650475  0.330774  0.000000  1
  Ir  Ir8  1  0.330774  0.650475  0.000000  1
