# generated using pymatgen
data_Yb3Be2Pt7
_symmetry_space_group_name_H-M   'P 1'
_cell_length_a   8.53795017
_cell_length_b   8.53795131
_cell_length_c   8.53795098
_cell_angle_alpha   37.23943774
_cell_angle_beta   37.23942924
_cell_angle_gamma   37.23943547
_symmetry_Int_Tables_number   1
_chemical_formula_structural   Yb3Be2Pt7
_chemical_formula_sum   'Yb3 Be2 Pt7'
_cell_volume   204.30816109
_cell_formula_units_Z   1
loop_
 _symmetry_equiv_pos_site_id
 _symmetry_equiv_pos_as_xyz
  1  'x, y, z'
loop_
 _atom_site_type_symbol
 _atom_site_label
 _atom_site_symmetry_multiplicity
 _atom_site_fract_x
 _atom_site_fract_y
 _atom_site_fract_z
 _atom_site_occupancy
  Yb  Yb0  1  0.358075  0.358075  0.358075  1
  Yb  Yb1  1  0.500000  0.500000  0.500000  1
  Yb  Yb2  1  0.641924  0.641924  0.641924  1
  Be  Be3  1  0.166210  0.166210  0.166210  1
  Be  Be4  1  0.833790  0.833790  0.833790  1
  Pt  Pt5  1  0.000000  0.000000  0.000000  1
  Pt  Pt6  1  0.571155  0.072672  0.072673  1
  Pt  Pt7  1  0.072672  0.571155  0.072673  1
  Pt  Pt8  1  0.927328  0.927328  0.428844  1
  Pt  Pt9  1  0.072672  0.072672  0.571156  1
  Pt  Pt10  1  0.927328  0.428845  0.927327  1
  Pt  Pt11  1  0.428845  0.927328  0.927327  1
