# generated using pymatgen
data_CaCr2Sb2(PO4)6
_symmetry_space_group_name_H-M   'P 1'
_cell_length_a   8.62228900
_cell_length_b   8.84135077
_cell_length_c   12.36266074
_cell_angle_alpha   88.16238151
_cell_angle_beta   90.00000000
_cell_angle_gamma   90.00000000
_symmetry_Int_Tables_number   1
_chemical_formula_structural   CaCr2Sb2(PO4)6
_chemical_formula_sum   'Ca2 Cr4 Sb4 P12 O48'
_cell_volume   941.95410254
_cell_formula_units_Z   2
loop_
 _symmetry_equiv_pos_site_id
 _symmetry_equiv_pos_as_xyz
  1  'x, y, z'
loop_
 _atom_site_type_symbol
 _atom_site_label
 _atom_site_symmetry_multiplicity
 _atom_site_fract_x
 _atom_site_fract_y
 _atom_site_fract_z
 _atom_site_occupancy
  Ca  Ca0  1  0.500000  0.500000  0.000000  1
  Ca  Ca1  1  0.000000  0.000000  0.000000  1
  Cr  Cr2  1  0.500345  0.210873  0.855721  1
  Cr  Cr3  1  0.000345  0.289127  0.144279  1
  Cr  Cr4  1  0.499655  0.789127  0.144279  1
  Cr  Cr5  1  0.999655  0.710873  0.855721  1
  Sb  Sb6  1  0.499801  0.784750  0.643177  1
  Sb  Sb7  1  0.999801  0.715250  0.356823  1
  Sb  Sb8  1  0.000199  0.284750  0.643177  1
  Sb  Sb9  1  0.500199  0.215250  0.356823  1
  P  P10  1  0.355870  0.854961  0.393174  1
  P  P11  1  0.289049  0.503014  0.752896  1
  P  P12  1  0.144130  0.354961  0.393174  1
  P  P13  1  0.855299  0.356475  0.896269  1
  P  P14  1  0.355299  0.143525  0.103731  1
  P  P15  1  0.789049  0.996986  0.247104  1
  P  P16  1  0.210951  0.003014  0.752896  1
  P  P17  1  0.644701  0.856475  0.896269  1
  P  P18  1  0.144701  0.643525  0.103731  1
  P  P19  1  0.855870  0.645039  0.606826  1
  P  P20  1  0.710951  0.496986  0.247104  1
  P  P21  1  0.644130  0.145039  0.606826  1
  O  O22  1  0.306810  0.894071  0.681592  1
  O  O23  1  0.176732  0.840486  0.403548  1
  O  O24  1  0.430122  0.770040  0.492167  1
  O  O25  1  0.420655  0.786119  0.293311  1
  O  O26  1  0.391357  0.590012  0.666785  1
  O  O27  1  0.115343  0.528508  0.401219  1
  O  O28  1  0.395097  0.414511  0.832386  1
  O  O29  1  0.106875  0.476655  0.101231  1
  O  O30  1  0.193190  0.394071  0.681592  1
  O  O31  1  0.807501  0.391226  0.180949  1
  O  O32  1  0.323268  0.340486  0.403548  1
  O  O33  1  0.676929  0.343648  0.902696  1
  O  O34  1  0.069878  0.270040  0.492167  1
  O  O35  1  0.079345  0.286119  0.293311  1
  O  O36  1  0.930873  0.259870  0.988480  1
  O  O37  1  0.916821  0.276280  0.792144  1
  O  O38  1  0.416821  0.223720  0.207856  1
  O  O39  1  0.430873  0.240130  0.011520  1
  O  O40  1  0.176929  0.156352  0.097304  1
  O  O41  1  0.895097  0.085489  0.167614  1
  O  O42  1  0.307501  0.108774  0.819051  1
  O  O43  1  0.384657  0.028508  0.401219  1
  O  O44  1  0.108643  0.090012  0.666785  1
  O  O45  1  0.606875  0.023345  0.898769  1
  O  O46  1  0.393125  0.976655  0.101231  1
  O  O47  1  0.891357  0.909988  0.333215  1
  O  O48  1  0.615343  0.971492  0.598781  1
  O  O49  1  0.692499  0.891226  0.180949  1
  O  O50  1  0.104903  0.914511  0.832386  1
  O  O51  1  0.823071  0.843648  0.902696  1
  O  O52  1  0.569127  0.759870  0.988480  1
  O  O53  1  0.583179  0.776280  0.792144  1
  O  O54  1  0.083179  0.723720  0.207856  1
  O  O55  1  0.069127  0.740130  0.011520  1
  O  O56  1  0.920655  0.713881  0.706689  1
  O  O57  1  0.930122  0.729960  0.507833  1
  O  O58  1  0.323071  0.656352  0.097304  1
  O  O59  1  0.676732  0.659514  0.596452  1
  O  O60  1  0.192499  0.608774  0.819051  1
  O  O61  1  0.806810  0.605929  0.318408  1
  O  O62  1  0.893125  0.523345  0.898769  1
  O  O63  1  0.604903  0.585489  0.167614  1
  O  O64  1  0.884657  0.471492  0.598781  1
  O  O65  1  0.608643  0.409988  0.333215  1
  O  O66  1  0.579345  0.213881  0.706689  1
  O  O67  1  0.569878  0.229960  0.507833  1
  O  O68  1  0.823268  0.159514  0.596452  1
  O  O69  1  0.693190  0.105929  0.318408  1
