# generated using pymatgen
data_LiDy8HgRh2
_symmetry_space_group_name_H-M   'P 1'
_cell_length_a   9.61056698
_cell_length_b   9.58947491
_cell_length_c   9.61056543
_cell_angle_alpha   60.07256557
_cell_angle_beta   60.27644397
_cell_angle_gamma   60.07256568
_symmetry_Int_Tables_number   1
_chemical_formula_structural   LiDy8HgRh2
_chemical_formula_sum   'Li2 Dy16 Hg2 Rh4'
_cell_volume   628.28166084
_cell_formula_units_Z   2
loop_
 _symmetry_equiv_pos_site_id
 _symmetry_equiv_pos_as_xyz
  1  'x, y, z'
loop_
 _atom_site_type_symbol
 _atom_site_label
 _atom_site_symmetry_multiplicity
 _atom_site_fract_x
 _atom_site_fract_y
 _atom_site_fract_z
 _atom_site_occupancy
  Li  Li0  1  0.924144  0.928878  0.218101  1
  Li  Li1  1  0.218101  0.928878  0.924144  1
  Dy  Dy2  1  0.689220  0.311825  0.312710  1
  Dy  Dy3  1  0.689220  0.686245  0.312710  1
  Dy  Dy4  1  0.317245  0.682755  0.317245  1
  Dy  Dy5  1  0.936121  0.935852  0.565083  1
  Dy  Dy6  1  0.147124  0.150741  0.551394  1
  Dy  Dy7  1  0.562950  0.937050  0.562950  1
  Dy  Dy8  1  0.151625  0.154789  0.151625  1
  Dy  Dy9  1  0.312710  0.311825  0.689220  1
  Dy  Dy10  1  0.936121  0.562945  0.565083  1
  Dy  Dy11  1  0.565083  0.562945  0.936121  1
  Dy  Dy12  1  0.565083  0.935852  0.936121  1
  Dy  Dy13  1  0.934574  0.565426  0.934574  1
  Dy  Dy14  1  0.151625  0.541959  0.151625  1
  Dy  Dy15  1  0.312710  0.686245  0.689220  1
  Dy  Dy16  1  0.691818  0.308182  0.691818  1
  Dy  Dy17  1  0.551394  0.150741  0.147124  1
  Hg  Hg18  1  0.919736  0.250099  0.919736  1
  Hg  Hg19  1  0.919736  0.910429  0.919736  1
  Rh  Rh20  1  0.358588  0.356098  0.358588  1
  Rh  Rh21  1  0.927388  0.356758  0.359098  1
  Rh  Rh22  1  0.359098  0.356758  0.927388  1
  Rh  Rh23  1  0.358588  0.926727  0.358588  1
