# generated using pymatgen
data_Ac2Mg3Zn3Si2Ge
_symmetry_space_group_name_H-M   'P 1'
_cell_length_a   8.08778500
_cell_length_b   8.08787915
_cell_length_c   4.20879200
_cell_angle_alpha   90.00000000
_cell_angle_beta   90.00000000
_cell_angle_gamma   120.00037977
_symmetry_Int_Tables_number   1
_chemical_formula_structural   Ac2Mg3Zn3Si2Ge
_chemical_formula_sum   'Ac2 Mg3 Zn3 Si2 Ge1'
_cell_volume   238.42439208
_cell_formula_units_Z   1
loop_
 _symmetry_equiv_pos_site_id
 _symmetry_equiv_pos_as_xyz
  1  'x, y, z'
loop_
 _atom_site_type_symbol
 _atom_site_label
 _atom_site_symmetry_multiplicity
 _atom_site_fract_x
 _atom_site_fract_y
 _atom_site_fract_z
 _atom_site_occupancy
  Ac  Ac0  1  0.665120  0.333088  0.000000  1
  Ac  Ac1  1  0.334880  0.667969  0.000000  1
  Mg  Mg2  1  0.719138  0.998880  0.500000  1
  Mg  Mg3  1  0.000000  0.724038  0.500000  1
  Mg  Mg4  1  0.280862  0.279743  0.500000  1
  Zn  Zn5  1  0.193265  0.999712  0.000000  1
  Zn  Zn6  1  0.806735  0.806447  0.000000  1
  Zn  Zn7  1  0.000000  0.187407  0.000000  1
  Si  Si8  1  0.378545  0.000000  0.500000  1
  Si  Si9  1  0.621455  0.621455  0.500000  1
  Ge  Ge10  1  0.000000  0.381263  0.500000  1
