# generated using pymatgen
data_YLu2Th3Si4
_symmetry_space_group_name_H-M   'P 1'
_cell_length_a   7.54981362
_cell_length_b   7.54981362
_cell_length_c   4.26304900
_cell_angle_alpha   90.00000000
_cell_angle_beta   90.00000000
_cell_angle_gamma   90.45540385
_symmetry_Int_Tables_number   1
_chemical_formula_structural   YLu2Th3Si4
_chemical_formula_sum   'Y1 Lu2 Th3 Si4'
_cell_volume   242.98477759
_cell_formula_units_Z   1
loop_
 _symmetry_equiv_pos_site_id
 _symmetry_equiv_pos_as_xyz
  1  'x, y, z'
loop_
 _atom_site_type_symbol
 _atom_site_label
 _atom_site_symmetry_multiplicity
 _atom_site_fract_x
 _atom_site_fract_y
 _atom_site_fract_z
 _atom_site_occupancy
  Y  Y0  1  0.676172  0.176172  0.500000  1
  Lu  Lu1  1  0.500633  0.500905  0.000000  1
  Lu  Lu2  1  0.000905  0.000633  0.000000  1
  Th  Th3  1  0.323450  0.823450  0.500000  1
  Th  Th4  1  0.177687  0.320907  0.500000  1
  Th  Th5  1  0.820907  0.677687  0.500000  1
  Si  Si6  1  0.118365  0.618365  0.000000  1
  Si  Si7  1  0.877577  0.377577  0.000000  1
  Si  Si8  1  0.619840  0.884463  0.000000  1
  Si  Si9  1  0.384463  0.119840  0.000000  1
