# generated using pymatgen
data_Zr4FeOs
_symmetry_space_group_name_H-M   'P 1'
_cell_length_a   8.68370241
_cell_length_b   8.68370287
_cell_length_c   8.68370300
_cell_angle_alpha   60.00000330
_cell_angle_beta   60.00000155
_cell_angle_gamma   60.00000279
_symmetry_Int_Tables_number   1
_chemical_formula_structural   Zr4FeOs
_chemical_formula_sum   'Zr16 Fe4 Os4'
_cell_volume   463.02013240
_cell_formula_units_Z   4
loop_
 _symmetry_equiv_pos_site_id
 _symmetry_equiv_pos_as_xyz
  1  'x, y, z'
loop_
 _atom_site_type_symbol
 _atom_site_label
 _atom_site_symmetry_multiplicity
 _atom_site_fract_x
 _atom_site_fract_y
 _atom_site_fract_z
 _atom_site_occupancy
  Zr  Zr0  1  0.056339  0.647887  0.647887  1
  Zr  Zr1  1  0.647887  0.056339  0.647887  1
  Zr  Zr2  1  0.647887  0.647887  0.056339  1
  Zr  Zr3  1  0.647887  0.647887  0.647887  1
  Zr  Zr4  1  0.799503  0.799503  0.200497  1
  Zr  Zr5  1  0.200497  0.200497  0.799503  1
  Zr  Zr6  1  0.799503  0.200497  0.799503  1
  Zr  Zr7  1  0.200497  0.799503  0.200497  1
  Zr  Zr8  1  0.200497  0.799503  0.799503  1
  Zr  Zr9  1  0.799503  0.200497  0.200497  1
  Zr  Zr10  1  0.436719  0.436719  0.063281  1
  Zr  Zr11  1  0.063281  0.063281  0.436719  1
  Zr  Zr12  1  0.436719  0.063281  0.436719  1
  Zr  Zr13  1  0.063281  0.436719  0.063281  1
  Zr  Zr14  1  0.063281  0.436719  0.436719  1
  Zr  Zr15  1  0.436719  0.063281  0.063281  1
  Fe  Fe16  1  0.419337  0.860221  0.860221  1
  Fe  Fe17  1  0.860221  0.419337  0.860221  1
  Fe  Fe18  1  0.860221  0.860221  0.419337  1
  Fe  Fe19  1  0.860221  0.860221  0.860221  1
  Os  Os20  1  0.744324  0.418559  0.418559  1
  Os  Os21  1  0.418559  0.744324  0.418559  1
  Os  Os22  1  0.418559  0.418559  0.744324  1
  Os  Os23  1  0.418559  0.418559  0.418559  1
