# generated using pymatgen
data_LaZr4Np3F28
_symmetry_space_group_name_H-M   'P 1'
_cell_length_a   5.86268697
_cell_length_b   9.50295933
_cell_length_c   12.71200552
_cell_angle_alpha   61.45466557
_cell_angle_beta   90.15845406
_cell_angle_gamma   90.11993277
_symmetry_Int_Tables_number   1
_chemical_formula_structural   LaZr4Np3F28
_chemical_formula_sum   'La1 Zr4 Np3 F28'
_cell_volume   622.12775218
_cell_formula_units_Z   1
loop_
 _symmetry_equiv_pos_site_id
 _symmetry_equiv_pos_as_xyz
  1  'x, y, z'
loop_
 _atom_site_type_symbol
 _atom_site_label
 _atom_site_symmetry_multiplicity
 _atom_site_fract_x
 _atom_site_fract_y
 _atom_site_fract_z
 _atom_site_occupancy
  La  La0  1  0.742885  0.813705  0.264471  1
  Zr  Zr1  1  0.743719  0.275094  0.455793  1
  Zr  Zr2  1  0.243656  0.721901  0.043456  1
  Zr  Zr3  1  0.256885  0.722780  0.546334  1
  Zr  Zr4  1  0.756705  0.279017  0.954570  1
  Np  Np5  1  0.241542  0.184405  0.235419  1
  Np  Np6  1  0.258846  0.185330  0.735833  1
  Np  Np7  1  0.759030  0.815669  0.764395  1
  F  F8  1  0.454063  0.714756  0.918259  1
  F  F9  1  0.954446  0.283507  0.581053  1
  F  F10  1  0.545962  0.286557  0.079856  1
  F  F11  1  0.046541  0.714392  0.421273  1
  F  F12  1  0.458027  0.283976  0.547216  1
  F  F13  1  0.955071  0.714770  0.953571  1
  F  F14  1  0.541468  0.715489  0.454776  1
  F  F15  1  0.043489  0.285959  0.045972  1
  F  F16  1  0.765651  0.522452  0.859491  1
  F  F17  1  0.265030  0.479254  0.640212  1
  F  F18  1  0.233890  0.479071  0.139400  1
  F  F19  1  0.734827  0.518548  0.360676  1
  F  F20  1  0.767247  0.034754  0.054937  1
  F  F21  1  0.269240  0.967494  0.444031  1
  F  F22  1  0.230786  0.967050  0.942468  1
  F  F23  1  0.729896  0.030316  0.557042  1
  F  F24  1  0.981964  0.735521  0.640353  1
  F  F25  1  0.482446  0.265784  0.859818  1
  F  F26  1  0.018108  0.263566  0.361361  1
  F  F27  1  0.516286  0.734006  0.138803  1
  F  F28  1  0.042081  0.740174  0.168407  1
  F  F29  1  0.537928  0.260283  0.330819  1
  F  F30  1  0.961835  0.262161  0.829913  1
  F  F31  1  0.461659  0.738460  0.671338  1
  F  F32  1  0.406629  0.968257  0.230851  1
  F  F33  1  0.911342  0.035197  0.267815  1
  F  F34  1  0.590173  0.033329  0.768216  1
  F  F35  1  0.090650  0.967017  0.731801  1
