# generated using pymatgen
data_Nd7Dy3Si16Ge
_symmetry_space_group_name_H-M   'P 1'
_cell_length_a   11.26681377
_cell_length_b   11.26688057
_cell_length_c   11.26810329
_cell_angle_alpha   144.72119640
_cell_angle_beta   135.53301454
_cell_angle_gamma   57.99225970
_symmetry_Int_Tables_number   1
_chemical_formula_structural   Nd7Dy3Si16Ge
_chemical_formula_sum   'Nd7 Dy3 Si16 Ge1'
_cell_volume   573.79989089
_cell_formula_units_Z   1
loop_
 _symmetry_equiv_pos_site_id
 _symmetry_equiv_pos_as_xyz
  1  'x, y, z'
loop_
 _atom_site_type_symbol
 _atom_site_label
 _atom_site_symmetry_multiplicity
 _atom_site_fract_x
 _atom_site_fract_y
 _atom_site_fract_z
 _atom_site_occupancy
  Nd  Nd0  1  0.754479  0.761637  0.516931  1
  Nd  Nd1  1  0.448811  0.964105  0.012761  1
  Nd  Nd2  1  0.849229  0.366783  0.014414  1
  Nd  Nd3  1  0.951962  0.965463  0.515467  1
  Nd  Nd4  1  0.151300  0.166375  0.519333  1
  Nd  Nd5  1  0.351261  0.366081  0.517837  1
  Nd  Nd6  1  0.244035  0.760292  0.006880  1
  Dy  Dy7  1  0.548318  0.562471  0.508898  1
  Dy  Dy8  1  0.054465  0.563523  0.014598  1
  Dy  Dy9  1  0.646912  0.166691  0.015620  1
  Si  Si10  1  0.202002  0.587612  0.386380  1
  Si  Si11  1  0.995657  0.084204  0.084140  1
  Si  Si12  1  0.700971  0.294781  0.593048  1
  Si  Si13  1  0.797385  0.192584  0.386293  1
  Si  Si14  1  0.892991  0.504723  0.607180  1
  Si  Si15  1  0.416037  0.863118  0.454465  1
  Si  Si16  1  0.103408  0.706287  0.601856  1
  Si  Si17  1  0.303982  0.897964  0.600189  1
  Si  Si18  1  0.588234  0.035684  0.447565  1
  Si  Si19  1  0.996386  0.430726  0.429329  1
  Si  Si20  1  0.877167  0.837979  0.953119  1
  Si  Si21  1  0.402380  0.501420  0.106241  1
  Si  Si22  1  0.112554  0.063980  0.950565  1
  Si  Si23  1  0.290364  0.244671  0.957413  1
  Si  Si24  1  0.502549  0.400307  0.905564  1
  Si  Si25  1  0.599822  0.699937  0.100676  1
  Ge  Ge26  1  0.717338  0.672098  0.954738  1
