# generated using pymatgen
data_Er3Zr5(Ni4P3)4
_symmetry_space_group_name_H-M   'P 1'
_cell_length_a   12.27107400
_cell_length_b   12.27107589
_cell_length_c   3.72876500
_cell_angle_alpha   90.00000000
_cell_angle_beta   90.00000000
_cell_angle_gamma   119.99999490
_symmetry_Int_Tables_number   1
_chemical_formula_structural   Er3Zr5(Ni4P3)4
_chemical_formula_sum   'Er3 Zr5 Ni16 P12'
_cell_volume   486.25142225
_cell_formula_units_Z   1
loop_
 _symmetry_equiv_pos_site_id
 _symmetry_equiv_pos_as_xyz
  1  'x, y, z'
loop_
 _atom_site_type_symbol
 _atom_site_label
 _atom_site_symmetry_multiplicity
 _atom_site_fract_x
 _atom_site_fract_y
 _atom_site_fract_z
 _atom_site_occupancy
  Er  Er0  1  0.817325  0.817325  0.500000  1
  Er  Er1  1  0.182675  0.000000  0.500000  1
  Er  Er2  1  0.000000  0.182675  0.500000  1
  Zr  Zr3  1  0.440947  0.440947  0.000000  1
  Zr  Zr4  1  0.559053  0.000000  0.000000  1
  Zr  Zr5  1  0.000000  0.559053  0.000000  1
  Zr  Zr6  1  0.666667  0.333333  0.000000  1
  Zr  Zr7  1  0.333333  0.666667  0.000000  1
  Ni  Ni8  1  0.191758  0.377242  0.000000  1
  Ni  Ni9  1  0.185483  0.808242  0.000000  1
  Ni  Ni10  1  0.814517  0.622758  0.000000  1
  Ni  Ni11  1  0.808242  0.185483  0.000000  1
  Ni  Ni12  1  0.377242  0.191758  0.000000  1
  Ni  Ni13  1  0.126041  0.484404  0.500000  1
  Ni  Ni14  1  0.358362  0.873959  0.500000  1
  Ni  Ni15  1  0.515596  0.641638  0.500000  1
  Ni  Ni16  1  0.641638  0.515596  0.500000  1
  Ni  Ni17  1  0.873959  0.358362  0.500000  1
  Ni  Ni18  1  0.484404  0.126041  0.500000  1
  Ni  Ni19  1  0.000000  0.000000  0.000000  1
  Ni  Ni20  1  0.724608  0.000000  0.500000  1
  Ni  Ni21  1  0.000000  0.724608  0.500000  1
  Ni  Ni22  1  0.622758  0.814517  0.000000  1
  Ni  Ni23  1  0.275392  0.275392  0.500000  1
  P  P24  1  0.645788  0.645788  0.000000  1
  P  P25  1  0.354212  0.000000  0.000000  1
  P  P26  1  0.000000  0.354212  0.000000  1
  P  P27  1  0.482553  0.308808  0.500000  1
  P  P28  1  0.691192  0.173743  0.500000  1
  P  P29  1  0.826257  0.517447  0.500000  1
  P  P30  1  0.517447  0.826257  0.500000  1
  P  P31  1  0.173743  0.691192  0.500000  1
  P  P32  1  0.821548  0.000000  0.000000  1
  P  P33  1  0.000000  0.821548  0.000000  1
  P  P34  1  0.308808  0.482553  0.500000  1
  P  P35  1  0.178452  0.178452  0.000000  1
