# generated using pymatgen
data_Tb13HoEr2(InIr)4
_symmetry_space_group_name_H-M   'P 1'
_cell_length_a   9.69888616
_cell_length_b   9.69097126
_cell_length_c   9.68663202
_cell_angle_alpha   60.06073620
_cell_angle_beta   59.97365666
_cell_angle_gamma   60.00459765
_symmetry_Int_Tables_number   1
_chemical_formula_structural   Tb13HoEr2(InIr)4
_chemical_formula_sum   'Tb13 Ho1 Er2 In4 Ir4'
_cell_volume   643.98299688
_cell_formula_units_Z   1
loop_
 _symmetry_equiv_pos_site_id
 _symmetry_equiv_pos_as_xyz
  1  'x, y, z'
loop_
 _atom_site_type_symbol
 _atom_site_label
 _atom_site_symmetry_multiplicity
 _atom_site_fract_x
 _atom_site_fract_y
 _atom_site_fract_z
 _atom_site_occupancy
  Tb  Tb0  1  0.309799  0.690637  0.311002  1
  Tb  Tb1  1  0.939946  0.559504  0.559288  1
  Tb  Tb2  1  0.310112  0.311604  0.690118  1
  Tb  Tb3  1  0.097567  0.098521  0.098338  1
  Tb  Tb4  1  0.558977  0.558888  0.939915  1
  Tb  Tb5  1  0.099609  0.100480  0.702141  1
  Tb  Tb6  1  0.690114  0.311099  0.689389  1
  Tb  Tb7  1  0.690690  0.689855  0.310387  1
  Tb  Tb8  1  0.690770  0.310948  0.310562  1
  Tb  Tb9  1  0.308771  0.691119  0.691185  1
  Tb  Tb10  1  0.559466  0.939567  0.559099  1
  Tb  Tb11  1  0.702883  0.099825  0.099682  1
  Tb  Tb12  1  0.559550  0.939712  0.939924  1
  Ho  Ho13  1  0.099526  0.702838  0.100220  1
  Er  Er14  1  0.940836  0.939684  0.558977  1
  Er  Er15  1  0.941279  0.558699  0.940245  1
  In  In16  1  0.332848  0.333349  0.332855  1
  In  In17  1  0.001849  0.332515  0.332181  1
  In  In18  1  0.332350  0.001975  0.332288  1
  In  In19  1  0.332357  0.332603  0.001928  1
  Ir  Ir20  1  0.892966  0.888655  0.890560  1
  Ir  Ir21  1  0.891846  0.890976  0.325999  1
  Ir  Ir22  1  0.324772  0.890109  0.891816  1
  Ir  Ir23  1  0.891117  0.326839  0.891900  1
