# generated using pymatgen
data_Ti8MnTc4Ru3
_symmetry_space_group_name_H-M   'P 1'
_cell_length_a   6.18205400
_cell_length_b   4.35677600
_cell_length_c   8.75265700
_cell_angle_alpha   90.00000000
_cell_angle_beta   89.99946284
_cell_angle_gamma   90.00000000
_symmetry_Int_Tables_number   1
_chemical_formula_structural   Ti8MnTc4Ru3
_chemical_formula_sum   'Ti8 Mn1 Tc4 Ru3'
_cell_volume   235.74252752
_cell_formula_units_Z   1
loop_
 _symmetry_equiv_pos_site_id
 _symmetry_equiv_pos_as_xyz
  1  'x, y, z'
loop_
 _atom_site_type_symbol
 _atom_site_label
 _atom_site_symmetry_multiplicity
 _atom_site_fract_x
 _atom_site_fract_y
 _atom_site_fract_z
 _atom_site_occupancy
  Ti  Ti0  1  0.999216  0.750000  0.125002  1
  Ti  Ti1  1  0.500770  0.750000  0.125004  1
  Ti  Ti2  1  0.999089  0.250000  0.375918  1
  Ti  Ti3  1  0.500885  0.250000  0.375919  1
  Ti  Ti4  1  0.500139  0.750000  0.625002  1
  Ti  Ti5  1  0.999882  0.750000  0.625003  1
  Ti  Ti6  1  0.500916  0.250000  0.874094  1
  Ti  Ti7  1  0.999102  0.250000  0.874096  1
  Mn  Mn8  1  0.249998  0.250000  0.125008  1
  Tc  Tc9  1  0.749996  0.250000  0.124985  1
  Tc  Tc10  1  0.249993  0.750000  0.369698  1
  Tc  Tc11  1  0.750006  0.250000  0.624978  1
  Tc  Tc12  1  0.250002  0.750000  0.880328  1
  Ru  Ru13  1  0.749985  0.750000  0.375141  1
  Ru  Ru14  1  0.250013  0.250000  0.625057  1
  Ru  Ru15  1  0.750013  0.750000  0.874767  1
