# generated using pymatgen
data_Tm2(PaGa5)3
_symmetry_space_group_name_H-M   'P 1'
_cell_length_a   12.40900959
_cell_length_b   12.40900920
_cell_length_c   12.40900863
_cell_angle_alpha   28.66878408
_cell_angle_beta   28.66877731
_cell_angle_gamma   28.66878552
_symmetry_Int_Tables_number   1
_chemical_formula_structural   Tm2(PaGa5)3
_chemical_formula_sum   'Tm2 Pa3 Ga15'
_cell_volume   388.79512556
_cell_formula_units_Z   1
loop_
 _symmetry_equiv_pos_site_id
 _symmetry_equiv_pos_as_xyz
  1  'x, y, z'
loop_
 _atom_site_type_symbol
 _atom_site_label
 _atom_site_symmetry_multiplicity
 _atom_site_fract_x
 _atom_site_fract_y
 _atom_site_fract_z
 _atom_site_occupancy
  Tm  Tm0  1  0.400163  0.400163  0.400163  1
  Tm  Tm1  1  0.599837  0.599837  0.599837  1
  Pa  Pa2  1  0.130407  0.130407  0.130407  1
  Pa  Pa3  1  0.869593  0.869593  0.869593  1
  Pa  Pa4  1  0.000000  0.000000  0.000000  1
  Ga  Ga5  1  0.434511  0.881464  0.881464  1
  Ga  Ga6  1  0.881464  0.881464  0.434511  1
  Ga  Ga7  1  0.881464  0.434511  0.881464  1
  Ga  Ga8  1  0.118536  0.565489  0.118536  1
  Ga  Ga9  1  0.118536  0.118536  0.565489  1
  Ga  Ga10  1  0.565489  0.118536  0.118536  1
  Ga  Ga11  1  0.129028  0.635339  0.635339  1
  Ga  Ga12  1  0.635339  0.635339  0.129028  1
  Ga  Ga13  1  0.635339  0.129028  0.635339  1
  Ga  Ga14  1  0.364661  0.870972  0.364661  1
  Ga  Ga15  1  0.364661  0.364661  0.870972  1
  Ga  Ga16  1  0.870972  0.364661  0.364661  1
  Ga  Ga17  1  0.500000  0.500000  0.000000  1
  Ga  Ga18  1  0.500000  0.000000  0.500000  1
  Ga  Ga19  1  0.000000  0.500000  0.500000  1
