# generated using pymatgen
data_Sr18AlIn(PO4)14
_symmetry_space_group_name_H-M   'P 1'
_cell_length_a   9.09472967
_cell_length_b   9.09876690
_cell_length_c   18.22322416
_cell_angle_alpha   71.70610407
_cell_angle_beta   71.79066871
_cell_angle_gamma   72.27739605
_symmetry_Int_Tables_number   1
_chemical_formula_structural   Sr18AlIn(PO4)14
_chemical_formula_sum   'Sr18 Al1 In1 P14 O56'
_cell_volume   1324.00496978
_cell_formula_units_Z   1
loop_
 _symmetry_equiv_pos_site_id
 _symmetry_equiv_pos_as_xyz
  1  'x, y, z'
loop_
 _atom_site_type_symbol
 _atom_site_label
 _atom_site_symmetry_multiplicity
 _atom_site_fract_x
 _atom_site_fract_y
 _atom_site_fract_z
 _atom_site_occupancy
  Sr  Sr0  1  0.957505  0.502722  0.253322  1
  Sr  Sr1  1  0.496216  0.036770  0.250855  1
  Sr  Sr2  1  0.036629  0.499159  0.749181  1
  Sr  Sr3  1  0.505547  0.957268  0.751745  1
  Sr  Sr4  1  0.159494  0.729114  0.858720  1
  Sr  Sr5  1  0.269078  0.846336  0.638837  1
  Sr  Sr6  1  0.843712  0.269828  0.142076  1
  Sr  Sr7  1  0.729778  0.156728  0.361944  1
  Sr  Sr8  1  0.286715  0.281170  0.412604  1
  Sr  Sr9  1  0.720427  0.713645  0.087761  1
  Sr  Sr10  1  0.714324  0.721883  0.586888  1
  Sr  Sr11  1  0.282368  0.287170  0.911985  1
  Sr  Sr12  1  0.161595  0.721033  0.367339  1
  Sr  Sr13  1  0.279511  0.836181  0.137297  1
  Sr  Sr14  1  0.838484  0.279392  0.634207  1
  Sr  Sr15  1  0.721032  0.163444  0.864435  1
  Sr  Sr16  1  0.495862  0.495063  0.513176  1
  Sr  Sr17  1  0.494797  0.495739  0.013466  1
  Al  Al18  1  0.000720  0.000614  0.500199  1
  In  In19  1  0.000755  0.000581  0.000107  1
  P  P20  1  0.104622  0.117485  0.792978  1
  P  P21  1  0.884801  0.896925  0.700416  1
  P  P22  1  0.896046  0.882610  0.207686  1
  P  P23  1  0.115356  0.103735  0.300259  1
  P  P24  1  0.413496  0.894418  0.942778  1
  P  P25  1  0.104576  0.598509  0.557903  1
  P  P26  1  0.585783  0.105103  0.058421  1
  P  P27  1  0.894953  0.400697  0.443160  1
  P  P28  1  0.400495  0.885697  0.449077  1
  P  P29  1  0.114050  0.587471  0.051926  1
  P  P30  1  0.599738  0.113515  0.551763  1
  P  P31  1  0.885191  0.412818  0.948889  1
  P  P32  1  0.472740  0.526074  0.747139  1
  P  P33  1  0.525539  0.472468  0.247598  1
  O  O34  1  0.612011  0.215517  0.601753  1
  O  O35  1  0.787029  0.384390  0.901967  1
  O  O36  1  0.388439  0.783320  0.399535  1
  O  O37  1  0.212097  0.615693  0.099315  1
  O  O38  1  0.613369  0.206074  0.105209  1
  O  O39  1  0.791030  0.386522  0.394224  1
  O  O40  1  0.383485  0.795402  0.896171  1
  O  O41  1  0.209977  0.610894  0.606975  1
  O  O42  1  0.478179  0.577630  0.168932  1
  O  O43  1  0.407166  0.529168  0.320732  1
  O  O44  1  0.530276  0.408712  0.820462  1
  O  O45  1  0.579075  0.479846  0.668590  1
  O  O46  1  0.502239  0.973853  0.117883  1
  O  O47  1  0.028702  0.484188  0.386741  1
  O  O48  1  0.498782  0.024618  0.883559  1
  O  O49  1  0.970047  0.516503  0.614640  1
  O  O50  1  0.227791  0.505592  0.985420  1
  O  O51  1  0.482580  0.777600  0.517179  1
  O  O52  1  0.773695  0.493363  0.016431  1
  O  O53  1  0.516336  0.223914  0.484653  1
  O  O54  1  0.210865  0.506561  0.494227  1
  O  O55  1  0.504408  0.784682  0.006121  1
  O  O56  1  0.789286  0.491579  0.507466  1
  O  O57  1  0.493843  0.215314  0.995699  1
  O  O58  1  0.702305  0.477140  0.234963  1
  O  O59  1  0.530125  0.292220  0.263999  1
  O  O60  1  0.293095  0.527368  0.764069  1
  O  O61  1  0.474112  0.703444  0.735219  1
  O  O62  1  0.014868  0.019897  0.875341  1
  O  O63  1  0.974382  0.980537  0.613796  1
  O  O64  1  0.985908  0.979633  0.125208  1
  O  O65  1  0.025591  0.020203  0.386885  1
  O  O66  1  0.228242  0.976169  0.490552  1
  O  O67  1  0.016694  0.751623  0.008009  1
  O  O68  1  0.771837  0.023908  0.510167  1
  O  O69  1  0.983818  0.248724  0.992646  1
  O  O70  1  0.984923  0.208989  0.256083  1
  O  O71  1  0.786303  0.008133  0.253446  1
  O  O72  1  0.015131  0.792558  0.744699  1
  O  O73  1  0.215382  0.992044  0.747280  1
  O  O74  1  0.509490  0.983609  0.605154  1
  O  O75  1  0.009818  0.507393  0.892861  1
  O  O76  1  0.491168  0.015877  0.396155  1
  O  O77  1  0.989329  0.493781  0.108396  1
  O  O78  1  0.797379  0.788043  0.193526  1
  O  O79  1  0.216119  0.206785  0.305667  1
  O  O80  1  0.201799  0.213148  0.807328  1
  O  O81  1  0.785288  0.792554  0.694969  1
  O  O82  1  0.250088  0.985790  0.990077  1
  O  O83  1  0.021589  0.770577  0.513362  1
  O  O84  1  0.750063  0.015292  0.011414  1
  O  O85  1  0.979293  0.229110  0.487906  1
  O  O86  1  0.973737  0.231715  0.750920  1
  O  O87  1  0.774657  0.030657  0.741456  1
  O  O88  1  0.026941  0.767538  0.249426  1
  O  O89  1  0.224478  0.969838  0.258998  1
