# generated using pymatgen
data_SmMgTcH6
_symmetry_space_group_name_H-M   'P 1'
_cell_length_a   4.96837305
_cell_length_b   4.96837449
_cell_length_c   4.96837300
_cell_angle_alpha   60.00000329
_cell_angle_beta   59.99999366
_cell_angle_gamma   60.00000156
_symmetry_Int_Tables_number   1
_chemical_formula_structural   SmMgTcH6
_chemical_formula_sum   'Sm1 Mg1 Tc1 H6'
_cell_volume   86.72168567
_cell_formula_units_Z   1
loop_
 _symmetry_equiv_pos_site_id
 _symmetry_equiv_pos_as_xyz
  1  'x, y, z'
loop_
 _atom_site_type_symbol
 _atom_site_label
 _atom_site_symmetry_multiplicity
 _atom_site_fract_x
 _atom_site_fract_y
 _atom_site_fract_z
 _atom_site_occupancy
  Sm  Sm0  1  0.750000  0.750000  0.750000  1
  Mg  Mg1  1  0.250000  0.250000  0.250000  1
  Tc  Tc2  1  0.000000  0.000000  0.000000  1
  H  H3  1  0.749868  0.749868  0.250132  1
  H  H4  1  0.250132  0.749868  0.250132  1
  H  H5  1  0.749868  0.250132  0.250132  1
  H  H6  1  0.250132  0.250132  0.749868  1
  H  H7  1  0.749868  0.250132  0.749868  1
  H  H8  1  0.250132  0.749868  0.749868  1
