# generated using pymatgen
data_Lu5ZnIn4Co
_symmetry_space_group_name_H-M   'P 1'
_cell_length_a   3.54323800
_cell_length_b   7.99723281
_cell_length_c   17.81747744
_cell_angle_alpha   90.61762874
_cell_angle_beta   90.00000000
_cell_angle_gamma   90.00000000
_symmetry_Int_Tables_number   1
_chemical_formula_structural   Lu5ZnIn4Co
_chemical_formula_sum   'Lu10 Zn2 In8 Co2'
_cell_volume   504.84847470
_cell_formula_units_Z   2
loop_
 _symmetry_equiv_pos_site_id
 _symmetry_equiv_pos_as_xyz
  1  'x, y, z'
loop_
 _atom_site_type_symbol
 _atom_site_label
 _atom_site_symmetry_multiplicity
 _atom_site_fract_x
 _atom_site_fract_y
 _atom_site_fract_z
 _atom_site_occupancy
  Lu  Lu0  1  0.000000  0.113106  0.411524  1
  Lu  Lu1  1  0.000000  0.886894  0.588476  1
  Lu  Lu2  1  0.000000  0.376981  0.919284  1
  Lu  Lu3  1  0.000000  0.623019  0.080716  1
  Lu  Lu4  1  0.000000  0.216573  0.226113  1
  Lu  Lu5  1  0.000000  0.783427  0.773887  1
  Lu  Lu6  1  0.000000  0.229542  0.717088  1
  Lu  Lu7  1  0.000000  0.770458  0.282912  1
  Lu  Lu8  1  0.000000  0.000000  0.000000  1
  Lu  Lu9  1  0.000000  0.500000  0.500000  1
  Zn  Zn10  1  0.500000  0.477452  0.799520  1
  Zn  Zn11  1  0.500000  0.522548  0.200480  1
  In  In12  1  0.500000  0.421464  0.351755  1
  In  In13  1  0.500000  0.578536  0.648245  1
  In  In14  1  0.500000  0.075588  0.849677  1
  In  In15  1  0.500000  0.924412  0.150323  1
  In  In16  1  0.500000  0.292594  0.069291  1
  In  In17  1  0.500000  0.707406  0.930709  1
  In  In18  1  0.500000  0.204808  0.566510  1
  In  In19  1  0.500000  0.795192  0.433490  1
  Co  Co20  1  0.500000  0.023848  0.304376  1
  Co  Co21  1  0.500000  0.976152  0.695624  1
