# generated using pymatgen
data_Co6Si2MoOsW2
_symmetry_space_group_name_H-M   'P 1'
_cell_length_a   4.74754000
_cell_length_b   4.74753929
_cell_length_c   7.37162000
_cell_angle_alpha   90.00000000
_cell_angle_beta   90.00000000
_cell_angle_gamma   119.99999103
_symmetry_Int_Tables_number   1
_chemical_formula_structural   Co6Si2MoOsW2
_chemical_formula_sum   'Co6 Si2 Mo1 Os1 W2'
_cell_volume   143.89006557
_cell_formula_units_Z   1
loop_
 _symmetry_equiv_pos_site_id
 _symmetry_equiv_pos_as_xyz
  1  'x, y, z'
loop_
 _atom_site_type_symbol
 _atom_site_label
 _atom_site_symmetry_multiplicity
 _atom_site_fract_x
 _atom_site_fract_y
 _atom_site_fract_z
 _atom_site_occupancy
  Co  Co0  1  0.828323  0.171677  0.252070  1
  Co  Co1  1  0.828323  0.656646  0.252070  1
  Co  Co2  1  0.343354  0.171677  0.252070  1
  Co  Co3  1  0.170602  0.829398  0.747103  1
  Co  Co4  1  0.170602  0.341203  0.747103  1
  Co  Co5  1  0.658797  0.829398  0.747103  1
  Si  Si6  1  0.000000  0.000000  0.498090  1
  Si  Si7  1  0.000000  0.000000  0.000487  1
  Mo  Mo8  1  0.333333  0.666667  0.063645  1
  Os  Os9  1  0.666667  0.333333  0.937540  1
  W  W10  1  0.333333  0.666667  0.429487  1
  W  W11  1  0.666667  0.333333  0.573233  1
