# generated using pymatgen
data_CaYb5DyScSb6
_symmetry_space_group_name_H-M   'P 1'
_cell_length_a   8.14252402
_cell_length_b   7.93560156
_cell_length_c   8.14052722
_cell_angle_alpha   71.08681796
_cell_angle_beta   70.03126591
_cell_angle_gamma   109.00924829
_symmetry_Int_Tables_number   1
_chemical_formula_structural   CaYb5DyScSb6
_chemical_formula_sum   'Ca1 Yb5 Dy1 Sc1 Sb6'
_cell_volume   407.47856510
_cell_formula_units_Z   1
loop_
 _symmetry_equiv_pos_site_id
 _symmetry_equiv_pos_as_xyz
  1  'x, y, z'
loop_
 _atom_site_type_symbol
 _atom_site_label
 _atom_site_symmetry_multiplicity
 _atom_site_fract_x
 _atom_site_fract_y
 _atom_site_fract_z
 _atom_site_occupancy
  Ca  Ca0  1  0.854815  0.997763  0.000247  1
  Yb  Yb1  1  0.500539  0.497601  0.145413  1
  Yb  Yb2  1  0.644724  0.143349  0.354876  1
  Yb  Yb3  1  0.355280  0.000805  0.998207  1
  Yb  Yb4  1  0.497777  0.498509  0.647043  1
  Yb  Yb5  1  0.146592  0.645485  0.855535  1
  Dy  Dy6  1  0.999937  0.858397  0.500182  1
  Sc  Sc7  1  0.000889  0.362625  0.498227  1
  Sb  Sb8  1  0.636492  0.884547  0.741815  1
  Sb  Sb9  1  0.880008  0.617695  0.261893  1
  Sb  Sb10  1  0.242195  0.127178  0.620617  1
  Sb  Sb11  1  0.761733  0.380146  0.857786  1
  Sb  Sb12  1  0.357741  0.737503  0.380660  1
  Sb  Sb13  1  0.121278  0.248398  0.137500  1
