# generated using pymatgen
data_TbCd3(Ir2O7)2
_symmetry_space_group_name_H-M   'P 1'
_cell_length_a   7.22952772
_cell_length_b   7.29384119
_cell_length_c   7.22952700
_cell_angle_alpha   60.29124420
_cell_angle_beta   59.99998955
_cell_angle_gamma   60.29125286
_symmetry_Int_Tables_number   1
_chemical_formula_structural   TbCd3(Ir2O7)2
_chemical_formula_sum   'Tb1 Cd3 Ir4 O14'
_cell_volume   270.74408628
_cell_formula_units_Z   1
loop_
 _symmetry_equiv_pos_site_id
 _symmetry_equiv_pos_as_xyz
  1  'x, y, z'
loop_
 _atom_site_type_symbol
 _atom_site_label
 _atom_site_symmetry_multiplicity
 _atom_site_fract_x
 _atom_site_fract_y
 _atom_site_fract_z
 _atom_site_occupancy
  Tb  Tb0  1  0.125000  0.625000  0.125000  1
  Cd  Cd1  1  0.625000  0.125000  0.125000  1
  Cd  Cd2  1  0.125000  0.125000  0.625000  1
  Cd  Cd3  1  0.125000  0.125000  0.125000  1
  Ir  Ir4  1  0.125000  0.625000  0.625000  1
  Ir  Ir5  1  0.625000  0.125000  0.625000  1
  Ir  Ir6  1  0.625000  0.625000  0.125000  1
  Ir  Ir7  1  0.625000  0.625000  0.625000  1
  O  O8  1  0.711932  0.697245  0.295412  1
  O  O9  1  0.300192  0.303926  0.697941  1
  O  O10  1  0.697941  0.303926  0.697941  1
  O  O11  1  0.295412  0.697245  0.295412  1
  O  O12  1  0.295412  0.697245  0.711932  1
  O  O13  1  0.697941  0.303926  0.300192  1
  O  O14  1  0.538068  0.552755  0.954588  1
  O  O15  1  0.949808  0.946074  0.552059  1
  O  O16  1  0.552059  0.946074  0.552059  1
  O  O17  1  0.954588  0.552755  0.954588  1
  O  O18  1  0.954588  0.552755  0.538068  1
  O  O19  1  0.552059  0.946074  0.949808  1
  O  O20  1  0.251659  0.245022  0.251659  1
  O  O21  1  0.998341  0.004978  0.998341  1
