# generated using pymatgen
data_BaH2F4
_symmetry_space_group_name_H-M   'P 1'
_cell_length_a   8.51070442
_cell_length_b   6.42984372
_cell_length_c   6.98399092
_cell_angle_alpha   78.64193910
_cell_angle_beta   47.78363104
_cell_angle_gamma   53.56719355
_symmetry_Int_Tables_number   1
_chemical_formula_structural   BaH2F4
_chemical_formula_sum   'Ba2 H4 F8'
_cell_volume   214.22801528
_cell_formula_units_Z   2
loop_
 _symmetry_equiv_pos_site_id
 _symmetry_equiv_pos_as_xyz
  1  'x, y, z'
loop_
 _atom_site_type_symbol
 _atom_site_label
 _atom_site_symmetry_multiplicity
 _atom_site_fract_x
 _atom_site_fract_y
 _atom_site_fract_z
 _atom_site_occupancy
  Ba  Ba0  1  0.999986  0.999981  0.000011  1
  Ba  Ba1  1  0.250033  0.249955  0.249961  1
  H  H2  1  0.376169  0.623902  0.376202  1
  H  H3  1  0.623820  0.376134  0.623841  1
  H  H4  1  0.626224  0.873768  0.626174  1
  H  H5  1  0.873829  0.626150  0.873737  1
  F  F6  1  0.461484  0.409350  0.293042  1
  F  F7  1  0.836287  0.292907  0.409203  1
  F  F8  1  0.840846  0.788404  0.413801  1
  F  F9  1  0.293018  0.836329  0.461669  1
  F  F10  1  0.957041  0.413751  0.788336  1
  F  F11  1  0.409111  0.461562  0.836257  1
  F  F12  1  0.413729  0.957000  0.840803  1
  F  F13  1  0.788423  0.840806  0.956967  1
