# generated using pymatgen
data_Hf18Be2Re5W3
_symmetry_space_group_name_H-M   'P 1'
_cell_length_a   8.58915205
_cell_length_b   8.58915351
_cell_length_c   8.56394000
_cell_angle_alpha   90.00000000
_cell_angle_beta   90.00000000
_cell_angle_gamma   120.02308975
_symmetry_Int_Tables_number   1
_chemical_formula_structural   Hf18Be2Re5W3
_chemical_formula_sum   'Hf18 Be2 Re5 W3'
_cell_volume   547.02076204
_cell_formula_units_Z   1
loop_
 _symmetry_equiv_pos_site_id
 _symmetry_equiv_pos_as_xyz
  1  'x, y, z'
loop_
 _atom_site_type_symbol
 _atom_site_label
 _atom_site_symmetry_multiplicity
 _atom_site_fract_x
 _atom_site_fract_y
 _atom_site_fract_z
 _atom_site_occupancy
  Hf  Hf0  1  0.199041  0.800959  0.447122  1
  Hf  Hf1  1  0.199289  0.398569  0.447713  1
  Hf  Hf2  1  0.601431  0.800711  0.447713  1
  Hf  Hf3  1  0.801055  0.198945  0.553996  1
  Hf  Hf4  1  0.801377  0.602687  0.553953  1
  Hf  Hf5  1  0.397313  0.198623  0.553953  1
  Hf  Hf6  1  0.801055  0.198945  0.946004  1
  Hf  Hf7  1  0.801377  0.602687  0.946047  1
  Hf  Hf8  1  0.397313  0.198623  0.946047  1
  Hf  Hf9  1  0.199041  0.800959  0.052878  1
  Hf  Hf10  1  0.199289  0.398569  0.052287  1
  Hf  Hf11  1  0.601431  0.800711  0.052287  1
  Hf  Hf12  1  0.539752  0.460248  0.250000  1
  Hf  Hf13  1  0.537715  0.077904  0.250000  1
  Hf  Hf14  1  0.922096  0.462285  0.250000  1
  Hf  Hf15  1  0.460509  0.539491  0.750000  1
  Hf  Hf16  1  0.460259  0.920921  0.750000  1
  Hf  Hf17  1  0.079079  0.539741  0.750000  1
  Be  Be18  1  0.332950  0.667050  0.250000  1
  Be  Be19  1  0.666404  0.333596  0.750000  1
  Re  Re20  1  0.888589  0.776379  0.250000  1
  Re  Re21  1  0.223621  0.111411  0.250000  1
  Re  Re22  1  0.111317  0.888683  0.750000  1
  Re  Re23  1  0.112045  0.223224  0.750000  1
  Re  Re24  1  0.776776  0.887955  0.750000  1
  W  W25  1  0.889218  0.110782  0.250000  1
  W  W26  1  0.000328  0.999672  0.500304  1
  W  W27  1  0.000328  0.999672  0.999696  1
