# generated using pymatgen
data_La16Tm4(Ir3Rh)3
_symmetry_space_group_name_H-M   'P 1'
_cell_length_a   11.33172800
_cell_length_b   11.33172800
_cell_length_c   6.56527100
_cell_angle_alpha   90.00000000
_cell_angle_beta   90.00000000
_cell_angle_gamma   90.00000000
_symmetry_Int_Tables_number   1
_chemical_formula_structural   La16Tm4(Ir3Rh)3
_chemical_formula_sum   'La16 Tm4 Ir9 Rh3'
_cell_volume   843.03370898
_cell_formula_units_Z   1
loop_
 _symmetry_equiv_pos_site_id
 _symmetry_equiv_pos_as_xyz
  1  'x, y, z'
loop_
 _atom_site_type_symbol
 _atom_site_label
 _atom_site_symmetry_multiplicity
 _atom_site_fract_x
 _atom_site_fract_y
 _atom_site_fract_z
 _atom_site_occupancy
  La  La0  1  0.286219  0.088236  0.387856  1
  La  La1  1  0.286128  0.911805  0.887989  1
  La  La2  1  0.713872  0.088195  0.887989  1
  La  La3  1  0.713781  0.911764  0.387856  1
  La  La4  1  0.588195  0.786128  0.887989  1
  La  La5  1  0.588236  0.213781  0.387856  1
  La  La6  1  0.411764  0.786219  0.387856  1
  La  La7  1  0.411805  0.213872  0.887989  1
  La  La8  1  0.213496  0.411861  0.611491  1
  La  La9  1  0.213387  0.588120  0.113426  1
  La  La10  1  0.786613  0.411880  0.113426  1
  La  La11  1  0.786504  0.588139  0.611491  1
  La  La12  1  0.911880  0.713387  0.113426  1
  La  La13  1  0.911861  0.286504  0.611491  1
  La  La14  1  0.088139  0.713496  0.611491  1
  La  La15  1  0.088120  0.286613  0.113426  1
  Tm  Tm16  1  0.000000  0.000000  0.499869  1
  Tm  Tm17  1  0.000000  0.000000  0.000106  1
  Tm  Tm18  1  0.500000  0.500000  0.000106  1
  Tm  Tm19  1  0.500000  0.500000  0.499869  1
  Ir  Ir20  1  0.852055  0.147169  0.249760  1
  Ir  Ir21  1  0.852350  0.852599  0.749684  1
  Ir  Ir22  1  0.147650  0.147401  0.749684  1
  Ir  Ir23  1  0.147945  0.852831  0.249760  1
  Ir  Ir24  1  0.647401  0.352350  0.749684  1
  Ir  Ir25  1  0.647169  0.647945  0.249760  1
  Ir  Ir26  1  0.352831  0.352055  0.249760  1
  Ir  Ir27  1  0.352599  0.647650  0.749684  1
  Ir  Ir28  1  0.000000  0.500000  0.382039  1
  Rh  Rh29  1  0.500000  0.000000  0.116912  1
  Rh  Rh30  1  0.500000  0.000000  0.616853  1
  Rh  Rh31  1  0.000000  0.500000  0.883425  1
