# generated using pymatgen
data_Tb3Th(Al3Ir)6
_symmetry_space_group_name_H-M   'P 1'
_cell_length_a   7.59409931
_cell_length_b   7.59896590
_cell_length_c   9.50032200
_cell_angle_alpha   90.00000000
_cell_angle_beta   90.00000000
_cell_angle_gamma   119.59166182
_symmetry_Int_Tables_number   1
_chemical_formula_structural   Tb3Th(Al3Ir)6
_chemical_formula_sum   'Tb3 Th1 Al18 Ir6'
_cell_volume   476.72951973
_cell_formula_units_Z   1
loop_
 _symmetry_equiv_pos_site_id
 _symmetry_equiv_pos_as_xyz
  1  'x, y, z'
loop_
 _atom_site_type_symbol
 _atom_site_label
 _atom_site_symmetry_multiplicity
 _atom_site_fract_x
 _atom_site_fract_y
 _atom_site_fract_z
 _atom_site_occupancy
  Tb  Tb0  1  0.004300  0.329473  0.750000  1
  Tb  Tb1  1  0.671379  0.994835  0.250000  1
  Tb  Tb2  1  0.328727  0.004516  0.750000  1
  Th  Th3  1  0.995137  0.670652  0.250000  1
  Al  Al4  1  0.130825  0.132258  0.250000  1
  Al  Al5  1  0.871561  0.873501  0.750000  1
  Al  Al6  1  0.001524  0.331122  0.072150  1
  Al  Al7  1  0.998747  0.664650  0.919815  1
  Al  Al8  1  0.998747  0.664650  0.580185  1
  Al  Al9  1  0.339386  0.005054  0.427781  1
  Al  Al10  1  0.001524  0.331122  0.427850  1
  Al  Al11  1  0.664985  0.999817  0.575055  1
  Al  Al12  1  0.664985  0.999817  0.924945  1
  Al  Al13  1  0.339386  0.005054  0.072219  1
  Al  Al14  1  0.332800  0.332817  0.553941  1
  Al  Al15  1  0.663092  0.666195  0.452822  1
  Al  Al16  1  0.663092  0.666195  0.047178  1
  Al  Al17  1  0.332800  0.332817  0.946059  1
  Al  Al18  1  0.342798  0.547722  0.250000  1
  Al  Al19  1  0.658788  0.450459  0.750000  1
  Al  Al20  1  0.544129  0.337169  0.250000  1
  Al  Al21  1  0.451315  0.660917  0.750000  1
  Ir  Ir22  1  0.672989  0.329667  0.000750  1
  Ir  Ir23  1  0.326715  0.671377  0.000738  1
  Ir  Ir24  1  0.326715  0.671377  0.499262  1
  Ir  Ir25  1  0.672989  0.329667  0.499250  1
  Ir  Ir26  1  0.000282  0.998550  0.001078  1
  Ir  Ir27  1  0.000282  0.998550  0.498922  1
