# generated using pymatgen
data_Ti5GaSi2O
_symmetry_space_group_name_H-M   'P 1'
_cell_length_a   7.51535400
_cell_length_b   7.47242778
_cell_length_c   5.19514500
_cell_angle_alpha   90.00000000
_cell_angle_beta   90.00000000
_cell_angle_gamma   120.19021299
_symmetry_Int_Tables_number   1
_chemical_formula_structural   Ti5GaSi2O
_chemical_formula_sum   'Ti10 Ga2 Si4 O2'
_cell_volume   252.17606341
_cell_formula_units_Z   2
loop_
 _symmetry_equiv_pos_site_id
 _symmetry_equiv_pos_as_xyz
  1  'x, y, z'
loop_
 _atom_site_type_symbol
 _atom_site_label
 _atom_site_symmetry_multiplicity
 _atom_site_fract_x
 _atom_site_fract_y
 _atom_site_fract_z
 _atom_site_occupancy
  Ti  Ti0  1  0.232235  0.000000  0.250000  1
  Ti  Ti1  1  0.767765  0.000000  0.750000  1
  Ti  Ti2  1  0.004034  0.239673  0.250000  1
  Ti  Ti3  1  0.995966  0.760327  0.750000  1
  Ti  Ti4  1  0.764360  0.760327  0.250000  1
  Ti  Ti5  1  0.235640  0.239673  0.750000  1
  Ti  Ti6  1  0.328998  0.657996  0.000000  1
  Ti  Ti7  1  0.671002  0.342004  0.000000  1
  Ti  Ti8  1  0.671002  0.342004  0.500000  1
  Ti  Ti9  1  0.328998  0.657996  0.500000  1
  Ga  Ga10  1  0.593090  0.000000  0.250000  1
  Ga  Ga11  1  0.406910  0.000000  0.750000  1
  Si  Si12  1  0.002460  0.594603  0.250000  1
  Si  Si13  1  0.997540  0.405397  0.750000  1
  Si  Si14  1  0.407858  0.405397  0.250000  1
  Si  Si15  1  0.592142  0.594603  0.750000  1
  O  O16  1  0.000000  0.000000  0.000000  1
  O  O17  1  0.000000  0.000000  0.500000  1
