# generated using pymatgen
data_Er4Cu2MoRu5
_symmetry_space_group_name_H-M   'P 1'
_cell_length_a   5.43459053
_cell_length_b   5.23254556
_cell_length_c   8.84297100
_cell_angle_alpha   90.00000000
_cell_angle_beta   90.00000000
_cell_angle_gamma   122.74650479
_symmetry_Int_Tables_number   1
_chemical_formula_structural   Er4Cu2MoRu5
_chemical_formula_sum   'Er4 Cu2 Mo1 Ru5'
_cell_volume   211.50041710
_cell_formula_units_Z   1
loop_
 _symmetry_equiv_pos_site_id
 _symmetry_equiv_pos_as_xyz
  1  'x, y, z'
loop_
 _atom_site_type_symbol
 _atom_site_label
 _atom_site_symmetry_multiplicity
 _atom_site_fract_x
 _atom_site_fract_y
 _atom_site_fract_z
 _atom_site_occupancy
  Er  Er0  1  0.332030  0.669693  0.434061  1
  Er  Er1  1  0.668801  0.348309  0.561735  1
  Er  Er2  1  0.668801  0.348309  0.938265  1
  Er  Er3  1  0.332030  0.669693  0.065939  1
  Cu  Cu4  1  0.343989  0.160301  0.250000  1
  Cu  Cu5  1  0.840721  0.651650  0.250000  1
  Mo  Mo6  1  0.156193  0.317823  0.750000  1
  Ru  Ru7  1  0.167830  0.820564  0.750000  1
  Ru  Ru8  1  0.644880  0.822013  0.750000  1
  Ru  Ru9  1  0.001954  0.019725  0.004021  1
  Ru  Ru10  1  0.840816  0.152196  0.250000  1
  Ru  Ru11  1  0.001954  0.019725  0.495979  1
