# generated using pymatgen
data_Sr2Co2NiN3
_symmetry_space_group_name_H-M   'P 1'
_cell_length_a   6.50177561
_cell_length_b   6.50177409
_cell_length_c   6.23970286
_cell_angle_alpha   88.57493503
_cell_angle_beta   88.57492197
_cell_angle_gamma   117.51652468
_symmetry_Int_Tables_number   1
_chemical_formula_structural   Sr2Co2NiN3
_chemical_formula_sum   'Sr4 Co4 Ni2 N6'
_cell_volume   233.66389057
_cell_formula_units_Z   2
loop_
 _symmetry_equiv_pos_site_id
 _symmetry_equiv_pos_as_xyz
  1  'x, y, z'
loop_
 _atom_site_type_symbol
 _atom_site_label
 _atom_site_symmetry_multiplicity
 _atom_site_fract_x
 _atom_site_fract_y
 _atom_site_fract_z
 _atom_site_occupancy
  Sr  Sr0  1  0.830093  0.675164  0.896885  1
  Sr  Sr1  1  0.324836  0.169907  0.603115  1
  Sr  Sr2  1  0.169907  0.324836  0.103115  1
  Sr  Sr3  1  0.675164  0.830093  0.396885  1
  Co  Co4  1  0.565998  0.166869  0.097895  1
  Co  Co5  1  0.434002  0.833131  0.902105  1
  Co  Co6  1  0.833131  0.434002  0.402105  1
  Co  Co7  1  0.166869  0.565998  0.597895  1
  Ni  Ni8  1  0.804970  0.195030  0.750000  1
  Ni  Ni9  1  0.195030  0.804970  0.250000  1
  N  N10  1  0.408781  0.591219  0.750000  1
  N  N11  1  0.591219  0.408781  0.250000  1
  N  N12  1  0.012342  0.730492  0.498610  1
  N  N13  1  0.730492  0.012342  0.998610  1
  N  N14  1  0.987658  0.269508  0.501390  1
  N  N15  1  0.269508  0.987658  0.001390  1
