# generated using pymatgen
data_CaTb3Bi6Rh7
_symmetry_space_group_name_H-M   'P 1'
_cell_length_a   7.83493610
_cell_length_b   7.83493691
_cell_length_c   7.77271800
_cell_angle_alpha   109.31044183
_cell_angle_beta   109.31044390
_cell_angle_gamma   109.63151562
_symmetry_Int_Tables_number   1
_chemical_formula_structural   CaTb3Bi6Rh7
_chemical_formula_sum   'Ca1 Tb3 Bi6 Rh7'
_cell_volume   368.02717555
_cell_formula_units_Z   1
loop_
 _symmetry_equiv_pos_site_id
 _symmetry_equiv_pos_as_xyz
  1  'x, y, z'
loop_
 _atom_site_type_symbol
 _atom_site_label
 _atom_site_symmetry_multiplicity
 _atom_site_fract_x
 _atom_site_fract_y
 _atom_site_fract_z
 _atom_site_occupancy
  Ca  Ca0  1  0.000000  0.000000  0.500000  1
  Tb  Tb1  1  0.500000  0.000000  0.000000  1
  Tb  Tb2  1  0.000000  0.500000  0.000000  1
  Tb  Tb3  1  0.500000  0.500000  0.500000  1
  Bi  Bi4  1  0.000000  0.313203  0.317172  1
  Bi  Bi5  1  0.686797  0.000000  0.682828  1
  Bi  Bi6  1  0.686797  0.686797  0.003969  1
  Bi  Bi7  1  0.000000  0.686797  0.682828  1
  Bi  Bi8  1  0.313203  0.000000  0.317172  1
  Bi  Bi9  1  0.313203  0.313203  0.996031  1
  Rh  Rh10  1  0.000000  0.000000  0.000000  1
  Rh  Rh11  1  0.489417  0.744709  0.244709  1
  Rh  Rh12  1  0.744709  0.489417  0.244709  1
  Rh  Rh13  1  0.255291  0.744709  0.500000  1
  Rh  Rh14  1  0.255291  0.510583  0.755291  1
  Rh  Rh15  1  0.510583  0.255291  0.755291  1
  Rh  Rh16  1  0.744709  0.255291  0.500000  1
