# generated using pymatgen
data_DyHo3Ga18(Co2Ni)2
_symmetry_space_group_name_H-M   'P 1'
_cell_length_a   7.37525220
_cell_length_b   7.37543743
_cell_length_c   9.38454671
_cell_angle_alpha   89.95793775
_cell_angle_beta   89.96642480
_cell_angle_gamma   119.79150496
_symmetry_Int_Tables_number   1
_chemical_formula_structural   DyHo3Ga18(Co2Ni)2
_chemical_formula_sum   'Dy1 Ho3 Ga18 Co4 Ni2'
_cell_volume   443.01334495
_cell_formula_units_Z   1
loop_
 _symmetry_equiv_pos_site_id
 _symmetry_equiv_pos_as_xyz
  1  'x, y, z'
loop_
 _atom_site_type_symbol
 _atom_site_label
 _atom_site_symmetry_multiplicity
 _atom_site_fract_x
 _atom_site_fract_y
 _atom_site_fract_z
 _atom_site_occupancy
  Dy  Dy0  1  0.003925  0.331612  0.249922  1
  Ho  Ho1  1  0.330850  0.002578  0.249856  1
  Ho  Ho2  1  0.997372  0.669120  0.750124  1
  Ho  Ho3  1  0.668360  0.996103  0.750053  1
  Ga  Ga4  1  0.336146  0.002039  0.925620  1
  Ga  Ga5  1  0.997965  0.663871  0.074342  1
  Ga  Ga6  1  0.333910  0.998272  0.571244  1
  Ga  Ga7  1  0.001718  0.666120  0.428767  1
  Ga  Ga8  1  0.666098  0.003158  0.073960  1
  Ga  Ga9  1  0.996803  0.333844  0.925977  1
  Ga  Ga10  1  0.665893  0.001889  0.429104  1
  Ga  Ga11  1  0.998061  0.334049  0.570935  1
  Ga  Ga12  1  0.666016  0.663990  0.938956  1
  Ga  Ga13  1  0.336115  0.334032  0.061010  1
  Ga  Ga14  1  0.668031  0.667836  0.557058  1
  Ga  Ga15  1  0.332218  0.331955  0.442956  1
  Ga  Ga16  1  0.122185  0.123002  0.747725  1
  Ga  Ga17  1  0.876936  0.877680  0.252352  1
  Ga  Ga18  1  0.451465  0.663727  0.253028  1
  Ga  Ga19  1  0.336298  0.548624  0.746947  1
  Ga  Ga20  1  0.551288  0.336767  0.749104  1
  Ga  Ga21  1  0.663193  0.448679  0.250882  1
  Co  Co22  1  0.000022  0.999961  0.500014  1
  Co  Co23  1  0.328926  0.671108  0.500017  1
  Co  Co24  1  0.670227  0.329774  0.999965  1
  Co  Co25  1  0.670891  0.329097  0.500020  1
  Ni  Ni26  1  0.999727  0.000377  0.000292  1
  Ni  Ni27  1  0.329366  0.670735  0.999773  1
