# generated using pymatgen
data_Dy4Cd3Ni2
_symmetry_space_group_name_H-M   'P 1'
_cell_length_a   3.65067700
_cell_length_b   7.38123673
_cell_length_c   8.06443441
_cell_angle_alpha   72.31162854
_cell_angle_beta   90.00000000
_cell_angle_gamma   90.00000000
_symmetry_Int_Tables_number   1
_chemical_formula_structural   Dy4Cd3Ni2
_chemical_formula_sum   'Dy4 Cd3 Ni2'
_cell_volume   207.03472012
_cell_formula_units_Z   1
loop_
 _symmetry_equiv_pos_site_id
 _symmetry_equiv_pos_as_xyz
  1  'x, y, z'
loop_
 _atom_site_type_symbol
 _atom_site_label
 _atom_site_symmetry_multiplicity
 _atom_site_fract_x
 _atom_site_fract_y
 _atom_site_fract_z
 _atom_site_occupancy
  Dy  Dy0  1  0.500000  0.914433  0.219449  1
  Dy  Dy1  1  0.500000  0.085567  0.780551  1
  Dy  Dy2  1  0.500000  0.394054  0.316338  1
  Dy  Dy3  1  0.500000  0.605946  0.683662  1
  Cd  Cd4  1  0.000000  0.702841  0.004367  1
  Cd  Cd5  1  0.000000  0.297159  0.995633  1
  Cd  Cd6  1  0.000000  0.000000  0.500000  1
  Ni  Ni7  1  0.000000  0.656132  0.390881  1
  Ni  Ni8  1  0.000000  0.343868  0.609119  1
