# generated using pymatgen
data_Dy3Er(B2Ir5)2
_symmetry_space_group_name_H-M   'P 1'
_cell_length_a   11.01909368
_cell_length_b   11.01909337
_cell_length_c   11.01909401
_cell_angle_alpha   28.74641379
_cell_angle_beta   28.74641500
_cell_angle_gamma   28.74641289
_symmetry_Int_Tables_number   1
_chemical_formula_structural   Dy3Er(B2Ir5)2
_chemical_formula_sum   'Dy3 Er1 B4 Ir10'
_cell_volume   273.61758663
_cell_formula_units_Z   1
loop_
 _symmetry_equiv_pos_site_id
 _symmetry_equiv_pos_as_xyz
  1  'x, y, z'
loop_
 _atom_site_type_symbol
 _atom_site_label
 _atom_site_symmetry_multiplicity
 _atom_site_fract_x
 _atom_site_fract_y
 _atom_site_fract_z
 _atom_site_occupancy
  Dy  Dy0  1  0.151848  0.151848  0.151848  1
  Dy  Dy1  1  0.950237  0.950237  0.950237  1
  Dy  Dy2  1  0.848130  0.848130  0.848130  1
  Er  Er3  1  0.049759  0.049759  0.049759  1
  B  B4  1  0.617318  0.617318  0.617318  1
  B  B5  1  0.716102  0.716102  0.716102  1
  B  B6  1  0.382697  0.382697  0.382697  1
  B  B7  1  0.283910  0.283910  0.283910  1
  Ir  Ir8  1  0.405376  0.899904  0.405376  1
  Ir  Ir9  1  0.899904  0.405376  0.405376  1
  Ir  Ir10  1  0.500087  0.500087  0.000080  1
  Ir  Ir11  1  0.500087  0.000080  0.500087  1
  Ir  Ir12  1  0.000080  0.500087  0.500087  1
  Ir  Ir13  1  0.499997  0.499997  0.499997  1
  Ir  Ir14  1  0.594528  0.100035  0.594528  1
  Ir  Ir15  1  0.594528  0.594528  0.100035  1
  Ir  Ir16  1  0.100035  0.594528  0.594528  1
  Ir  Ir17  1  0.405376  0.405376  0.899904  1
