# generated using pymatgen
data_Ta4Fe6GeOs
_symmetry_space_group_name_H-M   'P 1'
_cell_length_a   4.84934600
_cell_length_b   4.84934442
_cell_length_c   8.10491200
_cell_angle_alpha   90.00000000
_cell_angle_beta   90.00000000
_cell_angle_gamma   120.00001080
_symmetry_Int_Tables_number   1
_chemical_formula_structural   Ta4Fe6GeOs
_chemical_formula_sum   'Ta4 Fe6 Ge1 Os1'
_cell_volume   165.06123515
_cell_formula_units_Z   1
loop_
 _symmetry_equiv_pos_site_id
 _symmetry_equiv_pos_as_xyz
  1  'x, y, z'
loop_
 _atom_site_type_symbol
 _atom_site_label
 _atom_site_symmetry_multiplicity
 _atom_site_fract_x
 _atom_site_fract_y
 _atom_site_fract_z
 _atom_site_occupancy
  Ta  Ta0  1  0.333333  0.666667  0.923989  1
  Ta  Ta1  1  0.666667  0.333333  0.076011  1
  Ta  Ta2  1  0.666667  0.333333  0.447668  1
  Ta  Ta3  1  0.333333  0.666667  0.552332  1
  Fe  Fe4  1  0.172290  0.827710  0.245228  1
  Fe  Fe5  1  0.172290  0.344579  0.245228  1
  Fe  Fe6  1  0.655421  0.827710  0.245228  1
  Fe  Fe7  1  0.827710  0.172290  0.754772  1
  Fe  Fe8  1  0.827710  0.655421  0.754772  1
  Fe  Fe9  1  0.344579  0.172290  0.754772  1
  Ge  Ge10  1  0.000000  0.000000  0.000000  1
  Os  Os11  1  0.000000  0.000000  0.500000  1
