# generated using pymatgen
data_Hf12Ti4Mn3Os5
_symmetry_space_group_name_H-M   'P 1'
_cell_length_a   8.51362962
_cell_length_b   8.51362959
_cell_length_c   8.48130186
_cell_angle_alpha   59.87384033
_cell_angle_beta   59.87383937
_cell_angle_gamma   60.00000633
_symmetry_Int_Tables_number   1
_chemical_formula_structural   Hf12Ti4Mn3Os5
_chemical_formula_sum   'Hf12 Ti4 Mn3 Os5'
_cell_volume   433.85664093
_cell_formula_units_Z   1
loop_
 _symmetry_equiv_pos_site_id
 _symmetry_equiv_pos_as_xyz
  1  'x, y, z'
loop_
 _atom_site_type_symbol
 _atom_site_label
 _atom_site_symmetry_multiplicity
 _atom_site_fract_x
 _atom_site_fract_y
 _atom_site_fract_z
 _atom_site_occupancy
  Hf  Hf0  1  0.432794  0.817523  0.816888  1
  Hf  Hf1  1  0.818645  0.426583  0.436128  1
  Hf  Hf2  1  0.817523  0.432794  0.816888  1
  Hf  Hf3  1  0.426583  0.818645  0.436128  1
  Hf  Hf4  1  0.818645  0.818645  0.436128  1
  Hf  Hf5  1  0.432794  0.432794  0.816888  1
  Hf  Hf6  1  0.568523  0.182442  0.180512  1
  Hf  Hf7  1  0.183508  0.567921  0.565063  1
  Hf  Hf8  1  0.182442  0.568523  0.180512  1
  Hf  Hf9  1  0.567921  0.183508  0.565063  1
  Hf  Hf10  1  0.183508  0.183508  0.565063  1
  Hf  Hf11  1  0.568523  0.568523  0.180512  1
  Ti  Ti12  1  0.992071  0.992071  0.523787  1
  Ti  Ti13  1  0.998167  0.512079  0.991587  1
  Ti  Ti14  1  0.512079  0.998167  0.991587  1
  Ti  Ti15  1  0.998167  0.998167  0.991587  1
  Mn  Mn16  1  0.788278  0.132112  0.791332  1
  Mn  Mn17  1  0.132112  0.788278  0.791332  1
  Mn  Mn18  1  0.788278  0.788278  0.791332  1
  Os  Os19  1  0.210473  0.210473  0.868581  1
  Os  Os20  1  0.209133  0.871369  0.210363  1
  Os  Os21  1  0.871369  0.209133  0.210363  1
  Os  Os22  1  0.209133  0.209133  0.210363  1
  Os  Os23  1  0.789330  0.789330  0.132011  1
