# generated using pymatgen
data_Ac8Mn3ZnN12
_symmetry_space_group_name_H-M   'P 1'
_cell_length_a   6.43344196
_cell_length_b   6.43344184
_cell_length_c   12.45944185
_cell_angle_alpha   89.30578509
_cell_angle_beta   90.69421574
_cell_angle_gamma   127.54379462
_symmetry_Int_Tables_number   1
_chemical_formula_structural   Ac8Mn3ZnN12
_chemical_formula_sum   'Ac8 Mn3 Zn1 N12'
_cell_volume   408.84385003
_cell_formula_units_Z   1
loop_
 _symmetry_equiv_pos_site_id
 _symmetry_equiv_pos_as_xyz
  1  'x, y, z'
loop_
 _atom_site_type_symbol
 _atom_site_label
 _atom_site_symmetry_multiplicity
 _atom_site_fract_x
 _atom_site_fract_y
 _atom_site_fract_z
 _atom_site_occupancy
  Ac  Ac0  1  0.435511  0.564489  0.350638  1
  Ac  Ac1  1  0.563820  0.436180  0.646054  1
  Ac  Ac2  1  0.060691  0.939309  0.851849  1
  Ac  Ac3  1  0.949544  0.050456  0.138240  1
  Ac  Ac4  1  0.140946  0.859054  0.428098  1
  Ac  Ac5  1  0.857258  0.142742  0.581411  1
  Ac  Ac6  1  0.358312  0.641688  0.919911  1
  Ac  Ac7  1  0.648137  0.351863  0.073855  1
  Mn  Mn8  1  0.742656  0.257344  0.835461  1
  Mn  Mn9  1  0.243696  0.756304  0.662250  1
  Mn  Mn10  1  0.760800  0.239200  0.341170  1
  Zn  Zn11  1  0.264589  0.735411  0.152258  1
  N  N12  1  0.142750  0.857250  0.037862  1
  N  N13  1  0.848566  0.151434  0.959833  1
  N  N14  1  0.345605  0.654395  0.540073  1
  N  N15  1  0.660527  0.339473  0.456561  1
  N  N16  1  0.441277  0.558723  0.129770  1
  N  N17  1  0.568053  0.431947  0.869235  1
  N  N18  1  0.070592  0.929408  0.629411  1
  N  N19  1  0.920425  0.079575  0.371591  1
  N  N20  1  0.980977  0.514721  0.263939  1
  N  N21  1  0.504719  0.994731  0.748295  1
  N  N22  1  0.005269  0.495281  0.748295  1
  N  N23  1  0.485279  0.019023  0.263939  1
