# generated using pymatgen
data_ErTmPa2(B4Os)4
_symmetry_space_group_name_H-M   'P 1'
_cell_length_a   3.57734200
_cell_length_b   5.97528641
_cell_length_c   11.58278610
_cell_angle_alpha   90.19329711
_cell_angle_beta   90.00000000
_cell_angle_gamma   90.00000000
_symmetry_Int_Tables_number   1
_chemical_formula_structural   ErTmPa2(B4Os)4
_chemical_formula_sum   'Er1 Tm1 Pa2 B16 Os4'
_cell_volume   247.58809213
_cell_formula_units_Z   1
loop_
 _symmetry_equiv_pos_site_id
 _symmetry_equiv_pos_as_xyz
  1  'x, y, z'
loop_
 _atom_site_type_symbol
 _atom_site_label
 _atom_site_symmetry_multiplicity
 _atom_site_fract_x
 _atom_site_fract_y
 _atom_site_fract_z
 _atom_site_occupancy
  Er  Er0  1  0.500000  0.629300  0.852377  1
  Tm  Tm1  1  0.500000  0.370636  0.147609  1
  Pa  Pa2  1  0.500000  0.129367  0.651250  1
  Pa  Pa3  1  0.500000  0.870638  0.348739  1
  B  B4  1  0.000000  0.474066  0.692777  1
  B  B5  1  0.000000  0.525886  0.307131  1
  B  B6  1  0.000000  0.971074  0.810395  1
  B  B7  1  0.000000  0.029071  0.189603  1
  B  B8  1  0.000000  0.291561  0.814438  1
  B  B9  1  0.000000  0.708265  0.185569  1
  B  B10  1  0.000000  0.790915  0.688218  1
  B  B11  1  0.000000  0.209127  0.311715  1
  B  B12  1  0.000000  0.364299  0.969373  1
  B  B13  1  0.000000  0.635611  0.030750  1
  B  B14  1  0.000000  0.865981  0.532618  1
  B  B15  1  0.000000  0.134022  0.467386  1
  B  B16  1  0.000000  0.387561  0.546735  1
  B  B17  1  0.000000  0.612443  0.453266  1
  B  B18  1  0.000000  0.885903  0.954468  1
  B  B19  1  0.000000  0.114310  0.045624  1
  Os  Os20  1  0.500000  0.141126  0.905150  1
  Os  Os21  1  0.500000  0.858833  0.094949  1
  Os  Os22  1  0.500000  0.641475  0.596035  1
  Os  Os23  1  0.500000  0.358531  0.403824  1
