# generated using pymatgen
data_Hf7Zr3Si2(Sn2Sb)2
_symmetry_space_group_name_H-M   'P 1'
_cell_length_a   8.63702400
_cell_length_b   8.63332626
_cell_length_c   5.82972700
_cell_angle_alpha   90.00000000
_cell_angle_beta   90.00000000
_cell_angle_gamma   119.90509099
_symmetry_Int_Tables_number   1
_chemical_formula_structural   Hf7Zr3Si2(Sn2Sb)2
_chemical_formula_sum   'Hf7 Zr3 Si2 Sn4 Sb2'
_cell_volume   376.82150518
_cell_formula_units_Z   1
loop_
 _symmetry_equiv_pos_site_id
 _symmetry_equiv_pos_as_xyz
  1  'x, y, z'
loop_
 _atom_site_type_symbol
 _atom_site_label
 _atom_site_symmetry_multiplicity
 _atom_site_fract_x
 _atom_site_fract_y
 _atom_site_fract_z
 _atom_site_occupancy
  Hf  Hf0  1  0.264120  0.000082  0.250000  1
  Hf  Hf1  1  0.000497  0.263410  0.250000  1
  Hf  Hf2  1  0.735383  0.735310  0.250000  1
  Hf  Hf3  1  0.333633  0.667099  0.000426  1
  Hf  Hf4  1  0.664736  0.332099  0.499563  1
  Hf  Hf5  1  0.664736  0.332099  0.000437  1
  Hf  Hf6  1  0.333633  0.667099  0.499574  1
  Zr  Zr7  1  0.258121  0.257600  0.750000  1
  Zr  Zr8  1  0.001120  0.743930  0.750000  1
  Zr  Zr9  1  0.741922  0.000172  0.750000  1
  Si  Si10  1  0.999071  0.999454  0.010665  1
  Si  Si11  1  0.999071  0.999454  0.489335  1
  Sn  Sn12  1  0.608144  0.999669  0.250000  1
  Sn  Sn13  1  0.606339  0.606553  0.750000  1
  Sn  Sn14  1  0.999208  0.396294  0.750000  1
  Sn  Sn15  1  0.999005  0.605114  0.250000  1
  Sb  Sb16  1  0.394407  0.395139  0.250000  1
  Sb  Sb17  1  0.396855  0.999424  0.750000  1
