# generated using pymatgen
data_Pr3NdMn2Zn2O12
_symmetry_space_group_name_H-M   'P 1'
_cell_length_a   5.49032370
_cell_length_b   5.66959846
_cell_length_c   7.80960695
_cell_angle_alpha   89.98110837
_cell_angle_beta   90.01108774
_cell_angle_gamma   89.95871919
_symmetry_Int_Tables_number   1
_chemical_formula_structural   Pr3NdMn2Zn2O12
_chemical_formula_sum   'Pr3 Nd1 Mn2 Zn2 O12'
_cell_volume   243.09682395
_cell_formula_units_Z   1
loop_
 _symmetry_equiv_pos_site_id
 _symmetry_equiv_pos_as_xyz
  1  'x, y, z'
loop_
 _atom_site_type_symbol
 _atom_site_label
 _atom_site_symmetry_multiplicity
 _atom_site_fract_x
 _atom_site_fract_y
 _atom_site_fract_z
 _atom_site_occupancy
  Pr  Pr0  1  0.987807  0.054687  0.249423  1
  Pr  Pr1  1  0.487551  0.446250  0.749511  1
  Pr  Pr2  1  0.012742  0.945169  0.750723  1
  Nd  Nd3  1  0.513307  0.556473  0.250762  1
  Mn  Mn4  1  0.000469  0.499960  0.499373  1
  Mn  Mn5  1  0.499410  0.000125  0.000548  1
  Zn  Zn6  1  0.500072  0.001066  0.499695  1
  Zn  Zn7  1  0.999816  0.499909  0.000844  1
  O  O8  1  0.089311  0.476932  0.259696  1
  O  O9  1  0.584953  0.023284  0.760108  1
  O  O10  1  0.915513  0.522141  0.739808  1
  O  O11  1  0.414671  0.974601  0.240366  1
  O  O12  1  0.283099  0.695802  0.543181  1
  O  O13  1  0.782640  0.803773  0.044239  1
  O  O14  1  0.716422  0.305637  0.454264  1
  O  O15  1  0.215775  0.194798  0.957024  1
  O  O16  1  0.193453  0.217322  0.546625  1
  O  O17  1  0.692485  0.282876  0.048870  1
  O  O18  1  0.804896  0.781177  0.451668  1
  O  O19  1  0.305607  0.718019  0.953272  1
