# generated using pymatgen
data_Zr8CuIr3N2
_symmetry_space_group_name_H-M   'P 1'
_cell_length_a   8.80856288
_cell_length_b   8.80856290
_cell_length_c   8.79024400
_cell_angle_alpha   60.06877108
_cell_angle_beta   60.06877102
_cell_angle_gamma   60.24037379
_symmetry_Int_Tables_number   1
_chemical_formula_structural   Zr8CuIr3N2
_chemical_formula_sum   'Zr16 Cu2 Ir6 N4'
_cell_volume   483.64989195
_cell_formula_units_Z   2
loop_
 _symmetry_equiv_pos_site_id
 _symmetry_equiv_pos_as_xyz
  1  'x, y, z'
loop_
 _atom_site_type_symbol
 _atom_site_label
 _atom_site_symmetry_multiplicity
 _atom_site_fract_x
 _atom_site_fract_y
 _atom_site_fract_z
 _atom_site_occupancy
  Zr  Zr0  1  0.134692  0.622136  0.621586  1
  Zr  Zr1  1  0.622136  0.134692  0.621586  1
  Zr  Zr2  1  0.623045  0.623045  0.130795  1
  Zr  Zr3  1  0.623045  0.623045  0.623115  1
  Zr  Zr4  1  0.818710  0.818710  0.181290  1
  Zr  Zr5  1  0.183636  0.183636  0.816364  1
  Zr  Zr6  1  0.817145  0.182623  0.817493  1
  Zr  Zr7  1  0.182623  0.817145  0.182739  1
  Zr  Zr8  1  0.182623  0.817145  0.817493  1
  Zr  Zr9  1  0.817145  0.182623  0.182739  1
  Zr  Zr10  1  0.435134  0.435134  0.064866  1
  Zr  Zr11  1  0.067975  0.067975  0.432025  1
  Zr  Zr12  1  0.434009  0.066617  0.434331  1
  Zr  Zr13  1  0.066617  0.434009  0.065044  1
  Zr  Zr14  1  0.066617  0.434009  0.434331  1
  Zr  Zr15  1  0.434009  0.066617  0.065044  1
  Cu  Cu16  1  0.772258  0.410346  0.408698  1
  Cu  Cu17  1  0.410346  0.772258  0.408698  1
  Ir  Ir18  1  0.404316  0.404316  0.785595  1
  Ir  Ir19  1  0.404316  0.404316  0.405775  1
  Ir  Ir20  1  0.486493  0.838178  0.837664  1
  Ir  Ir21  1  0.838178  0.486493  0.837664  1
  Ir  Ir22  1  0.838289  0.838289  0.485980  1
  Ir  Ir23  1  0.838289  0.838289  0.837441  1
  N  N24  1  0.624499  0.124474  0.125513  1
  N  N25  1  0.124474  0.624499  0.125513  1
  N  N26  1  0.124692  0.124692  0.625306  1
  N  N27  1  0.124692  0.124692  0.125312  1
