# generated using pymatgen
data_Ca3Yb(OsC2)2
_symmetry_space_group_name_H-M   'P 1'
_cell_length_a   5.18129000
_cell_length_b   6.55246712
_cell_length_c   10.26799519
_cell_angle_alpha   90.02208118
_cell_angle_beta   90.00000000
_cell_angle_gamma   90.00000000
_symmetry_Int_Tables_number   1
_chemical_formula_structural   Ca3Yb(OsC2)2
_chemical_formula_sum   'Ca6 Yb2 Os4 C8'
_cell_volume   348.60079684
_cell_formula_units_Z   2
loop_
 _symmetry_equiv_pos_site_id
 _symmetry_equiv_pos_as_xyz
  1  'x, y, z'
loop_
 _atom_site_type_symbol
 _atom_site_label
 _atom_site_symmetry_multiplicity
 _atom_site_fract_x
 _atom_site_fract_y
 _atom_site_fract_z
 _atom_site_occupancy
  Ca  Ca0  1  0.750000  0.808322  0.049138  1
  Ca  Ca1  1  0.250000  0.191678  0.950862  1
  Ca  Ca2  1  0.250000  0.533049  0.220987  1
  Ca  Ca3  1  0.750000  0.466951  0.779013  1
  Ca  Ca4  1  0.750000  0.966466  0.718709  1
  Ca  Ca5  1  0.250000  0.033534  0.281291  1
  Yb  Yb6  1  0.250000  0.690053  0.548209  1
  Yb  Yb7  1  0.750000  0.309947  0.451791  1
  Os  Os8  1  0.250000  0.733270  0.848851  1
  Os  Os9  1  0.750000  0.266730  0.151149  1
  Os  Os10  1  0.750000  0.766315  0.351768  1
  Os  Os11  1  0.250000  0.233685  0.648232  1
  C  C12  1  0.250000  0.469944  0.758082  1
  C  C13  1  0.750000  0.530056  0.241918  1
  C  C14  1  0.750000  0.032245  0.262967  1
  C  C15  1  0.250000  0.967755  0.737033  1
  C  C16  1  0.250000  0.788278  0.024993  1
  C  C17  1  0.750000  0.211722  0.975007  1
  C  C18  1  0.750000  0.705593  0.526792  1
  C  C19  1  0.250000  0.294407  0.473208  1
