# generated using pymatgen
data_Tb2Y2ReRu7
_symmetry_space_group_name_H-M   'P 1'
_cell_length_a   5.21596751
_cell_length_b   5.45741411
_cell_length_c   9.01786706
_cell_angle_alpha   89.99999980
_cell_angle_beta   90.01139437
_cell_angle_gamma   121.54345354
_symmetry_Int_Tables_number   1
_chemical_formula_structural   Tb2Y2ReRu7
_chemical_formula_sum   'Tb2 Y2 Re1 Ru7'
_cell_volume   218.77081250
_cell_formula_units_Z   1
loop_
 _symmetry_equiv_pos_site_id
 _symmetry_equiv_pos_as_xyz
  1  'x, y, z'
loop_
 _atom_site_type_symbol
 _atom_site_label
 _atom_site_symmetry_multiplicity
 _atom_site_fract_x
 _atom_site_fract_y
 _atom_site_fract_z
 _atom_site_occupancy
  Tb  Tb0  1  0.654223  0.327111  0.935099  1
  Tb  Tb1  1  0.326873  0.663436  0.066677  1
  Y  Y2  1  0.327770  0.663885  0.432974  1
  Y  Y3  1  0.654362  0.327181  0.565427  1
  Re  Re4  1  0.688139  0.844070  0.749649  1
  Ru  Ru5  1  0.975129  0.987564  0.499789  1
  Ru  Ru6  1  0.974138  0.987069  0.000153  1
  Ru  Ru7  1  0.837233  0.166386  0.250184  1
  Ru  Ru8  1  0.837233  0.670845  0.250184  1
  Ru  Ru9  1  0.357099  0.178549  0.250337  1
  Ru  Ru10  1  0.183901  0.828601  0.749764  1
  Ru  Ru11  1  0.183901  0.355301  0.749764  1
