# generated using pymatgen
data_Er3Ta2Sn(B2Ru5)2
_symmetry_space_group_name_H-M   'P 1'
_cell_length_a   9.60381063
_cell_length_b   9.65691183
_cell_length_c   3.10759900
_cell_angle_alpha   90.00000000
_cell_angle_beta   90.00000000
_cell_angle_gamma   90.58318976
_symmetry_Int_Tables_number   1
_chemical_formula_structural   Er3Ta2Sn(B2Ru5)2
_chemical_formula_sum   'Er3 Ta2 Sn1 B4 Ru10'
_cell_volume   288.19359829
_cell_formula_units_Z   1
loop_
 _symmetry_equiv_pos_site_id
 _symmetry_equiv_pos_as_xyz
  1  'x, y, z'
loop_
 _atom_site_type_symbol
 _atom_site_label
 _atom_site_symmetry_multiplicity
 _atom_site_fract_x
 _atom_site_fract_y
 _atom_site_fract_z
 _atom_site_occupancy
  Er  Er0  1  0.823900  0.674405  0.000000  1
  Er  Er1  1  0.175260  0.325190  0.000000  1
  Er  Er2  1  0.323939  0.826208  0.000000  1
  Ta  Ta3  1  0.680185  0.169354  0.000000  1
  Ta  Ta4  1  0.003995  0.998567  0.000000  1
  Sn  Sn5  1  0.498020  0.505949  0.000000  1
  B  B6  1  0.623807  0.883483  0.000000  1
  B  B7  1  0.381147  0.123744  0.000000  1
  B  B8  1  0.116320  0.620029  0.000000  1
  B  B9  1  0.876625  0.375982  0.000000  1
  Ru  Ru10  1  0.572909  0.728051  0.500000  1
  Ru  Ru11  1  0.443933  0.276644  0.500000  1
  Ru  Ru12  1  0.066887  0.780624  0.500000  1
  Ru  Ru13  1  0.917939  0.213170  0.500000  1
  Ru  Ru14  1  0.274501  0.573017  0.500000  1
  Ru  Ru15  1  0.713777  0.408254  0.500000  1
  Ru  Ru16  1  0.222001  0.071394  0.500000  1
  Ru  Ru17  1  0.781208  0.941264  0.500000  1
  Ru  Ru18  1  0.509081  0.008695  0.500000  1
  Ru  Ru19  1  0.994568  0.495975  0.500000  1
