# generated using pymatgen
data_TbTm(Si7Ir3)2
_symmetry_space_group_name_H-M   'P 1'
_cell_length_a   8.04426514
_cell_length_b   8.04426616
_cell_length_c   8.04426500
_cell_angle_alpha   56.48438501
_cell_angle_beta   56.48438019
_cell_angle_gamma   56.48438784
_symmetry_Int_Tables_number   1
_chemical_formula_structural   TbTm(Si7Ir3)2
_chemical_formula_sum   'Tb1 Tm1 Si14 Ir6'
_cell_volume   338.16971869
_cell_formula_units_Z   1
loop_
 _symmetry_equiv_pos_site_id
 _symmetry_equiv_pos_as_xyz
  1  'x, y, z'
loop_
 _atom_site_type_symbol
 _atom_site_label
 _atom_site_symmetry_multiplicity
 _atom_site_fract_x
 _atom_site_fract_y
 _atom_site_fract_z
 _atom_site_occupancy
  Tb  Tb0  1  0.500000  0.500000  0.500000  1
  Tm  Tm1  1  0.000000  0.000000  0.000000  1
  Si  Si2  1  0.850498  0.063852  0.672888  1
  Si  Si3  1  0.672888  0.850498  0.063852  1
  Si  Si4  1  0.063852  0.672888  0.850498  1
  Si  Si5  1  0.649706  0.827614  0.435667  1
  Si  Si6  1  0.249947  0.249947  0.249947  1
  Si  Si7  1  0.750053  0.750053  0.750053  1
  Si  Si8  1  0.172386  0.564333  0.350294  1
  Si  Si9  1  0.564333  0.350294  0.172386  1
  Si  Si10  1  0.350294  0.172386  0.564333  1
  Si  Si11  1  0.936148  0.327112  0.149502  1
  Si  Si12  1  0.327112  0.149502  0.936148  1
  Si  Si13  1  0.149502  0.936148  0.327112  1
  Si  Si14  1  0.827614  0.435667  0.649706  1
  Si  Si15  1  0.435667  0.649706  0.827614  1
  Ir  Ir16  1  0.750854  0.070052  0.428493  1
  Ir  Ir17  1  0.428493  0.750854  0.070052  1
  Ir  Ir18  1  0.070052  0.428493  0.750854  1
  Ir  Ir19  1  0.249146  0.929948  0.571507  1
  Ir  Ir20  1  0.571507  0.249146  0.929948  1
  Ir  Ir21  1  0.929948  0.571507  0.249146  1
