# generated using pymatgen
data_Tb3Mg2ZrIr3
_symmetry_space_group_name_H-M   'P 1'
_cell_length_a   7.30632394
_cell_length_b   7.16268391
_cell_length_c   4.25336700
_cell_angle_alpha   90.00000000
_cell_angle_beta   90.00000000
_cell_angle_gamma   119.35177812
_symmetry_Int_Tables_number   1
_chemical_formula_structural   Tb3Mg2ZrIr3
_chemical_formula_sum   'Tb3 Mg2 Zr1 Ir3'
_cell_volume   194.01623547
_cell_formula_units_Z   1
loop_
 _symmetry_equiv_pos_site_id
 _symmetry_equiv_pos_as_xyz
  1  'x, y, z'
loop_
 _atom_site_type_symbol
 _atom_site_label
 _atom_site_symmetry_multiplicity
 _atom_site_fract_x
 _atom_site_fract_y
 _atom_site_fract_z
 _atom_site_occupancy
  Tb  Tb0  1  0.421029  0.414649  0.000000  1
  Tb  Tb1  1  0.578971  0.993620  0.000000  1
  Tb  Tb2  1  0.000000  0.600758  0.000000  1
  Mg  Mg3  1  0.754867  0.753444  0.500000  1
  Mg  Mg4  1  0.245133  0.998579  0.500000  1
  Zr  Zr5  1  0.000000  0.247754  0.500000  1
  Ir  Ir6  1  0.000000  0.020716  0.000000  1
  Ir  Ir7  1  0.325853  0.648166  0.500000  1
  Ir  Ir8  1  0.674147  0.322313  0.500000  1
