# generated using pymatgen
data_Pr7CuNi15
_symmetry_space_group_name_H-M   'P 1'
_cell_length_a   8.93351027
_cell_length_b   8.96488154
_cell_length_c   8.95618500
_cell_angle_alpha   131.63091325
_cell_angle_beta   131.54082581
_cell_angle_gamma   70.82104628
_symmetry_Int_Tables_number   1
_chemical_formula_structural   Pr7CuNi15
_chemical_formula_sum   'Pr7 Cu1 Ni15'
_cell_volume   393.15201274
_cell_formula_units_Z   1
loop_
 _symmetry_equiv_pos_site_id
 _symmetry_equiv_pos_as_xyz
  1  'x, y, z'
loop_
 _atom_site_type_symbol
 _atom_site_label
 _atom_site_symmetry_multiplicity
 _atom_site_fract_x
 _atom_site_fract_y
 _atom_site_fract_z
 _atom_site_occupancy
  Pr  Pr0  1  0.095163  0.095086  0.393160  1
  Pr  Pr1  1  0.702003  0.701925  0.606840  1
  Pr  Pr2  1  0.904653  0.299239  0.000000  1
  Pr  Pr3  1  0.752015  0.249916  0.502389  1
  Pr  Pr4  1  0.501010  0.502777  0.000000  1
  Pr  Pr5  1  0.297721  0.903452  0.000000  1
  Pr  Pr6  1  0.249625  0.747527  0.497611  1
  Cu  Cu7  1  0.430768  0.194463  0.000000  1
  Ni  Ni8  1  0.681239  0.933440  0.481408  1
  Ni  Ni9  1  0.932869  0.681119  0.480457  1
  Ni  Ni10  1  0.191962  0.433127  0.000000  1
  Ni  Ni11  1  0.319238  0.799306  0.251920  1
  Ni  Ni12  1  0.941178  0.662344  0.000000  1
  Ni  Ni13  1  0.806108  0.806801  0.238384  1
  Ni  Ni14  1  0.067318  0.547387  0.748080  1
  Ni  Ni15  1  0.056132  0.056434  0.718418  1
  Ni  Ni16  1  0.663410  0.939260  0.000000  1
  Ni  Ni17  1  0.567723  0.568417  0.761616  1
  Ni  Ni18  1  0.801443  0.320124  0.252979  1
  Ni  Ni19  1  0.548464  0.067144  0.747021  1
  Ni  Ni20  1  0.199832  0.452033  0.518592  1
  Ni  Ni21  1  0.337714  0.338016  0.281582  1
  Ni  Ni22  1  0.452412  0.200664  0.519543  1
