# generated using pymatgen
data_PrSmRe6(Si2Mo)2
_symmetry_space_group_name_H-M   'P 1'
_cell_length_a   7.91545106
_cell_length_b   7.08026762
_cell_length_c   4.21814100
_cell_angle_alpha   90.00000000
_cell_angle_beta   90.00000000
_cell_angle_gamma   89.45170831
_symmetry_Int_Tables_number   1
_chemical_formula_structural   PrSmRe6(Si2Mo)2
_chemical_formula_sum   'Pr1 Sm1 Re6 Si4 Mo2'
_cell_volume   236.38861082
_cell_formula_units_Z   1
loop_
 _symmetry_equiv_pos_site_id
 _symmetry_equiv_pos_as_xyz
  1  'x, y, z'
loop_
 _atom_site_type_symbol
 _atom_site_label
 _atom_site_symmetry_multiplicity
 _atom_site_fract_x
 _atom_site_fract_y
 _atom_site_fract_z
 _atom_site_occupancy
  Pr  Pr0  1  0.500000  0.500000  0.000000  1
  Sm  Sm1  1  0.000000  0.000000  0.500000  1
  Re  Re2  1  0.109235  0.344303  0.000000  1
  Re  Re3  1  0.890765  0.655697  0.000000  1
  Re  Re4  1  0.156028  0.573490  0.500000  1
  Re  Re5  1  0.843972  0.426510  0.500000  1
  Re  Re6  1  0.334232  0.073450  0.000000  1
  Re  Re7  1  0.665768  0.926550  0.000000  1
  Si  Si8  1  0.690802  0.732155  0.500000  1
  Si  Si9  1  0.309198  0.267845  0.500000  1
  Si  Si10  1  0.186124  0.767319  0.000000  1
  Si  Si11  1  0.813876  0.232681  0.000000  1
  Mo  Mo12  1  0.613918  0.151248  0.500000  1
  Mo  Mo13  1  0.386082  0.848752  0.500000  1
