# generated using pymatgen
data_LiTb16Ag3Pt4
_symmetry_space_group_name_H-M   'P 1'
_cell_length_a   9.62550786
_cell_length_b   9.62550792
_cell_length_c   9.62550719
_cell_angle_alpha   60.49545103
_cell_angle_beta   60.49545234
_cell_angle_gamma   60.49545394
_symmetry_Int_Tables_number   1
_chemical_formula_structural   LiTb16Ag3Pt4
_chemical_formula_sum   'Li1 Tb16 Ag3 Pt4'
_cell_volume   637.66403443
_cell_formula_units_Z   1
loop_
 _symmetry_equiv_pos_site_id
 _symmetry_equiv_pos_as_xyz
  1  'x, y, z'
loop_
 _atom_site_type_symbol
 _atom_site_label
 _atom_site_symmetry_multiplicity
 _atom_site_fract_x
 _atom_site_fract_y
 _atom_site_fract_z
 _atom_site_occupancy
  Li  Li0  1  0.568948  0.568948  0.568948  1
  Tb  Tb1  1  0.354714  0.354714  0.354714  1
  Tb  Tb2  1  0.354424  0.354424  0.938442  1
  Tb  Tb3  1  0.354424  0.938442  0.354424  1
  Tb  Tb4  1  0.938442  0.354424  0.354424  1
  Tb  Tb5  1  0.811625  0.190381  0.190381  1
  Tb  Tb6  1  0.186401  0.813471  0.813471  1
  Tb  Tb7  1  0.190381  0.811625  0.190381  1
  Tb  Tb8  1  0.813471  0.186401  0.813471  1
  Tb  Tb9  1  0.190381  0.190381  0.811625  1
  Tb  Tb10  1  0.813471  0.813471  0.186401  1
  Tb  Tb11  1  0.936578  0.566001  0.566001  1
  Tb  Tb12  1  0.566006  0.935136  0.935136  1
  Tb  Tb13  1  0.566001  0.936578  0.566001  1
  Tb  Tb14  1  0.935136  0.566006  0.935136  1
  Tb  Tb15  1  0.566001  0.566001  0.936578  1
  Tb  Tb16  1  0.935136  0.935136  0.566006  1
  Ag  Ag17  1  0.584536  0.584536  0.246940  1
  Ag  Ag18  1  0.584536  0.246940  0.584536  1
  Ag  Ag19  1  0.246940  0.584536  0.584536  1
  Pt  Pt20  1  0.145027  0.145027  0.145027  1
  Pt  Pt21  1  0.144600  0.144600  0.568222  1
  Pt  Pt22  1  0.144600  0.568222  0.144600  1
  Pt  Pt23  1  0.568222  0.144600  0.144600  1
