# generated using pymatgen
data_Dy15Ho5(IrPt2)4
_symmetry_space_group_name_H-M   'P 1'
_cell_length_a   11.05150346
_cell_length_b   11.05046344
_cell_length_c   6.32892801
_cell_angle_alpha   90.00152174
_cell_angle_beta   89.99362513
_cell_angle_gamma   89.96765803
_symmetry_Int_Tables_number   1
_chemical_formula_structural   Dy15Ho5(IrPt2)4
_chemical_formula_sum   'Dy15 Ho5 Ir4 Pt8'
_cell_volume   772.91536296
_cell_formula_units_Z   1
loop_
 _symmetry_equiv_pos_site_id
 _symmetry_equiv_pos_as_xyz
  1  'x, y, z'
loop_
 _atom_site_type_symbol
 _atom_site_label
 _atom_site_symmetry_multiplicity
 _atom_site_fract_x
 _atom_site_fract_y
 _atom_site_fract_z
 _atom_site_occupancy
  Dy  Dy0  1  0.294307  0.087527  0.374482  1
  Dy  Dy1  1  0.294281  0.912461  0.874553  1
  Dy  Dy2  1  0.705721  0.087551  0.874584  1
  Dy  Dy3  1  0.705659  0.912532  0.374567  1
  Dy  Dy4  1  0.587473  0.794383  0.874547  1
  Dy  Dy5  1  0.587537  0.205684  0.374542  1
  Dy  Dy6  1  0.412470  0.794288  0.374581  1
  Dy  Dy7  1  0.412517  0.205630  0.874555  1
  Dy  Dy8  1  0.205577  0.412467  0.625450  1
  Dy  Dy9  1  0.205666  0.587435  0.125444  1
  Dy  Dy10  1  0.794415  0.412407  0.125432  1
  Dy  Dy11  1  0.794368  0.587504  0.625436  1
  Dy  Dy12  1  0.912523  0.705622  0.125486  1
  Dy  Dy13  1  0.912532  0.294325  0.625377  1
  Dy  Dy14  1  0.087534  0.705739  0.625460  1
  Ho  Ho15  1  0.087453  0.294544  0.125297  1
  Ho  Ho16  1  0.000005  0.000003  0.499998  1
  Ho  Ho17  1  0.000030  0.000095  0.000064  1
  Ho  Ho18  1  0.500004  0.500017  0.000066  1
  Ho  Ho19  1  0.499981  0.499978  0.500011  1
  Ir  Ir20  1  0.499982  0.000011  0.120260  1
  Ir  Ir21  1  0.500004  0.000003  0.620295  1
  Ir  Ir22  1  0.000066  0.499830  0.879832  1
  Ir  Ir23  1  0.000057  0.499871  0.379566  1
  Pt  Pt24  1  0.846630  0.153496  0.249933  1
  Pt  Pt25  1  0.846507  0.846508  0.749974  1
  Pt  Pt26  1  0.153408  0.153598  0.750310  1
  Pt  Pt27  1  0.153458  0.846531  0.249982  1
  Pt  Pt28  1  0.653448  0.346559  0.749968  1
  Pt  Pt29  1  0.653462  0.653486  0.249989  1
  Pt  Pt30  1  0.346367  0.346474  0.249938  1
  Pt  Pt31  1  0.346555  0.653438  0.750018  1
