# generated using pymatgen
data_Nd2Co9Tc3As7
_symmetry_space_group_name_H-M   'P 1'
_cell_length_a   3.87827200
_cell_length_b   9.44379442
_cell_length_c   9.44379500
_cell_angle_alpha   120.00000459
_cell_angle_beta   90.00000000
_cell_angle_gamma   90.00000000
_symmetry_Int_Tables_number   1
_chemical_formula_structural   Nd2Co9Tc3As7
_chemical_formula_sum   'Nd2 Co9 Tc3 As7'
_cell_volume   299.54491538
_cell_formula_units_Z   1
loop_
 _symmetry_equiv_pos_site_id
 _symmetry_equiv_pos_as_xyz
  1  'x, y, z'
loop_
 _atom_site_type_symbol
 _atom_site_label
 _atom_site_symmetry_multiplicity
 _atom_site_fract_x
 _atom_site_fract_y
 _atom_site_fract_z
 _atom_site_occupancy
  Nd  Nd0  1  0.000000  0.666667  0.333333  1
  Nd  Nd1  1  0.500000  0.333333  0.666667  1
  Co  Co2  1  0.000000  0.570751  0.941995  1
  Co  Co3  1  0.000000  0.371243  0.429249  1
  Co  Co4  1  0.000000  0.058005  0.628757  1
  Co  Co5  1  0.000000  0.875582  0.154806  1
  Co  Co6  1  0.000000  0.279223  0.124418  1
  Co  Co7  1  0.000000  0.845194  0.720777  1
  Co  Co8  1  0.500000  0.947352  0.379224  1
  Co  Co9  1  0.500000  0.431871  0.052648  1
  Co  Co10  1  0.500000  0.620776  0.568129  1
  Tc  Tc11  1  0.500000  0.784347  0.899883  1
  Tc  Tc12  1  0.500000  0.115536  0.215653  1
  Tc  Tc13  1  0.500000  0.100117  0.884464  1
  As  As14  1  0.000000  0.000000  0.000000  1
  As  As15  1  0.500000  0.706152  0.112258  1
  As  As16  1  0.500000  0.406107  0.293848  1
  As  As17  1  0.500000  0.887742  0.593893  1
  As  As18  1  0.000000  0.591169  0.701334  1
  As  As19  1  0.000000  0.110165  0.408831  1
  As  As20  1  0.000000  0.298666  0.889835  1
