# generated using pymatgen
data_Rb8Na4Nd3HoSb8
_symmetry_space_group_name_H-M   'P 1'
_cell_length_a   11.44539393
_cell_length_b   11.44539242
_cell_length_c   7.56725352
_cell_angle_alpha   89.96838588
_cell_angle_beta   90.03161019
_cell_angle_gamma   97.65521233
_symmetry_Int_Tables_number   1
_chemical_formula_structural   Rb8Na4Nd3HoSb8
_chemical_formula_sum   'Rb8 Na4 Nd3 Ho1 Sb8'
_cell_volume   982.45271560
_cell_formula_units_Z   1
loop_
 _symmetry_equiv_pos_site_id
 _symmetry_equiv_pos_as_xyz
  1  'x, y, z'
loop_
 _atom_site_type_symbol
 _atom_site_label
 _atom_site_symmetry_multiplicity
 _atom_site_fract_x
 _atom_site_fract_y
 _atom_site_fract_z
 _atom_site_occupancy
  Rb  Rb0  1  0.068112  0.432012  0.250817  1
  Rb  Rb1  1  0.432012  0.068112  0.749183  1
  Rb  Rb2  1  0.929290  0.568767  0.748625  1
  Rb  Rb3  1  0.568767  0.929290  0.251375  1
  Rb  Rb4  1  0.677823  0.323839  0.215515  1
  Rb  Rb5  1  0.821792  0.178186  0.714171  1
  Rb  Rb6  1  0.323839  0.677823  0.784485  1
  Rb  Rb7  1  0.178186  0.821792  0.285829  1
  Na  Na8  1  0.383074  0.383074  0.000000  1
  Na  Na9  1  0.117648  0.117648  0.500000  1
  Na  Na10  1  0.617498  0.617498  0.000000  1
  Na  Na11  1  0.881782  0.881782  0.500000  1
  Nd  Nd12  1  0.132314  0.132314  0.000000  1
  Nd  Nd13  1  0.369466  0.369466  0.500000  1
  Nd  Nd14  1  0.866246  0.866246  0.000000  1
  Ho  Ho15  1  0.631183  0.631183  0.500000  1
  Sb  Sb16  1  0.844952  0.649158  0.256104  1
  Sb  Sb17  1  0.649158  0.844952  0.743896  1
  Sb  Sb18  1  0.149165  0.351846  0.750167  1
  Sb  Sb19  1  0.351846  0.149165  0.249833  1
  Sb  Sb20  1  0.897368  0.101291  0.217868  1
  Sb  Sb21  1  0.603968  0.403218  0.715081  1
  Sb  Sb22  1  0.101291  0.897368  0.782132  1
  Sb  Sb23  1  0.403218  0.603968  0.284919  1
