# generated using pymatgen
data_Cs2Ac2InAgTe6
_symmetry_space_group_name_H-M   'P 1'
_cell_length_a   9.00575239
_cell_length_b   9.00575408
_cell_length_c   12.62111500
_cell_angle_alpha   90.00000000
_cell_angle_beta   90.00000000
_cell_angle_gamma   149.06672604
_symmetry_Int_Tables_number   1
_chemical_formula_structural   Cs2Ac2InAgTe6
_chemical_formula_sum   'Cs2 Ac2 In1 Ag1 Te6'
_cell_volume   526.17993572
_cell_formula_units_Z   1
loop_
 _symmetry_equiv_pos_site_id
 _symmetry_equiv_pos_as_xyz
  1  'x, y, z'
loop_
 _atom_site_type_symbol
 _atom_site_label
 _atom_site_symmetry_multiplicity
 _atom_site_fract_x
 _atom_site_fract_y
 _atom_site_fract_z
 _atom_site_occupancy
  Cs  Cs0  1  0.244726  0.755272  0.250000  1
  Cs  Cs1  1  0.747823  0.252175  0.750000  1
  Ac  Ac2  1  0.506214  0.493784  0.980965  1
  Ac  Ac3  1  0.506214  0.493784  0.519035  1
  In  In4  1  0.960989  0.039010  0.250000  1
  Ag  Ag5  1  0.033706  0.966293  0.750000  1
  Te  Te6  1  0.876508  0.123491  0.063902  1
  Te  Te7  1  0.560103  0.439895  0.250000  1
  Te  Te8  1  0.876508  0.123491  0.436098  1
  Te  Te9  1  0.128492  0.871507  0.560983  1
  Te  Te10  1  0.430213  0.569785  0.750000  1
  Te  Te11  1  0.128492  0.871507  0.939017  1
