# generated using pymatgen
data_Dy8HoTmIn6
_symmetry_space_group_name_H-M   'P 1'
_cell_length_a   6.02912112
_cell_length_b   9.17255858
_cell_length_c   9.17255857
_cell_angle_alpha   83.77755932
_cell_angle_beta   70.78532840
_cell_angle_gamma   70.78533568
_symmetry_Int_Tables_number   1
_chemical_formula_structural   Dy8HoTmIn6
_chemical_formula_sum   'Dy8 Ho1 Tm1 In6'
_cell_volume   452.32204202
_cell_formula_units_Z   1
loop_
 _symmetry_equiv_pos_site_id
 _symmetry_equiv_pos_as_xyz
  1  'x, y, z'
loop_
 _atom_site_type_symbol
 _atom_site_label
 _atom_site_symmetry_multiplicity
 _atom_site_fract_x
 _atom_site_fract_y
 _atom_site_fract_z
 _atom_site_occupancy
  Dy  Dy0  1  0.719310  0.862255  0.698552  1
  Dy  Dy1  1  0.280475  0.137751  0.301444  1
  Dy  Dy2  1  0.780690  0.301448  0.137745  1
  Dy  Dy3  1  0.219525  0.698556  0.862249  1
  Dy  Dy4  1  0.581241  0.698743  0.137748  1
  Dy  Dy5  1  0.418956  0.301254  0.862249  1
  Dy  Dy6  1  0.081044  0.137751  0.698746  1
  Dy  Dy7  1  0.918759  0.862252  0.301257  1
  Ho  Ho8  1  0.250000  0.500064  0.499936  1
  Tm  Tm9  1  0.750000  0.499949  0.500051  1
  In  In10  1  0.161250  0.500048  0.176454  1
  In  In11  1  0.838372  0.499913  0.823539  1
  In  In12  1  0.338750  0.823546  0.499952  1
  In  In13  1  0.661628  0.176461  0.500087  1
  In  In14  1  0.250000  0.999752  0.000248  1
  In  In15  1  0.750000  0.000258  0.999742  1
