# generated using pymatgen
data_Ce3Zn2IrAu3
_symmetry_space_group_name_H-M   'P 1'
_cell_length_a   3.80656600
_cell_length_b   7.84279012
_cell_length_c   7.59647091
_cell_angle_alpha   120.59926092
_cell_angle_beta   90.00000000
_cell_angle_gamma   90.00000000
_symmetry_Int_Tables_number   1
_chemical_formula_structural   Ce3Zn2IrAu3
_chemical_formula_sum   'Ce3 Zn2 Ir1 Au3'
_cell_volume   195.20554859
_cell_formula_units_Z   1
loop_
 _symmetry_equiv_pos_site_id
 _symmetry_equiv_pos_as_xyz
  1  'x, y, z'
loop_
 _atom_site_type_symbol
 _atom_site_label
 _atom_site_symmetry_multiplicity
 _atom_site_fract_x
 _atom_site_fract_y
 _atom_site_fract_z
 _atom_site_occupancy
  Ce  Ce0  1  0.000000  0.421601  0.018270  1
  Ce  Ce1  1  0.000000  0.609139  0.599128  1
  Ce  Ce2  1  0.000000  0.970887  0.383773  1
  Zn  Zn3  1  0.500000  0.269784  0.264705  1
  Zn  Zn4  1  0.500000  0.000294  0.734836  1
  Ir  Ir5  1  0.500000  0.660036  0.353246  1
  Au  Au6  1  0.500000  0.312512  0.649866  1
  Au  Au7  1  0.000000  0.027613  0.003252  1
  Au  Au8  1  0.500000  0.728234  0.992923  1
