# generated using pymatgen
data_Y13Th3Mg4CoNi3
_symmetry_space_group_name_H-M   'P 1'
_cell_length_a   9.70100654
_cell_length_b   9.74900419
_cell_length_c   9.74900400
_cell_angle_alpha   60.00000064
_cell_angle_beta   59.83619669
_cell_angle_gamma   59.83619664
_symmetry_Int_Tables_number   1
_chemical_formula_structural   Y13Th3Mg4CoNi3
_chemical_formula_sum   'Y13 Th3 Mg4 Co1 Ni3'
_cell_volume   650.34318619
_cell_formula_units_Z   1
loop_
 _symmetry_equiv_pos_site_id
 _symmetry_equiv_pos_as_xyz
  1  'x, y, z'
loop_
 _atom_site_type_symbol
 _atom_site_label
 _atom_site_symmetry_multiplicity
 _atom_site_fract_x
 _atom_site_fract_y
 _atom_site_fract_z
 _atom_site_occupancy
  Y  Y0  1  0.956465  0.347845  0.347845  1
  Y  Y1  1  0.809891  0.187470  0.187470  1
  Y  Y2  1  0.187652  0.813488  0.813488  1
  Y  Y3  1  0.187652  0.813488  0.185371  1
  Y  Y4  1  0.809891  0.187470  0.815169  1
  Y  Y5  1  0.187652  0.185371  0.813488  1
  Y  Y6  1  0.809891  0.815169  0.187470  1
  Y  Y7  1  0.936811  0.565762  0.565762  1
  Y  Y8  1  0.566264  0.933984  0.933984  1
  Y  Y9  1  0.566264  0.933984  0.565768  1
  Y  Y10  1  0.936811  0.565762  0.931665  1
  Y  Y11  1  0.566264  0.565768  0.933984  1
  Y  Y12  1  0.936811  0.931665  0.565762  1
  Th  Th13  1  0.345145  0.343555  0.343555  1
  Th  Th14  1  0.345145  0.343555  0.967746  1
  Th  Th15  1  0.345145  0.967746  0.343555  1
  Mg  Mg16  1  0.581210  0.579786  0.579786  1
  Mg  Mg17  1  0.581210  0.579786  0.259218  1
  Mg  Mg18  1  0.581210  0.259218  0.579786  1
  Mg  Mg19  1  0.258971  0.580343  0.580343  1
  Co  Co20  1  0.558802  0.147066  0.147066  1
  Ni  Ni21  1  0.148279  0.140419  0.140419  1
  Ni  Ni22  1  0.148279  0.140419  0.570884  1
  Ni  Ni23  1  0.148279  0.570884  0.140419  1
