# generated using pymatgen
data_ScPa3(GePt)4
_symmetry_space_group_name_H-M   'P 1'
_cell_length_a   4.38551100
_cell_length_b   6.95254210
_cell_length_c   7.63773091
_cell_angle_alpha   90.09453369
_cell_angle_beta   90.00000000
_cell_angle_gamma   90.00000000
_symmetry_Int_Tables_number   1
_chemical_formula_structural   ScPa3(GePt)4
_chemical_formula_sum   'Sc1 Pa3 Ge4 Pt4'
_cell_volume   232.87753431
_cell_formula_units_Z   1
loop_
 _symmetry_equiv_pos_site_id
 _symmetry_equiv_pos_as_xyz
  1  'x, y, z'
loop_
 _atom_site_type_symbol
 _atom_site_label
 _atom_site_symmetry_multiplicity
 _atom_site_fract_x
 _atom_site_fract_y
 _atom_site_fract_z
 _atom_site_occupancy
  Sc  Sc0  1  0.750000  0.503105  0.793476  1
  Pa  Pa1  1  0.250000  0.994010  0.295574  1
  Pa  Pa2  1  0.250000  0.497543  0.204175  1
  Pa  Pa3  1  0.750000  0.003297  0.706357  1
  Ge  Ge4  1  0.250000  0.307993  0.593959  1
  Ge  Ge5  1  0.250000  0.803241  0.905822  1
  Ge  Ge6  1  0.750000  0.695836  0.414666  1
  Ge  Ge7  1  0.750000  0.193526  0.085650  1
  Pt  Pt8  1  0.250000  0.224560  0.918213  1
  Pt  Pt9  1  0.250000  0.700617  0.585247  1
  Pt  Pt10  1  0.750000  0.787044  0.080040  1
  Pt  Pt11  1  0.750000  0.289229  0.416821  1
