# generated using pymatgen
data_Ho4Tm8Co4BiRh
_symmetry_space_group_name_H-M   'P 1'
_cell_length_a   8.24192452
_cell_length_b   8.24206668
_cell_length_c   8.24192216
_cell_angle_alpha   110.88503044
_cell_angle_beta   110.95200398
_cell_angle_gamma   106.61320085
_symmetry_Int_Tables_number   1
_chemical_formula_structural   Ho4Tm8Co4BiRh
_chemical_formula_sum   'Ho4 Tm8 Co4 Bi1 Rh1'
_cell_volume   430.19850888
_cell_formula_units_Z   1
loop_
 _symmetry_equiv_pos_site_id
 _symmetry_equiv_pos_as_xyz
  1  'x, y, z'
loop_
 _atom_site_type_symbol
 _atom_site_label
 _atom_site_symmetry_multiplicity
 _atom_site_fract_x
 _atom_site_fract_y
 _atom_site_fract_z
 _atom_site_occupancy
  Ho  Ho0  1  0.288680  0.185284  0.473944  1
  Ho  Ho1  1  0.711320  0.814716  0.526056  1
  Ho  Ho2  1  0.288660  0.814716  0.103394  1
  Ho  Ho3  1  0.711340  0.185284  0.896606  1
  Tm  Tm4  1  0.621230  0.311141  0.310077  1
  Tm  Tm5  1  0.378770  0.688859  0.689923  1
  Tm  Tm6  1  0.001065  0.311141  0.689912  1
  Tm  Tm7  1  0.998935  0.688859  0.310088  1
  Tm  Tm8  1  0.209998  0.406883  0.196885  1
  Tm  Tm9  1  0.790002  0.593117  0.803115  1
  Tm  Tm10  1  0.209986  0.013106  0.803119  1
  Tm  Tm11  1  0.790014  0.986894  0.196881  1
  Co  Co12  1  0.999990  0.376459  0.376469  1
  Co  Co13  1  0.000010  0.623541  0.623531  1
  Co  Co14  1  0.388240  0.888267  0.500027  1
  Co  Co15  1  0.611760  0.111733  0.499973  1
  Bi  Bi16  1  0.500000  0.500000  0.000000  1
  Rh  Rh17  1  0.000000  0.000000  0.000000  1
