# generated using pymatgen
data_Ho8Ti2ReSi16W9
_symmetry_space_group_name_H-M   'P 1'
_cell_length_a   6.87649270
_cell_length_b   6.87649263
_cell_length_c   12.76053703
_cell_angle_alpha   89.99621497
_cell_angle_beta   90.00378633
_cell_angle_gamma   89.45140093
_symmetry_Int_Tables_number   1
_chemical_formula_structural   Ho8Ti2ReSi16W9
_chemical_formula_sum   'Ho8 Ti2 Re1 Si16 W9'
_cell_volume   603.36902430
_cell_formula_units_Z   1
loop_
 _symmetry_equiv_pos_site_id
 _symmetry_equiv_pos_as_xyz
  1  'x, y, z'
loop_
 _atom_site_type_symbol
 _atom_site_label
 _atom_site_symmetry_multiplicity
 _atom_site_fract_x
 _atom_site_fract_y
 _atom_site_fract_z
 _atom_site_occupancy
  Ho  Ho0  1  0.340308  0.999697  0.468588  1
  Ho  Ho1  1  0.499832  0.836354  0.718726  1
  Ho  Ho2  1  0.500668  0.163037  0.218828  1
  Ho  Ho3  1  0.836354  0.499832  0.281274  1
  Ho  Ho4  1  0.163037  0.500668  0.781172  1
  Ho  Ho5  1  0.660353  0.000016  0.968777  1
  Ho  Ho6  1  0.999697  0.340308  0.531412  1
  Ho  Ho7  1  0.000016  0.660353  0.031223  1
  Ti  Ti8  1  0.169598  0.829954  0.250601  1
  Ti  Ti9  1  0.829954  0.169598  0.749399  1
  Re  Re10  1  0.667215  0.667215  0.500000  1
  Si  Si11  1  0.202880  0.129298  0.683691  1
  Si  Si12  1  0.372772  0.699627  0.933473  1
  Si  Si13  1  0.626017  0.303985  0.434773  1
  Si  Si14  1  0.699627  0.372772  0.066527  1
  Si  Si15  1  0.303985  0.626017  0.565227  1
  Si  Si16  1  0.796673  0.870992  0.184009  1
  Si  Si17  1  0.129298  0.202880  0.316309  1
  Si  Si18  1  0.870992  0.796673  0.815991  1
  Si  Si19  1  0.289808  0.962419  0.062598  1
  Si  Si20  1  0.540865  0.790181  0.316689  1
  Si  Si21  1  0.460663  0.208674  0.815102  1
  Si  Si22  1  0.790181  0.540865  0.683311  1
  Si  Si23  1  0.208674  0.460663  0.184898  1
  Si  Si24  1  0.711296  0.034526  0.561511  1
  Si  Si25  1  0.962419  0.289808  0.937402  1
  Si  Si26  1  0.034526  0.711296  0.438489  1
  W  W27  1  0.332481  0.332481  0.000000  1
  W  W28  1  0.157144  0.002428  0.873165  1
  W  W29  1  0.497564  0.665182  0.125460  1
  W  W30  1  0.501913  0.332054  0.626008  1
  W  W31  1  0.665182  0.497564  0.874540  1
  W  W32  1  0.332054  0.501913  0.373992  1
  W  W33  1  0.843685  0.999838  0.373082  1
  W  W34  1  0.002428  0.157144  0.126835  1
  W  W35  1  0.999838  0.843685  0.626918  1
