# generated using pymatgen
data_Zr10Sb6As
_symmetry_space_group_name_H-M   'P 1'
_cell_length_a   5.87973001
_cell_length_b   8.57405477
_cell_length_c   8.57392600
_cell_angle_alpha   120.00050435
_cell_angle_beta   89.99755537
_cell_angle_gamma   90.00488474
_symmetry_Int_Tables_number   1
_chemical_formula_structural   Zr10Sb6As
_chemical_formula_sum   'Zr10 Sb6 As1'
_cell_volume   374.32754940
_cell_formula_units_Z   1
loop_
 _symmetry_equiv_pos_site_id
 _symmetry_equiv_pos_as_xyz
  1  'x, y, z'
loop_
 _atom_site_type_symbol
 _atom_site_label
 _atom_site_symmetry_multiplicity
 _atom_site_fract_x
 _atom_site_fract_y
 _atom_site_fract_z
 _atom_site_occupancy
  Zr  Zr0  1  0.500000  0.333320  0.666641  1
  Zr  Zr1  1  0.500000  0.666679  0.333359  1
  Zr  Zr2  1  0.000000  0.666679  0.333359  1
  Zr  Zr3  1  0.000000  0.333320  0.666641  1
  Zr  Zr4  1  0.764589  0.256949  0.000000  1
  Zr  Zr5  1  0.764614  0.743056  0.743054  1
  Zr  Zr6  1  0.764614  0.000002  0.256946  1
  Zr  Zr7  1  0.235411  0.743052  0.000000  1
  Zr  Zr8  1  0.235386  0.256945  0.256944  1
  Zr  Zr9  1  0.235386  0.000000  0.743056  1
  Sb  Sb10  1  0.750692  0.608499  0.000000  1
  Sb  Sb11  1  0.750704  0.391508  0.391530  1
  Sb  Sb12  1  0.750704  0.999979  0.608470  1
  Sb  Sb13  1  0.249310  0.391501  0.000000  1
  Sb  Sb14  1  0.249297  0.608491  0.608470  1
  Sb  Sb15  1  0.249297  0.000022  0.391530  1
  As  As16  1  0.500000  0.000001  0.000000  1
