# generated using pymatgen
data_NaIn(SO4)2
_symmetry_space_group_name_H-M   'P 1'
_cell_length_a   4.93837706
_cell_length_b   4.93837846
_cell_length_c   7.40394148
_cell_angle_alpha   90.61434418
_cell_angle_beta   90.61434319
_cell_angle_gamma   65.61888063
_symmetry_Int_Tables_number   1
_chemical_formula_structural   NaIn(SO4)2
_chemical_formula_sum   'Na1 In1 S2 O8'
_cell_volume   164.44803419
_cell_formula_units_Z   1
loop_
 _symmetry_equiv_pos_site_id
 _symmetry_equiv_pos_as_xyz
  1  'x, y, z'
loop_
 _atom_site_type_symbol
 _atom_site_label
 _atom_site_symmetry_multiplicity
 _atom_site_fract_x
 _atom_site_fract_y
 _atom_site_fract_z
 _atom_site_occupancy
  Na  Na0  1  0.000000  0.000000  0.500000  1
  In  In1  1  0.000000  0.000000  0.000000  1
  S  S2  1  0.359001  0.359001  0.228406  1
  S  S3  1  0.640998  0.640998  0.771594  1
  O  O4  1  0.253785  0.253785  0.063015  1
  O  O5  1  0.694753  0.237959  0.217811  1
  O  O6  1  0.237959  0.694753  0.217811  1
  O  O7  1  0.273795  0.273795  0.397689  1
  O  O8  1  0.726203  0.726203  0.602310  1
  O  O9  1  0.762042  0.305247  0.782190  1
  O  O10  1  0.305247  0.762042  0.782190  1
  O  O11  1  0.746214  0.746214  0.936985  1
