# generated using pymatgen
data_SrTh3Al13Au9
_symmetry_space_group_name_H-M   'P 1'
_cell_length_a   11.78622200
_cell_length_b   11.78621956
_cell_length_c   4.26390300
_cell_angle_alpha   90.00000000
_cell_angle_beta   90.00000000
_cell_angle_gamma   119.99999563
_symmetry_Int_Tables_number   1
_chemical_formula_structural   SrTh3Al13Au9
_chemical_formula_sum   'Sr1 Th3 Al13 Au9'
_cell_volume   512.96426445
_cell_formula_units_Z   1
loop_
 _symmetry_equiv_pos_site_id
 _symmetry_equiv_pos_as_xyz
  1  'x, y, z'
loop_
 _atom_site_type_symbol
 _atom_site_label
 _atom_site_symmetry_multiplicity
 _atom_site_fract_x
 _atom_site_fract_y
 _atom_site_fract_z
 _atom_site_occupancy
  Sr  Sr0  1  0.666667  0.333333  0.000000  1
  Th  Th1  1  0.206144  0.793856  0.500000  1
  Th  Th2  1  0.587712  0.793856  0.500000  1
  Th  Th3  1  0.206144  0.412288  0.500000  1
  Al  Al4  1  0.948106  0.292095  0.000000  1
  Al  Al5  1  0.707905  0.656011  0.000000  1
  Al  Al6  1  0.948106  0.656011  0.000000  1
  Al  Al7  1  0.343989  0.051894  0.000000  1
  Al  Al8  1  0.164536  0.082269  0.500000  1
  Al  Al9  1  0.917731  0.835464  0.500000  1
  Al  Al10  1  0.707905  0.051894  0.000000  1
  Al  Al11  1  0.531585  0.063169  0.500000  1
  Al  Al12  1  0.917731  0.082269  0.500000  1
  Al  Al13  1  0.343989  0.292095  0.000000  1
  Al  Al14  1  0.531585  0.468415  0.500000  1
  Al  Al15  1  0.936831  0.468415  0.500000  1
  Al  Al16  1  0.333333  0.666667  0.000000  1
  Au  Au17  1  0.456863  0.543137  0.000000  1
  Au  Au18  1  0.825508  0.912754  0.000000  1
  Au  Au19  1  0.456863  0.913724  0.000000  1
  Au  Au20  1  0.087246  0.174492  0.000000  1
  Au  Au21  1  0.087246  0.912754  0.000000  1
  Au  Au22  1  0.791257  0.582512  0.500000  1
  Au  Au23  1  0.086276  0.543137  0.000000  1
  Au  Au24  1  0.791257  0.208743  0.500000  1
  Au  Au25  1  0.417488  0.208743  0.500000  1
