# generated using pymatgen
data_Pr8Sc12Ga3Si12P
_symmetry_space_group_name_H-M   'P 1'
_cell_length_a   7.27816060
_cell_length_b   7.56560323
_cell_length_c   14.31676802
_cell_angle_alpha   89.95203198
_cell_angle_beta   90.09097278
_cell_angle_gamma   90.44730726
_symmetry_Int_Tables_number   1
_chemical_formula_structural   Pr8Sc12Ga3Si12P
_chemical_formula_sum   'Pr8 Sc12 Ga3 Si12 P1'
_cell_volume   788.30858042
_cell_formula_units_Z   1
loop_
 _symmetry_equiv_pos_site_id
 _symmetry_equiv_pos_as_xyz
  1  'x, y, z'
loop_
 _atom_site_type_symbol
 _atom_site_label
 _atom_site_symmetry_multiplicity
 _atom_site_fract_x
 _atom_site_fract_y
 _atom_site_fract_z
 _atom_site_occupancy
  Pr  Pr0  1  0.011460  0.171701  0.402122  1
  Pr  Pr1  1  0.512909  0.326721  0.401866  1
  Pr  Pr2  1  0.489874  0.671922  0.898748  1
  Pr  Pr3  1  0.491902  0.675003  0.598996  1
  Pr  Pr4  1  0.992029  0.829965  0.601019  1
  Pr  Pr5  1  0.992007  0.830760  0.896278  1
  Pr  Pr6  1  0.509201  0.325204  0.098692  1
  Pr  Pr7  1  0.010143  0.174343  0.099156  1
  Sc  Sc8  1  0.329474  0.167759  0.628699  1
  Sc  Sc9  1  0.670232  0.824267  0.375141  1
  Sc  Sc10  1  0.659796  0.002470  0.749062  1
  Sc  Sc11  1  0.172287  0.677029  0.374986  1
  Sc  Sc12  1  0.826788  0.324948  0.874016  1
  Sc  Sc13  1  0.823718  0.326946  0.624109  1
  Sc  Sc14  1  0.838641  0.501620  0.252701  1
  Sc  Sc15  1  0.338539  0.997065  0.252114  1
  Sc  Sc16  1  0.327206  0.170600  0.870346  1
  Sc  Sc17  1  0.169862  0.673448  0.126649  1
  Sc  Sc18  1  0.670053  0.826876  0.126823  1
  Sc  Sc19  1  0.158865  0.495261  0.751352  1
  Ga  Ga20  1  0.157759  0.459025  0.540489  1
  Ga  Ga21  1  0.844959  0.544183  0.037687  1
  Ga  Ga22  1  0.344092  0.958451  0.038292  1
  Si  Si23  1  0.465757  0.624013  0.250667  1
  Si  Si24  1  0.022233  0.139335  0.749004  1
  Si  Si25  1  0.531093  0.373599  0.748899  1
  Si  Si26  1  0.966202  0.874508  0.250915  1
  Si  Si27  1  0.710905  0.116849  0.251000  1
  Si  Si28  1  0.154134  0.460397  0.959126  1
  Si  Si29  1  0.651007  0.036768  0.539688  1
  Si  Si30  1  0.349890  0.962468  0.461836  1
  Si  Si31  1  0.847988  0.541457  0.461271  1
  Si  Si32  1  0.792522  0.619212  0.749378  1
  Si  Si33  1  0.211514  0.382582  0.251253  1
  Si  Si34  1  0.652515  0.038465  0.958354  1
  P  P35  1  0.302443  0.874779  0.749265  1
