# generated using pymatgen
data_Yb20Zn8Cd3Hg
_symmetry_space_group_name_H-M   'P 1'
_cell_length_a   8.06820500
_cell_length_b   8.06820500
_cell_length_c   14.62934800
_cell_angle_alpha   90.00000000
_cell_angle_beta   90.00000000
_cell_angle_gamma   90.00000000
_symmetry_Int_Tables_number   1
_chemical_formula_structural   Yb20Zn8Cd3Hg
_chemical_formula_sum   'Yb20 Zn8 Cd3 Hg1'
_cell_volume   952.31104147
_cell_formula_units_Z   1
loop_
 _symmetry_equiv_pos_site_id
 _symmetry_equiv_pos_as_xyz
  1  'x, y, z'
loop_
 _atom_site_type_symbol
 _atom_site_label
 _atom_site_symmetry_multiplicity
 _atom_site_fract_x
 _atom_site_fract_y
 _atom_site_fract_z
 _atom_site_occupancy
  Yb  Yb0  1  0.000000  0.000000  0.753673  1
  Yb  Yb1  1  0.500000  0.500000  0.250392  1
  Yb  Yb2  1  0.000000  0.000000  0.246327  1
  Yb  Yb3  1  0.500000  0.500000  0.749608  1
  Yb  Yb4  1  0.169186  0.662098  0.104882  1
  Yb  Yb5  1  0.665916  0.165312  0.606921  1
  Yb  Yb6  1  0.830814  0.337902  0.104882  1
  Yb  Yb7  1  0.334084  0.834688  0.606921  1
  Yb  Yb8  1  0.337902  0.169186  0.104882  1
  Yb  Yb9  1  0.834688  0.665916  0.606921  1
  Yb  Yb10  1  0.662098  0.830814  0.104882  1
  Yb  Yb11  1  0.165312  0.334084  0.606921  1
  Yb  Yb12  1  0.337902  0.830814  0.895118  1
  Yb  Yb13  1  0.834688  0.334084  0.393079  1
  Yb  Yb14  1  0.662098  0.169186  0.895118  1
  Yb  Yb15  1  0.165312  0.665916  0.393079  1
  Yb  Yb16  1  0.169186  0.337902  0.895118  1
  Yb  Yb17  1  0.665916  0.834688  0.393079  1
  Yb  Yb18  1  0.830814  0.662098  0.895118  1
  Yb  Yb19  1  0.334084  0.165312  0.393079  1
  Zn  Zn20  1  0.624407  0.123994  0.248670  1
  Zn  Zn21  1  0.123994  0.624407  0.751330  1
  Zn  Zn22  1  0.876006  0.375593  0.751330  1
  Zn  Zn23  1  0.375593  0.876006  0.248670  1
  Zn  Zn24  1  0.375593  0.123994  0.751330  1
  Zn  Zn25  1  0.876006  0.624407  0.248670  1
  Zn  Zn26  1  0.123994  0.375593  0.248670  1
  Zn  Zn27  1  0.624407  0.876006  0.751330  1
  Cd  Cd28  1  0.000000  0.000000  0.500000  1
  Cd  Cd29  1  0.000000  0.000000  0.000000  1
  Cd  Cd30  1  0.500000  0.500000  0.500000  1
  Hg  Hg31  1  0.500000  0.500000  0.000000  1
