# generated using pymatgen
data_Ce8Er12Si15P
_symmetry_space_group_name_H-M   'P 1'
_cell_length_a   7.59141845
_cell_length_b   7.78352104
_cell_length_c   14.83760700
_cell_angle_alpha   89.79265026
_cell_angle_beta   86.87308307
_cell_angle_gamma   90.01866367
_symmetry_Int_Tables_number   1
_chemical_formula_structural   Ce8Er12Si15P
_chemical_formula_sum   'Ce8 Er12 Si15 P1'
_cell_volume   875.41284683
_cell_formula_units_Z   1
loop_
 _symmetry_equiv_pos_site_id
 _symmetry_equiv_pos_as_xyz
  1  'x, y, z'
loop_
 _atom_site_type_symbol
 _atom_site_label
 _atom_site_symmetry_multiplicity
 _atom_site_fract_x
 _atom_site_fract_y
 _atom_site_fract_z
 _atom_site_occupancy
  Ce  Ce0  1  0.019822  0.178753  0.099670  1
  Ce  Ce1  1  0.980294  0.821818  0.899365  1
  Ce  Ce2  1  0.481103  0.679012  0.900154  1
  Ce  Ce3  1  0.000492  0.818541  0.597884  1
  Ce  Ce4  1  0.519383  0.321345  0.099694  1
  Ce  Ce5  1  0.998539  0.179684  0.401339  1
  Ce  Ce6  1  0.499471  0.314409  0.401122  1
  Ce  Ce7  1  0.499873  0.682406  0.598051  1
  Er  Er8  1  0.172924  0.510547  0.747586  1
  Er  Er9  1  0.828191  0.490992  0.253465  1
  Er  Er10  1  0.325712  0.007406  0.253245  1
  Er  Er11  1  0.672974  0.992526  0.746235  1
  Er  Er12  1  0.351910  0.170240  0.619145  1
  Er  Er13  1  0.646701  0.833700  0.380083  1
  Er  Er14  1  0.147864  0.659744  0.385349  1
  Er  Er15  1  0.672106  0.821965  0.122610  1
  Er  Er16  1  0.857185  0.335943  0.616898  1
  Er  Er17  1  0.327902  0.178545  0.877001  1
  Er  Er18  1  0.828140  0.322464  0.877065  1
  Er  Er19  1  0.171818  0.678042  0.122319  1
  Si  Si20  1  0.046666  0.113193  0.749104  1
  Si  Si21  1  0.953762  0.886301  0.250523  1
  Si  Si22  1  0.451860  0.611317  0.250339  1
  Si  Si23  1  0.547988  0.388189  0.749090  1
  Si  Si24  1  0.289137  0.877653  0.750299  1
  Si  Si25  1  0.712073  0.123341  0.248941  1
  Si  Si26  1  0.211483  0.376304  0.249691  1
  Si  Si27  1  0.788644  0.623821  0.749735  1
  Si  Si28  1  0.794239  0.535029  0.455790  1
  Si  Si29  1  0.300543  0.962055  0.458047  1
  Si  Si30  1  0.853377  0.528117  0.040722  1
  Si  Si31  1  0.697566  0.037490  0.542889  1
  Si  Si32  1  0.146563  0.472806  0.958550  1
  Si  Si33  1  0.646134  0.028243  0.958769  1
  Si  Si34  1  0.353561  0.972680  0.041080  1
  P  P35  1  0.204006  0.465373  0.548152  1
