# generated using pymatgen
data_ErHf7Ti7Si16Mo5
_symmetry_space_group_name_H-M   'P 1'
_cell_length_a   6.78116428
_cell_length_b   6.77756705
_cell_length_c   12.49363633
_cell_angle_alpha   89.88068823
_cell_angle_beta   89.96702354
_cell_angle_gamma   89.93286575
_symmetry_Int_Tables_number   1
_chemical_formula_structural   ErHf7Ti7Si16Mo5
_chemical_formula_sum   'Er1 Hf7 Ti7 Si16 Mo5'
_cell_volume   574.20323878
_cell_formula_units_Z   1
loop_
 _symmetry_equiv_pos_site_id
 _symmetry_equiv_pos_as_xyz
  1  'x, y, z'
loop_
 _atom_site_type_symbol
 _atom_site_label
 _atom_site_symmetry_multiplicity
 _atom_site_fract_x
 _atom_site_fract_y
 _atom_site_fract_z
 _atom_site_occupancy
  Er  Er0  1  0.998230  0.661190  0.029462  1
  Hf  Hf1  1  0.339454  0.999053  0.470903  1
  Hf  Hf2  1  0.500640  0.839176  0.719114  1
  Hf  Hf3  1  0.498028  0.160514  0.222238  1
  Hf  Hf4  1  0.839839  0.501297  0.280228  1
  Hf  Hf5  1  0.161269  0.496799  0.779351  1
  Hf  Hf6  1  0.656212  0.002425  0.969120  1
  Hf  Hf7  1  0.998680  0.340691  0.529775  1
  Ti  Ti8  1  0.496971  0.653293  0.124246  1
  Ti  Ti9  1  0.501001  0.347335  0.622949  1
  Ti  Ti10  1  0.653364  0.494398  0.874949  1
  Ti  Ti11  1  0.347403  0.503323  0.377531  1
  Ti  Ti12  1  0.846838  0.998066  0.374204  1
  Ti  Ti13  1  0.003799  0.152721  0.128787  1
  Ti  Ti14  1  0.997655  0.848936  0.625817  1
  Si  Si15  1  0.205869  0.134413  0.676505  1
  Si  Si16  1  0.371992  0.706565  0.926738  1
  Si  Si17  1  0.633487  0.293533  0.426988  1
  Si  Si18  1  0.704091  0.362963  0.073070  1
  Si  Si19  1  0.292642  0.634086  0.573076  1
  Si  Si20  1  0.789703  0.869378  0.179742  1
  Si  Si21  1  0.133977  0.207108  0.324470  1
  Si  Si22  1  0.865272  0.796743  0.819440  1
  Si  Si23  1  0.297549  0.959074  0.064948  1
  Si  Si24  1  0.542997  0.795589  0.315903  1
  Si  Si25  1  0.454605  0.205511  0.813353  1
  Si  Si26  1  0.795087  0.544365  0.684503  1
  Si  Si27  1  0.206493  0.454445  0.186776  1
  Si  Si28  1  0.704532  0.044295  0.564615  1
  Si  Si29  1  0.958798  0.287669  0.934717  1
  Si  Si30  1  0.043537  0.705245  0.435258  1
  Mo  Mo31  1  0.333497  0.329405  0.000221  1
  Mo  Mo32  1  0.169945  0.832036  0.251105  1
  Mo  Mo33  1  0.827916  0.170857  0.748671  1
  Mo  Mo34  1  0.669699  0.669458  0.500313  1
  Mo  Mo35  1  0.158930  0.998046  0.870914  1
