# generated using pymatgen
data_PrHo2Ni9
_symmetry_space_group_name_H-M   'P 1'
_cell_length_a   8.57460873
_cell_length_b   8.57460827
_cell_length_c   8.57460784
_cell_angle_alpha   33.75478238
_cell_angle_beta   33.75478410
_cell_angle_gamma   33.75478276
_symmetry_Int_Tables_number   1
_chemical_formula_structural   PrHo2Ni9
_chemical_formula_sum   'Pr1 Ho2 Ni9'
_cell_volume   173.42578067
_cell_formula_units_Z   1
loop_
 _symmetry_equiv_pos_site_id
 _symmetry_equiv_pos_as_xyz
  1  'x, y, z'
loop_
 _atom_site_type_symbol
 _atom_site_label
 _atom_site_symmetry_multiplicity
 _atom_site_fract_x
 _atom_site_fract_y
 _atom_site_fract_z
 _atom_site_occupancy
  Pr  Pr0  1  0.000000  0.000000  0.000000  1
  Ho  Ho1  1  0.859898  0.859898  0.859898  1
  Ho  Ho2  1  0.140102  0.140102  0.140102  1
  Ni  Ni3  1  0.415788  0.415788  0.917894  1
  Ni  Ni4  1  0.917894  0.415788  0.415788  1
  Ni  Ni5  1  0.415788  0.917894  0.415788  1
  Ni  Ni6  1  0.500000  0.500000  0.500000  1
  Ni  Ni7  1  0.332907  0.332907  0.332907  1
  Ni  Ni8  1  0.667093  0.667093  0.667093  1
  Ni  Ni9  1  0.082106  0.584212  0.584212  1
  Ni  Ni10  1  0.584212  0.584212  0.082106  1
  Ni  Ni11  1  0.584212  0.082106  0.584212  1
