# generated using pymatgen
data_Tm4Si2B8Ru
_symmetry_space_group_name_H-M   'P 1'
_cell_length_a   7.06091700
_cell_length_b   7.06091700
_cell_length_c   7.53167900
_cell_angle_alpha   90.00000000
_cell_angle_beta   90.00000000
_cell_angle_gamma   90.00000000
_symmetry_Int_Tables_number   1
_chemical_formula_structural   Tm4Si2B8Ru
_chemical_formula_sum   'Tm8 Si4 B16 Ru2'
_cell_volume   375.50352222
_cell_formula_units_Z   2
loop_
 _symmetry_equiv_pos_site_id
 _symmetry_equiv_pos_as_xyz
  1  'x, y, z'
loop_
 _atom_site_type_symbol
 _atom_site_label
 _atom_site_symmetry_multiplicity
 _atom_site_fract_x
 _atom_site_fract_y
 _atom_site_fract_z
 _atom_site_occupancy
  Tm  Tm0  1  0.678837  0.178837  0.236146  1
  Tm  Tm1  1  0.321163  0.821163  0.763854  1
  Tm  Tm2  1  0.321163  0.821163  0.236146  1
  Tm  Tm3  1  0.821163  0.678837  0.236146  1
  Tm  Tm4  1  0.821163  0.678837  0.763854  1
  Tm  Tm5  1  0.678837  0.178837  0.763854  1
  Tm  Tm6  1  0.178837  0.321163  0.763854  1
  Tm  Tm7  1  0.178837  0.321163  0.236146  1
  Si  Si8  1  0.123171  0.623171  0.500000  1
  Si  Si9  1  0.876829  0.376829  0.500000  1
  Si  Si10  1  0.376829  0.123171  0.500000  1
  Si  Si11  1  0.623171  0.876829  0.500000  1
  B  B12  1  0.172421  0.041055  0.000000  1
  B  B13  1  0.827579  0.958945  0.000000  1
  B  B14  1  0.958945  0.172421  0.000000  1
  B  B15  1  0.327579  0.541055  0.000000  1
  B  B16  1  0.041055  0.827579  0.000000  1
  B  B17  1  0.672421  0.458945  0.000000  1
  B  B18  1  0.541055  0.672421  0.000000  1
  B  B19  1  0.458945  0.327579  0.000000  1
  B  B20  1  0.089737  0.589737  0.000000  1
  B  B21  1  0.910263  0.410263  0.000000  1
  B  B22  1  0.410263  0.089737  0.000000  1
  B  B23  1  0.589737  0.910263  0.000000  1
  B  B24  1  0.000000  0.000000  0.175305  1
  B  B25  1  0.000000  0.000000  0.824695  1
  B  B26  1  0.500000  0.500000  0.824695  1
  B  B27  1  0.500000  0.500000  0.175305  1
  Ru  Ru28  1  0.000000  0.000000  0.500000  1
  Ru  Ru29  1  0.500000  0.500000  0.500000  1
