# generated using pymatgen
data_Hf16Re2Ni4RuRh
_symmetry_space_group_name_H-M   'P 1'
_cell_length_a   8.62180934
_cell_length_b   8.63086146
_cell_length_c   8.63086101
_cell_angle_alpha   60.05388874
_cell_angle_beta   60.06859683
_cell_angle_gamma   60.06860014
_symmetry_Int_Tables_number   1
_chemical_formula_structural   Hf16Re2Ni4RuRh
_chemical_formula_sum   'Hf16 Re2 Ni4 Ru1 Rh1'
_cell_volume   454.79757415
_cell_formula_units_Z   1
loop_
 _symmetry_equiv_pos_site_id
 _symmetry_equiv_pos_as_xyz
  1  'x, y, z'
loop_
 _atom_site_type_symbol
 _atom_site_label
 _atom_site_symmetry_multiplicity
 _atom_site_fract_x
 _atom_site_fract_y
 _atom_site_fract_z
 _atom_site_occupancy
  Hf  Hf0  1  0.685651  0.104669  0.104669  1
  Hf  Hf1  1  0.105409  0.683194  0.105619  1
  Hf  Hf2  1  0.105409  0.105619  0.683194  1
  Hf  Hf3  1  0.104177  0.103662  0.103662  1
  Hf  Hf4  1  0.315748  0.315884  0.689519  1
  Hf  Hf5  1  0.682310  0.687700  0.315621  1
  Hf  Hf6  1  0.315748  0.689519  0.315884  1
  Hf  Hf7  1  0.682310  0.315621  0.687700  1
  Hf  Hf8  1  0.688152  0.315861  0.315861  1
  Hf  Hf9  1  0.314939  0.685525  0.685525  1
  Hf  Hf10  1  0.953553  0.950915  0.547585  1
  Hf  Hf11  1  0.548690  0.548641  0.949317  1
  Hf  Hf12  1  0.953553  0.547585  0.950915  1
  Hf  Hf13  1  0.548690  0.949317  0.548641  1
  Hf  Hf14  1  0.546661  0.953258  0.953258  1
  Hf  Hf15  1  0.950523  0.548558  0.548558  1
  Re  Re16  1  0.333704  0.998284  0.332239  1
  Re  Re17  1  0.333704  0.332239  0.998284  1
  Ni  Ni18  1  0.322594  0.891347  0.891347  1
  Ni  Ni19  1  0.892052  0.323619  0.890369  1
  Ni  Ni20  1  0.892052  0.890369  0.323619  1
  Ni  Ni21  1  0.893828  0.892294  0.892294  1
  Ru  Ru22  1  0.996015  0.333168  0.333168  1
  Rh  Rh23  1  0.334525  0.333147  0.333147  1
