# generated using pymatgen
data_Nd2Fe3CoP7Ru8
_symmetry_space_group_name_H-M   'P 1'
_cell_length_a   9.34356899
_cell_length_b   9.31391782
_cell_length_c   3.85916000
_cell_angle_alpha   90.00000000
_cell_angle_beta   90.00000000
_cell_angle_gamma   120.22547805
_symmetry_Int_Tables_number   1
_chemical_formula_structural   Nd2Fe3CoP7Ru8
_chemical_formula_sum   'Nd2 Fe3 Co1 P7 Ru8'
_cell_volume   290.18661603
_cell_formula_units_Z   1
loop_
 _symmetry_equiv_pos_site_id
 _symmetry_equiv_pos_as_xyz
  1  'x, y, z'
loop_
 _atom_site_type_symbol
 _atom_site_label
 _atom_site_symmetry_multiplicity
 _atom_site_fract_x
 _atom_site_fract_y
 _atom_site_fract_z
 _atom_site_occupancy
  Nd  Nd0  1  0.665471  0.333038  0.000000  1
  Nd  Nd1  1  0.332499  0.661479  0.500000  1
  Fe  Fe2  1  0.267893  0.116512  0.000000  1
  Fe  Fe3  1  0.841735  0.730422  0.000000  1
  Fe  Fe4  1  0.890723  0.155533  0.000000  1
  Co  Co5  1  0.361166  0.419451  0.000000  1
  P  P6  1  0.304154  0.896004  0.000000  1
  P  P7  1  0.587179  0.691965  0.000000  1
  P  P8  1  0.108766  0.407887  0.000000  1
  P  P9  1  0.394490  0.282452  0.500000  1
  P  P10  1  0.886856  0.606260  0.500000  1
  P  P11  1  0.718607  0.111751  0.500000  1
  P  P12  1  0.999617  0.998652  0.000000  1
  Ru  Ru13  1  0.060595  0.639390  0.000000  1
  Ru  Ru14  1  0.579186  0.938345  0.000000  1
  Ru  Ru15  1  0.435419  0.050621  0.500000  1
  Ru  Ru16  1  0.609762  0.562101  0.500000  1
  Ru  Ru17  1  0.948536  0.384773  0.500000  1
  Ru  Ru18  1  0.087553  0.885850  0.500000  1
  Ru  Ru19  1  0.798157  0.912432  0.500000  1
  Ru  Ru20  1  0.121635  0.215081  0.500000  1
