# generated using pymatgen
data_Np4Si6Os7
_symmetry_space_group_name_H-M   'P 1'
_cell_length_a   7.10366243
_cell_length_b   7.11052427
_cell_length_c   7.10598000
_cell_angle_alpha   109.46053814
_cell_angle_beta   109.47669205
_cell_angle_gamma   109.50261094
_symmetry_Int_Tables_number   1
_chemical_formula_structural   Np4Si6Os7
_chemical_formula_sum   'Np4 Si6 Os7'
_cell_volume   276.21393800
_cell_formula_units_Z   1
loop_
 _symmetry_equiv_pos_site_id
 _symmetry_equiv_pos_as_xyz
  1  'x, y, z'
loop_
 _atom_site_type_symbol
 _atom_site_label
 _atom_site_symmetry_multiplicity
 _atom_site_fract_x
 _atom_site_fract_y
 _atom_site_fract_z
 _atom_site_occupancy
  Np  Np0  1  0.000000  0.000000  0.500000  1
  Np  Np1  1  0.000000  0.500000  0.000000  1
  Np  Np2  1  0.500000  0.000000  0.000000  1
  Np  Np3  1  0.500000  0.500000  0.500000  1
  Si  Si4  1  0.691698  0.691666  0.000052  1
  Si  Si5  1  0.308302  0.999966  0.308354  1
  Si  Si6  1  0.000000  0.308935  0.308983  1
  Si  Si7  1  0.308302  0.308334  0.999948  1
  Si  Si8  1  0.691698  0.000034  0.691646  1
  Si  Si9  1  0.000000  0.691065  0.691017  1
  Os  Os10  1  0.750039  0.250006  0.500112  1
  Os  Os11  1  0.750039  0.500032  0.249927  1
  Os  Os12  1  0.500043  0.250022  0.750022  1
  Os  Os13  1  0.249961  0.499968  0.750073  1
  Os  Os14  1  0.249961  0.749994  0.499888  1
  Os  Os15  1  0.499957  0.749978  0.249978  1
  Os  Os16  1  0.000000  0.000000  0.000000  1
