# generated using pymatgen
data_Ho2Er4ReBi2
_symmetry_space_group_name_H-M   'P 1'
_cell_length_a   8.22114100
_cell_length_b   8.22377142
_cell_length_c   4.32365600
_cell_angle_alpha   90.00000000
_cell_angle_beta   90.00000000
_cell_angle_gamma   119.98940778
_symmetry_Int_Tables_number   1
_chemical_formula_structural   Ho2Er4ReBi2
_chemical_formula_sum   'Ho2 Er4 Re1 Bi2'
_cell_volume   253.18107309
_cell_formula_units_Z   1
loop_
 _symmetry_equiv_pos_site_id
 _symmetry_equiv_pos_as_xyz
  1  'x, y, z'
loop_
 _atom_site_type_symbol
 _atom_site_label
 _atom_site_symmetry_multiplicity
 _atom_site_fract_x
 _atom_site_fract_y
 _atom_site_fract_z
 _atom_site_occupancy
  Ho  Ho0  1  0.000009  0.613093  0.500000  1
  Ho  Ho1  1  0.386916  0.386907  0.500000  1
  Er  Er2  1  0.232061  0.000000  0.000000  1
  Er  Er3  1  0.767904  0.768003  0.000000  1
  Er  Er4  1  0.999901  0.231997  0.000000  1
  Er  Er5  1  0.613280  0.000000  0.500000  1
  Re  Re6  1  0.999850  0.000000  0.500000  1
  Bi  Bi7  1  0.333421  0.666763  0.000000  1
  Bi  Bi8  1  0.666659  0.333237  0.000000  1
