# generated using pymatgen
data_Er6Al25Os7
_symmetry_space_group_name_H-M   'P 1'
_cell_length_a   8.85624788
_cell_length_b   8.85624721
_cell_length_c   9.55525219
_cell_angle_alpha   90.17987370
_cell_angle_beta   89.82011779
_cell_angle_gamma   119.95038506
_symmetry_Int_Tables_number   1
_chemical_formula_structural   Er6Al25Os7
_chemical_formula_sum   'Er6 Al25 Os7'
_cell_volume   649.36119936
_cell_formula_units_Z   1
loop_
 _symmetry_equiv_pos_site_id
 _symmetry_equiv_pos_as_xyz
  1  'x, y, z'
loop_
 _atom_site_type_symbol
 _atom_site_label
 _atom_site_symmetry_multiplicity
 _atom_site_fract_x
 _atom_site_fract_y
 _atom_site_fract_z
 _atom_site_occupancy
  Er  Er0  1  0.193910  0.386936  0.244853  1
  Er  Er1  1  0.806090  0.613064  0.755147  1
  Er  Er2  1  0.613064  0.806090  0.244853  1
  Er  Er3  1  0.386936  0.193910  0.755147  1
  Er  Er4  1  0.194634  0.805366  0.256827  1
  Er  Er5  1  0.805366  0.194634  0.743173  1
  Al  Al6  1  0.326919  0.673081  0.023194  1
  Al  Al7  1  0.673081  0.326919  0.976806  1
  Al  Al8  1  0.666044  0.333956  0.519136  1
  Al  Al9  1  0.333956  0.666044  0.480864  1
  Al  Al10  1  0.162455  0.325833  0.570857  1
  Al  Al11  1  0.837545  0.674167  0.429143  1
  Al  Al12  1  0.674167  0.837545  0.570857  1
  Al  Al13  1  0.851731  0.677949  0.082929  1
  Al  Al14  1  0.325833  0.162455  0.429143  1
  Al  Al15  1  0.148269  0.322051  0.917071  1
  Al  Al16  1  0.162574  0.837426  0.577174  1
  Al  Al17  1  0.322051  0.148269  0.082929  1
  Al  Al18  1  0.837426  0.162574  0.422826  1
  Al  Al19  1  0.677949  0.851731  0.917071  1
  Al  Al20  1  0.837220  0.162780  0.076785  1
  Al  Al21  1  0.162780  0.837220  0.923215  1
  Al  Al22  1  0.562278  0.120088  0.249690  1
  Al  Al23  1  0.437722  0.879912  0.750310  1
  Al  Al24  1  0.879912  0.437722  0.249690  1
  Al  Al25  1  0.120088  0.562278  0.750310  1
  Al  Al26  1  0.565622  0.434378  0.258326  1
  Al  Al27  1  0.434378  0.565622  0.741674  1
  Al  Al28  1  0.998697  0.001303  0.250728  1
  Al  Al29  1  0.001303  0.998697  0.749272  1
  Al  Al30  1  0.500000  0.500000  0.000000  1
  Os  Os31  1  0.500000  0.000000  0.000000  1
  Os  Os32  1  0.000000  0.500000  0.000000  1
  Os  Os33  1  0.500000  0.000000  0.500000  1
  Os  Os34  1  0.000000  0.500000  0.500000  1
  Os  Os35  1  0.500000  0.500000  0.500000  1
  Os  Os36  1  0.000000  0.000000  0.000000  1
  Os  Os37  1  0.000000  0.000000  0.500000  1
