# generated using pymatgen
data_Na4LuSbO6
_symmetry_space_group_name_H-M   'P 1'
_cell_length_a   5.67929488
_cell_length_b   5.67929487
_cell_length_c   5.85840202
_cell_angle_alpha   99.62217087
_cell_angle_beta   99.62217313
_cell_angle_gamma   119.83962234
_symmetry_Int_Tables_number   1
_chemical_formula_structural   Na4LuSbO6
_chemical_formula_sum   'Na4 Lu1 Sb1 O6'
_cell_volume   154.52403324
_cell_formula_units_Z   1
loop_
 _symmetry_equiv_pos_site_id
 _symmetry_equiv_pos_as_xyz
  1  'x, y, z'
loop_
 _atom_site_type_symbol
 _atom_site_label
 _atom_site_symmetry_multiplicity
 _atom_site_fract_x
 _atom_site_fract_y
 _atom_site_fract_z
 _atom_site_occupancy
  Na  Na0  1  0.499930  0.500072  0.000000  1
  Na  Na1  1  0.004570  0.995429  0.499999  1
  Na  Na2  1  0.657185  0.342815  0.499999  1
  Na  Na3  1  0.338529  0.661471  0.499999  1
  Lu  Lu4  1  0.832917  0.167085  0.000000  1
  Sb  Sb5  1  0.167383  0.832618  0.000000  1
  O  O6  1  0.213349  0.189938  0.212087  1
  O  O7  1  0.548334  0.929727  0.212352  1
  O  O8  1  0.953227  0.595760  0.206599  1
  O  O9  1  0.404240  0.046773  0.793402  1
  O  O10  1  0.070273  0.451667  0.787648  1
  O  O11  1  0.810063  0.786651  0.787913  1
