# generated using pymatgen
data_YMg(NbSe2)8
_symmetry_space_group_name_H-M   'P 1'
_cell_length_a   7.03480000
_cell_length_b   7.03480042
_cell_length_c   13.99104500
_cell_angle_alpha   90.00000000
_cell_angle_beta   90.00000000
_cell_angle_gamma   119.99999801
_symmetry_Int_Tables_number   1
_chemical_formula_structural   YMg(NbSe2)8
_chemical_formula_sum   'Y1 Mg1 Nb8 Se16'
_cell_volume   599.63134895
_cell_formula_units_Z   1
loop_
 _symmetry_equiv_pos_site_id
 _symmetry_equiv_pos_as_xyz
  1  'x, y, z'
loop_
 _atom_site_type_symbol
 _atom_site_label
 _atom_site_symmetry_multiplicity
 _atom_site_fract_x
 _atom_site_fract_y
 _atom_site_fract_z
 _atom_site_occupancy
  Y  Y0  1  0.000000  0.000000  0.500000  1
  Mg  Mg1  1  0.000000  0.000000  0.000000  1
  Nb  Nb2  1  0.000000  0.000000  0.240759  1
  Nb  Nb3  1  0.000000  0.000000  0.759241  1
  Nb  Nb4  1  0.507181  0.014363  0.239188  1
  Nb  Nb5  1  0.985637  0.492819  0.239188  1
  Nb  Nb6  1  0.507181  0.492819  0.239188  1
  Nb  Nb7  1  0.492819  0.985637  0.760812  1
  Nb  Nb8  1  0.014363  0.507181  0.760812  1
  Nb  Nb9  1  0.492819  0.507181  0.760812  1
  Se  Se10  1  0.333333  0.666667  0.883446  1
  Se  Se11  1  0.666667  0.333333  0.116554  1
  Se  Se12  1  0.666667  0.333333  0.362630  1
  Se  Se13  1  0.333333  0.666667  0.637370  1
  Se  Se14  1  0.169368  0.830632  0.358338  1
  Se  Se15  1  0.169368  0.338735  0.358338  1
  Se  Se16  1  0.661265  0.830632  0.358338  1
  Se  Se17  1  0.830632  0.169368  0.641662  1
  Se  Se18  1  0.830632  0.661265  0.641662  1
  Se  Se19  1  0.338735  0.169368  0.641662  1
  Se  Se20  1  0.830940  0.169060  0.877824  1
  Se  Se21  1  0.830940  0.661881  0.877824  1
  Se  Se22  1  0.338119  0.169060  0.877824  1
  Se  Se23  1  0.169060  0.830940  0.122176  1
  Se  Se24  1  0.169060  0.338119  0.122176  1
  Se  Se25  1  0.661881  0.830940  0.122176  1
