# generated using pymatgen
data_Ho7Er3(Co2Au)2
_symmetry_space_group_name_H-M   'P 1'
_cell_length_a   8.50104727
_cell_length_b   8.50978348
_cell_length_c   8.52060454
_cell_angle_alpha   128.44873647
_cell_angle_beta   128.44946710
_cell_angle_gamma   75.77467251
_symmetry_Int_Tables_number   1
_chemical_formula_structural   Ho7Er3(Co2Au)2
_chemical_formula_sum   'Ho7 Er3 Co4 Au2'
_cell_volume   367.94776644
_cell_formula_units_Z   1
loop_
 _symmetry_equiv_pos_site_id
 _symmetry_equiv_pos_as_xyz
  1  'x, y, z'
loop_
 _atom_site_type_symbol
 _atom_site_label
 _atom_site_symmetry_multiplicity
 _atom_site_fract_x
 _atom_site_fract_y
 _atom_site_fract_z
 _atom_site_occupancy
  Ho  Ho0  1  0.469585  0.969563  0.166488  1
  Ho  Ho1  1  0.803011  0.303063  0.833171  1
  Ho  Ho2  1  0.530332  0.030466  0.833766  1
  Ho  Ho3  1  0.030610  0.196783  0.500012  1
  Ho  Ho4  1  0.304432  0.468540  0.500259  1
  Ho  Ho5  1  0.196706  0.696770  0.166250  1
  Ho  Ho6  1  0.968997  0.803666  0.500126  1
  Er  Er7  1  0.696507  0.532038  0.499920  1
  Er  Er8  1  0.999613  0.999940  0.999915  1
  Er  Er9  1  0.500117  0.499760  0.000358  1
  Co  Co10  1  0.123158  0.623611  0.747048  1
  Co  Co11  1  0.876005  0.376476  0.252856  1
  Co  Co12  1  0.624401  0.875371  0.499949  1
  Co  Co13  1  0.375667  0.124051  0.499966  1
  Au  Au14  1  0.250997  0.250551  0.001161  1
  Au  Au15  1  0.749863  0.749350  0.998755  1
