# generated using pymatgen
data_Gd3ErNiP3
_symmetry_space_group_name_H-M   'P 1'
_cell_length_a   3.83576766
_cell_length_b   4.11747400
_cell_length_c   10.97505285
_cell_angle_alpha   89.99648570
_cell_angle_beta   90.06679579
_cell_angle_gamma   89.99913727
_symmetry_Int_Tables_number   1
_chemical_formula_structural   Gd3ErNiP3
_chemical_formula_sum   'Gd3 Er1 Ni1 P3'
_cell_volume   173.33628447
_cell_formula_units_Z   1
loop_
 _symmetry_equiv_pos_site_id
 _symmetry_equiv_pos_as_xyz
  1  'x, y, z'
loop_
 _atom_site_type_symbol
 _atom_site_label
 _atom_site_symmetry_multiplicity
 _atom_site_fract_x
 _atom_site_fract_y
 _atom_site_fract_z
 _atom_site_occupancy
  Gd  Gd0  1  0.999717  0.750228  0.868729  1
  Gd  Gd1  1  0.999812  0.250099  0.135162  1
  Gd  Gd2  1  0.499963  0.249857  0.627601  1
  Er  Er3  1  0.501298  0.749978  0.368864  1
  Ni  Ni4  1  0.498562  0.749981  0.064602  1
  P  P5  1  0.999469  0.749761  0.618936  1
  P  P6  1  0.001381  0.250033  0.389246  1
  P  P7  1  0.499798  0.250063  0.926857  1
