# generated using pymatgen
data_Zr2Be2GaIr5
_symmetry_space_group_name_H-M   'P 1'
_cell_length_a   9.35164500
_cell_length_b   9.35164500
_cell_length_c   3.22897600
_cell_angle_alpha   90.00000000
_cell_angle_beta   90.00000000
_cell_angle_gamma   90.00000000
_symmetry_Int_Tables_number   1
_chemical_formula_structural   Zr2Be2GaIr5
_chemical_formula_sum   'Zr4 Be4 Ga2 Ir10'
_cell_volume   282.38449124
_cell_formula_units_Z   2
loop_
 _symmetry_equiv_pos_site_id
 _symmetry_equiv_pos_as_xyz
  1  'x, y, z'
loop_
 _atom_site_type_symbol
 _atom_site_label
 _atom_site_symmetry_multiplicity
 _atom_site_fract_x
 _atom_site_fract_y
 _atom_site_fract_z
 _atom_site_occupancy
  Zr  Zr0  1  0.176109  0.676109  0.000000  1
  Zr  Zr1  1  0.676109  0.823891  0.000000  1
  Zr  Zr2  1  0.323891  0.176109  0.000000  1
  Zr  Zr3  1  0.823891  0.323891  0.000000  1
  Be  Be4  1  0.376520  0.876520  0.000000  1
  Be  Be5  1  0.876520  0.623480  0.000000  1
  Be  Be6  1  0.123480  0.376520  0.000000  1
  Be  Be7  1  0.623480  0.123480  0.000000  1
  Ga  Ga8  1  0.000000  0.000000  0.000000  1
  Ga  Ga9  1  0.500000  0.500000  0.000000  1
  Ir  Ir10  1  0.000000  0.500000  0.500000  1
  Ir  Ir11  1  0.500000  0.000000  0.500000  1
  Ir  Ir12  1  0.288497  0.430994  0.500000  1
  Ir  Ir13  1  0.711504  0.569006  0.500000  1
  Ir  Ir14  1  0.569006  0.288497  0.500000  1
  Ir  Ir15  1  0.430994  0.711504  0.500000  1
  Ir  Ir16  1  0.930994  0.788496  0.500000  1
  Ir  Ir17  1  0.788496  0.069006  0.500000  1
  Ir  Ir18  1  0.211503  0.930994  0.500000  1
  Ir  Ir19  1  0.069006  0.211503  0.500000  1
