# generated using pymatgen
data_DyTmMnCo5P4
_symmetry_space_group_name_H-M   'P 1'
_cell_length_a   3.69422100
_cell_length_b   10.55770000
_cell_length_c   12.11730700
_cell_angle_alpha   89.99703974
_cell_angle_beta   90.00000000
_cell_angle_gamma   90.00000000
_symmetry_Int_Tables_number   1
_chemical_formula_structural   DyTmMnCo5P4
_chemical_formula_sum   'Dy3 Tm3 Mn3 Co15 P12'
_cell_volume   472.60498788
_cell_formula_units_Z   3
loop_
 _symmetry_equiv_pos_site_id
 _symmetry_equiv_pos_as_xyz
  1  'x, y, z'
loop_
 _atom_site_type_symbol
 _atom_site_label
 _atom_site_symmetry_multiplicity
 _atom_site_fract_x
 _atom_site_fract_y
 _atom_site_fract_z
 _atom_site_occupancy
  Dy  Dy0  1  0.000000  0.500161  0.523512  1
  Dy  Dy1  1  0.500000  0.999935  0.476654  1
  Dy  Dy2  1  0.000000  0.319586  0.795965  1
  Tm  Tm3  1  0.500000  0.818657  0.204850  1
  Tm  Tm4  1  0.500000  0.181322  0.204345  1
  Tm  Tm5  1  0.000000  0.680497  0.796120  1
  Mn  Mn6  1  0.500000  0.500077  0.155441  1
  Mn  Mn7  1  0.000000  0.999780  0.841478  1
  Mn  Mn8  1  0.000000  0.500582  0.989296  1
  Co  Co9  1  0.500000  0.500896  0.700105  1
  Co  Co10  1  0.000000  0.999766  0.297084  1
  Co  Co11  1  0.500000  0.999548  0.013899  1
  Co  Co12  1  0.500000  0.330502  0.994765  1
  Co  Co13  1  0.500000  0.670082  0.994513  1
  Co  Co14  1  0.000000  0.164858  0.006058  1
  Co  Co15  1  0.000000  0.834636  0.005665  1
  Co  Co16  1  0.500000  0.295659  0.429574  1
  Co  Co17  1  0.500000  0.704395  0.430251  1
  Co  Co18  1  0.000000  0.203376  0.569373  1
  Co  Co19  1  0.000000  0.796522  0.570222  1
  Co  Co20  1  0.500000  0.878950  0.709797  1
  Co  Co21  1  0.500000  0.120018  0.709113  1
  Co  Co22  1  0.000000  0.621893  0.291223  1
  Co  Co23  1  0.000000  0.378060  0.290816  1
  P  P24  1  0.500000  0.501032  0.882861  1
  P  P25  1  0.000000  0.999734  0.118146  1
  P  P26  1  0.500000  0.499965  0.345588  1
  P  P27  1  0.000000  0.000030  0.654825  1
  P  P28  1  0.500000  0.310467  0.616040  1
  P  P29  1  0.500000  0.689750  0.617290  1
  P  P30  1  0.000000  0.188473  0.382702  1
  P  P31  1  0.000000  0.811335  0.383266  1
  P  P32  1  0.500000  0.846608  0.892327  1
  P  P33  1  0.500000  0.152405  0.892895  1
  P  P34  1  0.000000  0.655620  0.107241  1
  P  P35  1  0.000000  0.344821  0.106699  1
