# generated using pymatgen
data_Er16In4Ni3Pd
_symmetry_space_group_name_H-M   'P 1'
_cell_length_a   9.52704476
_cell_length_b   9.54819582
_cell_length_c   9.52704500
_cell_angle_alpha   60.07325348
_cell_angle_beta   60.00000263
_cell_angle_gamma   60.07325261
_symmetry_Int_Tables_number   1
_chemical_formula_structural   Er16In4Ni3Pd
_chemical_formula_sum   'Er16 In4 Ni3 Pd1'
_cell_volume   613.48326872
_cell_formula_units_Z   1
loop_
 _symmetry_equiv_pos_site_id
 _symmetry_equiv_pos_as_xyz
  1  'x, y, z'
loop_
 _atom_site_type_symbol
 _atom_site_label
 _atom_site_symmetry_multiplicity
 _atom_site_fract_x
 _atom_site_fract_y
 _atom_site_fract_z
 _atom_site_occupancy
  Er  Er0  1  0.061822  0.062664  0.437757  1
  Er  Er1  1  0.653118  0.040646  0.653118  1
  Er  Er2  1  0.187781  0.811841  0.187781  1
  Er  Er3  1  0.437757  0.062664  0.437757  1
  Er  Er4  1  0.194247  0.182869  0.811441  1
  Er  Er5  1  0.648276  0.657803  0.648276  1
  Er  Er6  1  0.045644  0.657803  0.648276  1
  Er  Er7  1  0.437757  0.062664  0.061822  1
  Er  Er8  1  0.648276  0.657803  0.045644  1
  Er  Er9  1  0.187781  0.811841  0.812597  1
  Er  Er10  1  0.811441  0.182869  0.811441  1
  Er  Er11  1  0.811441  0.182869  0.194247  1
  Er  Er12  1  0.812597  0.811841  0.187781  1
  Er  Er13  1  0.061965  0.437606  0.438465  1
  Er  Er14  1  0.438465  0.437606  0.061965  1
  Er  Er15  1  0.061965  0.437606  0.061965  1
  In  In16  1  0.748046  0.416333  0.417811  1
  In  In17  1  0.417811  0.416333  0.748046  1
  In  In18  1  0.416620  0.750138  0.416620  1
  In  In19  1  0.417811  0.416333  0.417811  1
  Ni  Ni20  1  0.857646  0.858140  0.857646  1
  Ni  Ni21  1  0.426568  0.858140  0.857646  1
  Ni  Ni22  1  0.857646  0.858140  0.426568  1
  Pd  Pd23  1  0.857519  0.427443  0.857519  1
