# generated using pymatgen
data_Ca3Sn2PdRh
_symmetry_space_group_name_H-M   'P 1'
_cell_length_a   5.91949600
_cell_length_b   8.41221100
_cell_length_c   14.09314800
_cell_angle_alpha   90.00000000
_cell_angle_beta   90.00000000
_cell_angle_gamma   90.00000000
_symmetry_Int_Tables_number   1
_chemical_formula_structural   Ca3Sn2PdRh
_chemical_formula_sum   'Ca12 Sn8 Pd4 Rh4'
_cell_volume   701.78309353
_cell_formula_units_Z   4
loop_
 _symmetry_equiv_pos_site_id
 _symmetry_equiv_pos_as_xyz
  1  'x, y, z'
loop_
 _atom_site_type_symbol
 _atom_site_label
 _atom_site_symmetry_multiplicity
 _atom_site_fract_x
 _atom_site_fract_y
 _atom_site_fract_z
 _atom_site_occupancy
  Ca  Ca0  1  0.149195  0.393782  0.593596  1
  Ca  Ca1  1  0.850805  0.606218  0.093596  1
  Ca  Ca2  1  0.149195  0.106218  0.406404  1
  Ca  Ca3  1  0.850805  0.893782  0.906404  1
  Ca  Ca4  1  0.843668  0.600100  0.402276  1
  Ca  Ca5  1  0.156332  0.399900  0.902276  1
  Ca  Ca6  1  0.843668  0.899900  0.597724  1
  Ca  Ca7  1  0.156332  0.100100  0.097724  1
  Ca  Ca8  1  0.632132  0.251108  0.750547  1
  Ca  Ca9  1  0.367868  0.748892  0.250547  1
  Ca  Ca10  1  0.632132  0.248892  0.249453  1
  Ca  Ca11  1  0.367868  0.751108  0.749453  1
  Sn  Sn12  1  0.633984  0.250000  0.500000  1
  Sn  Sn13  1  0.366016  0.750000  0.000000  1
  Sn  Sn14  1  0.351892  0.750000  0.500000  1
  Sn  Sn15  1  0.648108  0.250000  0.000000  1
  Sn  Sn16  1  0.135480  0.098871  0.747436  1
  Sn  Sn17  1  0.864520  0.901129  0.247436  1
  Sn  Sn18  1  0.135480  0.401129  0.252564  1
  Sn  Sn19  1  0.864520  0.598871  0.752564  1
  Pd  Pd20  1  0.630530  0.962135  0.407496  1
  Pd  Pd21  1  0.369470  0.037865  0.907496  1
  Pd  Pd22  1  0.630530  0.537865  0.592504  1
  Pd  Pd23  1  0.369470  0.462135  0.092504  1
  Rh  Rh24  1  0.369032  0.033501  0.589779  1
  Rh  Rh25  1  0.630968  0.966499  0.089779  1
  Rh  Rh26  1  0.369032  0.466499  0.410221  1
  Rh  Rh27  1  0.630968  0.533501  0.910221  1
