# generated using pymatgen
data_Hf6Ga6IrRuPt4
_symmetry_space_group_name_H-M   'P 1'
_cell_length_a   7.31448900
_cell_length_b   7.31448727
_cell_length_c   6.74351900
_cell_angle_alpha   90.00000000
_cell_angle_beta   90.00000000
_cell_angle_gamma   120.00001236
_symmetry_Int_Tables_number   1
_chemical_formula_structural   Hf6Ga6IrRuPt4
_chemical_formula_sum   'Hf6 Ga6 Ir1 Ru1 Pt4'
_cell_volume   312.45324718
_cell_formula_units_Z   1
loop_
 _symmetry_equiv_pos_site_id
 _symmetry_equiv_pos_as_xyz
  1  'x, y, z'
loop_
 _atom_site_type_symbol
 _atom_site_label
 _atom_site_symmetry_multiplicity
 _atom_site_fract_x
 _atom_site_fract_y
 _atom_site_fract_z
 _atom_site_occupancy
  Hf  Hf0  1  0.396563  0.385988  0.247888  1
  Hf  Hf1  1  0.613072  0.009518  0.752106  1
  Hf  Hf2  1  0.396445  0.386928  0.752106  1
  Hf  Hf3  1  0.990482  0.603555  0.752106  1
  Hf  Hf4  1  0.989425  0.603437  0.247888  1
  Hf  Hf5  1  0.614012  0.010575  0.247888  1
  Ga  Ga6  1  0.274975  0.000210  0.999929  1
  Ga  Ga7  1  0.273156  0.997892  0.500064  1
  Ga  Ga8  1  0.002108  0.275265  0.500064  1
  Ga  Ga9  1  0.999790  0.274767  0.999929  1
  Ga  Ga10  1  0.725233  0.725025  0.999929  1
  Ga  Ga11  1  0.724735  0.726844  0.500064  1
  Ir  Ir12  1  0.666667  0.333333  0.500460  1
  Ru  Ru13  1  0.666667  0.333333  0.999602  1
  Pt  Pt14  1  0.000000  0.000000  0.749258  1
  Pt  Pt15  1  0.333333  0.666667  0.001192  1
  Pt  Pt16  1  0.333333  0.666667  0.498806  1
  Pt  Pt17  1  0.000000  0.000000  0.250719  1
