# generated using pymatgen
data_Tb2Gd4YRhO12
_symmetry_space_group_name_H-M   'P 1'
_cell_length_a   6.71065100
_cell_length_b   6.71117919
_cell_length_c   6.71220092
_cell_angle_alpha   95.13325788
_cell_angle_beta   95.15775008
_cell_angle_gamma   95.15435290
_symmetry_Int_Tables_number   1
_chemical_formula_structural   Tb2Gd4YRhO12
_chemical_formula_sum   'Tb2 Gd4 Y1 Rh1 O12'
_cell_volume   298.39829567
_cell_formula_units_Z   1
loop_
 _symmetry_equiv_pos_site_id
 _symmetry_equiv_pos_as_xyz
  1  'x, y, z'
loop_
 _atom_site_type_symbol
 _atom_site_label
 _atom_site_symmetry_multiplicity
 _atom_site_fract_x
 _atom_site_fract_y
 _atom_site_fract_z
 _atom_site_occupancy
  Tb  Tb0  1  0.733839  0.912069  0.426420  1
  Tb  Tb1  1  0.427258  0.734597  0.912597  1
  Gd  Gd2  1  0.088125  0.573508  0.266120  1
  Gd  Gd3  1  0.911652  0.427162  0.733236  1
  Gd  Gd4  1  0.572635  0.266324  0.088224  1
  Gd  Gd5  1  0.266426  0.087330  0.572895  1
  Y  Y6  1  0.999252  0.999309  0.999579  1
  Rh  Rh7  1  0.499999  0.500110  0.499714  1
  O  O8  1  0.063378  0.913699  0.318802  1
  O  O9  1  0.680404  0.932499  0.087969  1
  O  O10  1  0.457639  0.801081  0.585858  1
  O  O11  1  0.089253  0.681458  0.934158  1
  O  O12  1  0.800415  0.586687  0.454982  1
  O  O13  1  0.416164  0.546436  0.197815  1
  O  O14  1  0.583251  0.457395  0.801382  1
  O  O15  1  0.199019  0.415721  0.545421  1
  O  O16  1  0.913347  0.317935  0.065025  1
  O  O17  1  0.546502  0.197791  0.415965  1
  O  O18  1  0.318611  0.063499  0.913390  1
  O  O19  1  0.932832  0.085391  0.680447  1
