# generated using pymatgen
data_SrEuSiN3
_symmetry_space_group_name_H-M   'P 1'
_cell_length_a   6.04055988
_cell_length_b   6.04056109
_cell_length_c   11.88831100
_cell_angle_alpha   90.00000000
_cell_angle_beta   90.00000000
_cell_angle_gamma   126.16414549
_symmetry_Int_Tables_number   1
_chemical_formula_structural   SrEuSiN3
_chemical_formula_sum   'Sr4 Eu4 Si4 N12'
_cell_volume   350.20761501
_cell_formula_units_Z   4
loop_
 _symmetry_equiv_pos_site_id
 _symmetry_equiv_pos_as_xyz
  1  'x, y, z'
loop_
 _atom_site_type_symbol
 _atom_site_label
 _atom_site_symmetry_multiplicity
 _atom_site_fract_x
 _atom_site_fract_y
 _atom_site_fract_z
 _atom_site_occupancy
  Sr  Sr0  1  0.048062  0.951938  0.854954  1
  Sr  Sr1  1  0.951938  0.048062  0.145046  1
  Sr  Sr2  1  0.451938  0.548062  0.354954  1
  Sr  Sr3  1  0.548062  0.451938  0.645046  1
  Eu  Eu4  1  0.643798  0.356202  0.074610  1
  Eu  Eu5  1  0.356202  0.643798  0.925390  1
  Eu  Eu6  1  0.856202  0.143798  0.574610  1
  Eu  Eu7  1  0.143798  0.856202  0.425390  1
  Si  Si8  1  0.736228  0.263772  0.834954  1
  Si  Si9  1  0.263772  0.736228  0.165046  1
  Si  Si10  1  0.763772  0.236228  0.334954  1
  Si  Si11  1  0.236228  0.763772  0.665046  1
  N  N12  1  0.577272  0.422728  0.873962  1
  N  N13  1  0.422728  0.577272  0.126038  1
  N  N14  1  0.922728  0.077272  0.373962  1
  N  N15  1  0.077272  0.922728  0.626038  1
  N  N16  1  0.522564  0.977436  0.750000  1
  N  N17  1  0.977436  0.522564  0.250000  1
  N  N18  1  0.477436  0.022564  0.250000  1
  N  N19  1  0.022564  0.477436  0.750000  1
  N  N20  1  0.831834  0.168166  0.953077  1
  N  N21  1  0.168166  0.831834  0.046923  1
  N  N22  1  0.668166  0.331834  0.453077  1
  N  N23  1  0.331834  0.668166  0.546923  1
