# generated using pymatgen
data_GdY5TaO12
_symmetry_space_group_name_H-M   'P 1'
_cell_length_a   6.48756605
_cell_length_b   6.53992988
_cell_length_c   6.51184966
_cell_angle_alpha   99.09027598
_cell_angle_beta   98.53731352
_cell_angle_gamma   98.59559717
_symmetry_Int_Tables_number   1
_chemical_formula_structural   GdY5TaO12
_chemical_formula_sum   'Gd1 Y5 Ta1 O12'
_cell_volume   265.52984028
_cell_formula_units_Z   1
loop_
 _symmetry_equiv_pos_site_id
 _symmetry_equiv_pos_as_xyz
  1  'x, y, z'
loop_
 _atom_site_type_symbol
 _atom_site_label
 _atom_site_symmetry_multiplicity
 _atom_site_fract_x
 _atom_site_fract_y
 _atom_site_fract_z
 _atom_site_occupancy
  Gd  Gd0  1  0.139952  0.607630  0.304678  1
  Y  Y1  1  0.860526  0.387552  0.698312  1
  Y  Y2  1  0.611373  0.296159  0.137554  1
  Y  Y3  1  0.304113  0.139683  0.610194  1
  Y  Y4  1  0.697264  0.865783  0.391606  1
  Y  Y5  1  0.388764  0.696880  0.856482  1
  Ta  Ta6  1  0.000433  0.997796  0.999559  1
  O  O7  1  0.927014  0.040027  0.697688  1
  O  O8  1  0.957050  0.301041  0.070348  1
  O  O9  1  0.589542  0.181682  0.436913  1
  O  O10  1  0.823836  0.565411  0.410423  1
  O  O11  1  0.302652  0.072646  0.959083  1
  O  O12  1  0.563441  0.414906  0.826121  1
  O  O13  1  0.435565  0.587839  0.178492  1
  O  O14  1  0.696238  0.927657  0.042000  1
  O  O15  1  0.176169  0.434738  0.588195  1
  O  O16  1  0.413359  0.823445  0.564676  1
  O  O17  1  0.040584  0.697894  0.925376  1
  O  O18  1  0.072125  0.961232  0.302302  1
