# generated using pymatgen
data_IrAuF12
_symmetry_space_group_name_H-M   'P 1'
_cell_length_a   5.13198100
_cell_length_b   8.86663500
_cell_length_c   9.73535200
_cell_angle_alpha   90.00000000
_cell_angle_beta   90.00000000
_cell_angle_gamma   90.00000000
_symmetry_Int_Tables_number   1
_chemical_formula_structural   IrAuF12
_chemical_formula_sum   'Ir2 Au2 F24'
_cell_volume   442.99163911
_cell_formula_units_Z   2
loop_
 _symmetry_equiv_pos_site_id
 _symmetry_equiv_pos_as_xyz
  1  'x, y, z'
loop_
 _atom_site_type_symbol
 _atom_site_label
 _atom_site_symmetry_multiplicity
 _atom_site_fract_x
 _atom_site_fract_y
 _atom_site_fract_z
 _atom_site_occupancy
  Ir  Ir0  1  0.406255  0.750000  0.126835  1
  Ir  Ir1  1  0.093745  0.750000  0.626835  1
  Au  Au2  1  0.594470  0.250000  0.872978  1
  Au  Au3  1  0.905530  0.250000  0.372978  1
  F  F4  1  0.249920  0.601653  0.518022  1
  F  F5  1  0.250080  0.898347  0.018022  1
  F  F6  1  0.939085  0.898259  0.736044  1
  F  F7  1  0.206248  0.250000  0.491713  1
  F  F8  1  0.753929  0.095607  0.985615  1
  F  F9  1  0.560915  0.898259  0.236044  1
  F  F10  1  0.293752  0.250000  0.991713  1
  F  F11  1  0.249920  0.898347  0.518022  1
  F  F12  1  0.746071  0.404393  0.485615  1
  F  F13  1  0.434028  0.403753  0.760483  1
  F  F14  1  0.753929  0.404393  0.985615  1
  F  F15  1  0.802070  0.750000  0.511389  1
  F  F16  1  0.697930  0.750000  0.011389  1
  F  F17  1  0.250080  0.601653  0.018022  1
  F  F18  1  0.434028  0.096247  0.760483  1
  F  F19  1  0.065972  0.403753  0.260483  1
  F  F20  1  0.603363  0.250000  0.254552  1
  F  F21  1  0.560915  0.601741  0.236044  1
  F  F22  1  0.896637  0.250000  0.754552  1
  F  F23  1  0.113976  0.750000  0.242203  1
  F  F24  1  0.065972  0.096247  0.260483  1
  F  F25  1  0.939085  0.601741  0.736044  1
  F  F26  1  0.386024  0.750000  0.742203  1
  F  F27  1  0.746071  0.095607  0.485615  1
