# generated using pymatgen
data_Ac2B2Rh5
_symmetry_space_group_name_H-M   'P 1'
_cell_length_a   5.66658400
_cell_length_b   5.66658426
_cell_length_c   21.73826400
_cell_angle_alpha   90.00000000
_cell_angle_beta   90.00000000
_cell_angle_gamma   119.99629748
_symmetry_Int_Tables_number   1
_chemical_formula_structural   Ac2B2Rh5
_chemical_formula_sum   'Ac8 B8 Rh20'
_cell_volume   604.52515087
_cell_formula_units_Z   4
loop_
 _symmetry_equiv_pos_site_id
 _symmetry_equiv_pos_as_xyz
  1  'x, y, z'
loop_
 _atom_site_type_symbol
 _atom_site_label
 _atom_site_symmetry_multiplicity
 _atom_site_fract_x
 _atom_site_fract_y
 _atom_site_fract_z
 _atom_site_occupancy
  Ac  Ac0  1  0.666676  0.333324  0.521363  1
  Ac  Ac1  1  0.333324  0.666676  0.478637  1
  Ac  Ac2  1  0.333324  0.666676  0.021363  1
  Ac  Ac3  1  0.666676  0.333324  0.978637  1
  Ac  Ac4  1  0.666619  0.333381  0.674681  1
  Ac  Ac5  1  0.333381  0.666619  0.325319  1
  Ac  Ac6  1  0.333381  0.666619  0.174681  1
  Ac  Ac7  1  0.666619  0.333381  0.825319  1
  B  B8  1  0.999975  0.000025  0.678027  1
  B  B9  1  0.000025  0.999975  0.321973  1
  B  B10  1  0.000025  0.999975  0.178027  1
  B  B11  1  0.999975  0.000025  0.821973  1
  B  B12  1  0.666686  0.333314  0.325776  1
  B  B13  1  0.333314  0.666686  0.674224  1
  B  B14  1  0.333314  0.666686  0.825776  1
  B  B15  1  0.666686  0.333314  0.174224  1
  Rh  Rh16  1  0.000000  0.000000  0.500000  1
  Rh  Rh17  1  0.000000  0.000000  0.000000  1
  Rh  Rh18  1  0.167469  0.335008  0.750000  1
  Rh  Rh19  1  0.167384  0.832616  0.750000  1
  Rh  Rh20  1  0.664992  0.832531  0.750000  1
  Rh  Rh21  1  0.832531  0.664992  0.250000  1
  Rh  Rh22  1  0.832616  0.167384  0.250000  1
  Rh  Rh23  1  0.335008  0.167469  0.250000  1
  Rh  Rh24  1  0.162777  0.325716  0.612170  1
  Rh  Rh25  1  0.162791  0.837209  0.612177  1
  Rh  Rh26  1  0.674284  0.837223  0.612170  1
  Rh  Rh27  1  0.837223  0.674284  0.387830  1
  Rh  Rh28  1  0.837209  0.162791  0.387823  1
  Rh  Rh29  1  0.325716  0.162777  0.387830  1
  Rh  Rh30  1  0.837223  0.674284  0.112170  1
  Rh  Rh31  1  0.837209  0.162791  0.112177  1
  Rh  Rh32  1  0.325716  0.162777  0.112170  1
  Rh  Rh33  1  0.162777  0.325716  0.887830  1
  Rh  Rh34  1  0.162791  0.837209  0.887823  1
  Rh  Rh35  1  0.674284  0.837223  0.887830  1
