# generated using pymatgen
data_YbSc6NiBr12
_symmetry_space_group_name_H-M   'P 1'
_cell_length_a   8.77374711
_cell_length_b   8.77374666
_cell_length_c   8.77374648
_cell_angle_alpha   106.59757274
_cell_angle_beta   106.59757840
_cell_angle_gamma   106.59757217
_symmetry_Int_Tables_number   1
_chemical_formula_structural   YbSc6NiBr12
_chemical_formula_sum   'Yb1 Sc6 Ni1 Br12'
_cell_volume   568.53377071
_cell_formula_units_Z   1
loop_
 _symmetry_equiv_pos_site_id
 _symmetry_equiv_pos_as_xyz
  1  'x, y, z'
loop_
 _atom_site_type_symbol
 _atom_site_label
 _atom_site_symmetry_multiplicity
 _atom_site_fract_x
 _atom_site_fract_y
 _atom_site_fract_z
 _atom_site_occupancy
  Yb  Yb0  1  0.500000  0.500000  0.500000  1
  Sc  Sc1  1  0.096787  0.023862  0.301903  1
  Sc  Sc2  1  0.023862  0.301903  0.096787  1
  Sc  Sc3  1  0.301903  0.096787  0.023862  1
  Sc  Sc4  1  0.903212  0.976138  0.698097  1
  Sc  Sc5  1  0.976138  0.698097  0.903212  1
  Sc  Sc6  1  0.698097  0.903212  0.976138  1
  Ni  Ni7  1  0.000000  0.000000  0.000000  1
  Br  Br8  1  0.074070  0.681395  0.218932  1
  Br  Br9  1  0.681395  0.218932  0.074070  1
  Br  Br10  1  0.218932  0.074070  0.681395  1
  Br  Br11  1  0.925930  0.318605  0.781068  1
  Br  Br12  1  0.318605  0.781068  0.925930  1
  Br  Br13  1  0.781068  0.925930  0.318605  1
  Br  Br14  1  0.445470  0.140938  0.369644  1
  Br  Br15  1  0.140938  0.369644  0.445470  1
  Br  Br16  1  0.369644  0.445470  0.140938  1
  Br  Br17  1  0.554530  0.859062  0.630356  1
  Br  Br18  1  0.859062  0.630356  0.554530  1
  Br  Br19  1  0.630356  0.554530  0.859062  1
