# generated using pymatgen
data_Er3Tm17(SnPb)8
_symmetry_space_group_name_H-M   'P 1'
_cell_length_a   8.05306412
_cell_length_b   8.10953303
_cell_length_c   15.38138420
_cell_angle_alpha   90.00478725
_cell_angle_beta   90.01767991
_cell_angle_gamma   89.99123648
_symmetry_Int_Tables_number   1
_chemical_formula_structural   Er3Tm17(SnPb)8
_chemical_formula_sum   'Er3 Tm17 Sn8 Pb8'
_cell_volume   1004.50568021
_cell_formula_units_Z   1
loop_
 _symmetry_equiv_pos_site_id
 _symmetry_equiv_pos_as_xyz
  1  'x, y, z'
loop_
 _atom_site_type_symbol
 _atom_site_label
 _atom_site_symmetry_multiplicity
 _atom_site_fract_x
 _atom_site_fract_y
 _atom_site_fract_z
 _atom_site_occupancy
  Er  Er0  1  0.964606  0.823509  0.397493  1
  Er  Er1  1  0.535339  0.323527  0.602593  1
  Er  Er2  1  0.035396  0.176441  0.897320  1
  Tm  Tm3  1  0.378356  0.839765  0.876739  1
  Tm  Tm4  1  0.878303  0.660204  0.623310  1
  Tm  Tm5  1  0.621697  0.160179  0.376684  1
  Tm  Tm6  1  0.121715  0.339837  0.123296  1
  Tm  Tm7  1  0.621700  0.160180  0.123268  1
  Tm  Tm8  1  0.121736  0.339806  0.376715  1
  Tm  Tm9  1  0.378287  0.839788  0.623276  1
  Tm  Tm10  1  0.878346  0.660237  0.876719  1
  Tm  Tm11  1  0.535557  0.323606  0.897294  1
  Tm  Tm12  1  0.035528  0.176401  0.602714  1
  Tm  Tm13  1  0.464492  0.676378  0.397314  1
  Tm  Tm14  1  0.964457  0.823582  0.102706  1
  Tm  Tm15  1  0.464462  0.676404  0.102649  1
  Tm  Tm16  1  0.209177  0.504138  0.750019  1
  Tm  Tm17  1  0.709176  0.995865  0.749990  1
  Tm  Tm18  1  0.790763  0.495915  0.249970  1
  Tm  Tm19  1  0.290868  0.004092  0.249953  1
  Sn  Sn20  1  0.574097  0.623224  0.750001  1
  Sn  Sn21  1  0.074090  0.876743  0.750000  1
  Sn  Sn22  1  0.425923  0.376884  0.249967  1
  Sn  Sn23  1  0.925935  0.123266  0.249999  1
  Sn  Sn24  1  0.344301  0.149744  0.750132  1
  Sn  Sn25  1  0.844297  0.350269  0.749874  1
  Sn  Sn26  1  0.655490  0.850011  0.249922  1
  Sn  Sn27  1  0.155814  0.649746  0.249810  1
  Pb  Pb28  1  0.281972  0.033360  0.041533  1
  Pb  Pb29  1  0.781820  0.466319  0.458521  1
  Pb  Pb30  1  0.718192  0.966344  0.541508  1
  Pb  Pb31  1  0.218458  0.533825  0.958675  1
  Pb  Pb32  1  0.717808  0.966046  0.958712  1
  Pb  Pb33  1  0.217753  0.533976  0.541256  1
  Pb  Pb34  1  0.282290  0.034005  0.458764  1
  Pb  Pb35  1  0.781798  0.466384  0.041305  1
