# generated using pymatgen
data_Tc5Pd8W
_symmetry_space_group_name_H-M   'P 1'
_cell_length_a   7.43479394
_cell_length_b   7.44876398
_cell_length_c   4.40723600
_cell_angle_alpha   90.00000000
_cell_angle_beta   90.00000000
_cell_angle_gamma   59.97784689
_symmetry_Int_Tables_number   1
_chemical_formula_structural   Tc5Pd8W
_chemical_formula_sum   'Tc5 Pd8 W1'
_cell_volume   211.32608019
_cell_formula_units_Z   1
loop_
 _symmetry_equiv_pos_site_id
 _symmetry_equiv_pos_as_xyz
  1  'x, y, z'
loop_
 _atom_site_type_symbol
 _atom_site_label
 _atom_site_symmetry_multiplicity
 _atom_site_fract_x
 _atom_site_fract_y
 _atom_site_fract_z
 _atom_site_occupancy
  Tc  Tc0  1  0.300052  0.569887  0.000000  1
  Tc  Tc1  1  0.426654  0.844205  0.000000  1
  Tc  Tc2  1  0.521509  0.394672  0.500000  1
  Tc  Tc3  1  0.649929  0.671691  0.500000  1
  Tc  Tc4  1  0.251183  0.794924  0.500000  1
  Pd  Pd5  1  0.571700  0.146720  0.000000  1
  Pd  Pd6  1  0.141610  0.286736  0.000000  1
  Pd  Pd7  1  0.853188  0.714204  0.000000  1
  Pd  Pd8  1  0.006228  0.993884  0.000000  1
  Pd  Pd9  1  0.380732  0.089756  0.500000  1
  Pd  Pd10  1  0.948756  0.241517  0.500000  1
  Pd  Pd11  1  0.099788  0.525233  0.500000  1
  Pd  Pd12  1  0.809650  0.953060  0.500000  1
  W  W13  1  0.705581  0.440076  0.000000  1
