# generated using pymatgen
data_SmAlFe4Re6Mo
_symmetry_space_group_name_H-M   'P 1'
_cell_length_a   4.86342945
_cell_length_b   6.75211889
_cell_length_c   6.76534663
_cell_angle_alpha   81.36669261
_cell_angle_beta   68.93437348
_cell_angle_gamma   68.89112879
_symmetry_Int_Tables_number   1
_chemical_formula_structural   SmAlFe4Re6Mo
_chemical_formula_sum   'Sm1 Al1 Fe4 Re6 Mo1'
_cell_volume   193.35033060
_cell_formula_units_Z   1
loop_
 _symmetry_equiv_pos_site_id
 _symmetry_equiv_pos_as_xyz
  1  'x, y, z'
loop_
 _atom_site_type_symbol
 _atom_site_label
 _atom_site_symmetry_multiplicity
 _atom_site_fract_x
 _atom_site_fract_y
 _atom_site_fract_z
 _atom_site_occupancy
  Sm  Sm0  1  0.993170  0.006350  0.007310  1
  Al  Al1  1  0.276097  0.224122  0.223684  1
  Fe  Fe2  1  0.003639  0.998579  0.489847  1
  Fe  Fe3  1  0.507935  0.998579  0.489847  1
  Fe  Fe4  1  0.502204  0.494053  0.000893  1
  Fe  Fe5  1  0.002851  0.494053  0.000893  1
  Re  Re6  1  0.999414  0.645304  0.355869  1
  Re  Re7  1  0.634618  0.365349  0.365416  1
  Re  Re8  1  0.354157  0.645146  0.646541  1
  Re  Re9  1  0.505061  0.777059  0.212819  1
  Re  Re10  1  0.504642  0.210810  0.779906  1
  Re  Re11  1  0.715864  0.784629  0.783644  1
  Mo  Mo12  1  0.000348  0.355969  0.643334  1
