# generated using pymatgen
data_La2Pa2P7Ir8
_symmetry_space_group_name_H-M   'P 1'
_cell_length_a   3.98743400
_cell_length_b   12.77894667
_cell_length_c   13.29717057
_cell_angle_alpha   81.01500034
_cell_angle_beta   90.00000000
_cell_angle_gamma   90.00000000
_symmetry_Int_Tables_number   1
_chemical_formula_structural   La2Pa2P7Ir8
_chemical_formula_sum   'La4 Pa4 P14 Ir16'
_cell_volume   669.24590974
_cell_formula_units_Z   2
loop_
 _symmetry_equiv_pos_site_id
 _symmetry_equiv_pos_as_xyz
  1  'x, y, z'
loop_
 _atom_site_type_symbol
 _atom_site_label
 _atom_site_symmetry_multiplicity
 _atom_site_fract_x
 _atom_site_fract_y
 _atom_site_fract_z
 _atom_site_occupancy
  La  La0  1  0.750000  0.717638  0.899498  1
  La  La1  1  0.250000  0.106642  0.788093  1
  La  La2  1  0.750000  0.893358  0.211907  1
  La  La3  1  0.250000  0.282362  0.100502  1
  Pa  Pa4  1  0.750000  0.790493  0.560435  1
  Pa  Pa5  1  0.250000  0.209507  0.439565  1
  Pa  Pa6  1  0.750000  0.486368  0.709214  1
  Pa  Pa7  1  0.250000  0.513632  0.290786  1
  P  P8  1  0.250000  0.908912  0.408173  1
  P  P9  1  0.750000  0.467913  0.127686  1
  P  P10  1  0.250000  0.532087  0.872314  1
  P  P11  1  0.750000  0.091088  0.591827  1
  P  P12  1  0.250000  0.744791  0.082682  1
  P  P13  1  0.750000  0.255209  0.917318  1
  P  P14  1  0.750000  0.160119  0.281791  1
  P  P15  1  0.250000  0.839881  0.718209  1
  P  P16  1  0.250000  0.051792  0.100663  1
  P  P17  1  0.750000  0.948208  0.899337  1
  P  P18  1  0.250000  0.318841  0.688314  1
  P  P19  1  0.750000  0.681159  0.311686  1
  P  P20  1  0.250000  0.606608  0.561715  1
  P  P21  1  0.750000  0.393392  0.438285  1
  Ir  Ir22  1  0.250000  0.989387  0.573684  1
  Ir  Ir23  1  0.750000  0.010613  0.426316  1
  Ir  Ir24  1  0.250000  0.656828  0.719918  1
  Ir  Ir25  1  0.750000  0.343172  0.280082  1
  Ir  Ir26  1  0.250000  0.550351  0.050776  1
  Ir  Ir27  1  0.750000  0.449649  0.949224  1
  Ir  Ir28  1  0.250000  0.064830  0.276549  1
  Ir  Ir29  1  0.750000  0.935170  0.723451  1
  Ir  Ir30  1  0.250000  0.424685  0.527607  1
  Ir  Ir31  1  0.750000  0.575315  0.472393  1
  Ir  Ir32  1  0.250000  0.918022  0.994101  1
  Ir  Ir33  1  0.750000  0.081978  0.005899  1
  Ir  Ir34  1  0.250000  0.726893  0.400866  1
  Ir  Ir35  1  0.750000  0.273107  0.599134  1
  Ir  Ir36  1  0.250000  0.344110  0.856617  1
  Ir  Ir37  1  0.750000  0.655890  0.143383  1
