# generated using pymatgen
data_Tm12InGaCo4
_symmetry_space_group_name_H-M   'P 1'
_cell_length_a   8.20441046
_cell_length_b   8.20440896
_cell_length_c   8.20440964
_cell_angle_alpha   111.78728724
_cell_angle_beta   110.04611400
_cell_angle_gamma   106.62233050
_symmetry_Int_Tables_number   1
_chemical_formula_structural   Tm12InGaCo4
_chemical_formula_sum   'Tm12 In1 Ga1 Co4'
_cell_volume   424.24170582
_cell_formula_units_Z   1
loop_
 _symmetry_equiv_pos_site_id
 _symmetry_equiv_pos_as_xyz
  1  'x, y, z'
loop_
 _atom_site_type_symbol
 _atom_site_label
 _atom_site_symmetry_multiplicity
 _atom_site_fract_x
 _atom_site_fract_y
 _atom_site_fract_z
 _atom_site_occupancy
  Tm  Tm0  1  0.565515  0.268965  0.296550  1
  Tm  Tm1  1  0.183325  0.217138  0.400463  1
  Tm  Tm2  1  0.183325  0.782862  0.966189  1
  Tm  Tm3  1  0.680442  0.487811  0.807369  1
  Tm  Tm4  1  0.680442  0.873074  0.192631  1
  Tm  Tm5  1  0.972415  0.268965  0.703450  1
  Tm  Tm6  1  0.027585  0.731035  0.296550  1
  Tm  Tm7  1  0.319558  0.126926  0.807369  1
  Tm  Tm8  1  0.319558  0.512189  0.192631  1
  Tm  Tm9  1  0.816675  0.217138  0.033811  1
  Tm  Tm10  1  0.816675  0.782862  0.599537  1
  Tm  Tm11  1  0.434485  0.731035  0.703450  1
  In  In12  1  0.500000  0.000000  0.500000  1
  Ga  Ga13  1  0.000000  0.500000  0.500000  1
  Co  Co14  1  0.886147  0.886147  0.000000  1
  Co  Co15  1  0.362815  0.500000  0.862815  1
  Co  Co16  1  0.637185  0.500000  0.137185  1
  Co  Co17  1  0.113853  0.113853  0.000000  1
