# generated using pymatgen
data_Tm20Os5I24
_symmetry_space_group_name_H-M   'P 1'
_cell_length_a   11.91830838
_cell_length_b   12.71154979
_cell_length_c   14.31056000
_cell_angle_alpha   99.77307082
_cell_angle_beta   107.72511305
_cell_angle_gamma   109.10491301
_symmetry_Int_Tables_number   1
_chemical_formula_structural   Tm20Os5I24
_chemical_formula_sum   'Tm20 Os5 I24'
_cell_volume   1861.92934038
_cell_formula_units_Z   1
loop_
 _symmetry_equiv_pos_site_id
 _symmetry_equiv_pos_as_xyz
  1  'x, y, z'
loop_
 _atom_site_type_symbol
 _atom_site_label
 _atom_site_symmetry_multiplicity
 _atom_site_fract_x
 _atom_site_fract_y
 _atom_site_fract_z
 _atom_site_occupancy
  Tm  Tm0  1  0.495205  0.023956  0.706130  1
  Tm  Tm1  1  0.504795  0.976044  0.293870  1
  Tm  Tm2  1  0.735303  0.998633  0.642732  1
  Tm  Tm3  1  0.264697  0.001367  0.357268  1
  Tm  Tm4  1  0.814261  0.165787  0.898639  1
  Tm  Tm5  1  0.185739  0.834213  0.101361  1
  Tm  Tm6  1  0.481992  0.221042  0.576727  1
  Tm  Tm7  1  0.518008  0.778958  0.423273  1
  Tm  Tm8  1  0.722078  0.196678  0.513899  1
  Tm  Tm9  1  0.277922  0.803322  0.486101  1
  Tm  Tm10  1  0.797158  0.448880  0.715043  1
  Tm  Tm11  1  0.202842  0.551120  0.284957  1
  Tm  Tm12  1  0.975643  0.289522  0.761311  1
  Tm  Tm13  1  0.024357  0.710478  0.238689  1
  Tm  Tm14  1  0.635386  0.325338  0.851196  1
  Tm  Tm15  1  0.364614  0.674662  0.148804  1
  Tm  Tm16  1  0.115659  0.588005  0.903574  1
  Tm  Tm17  1  0.884341  0.411995  0.096426  1
  Tm  Tm18  1  0.872802  0.614009  0.968777  1
  Tm  Tm19  1  0.127198  0.385991  0.031223  1
  Os  Os20  1  0.500000  0.000000  0.500000  1
  Os  Os21  1  0.707820  0.209923  0.709251  1
  Os  Os22  1  0.292180  0.790077  0.290749  1
  Os  Os23  1  0.903852  0.405433  0.904387  1
  Os  Os24  1  0.096148  0.594567  0.095613  1
  I  I25  1  0.262182  0.822341  0.697038  1
  I  I26  1  0.737818  0.177659  0.302962  1
  I  I27  1  0.762076  0.771844  0.567151  1
  I  I28  1  0.237924  0.228156  0.432849  1
  I  I29  1  0.661602  0.895668  0.812381  1
  I  I30  1  0.338398  0.104332  0.187619  1
  I  I31  1  0.339030  0.179204  0.726927  1
  I  I32  1  0.660970  0.820796  0.273073  1
  I  I33  1  0.949774  0.117747  0.565259  1
  I  I34  1  0.050226  0.882253  0.434741  1
  I  I35  1  0.630533  0.398075  0.483351  1
  I  I36  1  0.369467  0.601925  0.516649  1
  I  I37  1  0.052446  0.123051  0.880757  1
  I  I38  1  0.947554  0.876949  0.119243  1
  I  I39  1  0.607725  0.165465  0.991002  1
  I  I40  1  0.392275  0.834535  0.008998  1
  I  I41  1  0.004491  0.237905  0.153916  1
  I  I42  1  0.995509  0.762095  0.846084  1
  I  I43  1  0.305324  0.466972  0.913373  1
  I  I44  1  0.694676  0.533028  0.086627  1
  I  I45  1  0.027656  0.478227  0.648506  1
  I  I46  1  0.972344  0.521773  0.351494  1
  I  I47  1  0.598762  0.530217  0.770096  1
  I  I48  1  0.401238  0.469783  0.229904  1
