# generated using pymatgen
data_Ho6Fe7Co16
_symmetry_space_group_name_H-M   'P 1'
_cell_length_a   8.37364003
_cell_length_b   8.37364057
_cell_length_c   8.37364000
_cell_angle_alpha   60.00000223
_cell_angle_beta   60.00000013
_cell_angle_gamma   59.99999991
_symmetry_Int_Tables_number   1
_chemical_formula_structural   Ho6Fe7Co16
_chemical_formula_sum   'Ho6 Fe7 Co16'
_cell_volume   415.17184868
_cell_formula_units_Z   1
loop_
 _symmetry_equiv_pos_site_id
 _symmetry_equiv_pos_as_xyz
  1  'x, y, z'
loop_
 _atom_site_type_symbol
 _atom_site_label
 _atom_site_symmetry_multiplicity
 _atom_site_fract_x
 _atom_site_fract_y
 _atom_site_fract_z
 _atom_site_occupancy
  Ho  Ho0  1  0.714275  0.714275  0.285725  1
  Ho  Ho1  1  0.285725  0.714275  0.285725  1
  Ho  Ho2  1  0.714275  0.285725  0.285725  1
  Ho  Ho3  1  0.285725  0.285725  0.714275  1
  Ho  Ho4  1  0.714275  0.285725  0.714275  1
  Ho  Ho5  1  0.285725  0.714275  0.714275  1
  Fe  Fe6  1  0.000000  0.000000  0.000000  1
  Fe  Fe7  1  0.000000  0.000000  0.500000  1
  Fe  Fe8  1  0.500000  0.000000  0.500000  1
  Fe  Fe9  1  0.000000  0.500000  0.500000  1
  Fe  Fe10  1  0.500000  0.500000  0.000000  1
  Fe  Fe11  1  0.000000  0.500000  0.000000  1
  Fe  Fe12  1  0.500000  0.000000  0.000000  1
  Co  Co13  1  0.876694  0.876694  0.369920  1
  Co  Co14  1  0.876694  0.369920  0.876694  1
  Co  Co15  1  0.369920  0.876694  0.876694  1
  Co  Co16  1  0.876694  0.876694  0.876694  1
  Co  Co17  1  0.123306  0.123306  0.630080  1
  Co  Co18  1  0.123306  0.630080  0.123306  1
  Co  Co19  1  0.630080  0.123306  0.123306  1
  Co  Co20  1  0.123306  0.123306  0.123306  1
  Co  Co21  1  0.676755  0.676755  0.969736  1
  Co  Co22  1  0.676755  0.969736  0.676755  1
  Co  Co23  1  0.969736  0.676755  0.676755  1
  Co  Co24  1  0.676755  0.676755  0.676755  1
  Co  Co25  1  0.323245  0.323245  0.030264  1
  Co  Co26  1  0.323245  0.030264  0.323245  1
  Co  Co27  1  0.030264  0.323245  0.323245  1
  Co  Co28  1  0.323245  0.323245  0.323245  1
