# generated using pymatgen
data_Tb4Ga10(IrPd)3
_symmetry_space_group_name_H-M   'P 1'
_cell_length_a   8.69009560
_cell_length_b   8.67282054
_cell_length_c   8.67281987
_cell_angle_alpha   141.80253239
_cell_angle_beta   108.47049194
_cell_angle_gamma   84.08078149
_symmetry_Int_Tables_number   1
_chemical_formula_structural   Tb4Ga10(IrPd)3
_chemical_formula_sum   'Tb4 Ga10 Ir3 Pd3'
_cell_volume   371.33494429
_cell_formula_units_Z   1
loop_
 _symmetry_equiv_pos_site_id
 _symmetry_equiv_pos_as_xyz
  1  'x, y, z'
loop_
 _atom_site_type_symbol
 _atom_site_label
 _atom_site_symmetry_multiplicity
 _atom_site_fract_x
 _atom_site_fract_y
 _atom_site_fract_z
 _atom_site_occupancy
  Tb  Tb0  1  0.419067  0.640019  0.779049  1
  Tb  Tb1  1  0.583477  0.357595  0.225881  1
  Tb  Tb2  1  0.130873  0.856646  0.274227  1
  Tb  Tb3  1  0.865402  0.143404  0.721998  1
  Ga  Ga4  1  0.736902  0.911974  0.824929  1
  Ga  Ga5  1  0.267374  0.090066  0.177308  1
  Ga  Ga6  1  0.911497  0.588901  0.322596  1
  Ga  Ga7  1  0.088247  0.409744  0.678503  1
  Ga  Ga8  1  0.202949  0.953648  0.746995  1
  Ga  Ga9  1  0.793749  0.545044  0.749858  1
  Ga  Ga10  1  0.793749  0.043891  0.248705  1
  Ga  Ga11  1  0.202949  0.455955  0.249302  1
  Ga  Ga12  1  0.499177  0.748411  0.245316  1
  Ga  Ga13  1  0.499177  0.253861  0.750766  1
  Ir  Ir14  1  0.555426  0.149587  0.405840  1
  Ir  Ir15  1  0.743110  0.649608  0.093501  1
  Ir  Ir16  1  0.260149  0.350330  0.909820  1
  Pd  Pd17  1  0.001317  0.749965  0.751411  1
  Pd  Pd18  1  0.001317  0.249906  0.251352  1
  Pd  Pd19  1  0.444092  0.851446  0.592645  1
