# generated using pymatgen
data_La8Zn8Ir3Pd5
_symmetry_space_group_name_H-M   'P 1'
_cell_length_a   4.10112000
_cell_length_b   7.53368150
_cell_length_c   16.89332213
_cell_angle_alpha   90.20416287
_cell_angle_beta   90.00000000
_cell_angle_gamma   90.00000000
_symmetry_Int_Tables_number   1
_chemical_formula_structural   La8Zn8Ir3Pd5
_chemical_formula_sum   'La8 Zn8 Ir3 Pd5'
_cell_volume   521.94175199
_cell_formula_units_Z   1
loop_
 _symmetry_equiv_pos_site_id
 _symmetry_equiv_pos_as_xyz
  1  'x, y, z'
loop_
 _atom_site_type_symbol
 _atom_site_label
 _atom_site_symmetry_multiplicity
 _atom_site_fract_x
 _atom_site_fract_y
 _atom_site_fract_z
 _atom_site_occupancy
  La  La0  1  0.750000  0.325043  0.436692  1
  La  La1  1  0.250000  0.053726  0.719955  1
  La  La2  1  0.250000  0.542689  0.787915  1
  La  La3  1  0.250000  0.671892  0.559258  1
  La  La4  1  0.750000  0.826133  0.053471  1
  La  La5  1  0.250000  0.169787  0.936170  1
  La  La6  1  0.750000  0.446500  0.219328  1
  La  La7  1  0.750000  0.960458  0.283991  1
  Zn  Zn8  1  0.250000  0.127888  0.151353  1
  Zn  Zn9  1  0.250000  0.999628  0.438702  1
  Zn  Zn10  1  0.750000  0.874401  0.852470  1
  Zn  Zn11  1  0.750000  0.001367  0.560850  1
  Zn  Zn12  1  0.250000  0.500668  0.059160  1
  Zn  Zn13  1  0.750000  0.373432  0.651749  1
  Zn  Zn14  1  0.750000  0.502229  0.938177  1
  Zn  Zn15  1  0.250000  0.622802  0.349553  1
  Ir  Ir16  1  0.750000  0.248891  0.815072  1
  Ir  Ir17  1  0.250000  0.249871  0.315880  1
  Ir  Ir18  1  0.250000  0.740600  0.934706  1
  Pd  Pd19  1  0.250000  0.237880  0.566210  1
  Pd  Pd20  1  0.250000  0.749275  0.186388  1
  Pd  Pd21  1  0.750000  0.760167  0.433256  1
  Pd  Pd22  1  0.750000  0.262407  0.066210  1
  Pd  Pd23  1  0.750000  0.752268  0.683485  1
