# generated using pymatgen
data_Cs3Na2SnAs2P
_symmetry_space_group_name_H-M   'P 1'
_cell_length_a   11.08383942
_cell_length_b   11.08383951
_cell_length_c   16.87635800
_cell_angle_alpha   90.00000000
_cell_angle_beta   90.00000000
_cell_angle_gamma   143.04704703
_symmetry_Int_Tables_number   1
_chemical_formula_structural   Cs3Na2SnAs2P
_chemical_formula_sum   'Cs12 Na8 Sn4 As8 P4'
_cell_volume   1246.37453110
_cell_formula_units_Z   4
loop_
 _symmetry_equiv_pos_site_id
 _symmetry_equiv_pos_as_xyz
  1  'x, y, z'
loop_
 _atom_site_type_symbol
 _atom_site_label
 _atom_site_symmetry_multiplicity
 _atom_site_fract_x
 _atom_site_fract_y
 _atom_site_fract_z
 _atom_site_occupancy
  Cs  Cs0  1  0.229147  0.229147  0.820001  1
  Cs  Cs1  1  0.270853  0.270853  0.320001  1
  Cs  Cs2  1  0.729149  0.729149  0.679999  1
  Cs  Cs3  1  0.770851  0.770851  0.179999  1
  Cs  Cs4  1  0.393366  0.060259  0.171935  1
  Cs  Cs5  1  0.106634  0.439741  0.671935  1
  Cs  Cs6  1  0.939740  0.606633  0.828065  1
  Cs  Cs7  1  0.560259  0.893366  0.328065  1
  Cs  Cs8  1  0.606633  0.939740  0.828065  1
  Cs  Cs9  1  0.893366  0.560259  0.328065  1
  Cs  Cs10  1  0.060259  0.393366  0.171935  1
  Cs  Cs11  1  0.439741  0.106634  0.671935  1
  Na  Na12  1  0.246364  0.753636  0.000000  1
  Na  Na13  1  0.253636  0.746364  0.500000  1
  Na  Na14  1  0.753636  0.246364  0.000000  1
  Na  Na15  1  0.746364  0.253636  0.500000  1
  Na  Na16  1  0.079307  0.920693  0.000000  1
  Na  Na17  1  0.420693  0.579307  0.500000  1
  Na  Na18  1  0.920693  0.079307  0.000000  1
  Na  Na19  1  0.579307  0.420693  0.500000  1
  Sn  Sn20  1  0.414820  0.585181  0.000000  1
  Sn  Sn21  1  0.085181  0.914820  0.500000  1
  Sn  Sn22  1  0.585181  0.414820  0.000000  1
  Sn  Sn23  1  0.914820  0.085181  0.500000  1
  As  As24  1  0.623152  0.936922  0.595583  1
  As  As25  1  0.876848  0.563079  0.095583  1
  As  As26  1  0.063079  0.376848  0.404417  1
  As  As27  1  0.436922  0.123152  0.904417  1
  As  As28  1  0.376848  0.063079  0.404417  1
  As  As29  1  0.123152  0.436922  0.904417  1
  As  As30  1  0.936922  0.623152  0.595583  1
  As  As31  1  0.563079  0.876848  0.095583  1
  P  P32  1  0.198202  0.198202  0.580822  1
  P  P33  1  0.301798  0.301798  0.080822  1
  P  P34  1  0.801798  0.801798  0.419177  1
  P  P35  1  0.698201  0.698201  0.919178  1
