# generated using pymatgen
data_Mg2TaPd9
_symmetry_space_group_name_H-M   'P 1'
_cell_length_a   3.97759600
_cell_length_b   3.97759600
_cell_length_c   11.94250800
_cell_angle_alpha   90.00000000
_cell_angle_beta   90.00000000
_cell_angle_gamma   90.00000000
_symmetry_Int_Tables_number   1
_chemical_formula_structural   Mg2TaPd9
_chemical_formula_sum   'Mg2 Ta1 Pd9'
_cell_volume   188.94564282
_cell_formula_units_Z   1
loop_
 _symmetry_equiv_pos_site_id
 _symmetry_equiv_pos_as_xyz
  1  'x, y, z'
loop_
 _atom_site_type_symbol
 _atom_site_label
 _atom_site_symmetry_multiplicity
 _atom_site_fract_x
 _atom_site_fract_y
 _atom_site_fract_z
 _atom_site_occupancy
  Mg  Mg0  1  0.000000  0.000000  0.335708  1
  Mg  Mg1  1  0.000000  0.000000  0.664292  1
  Ta  Ta2  1  0.000000  0.000000  0.000000  1
  Pd  Pd3  1  0.500000  0.500000  0.000000  1
  Pd  Pd4  1  0.500000  0.500000  0.329466  1
  Pd  Pd5  1  0.500000  0.500000  0.670534  1
  Pd  Pd6  1  0.500000  0.000000  0.160362  1
  Pd  Pd7  1  0.500000  0.000000  0.500000  1
  Pd  Pd8  1  0.500000  0.000000  0.839638  1
  Pd  Pd9  1  0.000000  0.500000  0.160362  1
  Pd  Pd10  1  0.000000  0.500000  0.500000  1
  Pd  Pd11  1  0.000000  0.500000  0.839638  1
