# generated using pymatgen
data_Hf2ScFe(Co4P3)2
_symmetry_space_group_name_H-M   'P 1'
_cell_length_a   11.85103809
_cell_length_b   11.89278015
_cell_length_c   3.60070900
_cell_angle_alpha   90.00000000
_cell_angle_beta   90.00000000
_cell_angle_gamma   120.11659261
_symmetry_Int_Tables_number   1
_chemical_formula_structural   Hf2ScFe(Co4P3)2
_chemical_formula_sum   'Hf4 Sc2 Fe2 Co16 P12'
_cell_volume   438.98229389
_cell_formula_units_Z   2
loop_
 _symmetry_equiv_pos_site_id
 _symmetry_equiv_pos_as_xyz
  1  'x, y, z'
loop_
 _atom_site_type_symbol
 _atom_site_label
 _atom_site_symmetry_multiplicity
 _atom_site_fract_x
 _atom_site_fract_y
 _atom_site_fract_z
 _atom_site_occupancy
  Hf  Hf0  1  0.816711  0.815605  0.500000  1
  Hf  Hf1  1  0.000000  0.176404  0.500000  1
  Hf  Hf2  1  0.000000  0.556045  0.000000  1
  Hf  Hf3  1  0.183289  0.998893  0.500000  1
  Sc  Sc4  1  0.334432  0.666408  0.000000  1
  Sc  Sc5  1  0.665568  0.331976  0.000000  1
  Fe  Fe6  1  0.449304  0.450279  0.000000  1
  Fe  Fe7  1  0.550696  0.000975  0.000000  1
  Co  Co8  1  0.624320  0.822954  0.000000  1
  Co  Co9  1  0.375680  0.198634  0.000000  1
  Co  Co10  1  0.000000  0.722051  0.500000  1
  Co  Co11  1  0.284670  0.283312  0.500000  1
  Co  Co12  1  0.871781  0.349585  0.500000  1
  Co  Co13  1  0.715330  0.998640  0.500000  1
  Co  Co14  1  0.818251  0.629741  0.000000  1
  Co  Co15  1  0.181749  0.811490  0.000000  1
  Co  Co16  1  0.358681  0.876419  0.500000  1
  Co  Co17  1  0.128219  0.477803  0.500000  1
  Co  Co18  1  0.641319  0.517738  0.500000  1
  Co  Co19  1  0.000000  0.001949  0.000000  1
  Co  Co20  1  0.517211  0.646386  0.500000  1
  Co  Co21  1  0.482789  0.129175  0.500000  1
  Co  Co22  1  0.199017  0.371703  0.000000  1
  Co  Co23  1  0.800983  0.172686  0.000000  1
  P  P24  1  0.000000  0.344866  0.000000  1
  P  P25  1  0.823561  0.514266  0.500000  1
  P  P26  1  0.681400  0.163989  0.500000  1
  P  P27  1  0.178305  0.175706  0.000000  1
  P  P28  1  0.635067  0.640255  0.000000  1
  P  P29  1  0.821695  0.997401  0.000000  1
  P  P30  1  0.516116  0.833719  0.500000  1
  P  P31  1  0.176439  0.690704  0.500000  1
  P  P32  1  0.364933  0.005189  0.000000  1
  P  P33  1  0.483884  0.317604  0.500000  1
  P  P34  1  0.000000  0.826865  0.000000  1
  P  P35  1  0.318600  0.482588  0.500000  1
