# generated using pymatgen
data_Ti5Ga6Ru12W
_symmetry_space_group_name_H-M   'P 1'
_cell_length_a   4.30346200
_cell_length_b   6.15846700
_cell_length_c   12.89516500
_cell_angle_alpha   90.00000000
_cell_angle_beta   89.99885877
_cell_angle_gamma   90.00000000
_symmetry_Int_Tables_number   1
_chemical_formula_structural   Ti5Ga6Ru12W
_chemical_formula_sum   'Ti5 Ga6 Ru12 W1'
_cell_volume   341.75705967
_cell_formula_units_Z   1
loop_
 _symmetry_equiv_pos_site_id
 _symmetry_equiv_pos_as_xyz
  1  'x, y, z'
loop_
 _atom_site_type_symbol
 _atom_site_label
 _atom_site_symmetry_multiplicity
 _atom_site_fract_x
 _atom_site_fract_y
 _atom_site_fract_z
 _atom_site_occupancy
  Ti  Ti0  1  0.499813  0.000000  0.168891  1
  Ti  Ti1  1  0.999817  0.500000  0.334565  1
  Ti  Ti2  1  0.500001  0.000000  0.500066  1
  Ti  Ti3  1  0.000182  0.500000  0.665491  1
  Ti  Ti4  1  0.500188  0.000000  0.831030  1
  Ga  Ga5  1  0.000002  0.000000  0.999949  1
  Ga  Ga6  1  0.499803  0.500000  0.169356  1
  Ga  Ga7  1  0.999812  0.000000  0.333718  1
  Ga  Ga8  1  0.500001  0.500000  0.500045  1
  Ga  Ga9  1  0.000185  0.000000  0.666309  1
  Ga  Ga10  1  0.500198  0.500000  0.830606  1
  Ru  Ru11  1  0.500006  0.253111  0.999978  1
  Ru  Ru12  1  0.500006  0.746889  0.999978  1
  Ru  Ru13  1  0.999821  0.249240  0.165216  1
  Ru  Ru14  1  0.999821  0.750760  0.165216  1
  Ru  Ru15  1  0.499839  0.250613  0.333089  1
  Ru  Ru16  1  0.499839  0.749387  0.333089  1
  Ru  Ru17  1  0.000001  0.249156  0.500017  1
  Ru  Ru18  1  0.000001  0.750844  0.500017  1
  Ru  Ru19  1  0.500151  0.250604  0.666933  1
  Ru  Ru20  1  0.500151  0.749396  0.666933  1
  Ru  Ru21  1  0.000182  0.249266  0.834752  1
  Ru  Ru22  1  0.000182  0.750734  0.834752  1
  W  W23  1  0.000002  0.500000  0.000006  1
