# generated using pymatgen
data_LiY4Co18P12Os
_symmetry_space_group_name_H-M   'P 1'
_cell_length_a   3.67010000
_cell_length_b   10.29228849
_cell_length_c   11.77605847
_cell_angle_alpha   89.90460998
_cell_angle_beta   90.00000000
_cell_angle_gamma   90.00000000
_symmetry_Int_Tables_number   1
_chemical_formula_structural   LiY4Co18P12Os
_chemical_formula_sum   'Li1 Y4 Co18 P12 Os1'
_cell_volume   444.82501278
_cell_formula_units_Z   1
loop_
 _symmetry_equiv_pos_site_id
 _symmetry_equiv_pos_as_xyz
  1  'x, y, z'
loop_
 _atom_site_type_symbol
 _atom_site_label
 _atom_site_symmetry_multiplicity
 _atom_site_fract_x
 _atom_site_fract_y
 _atom_site_fract_z
 _atom_site_occupancy
  Li  Li0  1  0.750000  0.203991  0.509109  1
  Y  Y1  1  0.250000  0.916232  0.202674  1
  Y  Y2  1  0.750000  0.082896  0.798161  1
  Y  Y3  1  0.750000  0.415919  0.294813  1
  Y  Y4  1  0.250000  0.580576  0.702477  1
  Co  Co5  1  0.750000  0.283903  0.008131  1
  Co  Co6  1  0.250000  0.716666  0.992662  1
  Co  Co7  1  0.250000  0.093581  0.987462  1
  Co  Co8  1  0.750000  0.906189  0.011252  1
  Co  Co9  1  0.750000  0.594674  0.511050  1
  Co  Co10  1  0.250000  0.408488  0.487204  1
  Co  Co11  1  0.250000  0.281458  0.679942  1
  Co  Co12  1  0.750000  0.722307  0.323671  1
  Co  Co13  1  0.750000  0.777680  0.823736  1
  Co  Co14  1  0.250000  0.220419  0.172519  1
  Co  Co15  1  0.250000  0.616948  0.198941  1
  Co  Co16  1  0.750000  0.384783  0.803615  1
  Co  Co17  1  0.750000  0.118106  0.298913  1
  Co  Co18  1  0.250000  0.884176  0.701534  1
  Co  Co19  1  0.250000  0.036500  0.433343  1
  Co  Co20  1  0.750000  0.965128  0.568699  1
  Co  Co21  1  0.750000  0.532667  0.068717  1
  Co  Co22  1  0.250000  0.468603  0.933128  1
  P  P23  1  0.250000  0.082066  0.615667  1
  P  P24  1  0.750000  0.923161  0.386231  1
  P  P25  1  0.750000  0.581019  0.888928  1
  P  P26  1  0.250000  0.418605  0.111481  1
  P  P27  1  0.250000  0.230185  0.363298  1
  P  P28  1  0.750000  0.769247  0.633721  1
  P  P29  1  0.750000  0.729024  0.129950  1
  P  P30  1  0.250000  0.272110  0.870320  1
  P  P31  1  0.250000  0.898288  0.892963  1
  P  P32  1  0.750000  0.101181  0.106548  1
  P  P33  1  0.750000  0.397365  0.609206  1
  P  P34  1  0.250000  0.596444  0.389737  1
  Os  Os35  1  0.250000  0.789414  0.490196  1
