# generated using pymatgen
data_Nd7Y(Sc3Sn4)4
_symmetry_space_group_name_H-M   'P 1'
_cell_length_a   7.85935235
_cell_length_b   7.99160964
_cell_length_c   15.04374651
_cell_angle_alpha   90.01074840
_cell_angle_beta   90.07740223
_cell_angle_gamma   90.09257474
_symmetry_Int_Tables_number   1
_chemical_formula_structural   Nd7Y(Sc3Sn4)4
_chemical_formula_sum   'Nd7 Y1 Sc12 Sn16'
_cell_volume   944.87869729
_cell_formula_units_Z   1
loop_
 _symmetry_equiv_pos_site_id
 _symmetry_equiv_pos_as_xyz
  1  'x, y, z'
loop_
 _atom_site_type_symbol
 _atom_site_label
 _atom_site_symmetry_multiplicity
 _atom_site_fract_x
 _atom_site_fract_y
 _atom_site_fract_z
 _atom_site_occupancy
  Nd  Nd0  1  0.514470  0.323617  0.904673  1
  Nd  Nd1  1  0.013726  0.175094  0.594789  1
  Nd  Nd2  1  0.485554  0.675177  0.404762  1
  Nd  Nd3  1  0.984782  0.825496  0.094647  1
  Nd  Nd4  1  0.485846  0.675741  0.094605  1
  Nd  Nd5  1  0.985649  0.824967  0.404796  1
  Nd  Nd6  1  0.514931  0.324109  0.596454  1
  Y  Y7  1  0.017347  0.176298  0.903922  1
  Sc  Sc8  1  0.356275  0.838222  0.874451  1
  Sc  Sc9  1  0.855823  0.662166  0.627113  1
  Sc  Sc10  1  0.644213  0.162874  0.373910  1
  Sc  Sc11  1  0.143675  0.336204  0.125797  1
  Sc  Sc12  1  0.642919  0.162388  0.125428  1
  Sc  Sc13  1  0.144527  0.337369  0.373895  1
  Sc  Sc14  1  0.355419  0.837357  0.626468  1
  Sc  Sc15  1  0.855997  0.662991  0.873718  1
  Sc  Sc16  1  0.187373  0.507134  0.750593  1
  Sc  Sc17  1  0.688365  0.994001  0.750820  1
  Sc  Sc18  1  0.812321  0.492673  0.249683  1
  Sc  Sc19  1  0.311866  0.006994  0.249769  1
  Sn  Sn20  1  0.308894  0.047124  0.041882  1
  Sn  Sn21  1  0.814050  0.454868  0.456698  1
  Sn  Sn22  1  0.685393  0.953845  0.543921  1
  Sn  Sn23  1  0.184662  0.542535  0.955815  1
  Sn  Sn24  1  0.691224  0.957366  0.955300  1
  Sn  Sn25  1  0.185903  0.545373  0.543897  1
  Sn  Sn26  1  0.314214  0.045595  0.456548  1
  Sn  Sn27  1  0.815158  0.453256  0.042744  1
  Sn  Sn28  1  0.552509  0.631446  0.750368  1
  Sn  Sn29  1  0.052553  0.870247  0.750536  1
  Sn  Sn30  1  0.447217  0.368508  0.249628  1
  Sn  Sn31  1  0.946980  0.131143  0.249932  1
  Sn  Sn32  1  0.321768  0.141404  0.750817  1
  Sn  Sn33  1  0.826113  0.356083  0.751922  1
  Sn  Sn34  1  0.676115  0.859093  0.249885  1
  Sn  Sn35  1  0.176169  0.641239  0.249813  1
