# generated using pymatgen
data_Rb12Li3Si16Pd
_symmetry_space_group_name_H-M   'P 1'
_cell_length_a   7.93748560
_cell_length_b   9.78374448
_cell_length_c   12.87240877
_cell_angle_alpha   89.49260260
_cell_angle_beta   89.59464589
_cell_angle_gamma   89.26032809
_symmetry_Int_Tables_number   1
_chemical_formula_structural   Rb12Li3Si16Pd
_chemical_formula_sum   'Rb12 Li3 Si16 Pd1'
_cell_volume   999.50306688
_cell_formula_units_Z   1
loop_
 _symmetry_equiv_pos_site_id
 _symmetry_equiv_pos_as_xyz
  1  'x, y, z'
loop_
 _atom_site_type_symbol
 _atom_site_label
 _atom_site_symmetry_multiplicity
 _atom_site_fract_x
 _atom_site_fract_y
 _atom_site_fract_z
 _atom_site_occupancy
  Rb  Rb0  1  0.654284  0.251049  0.404101  1
  Rb  Rb1  1  0.152748  0.252094  0.097835  1
  Rb  Rb2  1  0.345716  0.748951  0.595899  1
  Rb  Rb3  1  0.847252  0.747906  0.902165  1
  Rb  Rb4  1  0.650803  0.451277  0.698419  1
  Rb  Rb5  1  0.153418  0.049027  0.807580  1
  Rb  Rb6  1  0.349529  0.944535  0.305127  1
  Rb  Rb7  1  0.846957  0.553563  0.194656  1
  Rb  Rb8  1  0.349197  0.548723  0.301581  1
  Rb  Rb9  1  0.846582  0.950973  0.192420  1
  Rb  Rb10  1  0.650471  0.055465  0.694873  1
  Rb  Rb11  1  0.153043  0.446437  0.805344  1
  Li  Li12  1  0.000000  0.000000  0.500000  1
  Li  Li13  1  0.500000  0.000000  0.000000  1
  Li  Li14  1  0.000000  0.500000  0.500000  1
  Si  Si15  1  0.388731  0.735862  0.903567  1
  Si  Si16  1  0.864938  0.749966  0.593355  1
  Si  Si17  1  0.611269  0.264138  0.096433  1
  Si  Si18  1  0.135062  0.250034  0.406645  1
  Si  Si19  1  0.722277  0.632424  0.451779  1
  Si  Si20  1  0.233065  0.857308  0.049364  1
  Si  Si21  1  0.275919  0.124012  0.547298  1
  Si  Si22  1  0.771366  0.383211  0.956215  1
  Si  Si23  1  0.013747  0.249704  0.582628  1
  Si  Si24  1  0.497074  0.259370  0.921385  1
  Si  Si25  1  0.986253  0.750296  0.417372  1
  Si  Si26  1  0.502926  0.740630  0.078615  1
  Si  Si27  1  0.228634  0.616789  0.043785  1
  Si  Si28  1  0.724081  0.875988  0.452702  1
  Si  Si29  1  0.766935  0.142692  0.950636  1
  Si  Si30  1  0.277723  0.367576  0.548221  1
  Pd  Pd31  1  0.500000  0.500000  0.000000  1
