# generated using pymatgen
data_Ho4CoSi10Ir3Ru2
_symmetry_space_group_name_H-M   'P 1'
_cell_length_a   8.08649070
_cell_length_b   8.07867440
_cell_length_c   8.07867400
_cell_angle_alpha   138.11267245
_cell_angle_beta   105.75681035
_cell_angle_gamma   89.06827077
_symmetry_Int_Tables_number   1
_chemical_formula_structural   Ho4CoSi10Ir3Ru2
_chemical_formula_sum   'Ho4 Co1 Si10 Ir3 Ru2'
_cell_volume   324.62831704
_cell_formula_units_Z   1
loop_
 _symmetry_equiv_pos_site_id
 _symmetry_equiv_pos_as_xyz
  1  'x, y, z'
loop_
 _atom_site_type_symbol
 _atom_site_label
 _atom_site_symmetry_multiplicity
 _atom_site_fract_x
 _atom_site_fract_y
 _atom_site_fract_z
 _atom_site_occupancy
  Ho  Ho0  1  0.601257  0.867745  0.733512  1
  Ho  Ho1  1  0.135492  0.367430  0.768062  1
  Ho  Ho2  1  0.861973  0.631542  0.230432  1
  Ho  Ho3  1  0.400319  0.131999  0.268320  1
  Co  Co4  1  0.758662  0.142770  0.615891  1
  Si  Si5  1  0.775859  0.035501  0.267317  1
  Si  Si6  1  0.217300  0.970971  0.750765  1
  Si  Si7  1  0.775859  0.508543  0.740358  1
  Si  Si8  1  0.940133  0.102507  0.837626  1
  Si  Si9  1  0.049989  0.896470  0.153520  1
  Si  Si10  1  0.515608  0.245754  0.740468  1
  Si  Si11  1  0.515608  0.775140  0.269854  1
  Si  Si12  1  0.740468  0.396726  0.343743  1
  Si  Si13  1  0.253077  0.599748  0.653329  1
  Si  Si14  1  0.217300  0.466535  0.246330  1
  Ir  Ir15  1  0.250113  0.859100  0.391014  1
  Ir  Ir16  1  0.528486  0.641687  0.886799  1
  Ir  Ir17  1  0.468330  0.361913  0.106417  1
  Ru  Ru18  1  0.997083  0.248113  0.247275  1
  Ru  Ru19  1  0.997083  0.749808  0.748969  1
