# generated using pymatgen
data_Sm2NiGeBr2
_symmetry_space_group_name_H-M   'P 1'
_cell_length_a   4.15463300
_cell_length_b   4.15463386
_cell_length_c   10.90250200
_cell_angle_alpha   90.00000000
_cell_angle_beta   90.00000000
_cell_angle_gamma   119.99998521
_symmetry_Int_Tables_number   1
_chemical_formula_structural   Sm2NiGeBr2
_chemical_formula_sum   'Sm2 Ni1 Ge1 Br2'
_cell_volume   162.97548936
_cell_formula_units_Z   1
loop_
 _symmetry_equiv_pos_site_id
 _symmetry_equiv_pos_as_xyz
  1  'x, y, z'
loop_
 _atom_site_type_symbol
 _atom_site_label
 _atom_site_symmetry_multiplicity
 _atom_site_fract_x
 _atom_site_fract_y
 _atom_site_fract_z
 _atom_site_occupancy
  Sm  Sm0  1  0.000000  0.000000  0.172131  1
  Sm  Sm1  1  0.000000  0.000000  0.829966  1
  Ni  Ni2  1  0.333333  0.666667  0.993888  1
  Ge  Ge3  1  0.666667  0.333333  0.006440  1
  Br  Br4  1  0.666667  0.333333  0.656938  1
  Br  Br5  1  0.333333  0.666667  0.340637  1
