# generated using pymatgen
data_HfTa5(B2Os5)2
_symmetry_space_group_name_H-M   'P 1'
_cell_length_a   9.54528323
_cell_length_b   9.54534336
_cell_length_c   3.04520500
_cell_angle_alpha   90.00000000
_cell_angle_beta   90.00000000
_cell_angle_gamma   90.02825378
_symmetry_Int_Tables_number   1
_chemical_formula_structural   HfTa5(B2Os5)2
_chemical_formula_sum   'Hf1 Ta5 B4 Os10'
_cell_volume   277.45774734
_cell_formula_units_Z   1
loop_
 _symmetry_equiv_pos_site_id
 _symmetry_equiv_pos_as_xyz
  1  'x, y, z'
loop_
 _atom_site_type_symbol
 _atom_site_label
 _atom_site_symmetry_multiplicity
 _atom_site_fract_x
 _atom_site_fract_y
 _atom_site_fract_z
 _atom_site_occupancy
  Hf  Hf0  1  0.823683  0.676319  0.000000  1
  Ta  Ta1  1  0.177054  0.322950  0.000000  1
  Ta  Ta2  1  0.323664  0.822653  0.000000  1
  Ta  Ta3  1  0.677343  0.176333  0.000000  1
  Ta  Ta4  1  0.500189  0.500279  0.000000  1
  Ta  Ta5  1  0.999719  0.999810  0.000000  1
  B  B6  1  0.621271  0.878730  0.000000  1
  B  B7  1  0.378501  0.121499  0.000000  1
  B  B8  1  0.120684  0.621339  0.000000  1
  B  B9  1  0.878660  0.379315  0.000000  1
  Os  Os10  1  0.567666  0.719999  0.500000  1
  Os  Os11  1  0.427582  0.281927  0.500000  1
  Os  Os12  1  0.075259  0.782324  0.500000  1
  Os  Os13  1  0.928670  0.217907  0.500000  1
  Os  Os14  1  0.282093  0.571324  0.500000  1
  Os  Os15  1  0.717678  0.424738  0.500000  1
  Os  Os16  1  0.218071  0.072424  0.500000  1
  Os  Os17  1  0.779998  0.932338  0.500000  1
  Os  Os18  1  0.499031  0.000980  0.500000  1
  Os  Os19  1  0.003188  0.496812  0.500000  1
