# generated using pymatgen
data_ScU2Ga3Ru2Pt
_symmetry_space_group_name_H-M   'P 1'
_cell_length_a   6.88337200
_cell_length_b   7.11957846
_cell_length_c   3.84430400
_cell_angle_alpha   90.00000000
_cell_angle_beta   90.00000000
_cell_angle_gamma   118.90843122
_symmetry_Int_Tables_number   1
_chemical_formula_structural   ScU2Ga3Ru2Pt
_chemical_formula_sum   'Sc1 U2 Ga3 Ru2 Pt1'
_cell_volume   164.92121025
_cell_formula_units_Z   1
loop_
 _symmetry_equiv_pos_site_id
 _symmetry_equiv_pos_as_xyz
  1  'x, y, z'
loop_
 _atom_site_type_symbol
 _atom_site_label
 _atom_site_symmetry_multiplicity
 _atom_site_fract_x
 _atom_site_fract_y
 _atom_site_fract_z
 _atom_site_occupancy
  Sc  Sc0  1  0.409177  0.000000  0.500000  1
  U  U1  1  0.999614  0.422804  0.500000  1
  U  U2  1  0.576810  0.577196  0.500000  1
  Ga  Ga3  1  0.723173  0.000000  0.000000  1
  Ga  Ga4  1  0.024075  0.770269  0.000000  1
  Ga  Ga5  1  0.253806  0.229731  0.000000  1
  Ru  Ru6  1  0.329141  0.629861  0.000000  1
  Ru  Ru7  1  0.699282  0.370139  0.000000  1
  Pt  Pt8  1  0.984923  0.000000  0.500000  1
