# generated using pymatgen
data_Tm2Lu3Co(P2Ru3)6
_symmetry_space_group_name_H-M   'P 1'
_cell_length_a   12.43886600
_cell_length_b   12.43886518
_cell_length_c   3.95364300
_cell_angle_alpha   90.00000000
_cell_angle_beta   90.00000000
_cell_angle_gamma   120.00000219
_symmetry_Int_Tables_number   1
_chemical_formula_structural   Tm2Lu3Co(P2Ru3)6
_chemical_formula_sum   'Tm2 Lu3 Co1 P12 Ru18'
_cell_volume   529.77275959
_cell_formula_units_Z   1
loop_
 _symmetry_equiv_pos_site_id
 _symmetry_equiv_pos_as_xyz
  1  'x, y, z'
loop_
 _atom_site_type_symbol
 _atom_site_label
 _atom_site_symmetry_multiplicity
 _atom_site_fract_x
 _atom_site_fract_y
 _atom_site_fract_z
 _atom_site_occupancy
  Tm  Tm0  1  0.666667  0.333333  0.000000  1
  Tm  Tm1  1  0.333333  0.666667  0.000000  1
  Lu  Lu2  1  0.182336  0.182336  0.500000  1
  Lu  Lu3  1  0.817664  0.000000  0.500000  1
  Lu  Lu4  1  0.000000  0.817664  0.500000  1
  Co  Co5  1  0.000000  0.000000  0.000000  1
  P  P6  1  0.372158  0.372158  0.000000  1
  P  P7  1  0.627842  0.000000  0.000000  1
  P  P8  1  0.000000  0.627842  0.000000  1
  P  P9  1  0.830562  0.307091  0.500000  1
  P  P10  1  0.692909  0.523471  0.500000  1
  P  P11  1  0.476529  0.169438  0.500000  1
  P  P12  1  0.307091  0.830562  0.500000  1
  P  P13  1  0.523471  0.692909  0.500000  1
  P  P14  1  0.169438  0.476529  0.500000  1
  P  P15  1  0.824280  0.824280  0.000000  1
  P  P16  1  0.175720  0.000000  0.000000  1
  P  P17  1  0.000000  0.175720  0.000000  1
  Ru  Ru18  1  0.815797  0.189808  0.000000  1
  Ru  Ru19  1  0.810192  0.625989  0.000000  1
  Ru  Ru20  1  0.374011  0.184203  0.000000  1
  Ru  Ru21  1  0.189808  0.815797  0.000000  1
  Ru  Ru22  1  0.625989  0.810192  0.000000  1
  Ru  Ru23  1  0.184203  0.374011  0.000000  1
  Ru  Ru24  1  0.555995  0.555995  0.000000  1
  Ru  Ru25  1  0.444005  0.000000  0.000000  1
  Ru  Ru26  1  0.000000  0.444005  0.000000  1
  Ru  Ru27  1  0.635132  0.126817  0.500000  1
  Ru  Ru28  1  0.873183  0.508317  0.500000  1
  Ru  Ru29  1  0.491683  0.364868  0.500000  1
  Ru  Ru30  1  0.126817  0.635132  0.500000  1
  Ru  Ru31  1  0.508317  0.873183  0.500000  1
  Ru  Ru32  1  0.364868  0.491683  0.500000  1
  Ru  Ru33  1  0.722053  0.722053  0.500000  1
  Ru  Ru34  1  0.277947  0.000000  0.500000  1
  Ru  Ru35  1  0.000000  0.277947  0.500000  1
