# generated using pymatgen
data_La3Mg3Hg2Ru
_symmetry_space_group_name_H-M   'P 1'
_cell_length_a   8.02037200
_cell_length_b   8.02037382
_cell_length_c   4.17406600
_cell_angle_alpha   90.00000000
_cell_angle_beta   90.00000000
_cell_angle_gamma   119.99999250
_symmetry_Int_Tables_number   1
_chemical_formula_structural   La3Mg3Hg2Ru
_chemical_formula_sum   'La3 Mg3 Hg2 Ru1'
_cell_volume   232.53005757
_cell_formula_units_Z   1
loop_
 _symmetry_equiv_pos_site_id
 _symmetry_equiv_pos_as_xyz
  1  'x, y, z'
loop_
 _atom_site_type_symbol
 _atom_site_label
 _atom_site_symmetry_multiplicity
 _atom_site_fract_x
 _atom_site_fract_y
 _atom_site_fract_z
 _atom_site_occupancy
  La  La0  1  0.600461  0.034572  0.000000  1
  La  La1  1  0.965428  0.565889  0.000000  1
  La  La2  1  0.434111  0.399539  0.000000  1
  Mg  Mg3  1  0.251998  0.000597  0.500000  1
  Mg  Mg4  1  0.999403  0.251401  0.500000  1
  Mg  Mg5  1  0.748599  0.748002  0.500000  1
  Hg  Hg6  1  0.333333  0.666667  0.500000  1
  Hg  Hg7  1  0.000000  0.000000  0.000000  1
  Ru  Ru8  1  0.666667  0.333333  0.500000  1
