# generated using pymatgen
data_V11Si3GeRh
_symmetry_space_group_name_H-M   'P 1'
_cell_length_a   4.74771500
_cell_length_b   4.70475800
_cell_length_c   9.41290000
_cell_angle_alpha   90.00000000
_cell_angle_beta   90.00000000
_cell_angle_gamma   90.00000000
_symmetry_Int_Tables_number   1
_chemical_formula_structural   V11Si3GeRh
_chemical_formula_sum   'V11 Si3 Ge1 Rh1'
_cell_volume   210.25453657
_cell_formula_units_Z   1
loop_
 _symmetry_equiv_pos_site_id
 _symmetry_equiv_pos_as_xyz
  1  'x, y, z'
loop_
 _atom_site_type_symbol
 _atom_site_label
 _atom_site_symmetry_multiplicity
 _atom_site_fract_x
 _atom_site_fract_y
 _atom_site_fract_z
 _atom_site_occupancy
  V  V0  1  0.003119  0.500000  0.131207  1
  V  V1  1  0.999997  0.500000  0.624456  1
  V  V2  1  0.498456  0.249383  0.747057  1
  V  V3  1  0.498456  0.249383  0.252943  1
  V  V4  1  0.755987  0.000000  0.000000  1
  V  V5  1  0.003119  0.500000  0.868793  1
  V  V6  1  0.999997  0.500000  0.375544  1
  V  V7  1  0.498456  0.750617  0.747057  1
  V  V8  1  0.498456  0.750617  0.252943  1
  V  V9  1  0.248805  0.000000  0.000000  1
  V  V10  1  0.245151  0.000000  0.500000  1
  Si  Si11  1  0.489493  0.500000  0.500000  1
  Si  Si12  1  0.006651  0.000000  0.754485  1
  Si  Si13  1  0.006651  0.000000  0.245515  1
  Ge  Ge14  1  0.500201  0.500000  0.000000  1
  Rh  Rh15  1  0.747005  0.000000  0.500000  1
