# generated using pymatgen
data_Dy13Lu3(HgRh)4
_symmetry_space_group_name_H-M   'P 1'
_cell_length_a   9.55078127
_cell_length_b   9.55078204
_cell_length_c   9.55459438
_cell_angle_alpha   60.01319733
_cell_angle_beta   60.01319660
_cell_angle_gamma   60.00000099
_symmetry_Int_Tables_number   1
_chemical_formula_structural   Dy13Lu3(HgRh)4
_chemical_formula_sum   'Dy13 Lu3 Hg4 Rh4'
_cell_volume   616.39867212
_cell_formula_units_Z   1
loop_
 _symmetry_equiv_pos_site_id
 _symmetry_equiv_pos_as_xyz
  1  'x, y, z'
loop_
 _atom_site_type_symbol
 _atom_site_label
 _atom_site_symmetry_multiplicity
 _atom_site_fract_x
 _atom_site_fract_y
 _atom_site_fract_z
 _atom_site_occupancy
  Dy  Dy0  1  0.936770  0.936770  0.562353  1
  Dy  Dy1  1  0.148840  0.148840  0.553479  1
  Dy  Dy2  1  0.564108  0.936770  0.562353  1
  Dy  Dy3  1  0.147991  0.147991  0.149237  1
  Dy  Dy4  1  0.311349  0.311349  0.688016  1
  Dy  Dy5  1  0.936770  0.564108  0.562353  1
  Dy  Dy6  1  0.563133  0.563133  0.937772  1
  Dy  Dy7  1  0.563133  0.935963  0.937772  1
  Dy  Dy8  1  0.935963  0.563133  0.937772  1
  Dy  Dy9  1  0.147991  0.554780  0.149237  1
  Dy  Dy10  1  0.311349  0.689286  0.688016  1
  Dy  Dy11  1  0.689286  0.311349  0.688016  1
  Dy  Dy12  1  0.554780  0.147991  0.149237  1
  Lu  Lu13  1  0.688212  0.312483  0.311093  1
  Lu  Lu14  1  0.688212  0.688212  0.311093  1
  Lu  Lu15  1  0.312483  0.688212  0.311093  1
  Hg  Hg16  1  0.915243  0.915243  0.254271  1
  Hg  Hg17  1  0.254136  0.915076  0.915712  1
  Hg  Hg18  1  0.915076  0.254136  0.915712  1
  Hg  Hg19  1  0.915076  0.915076  0.915712  1
  Rh  Rh20  1  0.358486  0.358486  0.357029  1
  Rh  Rh21  1  0.926001  0.358486  0.357029  1
  Rh  Rh22  1  0.357129  0.357129  0.928614  1
  Rh  Rh23  1  0.358486  0.926001  0.357029  1
