# generated using pymatgen
data_La2Tb4RuI10
_symmetry_space_group_name_H-M   'P 1'
_cell_length_a   7.90210782
_cell_length_b   9.96302681
_cell_length_c   9.86728205
_cell_angle_alpha   106.58277690
_cell_angle_beta   95.72239757
_cell_angle_gamma   105.42081613
_symmetry_Int_Tables_number   1
_chemical_formula_structural   La2Tb4RuI10
_chemical_formula_sum   'La2 Tb4 Ru1 I10'
_cell_volume   704.64386379
_cell_formula_units_Z   1
loop_
 _symmetry_equiv_pos_site_id
 _symmetry_equiv_pos_as_xyz
  1  'x, y, z'
loop_
 _atom_site_type_symbol
 _atom_site_label
 _atom_site_symmetry_multiplicity
 _atom_site_fract_x
 _atom_site_fract_y
 _atom_site_fract_z
 _atom_site_occupancy
  La  La0  1  0.114197  0.043191  0.771044  1
  La  La1  1  0.885803  0.956809  0.228956  1
  Tb  Tb2  1  0.969833  0.289433  0.087210  1
  Tb  Tb3  1  0.647718  0.872652  0.832881  1
  Tb  Tb4  1  0.352282  0.127348  0.167119  1
  Tb  Tb5  1  0.030167  0.710567  0.912790  1
  Ru  Ru6  1  0.000000  0.000000  0.000000  1
  I  I7  1  0.346746  0.446316  0.269067  1
  I  I8  1  0.653254  0.553684  0.730933  1
  I  I9  1  0.732385  0.910602  0.544636  1
  I  I10  1  0.083871  0.378288  0.824554  1
  I  I11  1  0.916129  0.621712  0.175446  1
  I  I12  1  0.448135  0.818617  0.088786  1
  I  I13  1  0.551865  0.181383  0.911214  1
  I  I14  1  0.775466  0.261310  0.341804  1
  I  I15  1  0.224534  0.738690  0.658196  1
  I  I16  1  0.267615  0.089398  0.455364  1
