# generated using pymatgen
data_Sm4Dy4Re3TcB24
_symmetry_space_group_name_H-M   'P 1'
_cell_length_a   3.71860000
_cell_length_b   9.22214789
_cell_length_c   11.64846101
_cell_angle_alpha   90.02281682
_cell_angle_beta   90.00000000
_cell_angle_gamma   90.00000000
_symmetry_Int_Tables_number   1
_chemical_formula_structural   Sm4Dy4Re3TcB24
_chemical_formula_sum   'Sm4 Dy4 Re3 Tc1 B24'
_cell_volume   399.46622293
_cell_formula_units_Z   1
loop_
 _symmetry_equiv_pos_site_id
 _symmetry_equiv_pos_as_xyz
  1  'x, y, z'
loop_
 _atom_site_type_symbol
 _atom_site_label
 _atom_site_symmetry_multiplicity
 _atom_site_fract_x
 _atom_site_fract_y
 _atom_site_fract_z
 _atom_site_occupancy
  Sm  Sm0  1  0.000000  0.323349  0.414028  1
  Sm  Sm1  1  0.000000  0.676897  0.585799  1
  Sm  Sm2  1  0.000000  0.823222  0.085882  1
  Sm  Sm3  1  0.000000  0.177043  0.914092  1
  Dy  Dy4  1  0.000000  0.941680  0.369189  1
  Dy  Dy5  1  0.000000  0.057230  0.630267  1
  Dy  Dy6  1  0.000000  0.443257  0.131168  1
  Dy  Dy7  1  0.000000  0.557265  0.869745  1
  Re  Re8  1  0.000000  0.361086  0.680096  1
  Re  Re9  1  0.000000  0.139026  0.180182  1
  Re  Re10  1  0.000000  0.861073  0.819912  1
  Tc  Tc11  1  0.000000  0.638948  0.319880  1
  B  B12  1  0.500000  0.554062  0.431460  1
  B  B13  1  0.500000  0.446061  0.568358  1
  B  B14  1  0.500000  0.054105  0.068358  1
  B  B15  1  0.500000  0.946181  0.931531  1
  B  B16  1  0.500000  0.748618  0.416761  1
  B  B17  1  0.500000  0.251029  0.583041  1
  B  B18  1  0.500000  0.249200  0.083136  1
  B  B19  1  0.500000  0.751130  0.916908  1
  B  B20  1  0.500000  0.790878  0.265687  1
  B  B21  1  0.500000  0.208775  0.734128  1
  B  B22  1  0.500000  0.291160  0.234366  1
  B  B23  1  0.500000  0.708792  0.765780  1
  B  B24  1  0.500000  0.630081  0.186301  1
  B  B25  1  0.500000  0.370135  0.813833  1
  B  B26  1  0.500000  0.129680  0.313889  1
  B  B27  1  0.500000  0.870058  0.686093  1
  B  B28  1  0.500000  0.983111  0.212333  1
  B  B29  1  0.500000  0.016854  0.787426  1
  B  B30  1  0.500000  0.483390  0.287711  1
  B  B31  1  0.500000  0.516901  0.712512  1
  B  B32  1  0.500000  0.597819  0.027419  1
  B  B33  1  0.500000  0.402444  0.973002  1
  B  B34  1  0.500000  0.097362  0.472521  1
  B  B35  1  0.500000  0.902099  0.527206  1
