# generated using pymatgen
data_Ta5Mn2WS12
_symmetry_space_group_name_H-M   'P 1'
_cell_length_a   5.76743100
_cell_length_b   5.76742973
_cell_length_c   12.60008400
_cell_angle_alpha   90.00000000
_cell_angle_beta   90.00000000
_cell_angle_gamma   120.00001305
_symmetry_Int_Tables_number   1
_chemical_formula_structural   Ta5Mn2WS12
_chemical_formula_sum   'Ta5 Mn2 W1 S12'
_cell_volume   362.96833052
_cell_formula_units_Z   1
loop_
 _symmetry_equiv_pos_site_id
 _symmetry_equiv_pos_as_xyz
  1  'x, y, z'
loop_
 _atom_site_type_symbol
 _atom_site_label
 _atom_site_symmetry_multiplicity
 _atom_site_fract_x
 _atom_site_fract_y
 _atom_site_fract_z
 _atom_site_occupancy
  Ta  Ta0  1  0.000000  0.000000  0.500000  1
  Ta  Ta1  1  0.333333  0.666667  0.500460  1
  Ta  Ta2  1  0.666667  0.333333  0.000088  1
  Ta  Ta3  1  0.666667  0.333333  0.499540  1
  Ta  Ta4  1  0.333333  0.666667  0.999912  1
  Mn  Mn5  1  0.333333  0.666667  0.252738  1
  Mn  Mn6  1  0.666667  0.333333  0.747262  1
  W  W7  1  0.000000  0.000000  0.000000  1
  S  S8  1  0.328843  0.003225  0.123638  1
  S  S9  1  0.996775  0.325616  0.123638  1
  S  S10  1  0.666860  0.996308  0.624891  1
  S  S11  1  0.003225  0.328843  0.876362  1
  S  S12  1  0.674384  0.671157  0.123638  1
  S  S13  1  0.003692  0.670552  0.624891  1
  S  S14  1  0.325616  0.996775  0.876362  1
  S  S15  1  0.996308  0.666860  0.375109  1
  S  S16  1  0.329448  0.333140  0.624891  1
  S  S17  1  0.670552  0.003692  0.375109  1
  S  S18  1  0.671157  0.674384  0.876362  1
  S  S19  1  0.333140  0.329448  0.375109  1
