# generated using pymatgen
data_Tb11Dy5Cd4Co3Ru
_symmetry_space_group_name_H-M   'P 1'
_cell_length_a   9.58775226
_cell_length_b   9.59007136
_cell_length_c   9.59100699
_cell_angle_alpha   59.64641563
_cell_angle_beta   59.62957445
_cell_angle_gamma   59.62779150
_symmetry_Int_Tables_number   1
_chemical_formula_structural   Tb11Dy5Cd4Co3Ru
_chemical_formula_sum   'Tb11 Dy5 Cd4 Co3 Ru1'
_cell_volume   618.39590549
_cell_formula_units_Z   1
loop_
 _symmetry_equiv_pos_site_id
 _symmetry_equiv_pos_as_xyz
  1  'x, y, z'
loop_
 _atom_site_type_symbol
 _atom_site_label
 _atom_site_symmetry_multiplicity
 _atom_site_fract_x
 _atom_site_fract_y
 _atom_site_fract_z
 _atom_site_occupancy
  Tb  Tb0  1  0.812626  0.187828  0.812711  1
  Tb  Tb1  1  0.437675  0.057118  0.437710  1
  Tb  Tb2  1  0.599920  0.210925  0.599979  1
  Tb  Tb3  1  0.812617  0.812653  0.187862  1
  Tb  Tb4  1  0.211050  0.600221  0.599622  1
  Tb  Tb5  1  0.807998  0.189591  0.189637  1
  Tb  Tb6  1  0.057270  0.437758  0.437755  1
  Tb  Tb7  1  0.189667  0.808183  0.189298  1
  Tb  Tb8  1  0.599467  0.600153  0.210883  1
  Tb  Tb9  1  0.189653  0.189244  0.808197  1
  Tb  Tb10  1  0.061814  0.435955  0.061294  1
  Dy  Dy11  1  0.437912  0.437962  0.057044  1
  Dy  Dy12  1  0.595484  0.595679  0.595727  1
  Dy  Dy13  1  0.188140  0.812578  0.812600  1
  Dy  Dy14  1  0.061689  0.060971  0.436150  1
  Dy  Dy15  1  0.436138  0.061404  0.061579  1
  Cd  Cd16  1  0.829790  0.829895  0.507870  1
  Cd  Cd17  1  0.829924  0.829937  0.829705  1
  Cd  Cd18  1  0.507740  0.829650  0.829863  1
  Cd  Cd19  1  0.829581  0.507864  0.829905  1
  Co  Co20  1  0.828740  0.392502  0.392658  1
  Co  Co21  1  0.392295  0.828907  0.392643  1
  Co  Co22  1  0.392407  0.392614  0.828932  1
  Ru  Ru23  1  0.390406  0.390407  0.390377  1
