# generated using pymatgen
data_Ho3Tm7In8(IrPt)2
_symmetry_space_group_name_H-M   'P 1'
_cell_length_a   3.59873800
_cell_length_b   8.08104769
_cell_length_c   18.13384899
_cell_angle_alpha   89.89335599
_cell_angle_beta   90.00000000
_cell_angle_gamma   90.00000000
_symmetry_Int_Tables_number   1
_chemical_formula_structural   Ho3Tm7In8(IrPt)2
_chemical_formula_sum   'Ho3 Tm7 In8 Ir2 Pt2'
_cell_volume   527.35994709
_cell_formula_units_Z   1
loop_
 _symmetry_equiv_pos_site_id
 _symmetry_equiv_pos_as_xyz
  1  'x, y, z'
loop_
 _atom_site_type_symbol
 _atom_site_label
 _atom_site_symmetry_multiplicity
 _atom_site_fract_x
 _atom_site_fract_y
 _atom_site_fract_z
 _atom_site_occupancy
  Ho  Ho0  1  0.000000  0.750784  0.279890  1
  Ho  Ho1  1  0.000000  0.000051  0.999994  1
  Ho  Ho2  1  0.000000  0.500068  0.499989  1
  Tm  Tm3  1  0.000000  0.115225  0.411821  1
  Tm  Tm4  1  0.000000  0.884927  0.588305  1
  Tm  Tm5  1  0.000000  0.383280  0.913607  1
  Tm  Tm6  1  0.000000  0.616633  0.086273  1
  Tm  Tm7  1  0.000000  0.236247  0.222078  1
  Tm  Tm8  1  0.000000  0.763826  0.777906  1
  Tm  Tm9  1  0.000000  0.248741  0.720189  1
  In  In10  1  0.500000  0.423102  0.350944  1
  In  In11  1  0.500000  0.576634  0.649116  1
  In  In12  1  0.500000  0.074831  0.850544  1
  In  In13  1  0.500000  0.925386  0.149306  1
  In  In14  1  0.500000  0.292888  0.066592  1
  In  In15  1  0.500000  0.707044  0.933398  1
  In  In16  1  0.500000  0.206254  0.567447  1
  In  In17  1  0.500000  0.793828  0.432780  1
  Ir  Ir18  1  0.500000  0.022961  0.303934  1
  Ir  Ir19  1  0.500000  0.978108  0.696156  1
  Pt  Pt20  1  0.500000  0.477018  0.803579  1
  Pt  Pt21  1  0.500000  0.522163  0.196152  1
