# generated using pymatgen
data_MgZn5B5Ir11
_symmetry_space_group_name_H-M   'P 1'
_cell_length_a   2.89337400
_cell_length_b   8.51648572
_cell_length_c   11.44954121
_cell_angle_alpha   89.62167556
_cell_angle_beta   90.00000000
_cell_angle_gamma   90.00000000
_symmetry_Int_Tables_number   1
_chemical_formula_structural   MgZn5B5Ir11
_chemical_formula_sum   'Mg1 Zn5 B5 Ir11'
_cell_volume   282.12632654
_cell_formula_units_Z   1
loop_
 _symmetry_equiv_pos_site_id
 _symmetry_equiv_pos_as_xyz
  1  'x, y, z'
loop_
 _atom_site_type_symbol
 _atom_site_label
 _atom_site_symmetry_multiplicity
 _atom_site_fract_x
 _atom_site_fract_y
 _atom_site_fract_z
 _atom_site_occupancy
  Mg  Mg0  1  0.500000  0.000316  0.197623  1
  Zn  Zn1  1  0.500000  0.348592  0.502295  1
  Zn  Zn2  1  0.500000  0.644061  0.499213  1
  Zn  Zn3  1  0.500000  0.998947  0.501125  1
  Zn  Zn4  1  0.500000  0.511474  0.003312  1
  Zn  Zn5  1  0.500000  0.987788  0.795785  1
  B  B6  1  0.500000  0.316166  0.267671  1
  B  B7  1  0.500000  0.688989  0.255257  1
  B  B8  1  0.500000  0.681715  0.743667  1
  B  B9  1  0.500000  0.316018  0.735958  1
  B  B10  1  0.500000  0.178412  0.997946  1
  Ir  Ir11  1  0.000000  0.501539  0.313514  1
  Ir  Ir12  1  0.000000  0.499127  0.682733  1
  Ir  Ir13  1  0.000000  0.173234  0.358100  1
  Ir  Ir14  1  0.000000  0.824903  0.357226  1
  Ir  Ir15  1  0.000000  0.822037  0.642719  1
  Ir  Ir16  1  0.000000  0.168640  0.650646  1
  Ir  Ir17  1  0.000000  0.284695  0.123516  1
  Ir  Ir18  1  0.000000  0.729281  0.118219  1
  Ir  Ir19  1  0.000000  0.721636  0.880799  1
  Ir  Ir20  1  0.000000  0.298885  0.881108  1
  Ir  Ir21  1  0.000000  0.995545  0.991568  1
