# generated using pymatgen
data_La3Hg5Rh
_symmetry_space_group_name_H-M   'P 1'
_cell_length_a   8.31983900
_cell_length_b   8.31983881
_cell_length_c   3.94247000
_cell_angle_alpha   90.00000000
_cell_angle_beta   90.00000000
_cell_angle_gamma   119.99999677
_symmetry_Int_Tables_number   1
_chemical_formula_structural   La3Hg5Rh
_chemical_formula_sum   'La3 Hg5 Rh1'
_cell_volume   236.33545408
_cell_formula_units_Z   1
loop_
 _symmetry_equiv_pos_site_id
 _symmetry_equiv_pos_as_xyz
  1  'x, y, z'
loop_
 _atom_site_type_symbol
 _atom_site_label
 _atom_site_symmetry_multiplicity
 _atom_site_fract_x
 _atom_site_fract_y
 _atom_site_fract_z
 _atom_site_occupancy
  La  La0  1  0.424174  0.393990  0.500000  1
  La  La1  1  0.606010  0.030184  0.500000  1
  La  La2  1  0.969816  0.575826  0.500000  1
  Hg  Hg3  1  0.727493  0.722501  0.000000  1
  Hg  Hg4  1  0.277499  0.004992  0.000000  1
  Hg  Hg5  1  0.995008  0.272507  0.000000  1
  Hg  Hg6  1  0.333333  0.666667  0.000000  1
  Hg  Hg7  1  0.000000  0.000000  0.500000  1
  Rh  Rh8  1  0.666667  0.333333  0.000000  1
