# generated using pymatgen
data_Tm2Ga7Ni2Ag
_symmetry_space_group_name_H-M   'P 1'
_cell_length_a   7.89962320
_cell_length_b   7.89962420
_cell_length_c   6.49787550
_cell_angle_alpha   91.19601173
_cell_angle_beta   88.80398670
_cell_angle_gamma   149.76423990
_symmetry_Int_Tables_number   1
_chemical_formula_structural   Tm2Ga7Ni2Ag
_chemical_formula_sum   'Tm2 Ga7 Ni2 Ag1'
_cell_volume   204.14241828
_cell_formula_units_Z   1
loop_
 _symmetry_equiv_pos_site_id
 _symmetry_equiv_pos_as_xyz
  1  'x, y, z'
loop_
 _atom_site_type_symbol
 _atom_site_label
 _atom_site_symmetry_multiplicity
 _atom_site_fract_x
 _atom_site_fract_y
 _atom_site_fract_z
 _atom_site_occupancy
  Tm  Tm0  1  0.874572  0.125428  0.737133  1
  Tm  Tm1  1  0.125428  0.874572  0.262867  1
  Ga  Ga2  1  0.500000  0.500000  0.500000  1
  Ga  Ga3  1  0.066838  0.933162  0.759484  1
  Ga  Ga4  1  0.933162  0.066838  0.240516  1
  Ga  Ga5  1  0.683275  0.316725  0.956313  1
  Ga  Ga6  1  0.316725  0.683275  0.043687  1
  Ga  Ga7  1  0.684414  0.315586  0.555470  1
  Ga  Ga8  1  0.315586  0.684414  0.444530  1
  Ni  Ni9  1  0.222312  0.777688  0.749641  1
  Ni  Ni10  1  0.777688  0.222312  0.250359  1
  Ag  Ag11  1  0.500000  0.500000  0.000000  1
