# generated using pymatgen
data_CaPrTaMnO6
_symmetry_space_group_name_H-M   'P 1'
_cell_length_a   5.58899733
_cell_length_b   8.03304993
_cell_length_c   11.65186002
_cell_angle_alpha   89.99881850
_cell_angle_beta   89.99965501
_cell_angle_gamma   89.69776469
_symmetry_Int_Tables_number   1
_chemical_formula_structural   CaPrTaMnO6
_chemical_formula_sum   'Ca4 Pr4 Ta4 Mn4 O24'
_cell_volume   523.12272287
_cell_formula_units_Z   4
loop_
 _symmetry_equiv_pos_site_id
 _symmetry_equiv_pos_as_xyz
  1  'x, y, z'
loop_
 _atom_site_type_symbol
 _atom_site_label
 _atom_site_symmetry_multiplicity
 _atom_site_fract_x
 _atom_site_fract_y
 _atom_site_fract_z
 _atom_site_occupancy
  Ca  Ca0  1  0.513711  0.251078  0.276892  1
  Ca  Ca1  1  0.513694  0.251217  0.776923  1
  Ca  Ca2  1  0.013700  0.751082  0.473108  1
  Ca  Ca3  1  0.013776  0.751194  0.973079  1
  Pr  Pr4  1  0.984725  0.247054  0.029842  1
  Pr  Pr5  1  0.984491  0.247103  0.529845  1
  Pr  Pr6  1  0.484544  0.747044  0.220178  1
  Pr  Pr7  1  0.484738  0.747001  0.720173  1
  Ta  Ta8  1  0.999610  0.498775  0.252785  1
  Ta  Ta9  1  0.999760  0.498861  0.752897  1
  Ta  Ta10  1  0.499584  0.998781  0.497207  1
  Ta  Ta11  1  0.499786  0.998828  0.997120  1
  Mn  Mn12  1  0.998479  0.000015  0.751969  1
  Mn  Mn13  1  0.498524  0.500029  0.997952  1
  Mn  Mn14  1  0.998282  0.000023  0.252042  1
  Mn  Mn15  1  0.498278  0.500021  0.497939  1
  O  O16  1  0.606017  0.762382  0.019005  1
  O  O17  1  0.605942  0.762405  0.518989  1
  O  O18  1  0.105976  0.262416  0.230979  1
  O  O19  1  0.105950  0.262383  0.730973  1
  O  O20  1  0.210035  0.949624  0.093268  1
  O  O21  1  0.209964  0.949568  0.593254  1
  O  O22  1  0.709947  0.449602  0.156799  1
  O  O23  1  0.709944  0.449673  0.656801  1
  O  O24  1  0.184539  0.560155  0.108789  1
  O  O25  1  0.184549  0.560063  0.608727  1
  O  O26  1  0.684647  0.060095  0.141232  1
  O  O27  1  0.684547  0.060179  0.641187  1
  O  O28  1  0.893803  0.737804  0.271718  1
  O  O29  1  0.894045  0.737809  0.771691  1
  O  O30  1  0.393767  0.237817  0.478318  1
  O  O31  1  0.394042  0.237825  0.978322  1
  O  O32  1  0.291285  0.552304  0.344740  1
  O  O33  1  0.291581  0.552149  0.844648  1
  O  O34  1  0.791264  0.052314  0.405268  1
  O  O35  1  0.791530  0.052198  0.905317  1
  O  O36  1  0.317599  0.940779  0.354710  1
  O  O37  1  0.317819  0.940790  0.854692  1
  O  O38  1  0.817606  0.440738  0.395295  1
  O  O39  1  0.817911  0.440816  0.895330  1
