# generated using pymatgen
data_Tm12Zn2Fe2Os
_symmetry_space_group_name_H-M   'P 1'
_cell_length_a   8.14219794
_cell_length_b   8.14219809
_cell_length_c   8.14219715
_cell_angle_alpha   108.82266181
_cell_angle_beta   108.82265233
_cell_angle_gamma   110.77628128
_symmetry_Int_Tables_number   1
_chemical_formula_structural   Tm12Zn2Fe2Os
_chemical_formula_sum   'Tm12 Zn2 Fe2 Os1'
_cell_volume   415.36853172
_cell_formula_units_Z   1
loop_
 _symmetry_equiv_pos_site_id
 _symmetry_equiv_pos_as_xyz
  1  'x, y, z'
loop_
 _atom_site_type_symbol
 _atom_site_label
 _atom_site_symmetry_multiplicity
 _atom_site_fract_x
 _atom_site_fract_y
 _atom_site_fract_z
 _atom_site_occupancy
  Tm  Tm0  1  0.189218  0.432995  0.243776  1
  Tm  Tm1  1  0.810782  0.567005  0.756224  1
  Tm  Tm2  1  0.189218  0.945442  0.756224  1
  Tm  Tm3  1  0.945442  0.189218  0.756224  1
  Tm  Tm4  1  0.810782  0.054558  0.243776  1
  Tm  Tm5  1  0.054558  0.810782  0.243776  1
  Tm  Tm6  1  0.432995  0.189218  0.243776  1
  Tm  Tm7  1  0.567005  0.810782  0.756224  1
  Tm  Tm8  1  0.308920  0.308920  0.617839  1
  Tm  Tm9  1  0.691080  0.691080  0.382161  1
  Tm  Tm10  1  0.691080  0.308920  0.000000  1
  Tm  Tm11  1  0.308920  0.691080  0.000000  1
  Zn  Zn12  1  0.000000  0.500000  0.500000  1
  Zn  Zn13  1  0.500000  0.000000  0.500000  1
  Fe  Fe14  1  0.381471  0.381471  0.000000  1
  Fe  Fe15  1  0.618529  0.618529  0.000000  1
  Os  Os16  1  0.000000  0.000000  0.000000  1
