# generated using pymatgen
data_Ho4Al4Ir3Au
_symmetry_space_group_name_H-M   'P 1'
_cell_length_a   4.33502700
_cell_length_b   6.84348001
_cell_length_c   7.89822301
_cell_angle_alpha   90.00717424
_cell_angle_beta   90.00000000
_cell_angle_gamma   90.00000000
_symmetry_Int_Tables_number   1
_chemical_formula_structural   Ho4Al4Ir3Au
_chemical_formula_sum   'Ho4 Al4 Ir3 Au1'
_cell_volume   234.31397894
_cell_formula_units_Z   1
loop_
 _symmetry_equiv_pos_site_id
 _symmetry_equiv_pos_as_xyz
  1  'x, y, z'
loop_
 _atom_site_type_symbol
 _atom_site_label
 _atom_site_symmetry_multiplicity
 _atom_site_fract_x
 _atom_site_fract_y
 _atom_site_fract_z
 _atom_site_occupancy
  Ho  Ho0  1  0.250000  0.024718  0.326399  1
  Ho  Ho1  1  0.250000  0.541741  0.182477  1
  Ho  Ho2  1  0.750000  0.969674  0.677937  1
  Ho  Ho3  1  0.750000  0.476552  0.813788  1
  Al  Al4  1  0.250000  0.135870  0.931365  1
  Al  Al5  1  0.250000  0.641357  0.562443  1
  Al  Al6  1  0.750000  0.847488  0.060107  1
  Al  Al7  1  0.750000  0.364417  0.445078  1
  Ir  Ir8  1  0.250000  0.267897  0.619316  1
  Ir  Ir9  1  0.250000  0.765381  0.881040  1
  Ir  Ir10  1  0.750000  0.734407  0.378831  1
  Au  Au11  1  0.750000  0.230498  0.121220  1
