# generated using pymatgen
data_YbPr6PtI12
_symmetry_space_group_name_H-M   'P 1'
_cell_length_a   10.15621273
_cell_length_b   10.15621310
_cell_length_c   10.15621299
_cell_angle_alpha   107.04579771
_cell_angle_beta   107.04579319
_cell_angle_gamma   107.04579425
_symmetry_Int_Tables_number   1
_chemical_formula_structural   YbPr6PtI12
_chemical_formula_sum   'Yb1 Pr6 Pt1 I12'
_cell_volume   871.35891863
_cell_formula_units_Z   1
loop_
 _symmetry_equiv_pos_site_id
 _symmetry_equiv_pos_as_xyz
  1  'x, y, z'
loop_
 _atom_site_type_symbol
 _atom_site_label
 _atom_site_symmetry_multiplicity
 _atom_site_fract_x
 _atom_site_fract_y
 _atom_site_fract_z
 _atom_site_occupancy
  Yb  Yb0  1  0.500000  0.500000  0.500000  1
  Pr  Pr1  1  0.973880  0.899008  0.693636  1
  Pr  Pr2  1  0.026120  0.100992  0.306364  1
  Pr  Pr3  1  0.100992  0.306364  0.026120  1
  Pr  Pr4  1  0.306364  0.026120  0.100992  1
  Pr  Pr5  1  0.899008  0.693636  0.973880  1
  Pr  Pr6  1  0.693636  0.973880  0.899008  1
  Pt  Pt7  1  0.000000  0.000000  0.000000  1
  I  I8  1  0.539569  0.617518  0.837464  1
  I  I9  1  0.460431  0.382482  0.162536  1
  I  I10  1  0.319137  0.927586  0.775359  1
  I  I11  1  0.382482  0.162536  0.460431  1
  I  I12  1  0.927586  0.775359  0.319137  1
  I  I13  1  0.680863  0.072414  0.224641  1
  I  I14  1  0.072414  0.224641  0.680863  1
  I  I15  1  0.775359  0.319137  0.927586  1
  I  I16  1  0.224641  0.680863  0.072414  1
  I  I17  1  0.837464  0.539569  0.617518  1
  I  I18  1  0.162536  0.460431  0.382482  1
  I  I19  1  0.617518  0.837464  0.539569  1
