# generated using pymatgen
data_Tb4SmY2FeI12
_symmetry_space_group_name_H-M   'P 1'
_cell_length_a   9.74960881
_cell_length_b   9.81043548
_cell_length_c   9.81254738
_cell_angle_alpha   106.94122291
_cell_angle_beta   107.13577036
_cell_angle_gamma   106.80672125
_symmetry_Int_Tables_number   1
_chemical_formula_structural   Tb4SmY2FeI12
_chemical_formula_sum   'Tb4 Sm1 Y2 Fe1 I12'
_cell_volume   782.45307529
_cell_formula_units_Z   1
loop_
 _symmetry_equiv_pos_site_id
 _symmetry_equiv_pos_as_xyz
  1  'x, y, z'
loop_
 _atom_site_type_symbol
 _atom_site_label
 _atom_site_symmetry_multiplicity
 _atom_site_fract_x
 _atom_site_fract_y
 _atom_site_fract_z
 _atom_site_occupancy
  Tb  Tb0  1  0.978355  0.906025  0.706160  1
  Tb  Tb1  1  0.094149  0.293354  0.022583  1
  Tb  Tb2  1  0.279402  0.021030  0.089082  1
  Tb  Tb3  1  0.907528  0.706977  0.977892  1
  Sm  Sm4  1  0.716940  0.978836  0.909854  1
  Y  Y5  1  0.500111  0.499988  0.500225  1
  Y  Y6  1  0.022285  0.093928  0.294111  1
  Fe  Fe7  1  0.999397  0.000135  0.999408  1
  I  I8  1  0.071930  0.225580  0.678308  1
  I  I9  1  0.385675  0.160391  0.461120  1
  I  I10  1  0.613372  0.837403  0.534776  1
  I  I11  1  0.228094  0.681238  0.073001  1
  I  I12  1  0.774779  0.323139  0.928088  1
  I  I13  1  0.681326  0.072842  0.228998  1
  I  I14  1  0.536692  0.612605  0.838347  1
  I  I15  1  0.840383  0.536943  0.614509  1
  I  I16  1  0.928315  0.774945  0.320879  1
  I  I17  1  0.319236  0.928699  0.775830  1
  I  I18  1  0.462728  0.383620  0.161397  1
  I  I19  1  0.159303  0.462320  0.385431  1
