# generated using pymatgen
data_Ba5Ca(HfH9)3
_symmetry_space_group_name_H-M   'P 1'
_cell_length_a   9.67811600
_cell_length_b   9.54226767
_cell_length_c   5.59686200
_cell_angle_alpha   90.00000000
_cell_angle_beta   90.00000000
_cell_angle_gamma   119.53676755
_symmetry_Int_Tables_number   1
_chemical_formula_structural   Ba5Ca(HfH9)3
_chemical_formula_sum   'Ba5 Ca1 Hf3 H27'
_cell_volume   449.70322050
_cell_formula_units_Z   1
loop_
 _symmetry_equiv_pos_site_id
 _symmetry_equiv_pos_as_xyz
  1  'x, y, z'
loop_
 _atom_site_type_symbol
 _atom_site_label
 _atom_site_symmetry_multiplicity
 _atom_site_fract_x
 _atom_site_fract_y
 _atom_site_fract_z
 _atom_site_occupancy
  Ba  Ba0  1  0.734976  0.750253  0.500000  1
  Ba  Ba1  1  0.265024  0.015277  0.500000  1
  Ba  Ba2  1  0.000000  0.588920  0.000000  1
  Ba  Ba3  1  0.385694  0.391683  0.000000  1
  Ba  Ba4  1  0.614306  0.005989  0.000000  1
  Ca  Ca5  1  0.000000  0.238145  0.500000  1
  Hf  Hf6  1  0.682423  0.328773  0.500000  1
  Hf  Hf7  1  0.317577  0.646350  0.500000  1
  Hf  Hf8  1  0.000000  0.010116  0.000000  1
  H  H9  1  0.828239  0.307409  0.721803  1
  H  H10  1  0.738109  0.506528  0.726297  1
  H  H11  1  0.528673  0.205502  0.756562  1
  H  H12  1  0.171761  0.479171  0.278197  1
  H  H13  1  0.528673  0.205502  0.243438  1
  H  H14  1  0.828239  0.307409  0.278197  1
  H  H15  1  0.738109  0.506528  0.273703  1
  H  H16  1  0.261891  0.768420  0.726297  1
  H  H17  1  0.471327  0.676829  0.756562  1
  H  H18  1  0.217002  0.028842  0.000000  1
  H  H19  1  0.782998  0.811840  0.000000  1
  H  H20  1  0.000000  0.217805  0.000000  1
  H  H21  1  0.859331  0.018349  0.255982  1
  H  H22  1  0.140669  0.159019  0.744018  1
  H  H23  1  0.000000  0.852665  0.760201  1
  H  H24  1  0.000000  0.852665  0.239799  1
  H  H25  1  0.140669  0.159019  0.255982  1
  H  H26  1  0.859331  0.018349  0.744018  1
  H  H27  1  0.046142  0.636081  0.500000  1
  H  H28  1  0.510924  0.862585  0.500000  1
  H  H29  1  0.386335  0.482147  0.500000  1
  H  H30  1  0.489076  0.351661  0.500000  1
  H  H31  1  0.953858  0.589939  0.500000  1
  H  H32  1  0.613665  0.095812  0.500000  1
  H  H33  1  0.171761  0.479171  0.721803  1
  H  H34  1  0.261891  0.768420  0.273703  1
  H  H35  1  0.471327  0.676829  0.243438  1
