# generated using pymatgen
data_ErTh2(MgAu)3
_symmetry_space_group_name_H-M   'P 1'
_cell_length_a   7.70412107
_cell_length_b   7.70412069
_cell_length_c   4.18026500
_cell_angle_alpha   90.00000000
_cell_angle_beta   90.00000000
_cell_angle_gamma   119.98441445
_symmetry_Int_Tables_number   1
_chemical_formula_structural   ErTh2(MgAu)3
_chemical_formula_sum   'Er1 Th2 Mg3 Au3'
_cell_volume   214.90613166
_cell_formula_units_Z   1
loop_
 _symmetry_equiv_pos_site_id
 _symmetry_equiv_pos_as_xyz
  1  'x, y, z'
loop_
 _atom_site_type_symbol
 _atom_site_label
 _atom_site_symmetry_multiplicity
 _atom_site_fract_x
 _atom_site_fract_y
 _atom_site_fract_z
 _atom_site_occupancy
  Er  Er0  1  0.409641  0.409641  0.000000  1
  Th  Th1  1  0.588282  0.999925  0.000000  1
  Th  Th2  1  0.999925  0.588282  0.000000  1
  Mg  Mg3  1  0.246128  0.005673  0.500000  1
  Mg  Mg4  1  0.005673  0.246128  0.500000  1
  Mg  Mg5  1  0.750546  0.750546  0.500000  1
  Au  Au6  1  0.334662  0.663828  0.500000  1
  Au  Au7  1  0.663828  0.334662  0.500000  1
  Au  Au8  1  0.001315  0.001315  0.000000  1
