# generated using pymatgen
data_Pr2Nd10Pd3Ru
_symmetry_space_group_name_H-M   'P 1'
_cell_length_a   6.61643107
_cell_length_b   7.34563355
_cell_length_c   9.98377800
_cell_angle_alpha   90.00000000
_cell_angle_beta   90.00000000
_cell_angle_gamma   89.96073152
_symmetry_Int_Tables_number   1
_chemical_formula_structural   Pr2Nd10Pd3Ru
_chemical_formula_sum   'Pr2 Nd10 Pd3 Ru1'
_cell_volume   485.23024686
_cell_formula_units_Z   1
loop_
 _symmetry_equiv_pos_site_id
 _symmetry_equiv_pos_as_xyz
  1  'x, y, z'
loop_
 _atom_site_type_symbol
 _atom_site_label
 _atom_site_symmetry_multiplicity
 _atom_site_fract_x
 _atom_site_fract_y
 _atom_site_fract_z
 _atom_site_occupancy
  Pr  Pr0  1  0.863950  0.526378  0.250000  1
  Pr  Pr1  1  0.637896  0.028471  0.250000  1
  Nd  Nd2  1  0.332303  0.679861  0.057398  1
  Nd  Nd3  1  0.165702  0.178247  0.438730  1
  Nd  Nd4  1  0.665832  0.327932  0.566876  1
  Nd  Nd5  1  0.825266  0.817635  0.934868  1
  Nd  Nd6  1  0.665832  0.327932  0.933124  1
  Nd  Nd7  1  0.825266  0.817635  0.565132  1
  Nd  Nd8  1  0.332303  0.679861  0.442602  1
  Nd  Nd9  1  0.165702  0.178247  0.061270  1
  Nd  Nd10  1  0.146356  0.472970  0.750000  1
  Nd  Nd11  1  0.369457  0.958402  0.750000  1
  Pd  Pd12  1  0.072501  0.885015  0.250000  1
  Pd  Pd13  1  0.426192  0.388323  0.250000  1
  Pd  Pd14  1  0.938267  0.115169  0.750000  1
  Ru  Ru15  1  0.567174  0.617920  0.750000  1
