# generated using pymatgen
data_Zr6Ti7Al9Ir8
_symmetry_space_group_name_H-M   'P 1'
_cell_length_a   8.93266352
_cell_length_b   8.93266291
_cell_length_c   8.93266289
_cell_angle_alpha   59.76139988
_cell_angle_beta   59.76140340
_cell_angle_gamma   59.76140962
_symmetry_Int_Tables_number   1
_chemical_formula_structural   Zr6Ti7Al9Ir8
_chemical_formula_sum   'Zr6 Ti7 Al9 Ir8'
_cell_volume   501.26643701
_cell_formula_units_Z   1
loop_
 _symmetry_equiv_pos_site_id
 _symmetry_equiv_pos_as_xyz
  1  'x, y, z'
loop_
 _atom_site_type_symbol
 _atom_site_label
 _atom_site_symmetry_multiplicity
 _atom_site_fract_x
 _atom_site_fract_y
 _atom_site_fract_z
 _atom_site_occupancy
  Zr  Zr0  1  0.209448  0.209448  0.789864  1
  Zr  Zr1  1  0.789864  0.209448  0.209448  1
  Zr  Zr2  1  0.209448  0.789864  0.209448  1
  Zr  Zr3  1  0.794184  0.794184  0.197744  1
  Zr  Zr4  1  0.197744  0.794184  0.794184  1
  Zr  Zr5  1  0.794184  0.197744  0.794184  1
  Ti  Ti6  1  0.378570  0.378570  0.378570  1
  Ti  Ti7  1  0.379255  0.864308  0.379255  1
  Ti  Ti8  1  0.864308  0.379255  0.379255  1
  Ti  Ti9  1  0.379255  0.379255  0.864308  1
  Ti  Ti10  1  0.834736  0.499463  0.834736  1
  Ti  Ti11  1  0.499463  0.834736  0.834736  1
  Ti  Ti12  1  0.834736  0.834736  0.499463  1
  Al  Al13  1  0.163473  0.163473  0.163473  1
  Al  Al14  1  0.165825  0.504012  0.165825  1
  Al  Al15  1  0.504012  0.165825  0.165825  1
  Al  Al16  1  0.165825  0.165825  0.504012  1
  Al  Al17  1  0.619641  0.619641  0.619641  1
  Al  Al18  1  0.618677  0.144035  0.618677  1
  Al  Al19  1  0.144035  0.618677  0.618677  1
  Al  Al20  1  0.618677  0.618677  0.144035  1
  Al  Al21  1  0.827846  0.827846  0.827846  1
  Ir  Ir22  1  0.002926  0.002926  0.498018  1
  Ir  Ir23  1  0.498018  0.002926  0.002926  1
  Ir  Ir24  1  0.002926  0.498018  0.002926  1
  Ir  Ir25  1  0.498894  0.498894  0.002406  1
  Ir  Ir26  1  0.002406  0.498894  0.498894  1
  Ir  Ir27  1  0.498894  0.002406  0.498894  1
  Ir  Ir28  1  0.500792  0.500792  0.500792  1
  Ir  Ir29  1  0.001937  0.001937  0.001937  1
