# generated using pymatgen
data_EuCd3P7N12
_symmetry_space_group_name_H-M   'P 1'
_cell_length_a   7.44893780
_cell_length_b   7.49146603
_cell_length_c   7.49146708
_cell_angle_alpha   109.58592676
_cell_angle_beta   109.35625921
_cell_angle_gamma   109.35627271
_symmetry_Int_Tables_number   1
_chemical_formula_structural   EuCd3P7N12
_chemical_formula_sum   'Eu1 Cd3 P7 N12'
_cell_volume   322.27033540
_cell_formula_units_Z   1
loop_
 _symmetry_equiv_pos_site_id
 _symmetry_equiv_pos_as_xyz
  1  'x, y, z'
loop_
 _atom_site_type_symbol
 _atom_site_label
 _atom_site_symmetry_multiplicity
 _atom_site_fract_x
 _atom_site_fract_y
 _atom_site_fract_z
 _atom_site_occupancy
  Eu  Eu0  1  0.659133  0.000000  0.000000  1
  Cd  Cd1  1  0.992554  0.000000  0.660321  1
  Cd  Cd2  1  0.992554  0.660321  0.000000  1
  Cd  Cd3  1  0.332233  0.339679  0.339679  1
  P  P4  1  0.247007  0.750574  0.497348  1
  P  P5  1  0.749659  0.253226  0.502652  1
  P  P6  1  0.749659  0.502652  0.253226  1
  P  P7  1  0.247007  0.497348  0.750574  1
  P  P8  1  0.496433  0.746774  0.249426  1
  P  P9  1  0.496433  0.249426  0.746774  1
  P  P10  1  0.034971  0.000000  0.000000  1
  N  N11  1  0.715794  0.298721  0.298721  1
  N  N12  1  0.285579  0.705234  0.287169  1
  N  N13  1  0.304210  0.594444  0.594444  1
  N  N14  1  0.580346  0.581935  0.294766  1
  N  N15  1  0.417073  0.701279  0.000000  1
  N  N16  1  0.998411  0.712831  0.418065  1
  N  N17  1  0.580346  0.294766  0.581935  1
  N  N18  1  0.709766  0.000000  0.405556  1
  N  N19  1  0.417073  0.000000  0.701279  1
  N  N20  1  0.709766  0.405556  0.000000  1
  N  N21  1  0.285579  0.287169  0.705234  1
  N  N22  1  0.998411  0.418065  0.712831  1
