# generated using pymatgen
data_Y2ErAlGa4Ni
_symmetry_space_group_name_H-M   'P 1'
_cell_length_a   6.84824266
_cell_length_b   6.93275635
_cell_length_c   4.24487900
_cell_angle_alpha   90.00000000
_cell_angle_beta   90.00000000
_cell_angle_gamma   119.97267692
_symmetry_Int_Tables_number   1
_chemical_formula_structural   Y2ErAlGa4Ni
_chemical_formula_sum   'Y2 Er1 Al1 Ga4 Ni1'
_cell_volume   174.58242893
_cell_formula_units_Z   1
loop_
 _symmetry_equiv_pos_site_id
 _symmetry_equiv_pos_as_xyz
  1  'x, y, z'
loop_
 _atom_site_type_symbol
 _atom_site_label
 _atom_site_symmetry_multiplicity
 _atom_site_fract_x
 _atom_site_fract_y
 _atom_site_fract_z
 _atom_site_occupancy
  Y  Y0  1  0.594330  0.001145  0.500000  1
  Y  Y1  1  0.407199  0.409184  0.500000  1
  Er  Er2  1  0.999243  0.594738  0.500000  1
  Al  Al3  1  0.228062  0.999354  0.000000  1
  Ga  Ga4  1  0.003103  0.237927  0.000000  1
  Ga  Ga5  1  0.666770  0.331879  0.000000  1
  Ga  Ga6  1  0.330387  0.668995  0.000000  1
  Ga  Ga7  1  0.765568  0.761917  0.000000  1
  Ni  Ni8  1  0.005337  0.994861  0.500000  1
