# generated using pymatgen
data_Y8Er4Ru7
_symmetry_space_group_name_H-M   'P 1'
_cell_length_a   11.32286600
_cell_length_b   8.39745586
_cell_length_c   11.25567500
_cell_angle_alpha   56.38990142
_cell_angle_beta   90.00000000
_cell_angle_gamma   90.00000000
_symmetry_Int_Tables_number   1
_chemical_formula_structural   Y8Er4Ru7
_chemical_formula_sum   'Y16 Er8 Ru14'
_cell_volume   891.30986335
_cell_formula_units_Z   2
loop_
 _symmetry_equiv_pos_site_id
 _symmetry_equiv_pos_as_xyz
  1  'x, y, z'
loop_
 _atom_site_type_symbol
 _atom_site_label
 _atom_site_symmetry_multiplicity
 _atom_site_fract_x
 _atom_site_fract_y
 _atom_site_fract_z
 _atom_site_occupancy
  Y  Y0  1  0.705369  0.241766  0.532898  1
  Y  Y1  1  0.205369  0.758234  0.967102  1
  Y  Y2  1  0.843766  0.507679  0.655987  1
  Y  Y3  1  0.343766  0.492321  0.844013  1
  Y  Y4  1  0.156234  0.492321  0.344013  1
  Y  Y5  1  0.656234  0.507679  0.155987  1
  Y  Y6  1  0.005600  0.854616  0.359585  1
  Y  Y7  1  0.505600  0.145384  0.140415  1
  Y  Y8  1  0.994400  0.145384  0.640415  1
  Y  Y9  1  0.494400  0.854616  0.859585  1
  Y  Y10  1  0.794631  0.241766  0.032898  1
  Y  Y11  1  0.294631  0.758234  0.467102  1
  Y  Y12  1  0.930300  0.777037  0.089343  1
  Y  Y13  1  0.430300  0.222963  0.410657  1
  Y  Y14  1  0.069700  0.222963  0.910657  1
  Y  Y15  1  0.569700  0.777037  0.589343  1
  Er  Er16  1  0.302080  0.241786  0.675819  1
  Er  Er17  1  0.802080  0.758214  0.824181  1
  Er  Er18  1  0.697920  0.758214  0.324181  1
  Er  Er19  1  0.197920  0.241786  0.175819  1
  Er  Er20  1  0.926320  0.280878  0.294061  1
  Er  Er21  1  0.426320  0.719122  0.205939  1
  Er  Er22  1  0.073680  0.719122  0.705939  1
  Er  Er23  1  0.573680  0.280878  0.794061  1
  Ru  Ru24  1  0.500000  0.500000  0.500000  1
  Ru  Ru25  1  0.000000  0.500000  0.000000  1
  Ru  Ru26  1  0.646453  0.924982  0.034617  1
  Ru  Ru27  1  0.146453  0.075018  0.465383  1
  Ru  Ru28  1  0.353547  0.075018  0.965383  1
  Ru  Ru29  1  0.853547  0.924982  0.534617  1
  Ru  Ru30  1  0.396552  0.484374  0.104630  1
  Ru  Ru31  1  0.896552  0.515626  0.395370  1
  Ru  Ru32  1  0.603448  0.515626  0.895370  1
  Ru  Ru33  1  0.103448  0.484374  0.604630  1
  Ru  Ru34  1  0.815068  0.095507  0.849434  1
  Ru  Ru35  1  0.315068  0.904493  0.650566  1
  Ru  Ru36  1  0.184932  0.904493  0.150566  1
  Ru  Ru37  1  0.684932  0.095507  0.349434  1
