# generated using pymatgen
data_PuCu2(PO5)2
_symmetry_space_group_name_H-M   'P 1'
_cell_length_a   5.01514310
_cell_length_b   5.77348606
_cell_length_c   7.57282800
_cell_angle_alpha   112.40787345
_cell_angle_beta   106.71561238
_cell_angle_gamma   90.00000213
_symmetry_Int_Tables_number   1
_chemical_formula_structural   PuCu2(PO5)2
_chemical_formula_sum   'Pu1 Cu2 P2 O10'
_cell_volume   192.65381531
_cell_formula_units_Z   1
loop_
 _symmetry_equiv_pos_site_id
 _symmetry_equiv_pos_as_xyz
  1  'x, y, z'
loop_
 _atom_site_type_symbol
 _atom_site_label
 _atom_site_symmetry_multiplicity
 _atom_site_fract_x
 _atom_site_fract_y
 _atom_site_fract_z
 _atom_site_occupancy
  Pu  Pu0  1  0.000000  0.000000  0.000000  1
  Cu  Cu1  1  0.499999  0.000000  0.500000  1
  Cu  Cu2  1  0.499999  0.500000  0.500000  1
  P  P3  1  0.912132  0.646177  0.292356  1
  P  P4  1  0.087866  0.353823  0.707644  1
  O  O5  1  0.854983  0.363238  0.167457  1
  O  O6  1  0.854983  0.804219  0.167457  1
  O  O7  1  0.337916  0.094708  0.189416  1
  O  O8  1  0.720772  0.715828  0.431658  1
  O  O9  1  0.223022  0.718261  0.436524  1
  O  O10  1  0.776979  0.281738  0.563475  1
  O  O11  1  0.279227  0.284171  0.568342  1
  O  O12  1  0.662083  0.905291  0.810584  1
  O  O13  1  0.145016  0.195782  0.832544  1
  O  O14  1  0.145016  0.636761  0.832544  1
