# generated using pymatgen
data_Ce3Mg5(B6Os)4
_symmetry_space_group_name_H-M   'P 1'
_cell_length_a   3.59229200
_cell_length_b   8.93476279
_cell_length_c   11.30405199
_cell_angle_alpha   90.00044567
_cell_angle_beta   90.00000000
_cell_angle_gamma   90.00000000
_symmetry_Int_Tables_number   1
_chemical_formula_structural   Ce3Mg5(B6Os)4
_chemical_formula_sum   'Ce3 Mg5 B24 Os4'
_cell_volume   362.81798271
_cell_formula_units_Z   1
loop_
 _symmetry_equiv_pos_site_id
 _symmetry_equiv_pos_as_xyz
  1  'x, y, z'
loop_
 _atom_site_type_symbol
 _atom_site_label
 _atom_site_symmetry_multiplicity
 _atom_site_fract_x
 _atom_site_fract_y
 _atom_site_fract_z
 _atom_site_occupancy
  Ce  Ce0  1  0.000000  0.318864  0.415497  1
  Ce  Ce1  1  0.000000  0.678913  0.587530  1
  Ce  Ce2  1  0.000000  0.823486  0.083925  1
  Mg  Mg3  1  0.000000  0.172820  0.911867  1
  Mg  Mg4  1  0.000000  0.948082  0.376899  1
  Mg  Mg5  1  0.000000  0.054156  0.624720  1
  Mg  Mg6  1  0.000000  0.444186  0.124392  1
  Mg  Mg7  1  0.000000  0.555428  0.874099  1
  B  B8  1  0.500000  0.555878  0.431216  1
  B  B9  1  0.500000  0.443598  0.570384  1
  B  B10  1  0.500000  0.056750  0.065428  1
  B  B11  1  0.500000  0.945628  0.931480  1
  B  B12  1  0.500000  0.755346  0.417852  1
  B  B13  1  0.500000  0.244140  0.585091  1
  B  B14  1  0.500000  0.255490  0.077626  1
  B  B15  1  0.500000  0.746642  0.917748  1
  B  B16  1  0.500000  0.793841  0.263683  1
  B  B17  1  0.500000  0.204921  0.739790  1
  B  B18  1  0.500000  0.293244  0.233912  1
  B  B19  1  0.500000  0.707474  0.764793  1
  B  B20  1  0.500000  0.628260  0.182034  1
  B  B21  1  0.500000  0.369513  0.821058  1
  B  B22  1  0.500000  0.128591  0.316217  1
  B  B23  1  0.500000  0.872835  0.683449  1
  B  B24  1  0.500000  0.983250  0.211769  1
  B  B25  1  0.500000  0.020615  0.787349  1
  B  B26  1  0.500000  0.481529  0.285352  1
  B  B27  1  0.500000  0.517186  0.715857  1
  B  B28  1  0.500000  0.592193  0.024929  1
  B  B29  1  0.500000  0.404939  0.974002  1
  B  B30  1  0.500000  0.096528  0.474016  1
  B  B31  1  0.500000  0.903377  0.526274  1
  Os  Os32  1  0.000000  0.640922  0.317516  1
  Os  Os33  1  0.000000  0.359029  0.684771  1
  Os  Os34  1  0.000000  0.142707  0.178788  1
  Os  Os35  1  0.000000  0.859642  0.818686  1
