# generated using pymatgen
data_Pr2Nd3Ir2Ru
_symmetry_space_group_name_H-M   'P 1'
_cell_length_a   11.24770700
_cell_length_b   11.24770700
_cell_length_c   6.63950400
_cell_angle_alpha   90.00000000
_cell_angle_beta   90.00000000
_cell_angle_gamma   90.00000000
_symmetry_Int_Tables_number   1
_chemical_formula_structural   Pr2Nd3Ir2Ru
_chemical_formula_sum   'Pr8 Nd12 Ir8 Ru4'
_cell_volume   839.96971130
_cell_formula_units_Z   4
loop_
 _symmetry_equiv_pos_site_id
 _symmetry_equiv_pos_as_xyz
  1  'x, y, z'
loop_
 _atom_site_type_symbol
 _atom_site_label
 _atom_site_symmetry_multiplicity
 _atom_site_fract_x
 _atom_site_fract_y
 _atom_site_fract_z
 _atom_site_occupancy
  Pr  Pr0  1  0.207781  0.410986  0.617866  1
  Pr  Pr1  1  0.207781  0.589016  0.117853  1
  Pr  Pr2  1  0.792219  0.410984  0.117853  1
  Pr  Pr3  1  0.792219  0.589014  0.617866  1
  Pr  Pr4  1  0.910984  0.707781  0.117853  1
  Pr  Pr5  1  0.910986  0.292219  0.617866  1
  Pr  Pr6  1  0.089014  0.707781  0.617866  1
  Pr  Pr7  1  0.089016  0.292219  0.117853  1
  Nd  Nd8  1  0.293963  0.087685  0.383256  1
  Nd  Nd9  1  0.293970  0.912314  0.883266  1
  Nd  Nd10  1  0.706030  0.087686  0.883266  1
  Nd  Nd11  1  0.706037  0.912315  0.383256  1
  Nd  Nd12  1  0.587686  0.793970  0.883266  1
  Nd  Nd13  1  0.587685  0.206037  0.383256  1
  Nd  Nd14  1  0.412315  0.793963  0.383256  1
  Nd  Nd15  1  0.412314  0.206030  0.883266  1
  Nd  Nd16  1  0.000000  0.000000  0.498948  1
  Nd  Nd17  1  0.000000  0.000000  0.998952  1
  Nd  Nd18  1  0.500000  0.500000  0.998952  1
  Nd  Nd19  1  0.500000  0.500000  0.498948  1
  Ir  Ir20  1  0.846812  0.150924  0.249360  1
  Ir  Ir21  1  0.846810  0.849077  0.749365  1
  Ir  Ir22  1  0.153190  0.150923  0.749365  1
  Ir  Ir23  1  0.153188  0.849076  0.249360  1
  Ir  Ir24  1  0.650923  0.346810  0.749365  1
  Ir  Ir25  1  0.650924  0.653188  0.249360  1
  Ir  Ir26  1  0.349076  0.346812  0.249360  1
  Ir  Ir27  1  0.349077  0.653190  0.749365  1
  Ru  Ru28  1  0.500000  0.000000  0.118562  1
  Ru  Ru29  1  0.500000  0.000000  0.618553  1
  Ru  Ru30  1  0.000000  0.500000  0.881600  1
  Ru  Ru31  1  0.000000  0.500000  0.381619  1
