# generated using pymatgen
data_Mg4Sc2Co15Si7Ru
_symmetry_space_group_name_H-M   'P 1'
_cell_length_a   8.02753319
_cell_length_b   8.02754556
_cell_length_c   8.05447336
_cell_angle_alpha   60.25337055
_cell_angle_beta   60.25308169
_cell_angle_gamma   59.96102380
_symmetry_Int_Tables_number   1
_chemical_formula_structural   Mg4Sc2Co15Si7Ru
_chemical_formula_sum   'Mg4 Sc2 Co15 Si7 Ru1'
_cell_volume   368.30675774
_cell_formula_units_Z   1
loop_
 _symmetry_equiv_pos_site_id
 _symmetry_equiv_pos_as_xyz
  1  'x, y, z'
loop_
 _atom_site_type_symbol
 _atom_site_label
 _atom_site_symmetry_multiplicity
 _atom_site_fract_x
 _atom_site_fract_y
 _atom_site_fract_z
 _atom_site_occupancy
  Mg  Mg0  1  0.702122  0.702121  0.295141  1
  Mg  Mg1  1  0.299939  0.702646  0.294644  1
  Mg  Mg2  1  0.702646  0.299940  0.294644  1
  Mg  Mg3  1  0.294138  0.294138  0.706327  1
  Sc  Sc4  1  0.715023  0.283692  0.716751  1
  Sc  Sc5  1  0.283690  0.715023  0.716756  1
  Co  Co6  1  0.882664  0.357828  0.880840  1
  Co  Co7  1  0.357826  0.882665  0.880840  1
  Co  Co8  1  0.878805  0.878805  0.882116  1
  Co  Co9  1  0.122090  0.122091  0.636750  1
  Co  Co10  1  0.119952  0.641005  0.117614  1
  Co  Co11  1  0.641004  0.119952  0.117614  1
  Co  Co12  1  0.120959  0.120959  0.114309  1
  Co  Co13  1  0.674492  0.674492  0.976363  1
  Co  Co14  1  0.670971  0.980585  0.678516  1
  Co  Co15  1  0.980589  0.670969  0.678515  1
  Co  Co16  1  0.669133  0.669133  0.677119  1
  Co  Co17  1  0.327112  0.327113  0.018416  1
  Co  Co18  1  0.326515  0.020080  0.326933  1
  Co  Co19  1  0.020082  0.326515  0.326932  1
  Co  Co20  1  0.325287  0.325288  0.325178  1
  Si  Si21  1  0.004254  0.004250  0.983474  1
  Si  Si22  1  0.000354  0.000352  0.496762  1
  Si  Si23  1  0.500809  0.000093  0.500373  1
  Si  Si24  1  0.000093  0.500810  0.500372  1
  Si  Si25  1  0.499454  0.499456  0.002786  1
  Si  Si26  1  0.999558  0.496959  0.002829  1
  Si  Si27  1  0.496956  0.999558  0.002831  1
  Ru  Ru28  1  0.883485  0.883486  0.348252  1
