# generated using pymatgen
data_DyY7(MoI4)2
_symmetry_space_group_name_H-M   'P 1'
_cell_length_a   11.39484868
_cell_length_b   11.39260153
_cell_length_c   5.99152400
_cell_angle_alpha   90.38244405
_cell_angle_beta   90.39419526
_cell_angle_gamma   90.02896157
_symmetry_Int_Tables_number   1
_chemical_formula_structural   DyY7(MoI4)2
_chemical_formula_sum   'Dy1 Y7 Mo2 I8'
_cell_volume   777.76564103
_cell_formula_units_Z   1
loop_
 _symmetry_equiv_pos_site_id
 _symmetry_equiv_pos_as_xyz
  1  'x, y, z'
loop_
 _atom_site_type_symbol
 _atom_site_label
 _atom_site_symmetry_multiplicity
 _atom_site_fract_x
 _atom_site_fract_y
 _atom_site_fract_z
 _atom_site_occupancy
  Dy  Dy0  1  0.915876  0.795311  0.996673  1
  Y  Y1  1  0.207124  0.914943  0.002660  1
  Y  Y2  1  0.792891  0.085099  0.997426  1
  Y  Y3  1  0.084707  0.792644  0.497442  1
  Y  Y4  1  0.915005  0.206752  0.502571  1
  Y  Y5  1  0.792914  0.914515  0.496476  1
  Y  Y6  1  0.206834  0.084893  0.503482  1
  Y  Y7  1  0.084945  0.206797  0.003498  1
  Mo  Mo8  1  0.999708  0.000170  0.250072  1
  Mo  Mo9  1  0.000226  0.999639  0.749967  1
  I  I10  1  0.359069  0.848792  0.495658  1
  I  I11  1  0.640821  0.150897  0.504306  1
  I  I12  1  0.150655  0.640877  0.004345  1
  I  I13  1  0.848927  0.359035  0.995627  1
  I  I14  1  0.359153  0.151243  0.012174  1
  I  I15  1  0.641147  0.848506  0.987957  1
  I  I16  1  0.848723  0.640785  0.487505  1
  I  I17  1  0.151274  0.359101  0.512163  1
