# generated using pymatgen
data_LiDy(TeO4)2
_symmetry_space_group_name_H-M   'P 1'
_cell_length_a   6.00865500
_cell_length_b   5.12250284
_cell_length_c   10.93936065
_cell_angle_alpha   66.46235653
_cell_angle_beta   90.00000000
_cell_angle_gamma   90.00000000
_symmetry_Int_Tables_number   1
_chemical_formula_structural   LiDy(TeO4)2
_chemical_formula_sum   'Li2 Dy2 Te4 O16'
_cell_volume   308.69175163
_cell_formula_units_Z   2
loop_
 _symmetry_equiv_pos_site_id
 _symmetry_equiv_pos_as_xyz
  1  'x, y, z'
loop_
 _atom_site_type_symbol
 _atom_site_label
 _atom_site_symmetry_multiplicity
 _atom_site_fract_x
 _atom_site_fract_y
 _atom_site_fract_z
 _atom_site_occupancy
  Li  Li0  1  0.745430  0.000000  0.750000  1
  Li  Li1  1  0.254570  0.000000  0.250000  1
  Dy  Dy2  1  0.372600  0.500000  0.750000  1
  Dy  Dy3  1  0.627400  0.500000  0.250000  1
  Te  Te4  1  0.845481  0.743276  0.505442  1
  Te  Te5  1  0.154519  0.256724  0.494558  1
  Te  Te6  1  0.845481  0.256724  0.994558  1
  Te  Te7  1  0.154519  0.743276  0.005442  1
  O  O8  1  0.890551  0.837944  0.100313  1
  O  O9  1  0.109449  0.162056  0.899687  1
  O  O10  1  0.890551  0.162056  0.399687  1
  O  O11  1  0.109449  0.837944  0.600313  1
  O  O12  1  0.365835  0.726311  0.884468  1
  O  O13  1  0.634165  0.273689  0.115532  1
  O  O14  1  0.365835  0.273689  0.615532  1
  O  O15  1  0.634165  0.726311  0.384468  1
  O  O16  1  0.913145  0.666411  0.891376  1
  O  O17  1  0.086855  0.333589  0.108624  1
  O  O18  1  0.913145  0.333589  0.608624  1
  O  O19  1  0.086855  0.666411  0.391376  1
  O  O20  1  0.654772  0.775665  0.634242  1
  O  O21  1  0.345228  0.224335  0.365758  1
  O  O22  1  0.654772  0.224335  0.865758  1
  O  O23  1  0.345228  0.775665  0.134242  1
