# generated using pymatgen
data_Cs8Rb4Al2GaFeSe12
_symmetry_space_group_name_H-M   'P 1'
_cell_length_a   11.02394400
_cell_length_b   11.02394482
_cell_length_c   13.91324500
_cell_angle_alpha   90.00000000
_cell_angle_beta   90.00000000
_cell_angle_gamma   140.21482719
_symmetry_Int_Tables_number   1
_chemical_formula_structural   Cs8Rb4Al2GaFeSe12
_chemical_formula_sum   'Cs8 Rb4 Al2 Ga1 Fe1 Se12'
_cell_volume   1081.98674875
_cell_formula_units_Z   1
loop_
 _symmetry_equiv_pos_site_id
 _symmetry_equiv_pos_as_xyz
  1  'x, y, z'
loop_
 _atom_site_type_symbol
 _atom_site_label
 _atom_site_symmetry_multiplicity
 _atom_site_fract_x
 _atom_site_fract_y
 _atom_site_fract_z
 _atom_site_occupancy
  Cs  Cs0  1  0.168361  0.522642  0.127478  1
  Cs  Cs1  1  0.477358  0.831639  0.872522  1
  Cs  Cs2  1  0.978265  0.331922  0.627583  1
  Cs  Cs3  1  0.668078  0.021735  0.372417  1
  Cs  Cs4  1  0.835747  0.480438  0.873611  1
  Cs  Cs5  1  0.519562  0.164253  0.126389  1
  Cs  Cs6  1  0.019329  0.664813  0.373732  1
  Cs  Cs7  1  0.335187  0.980671  0.626268  1
  Rb  Rb8  1  0.855945  0.855950  0.670274  1
  Rb  Rb9  1  0.144050  0.144055  0.329726  1
  Rb  Rb10  1  0.644149  0.644207  0.171007  1
  Rb  Rb11  1  0.355793  0.355851  0.828993  1
  Al  Al12  1  0.920060  0.079940  0.000000  1
  Al  Al13  1  0.421548  0.578452  0.500000  1
  Ga  Ga14  1  0.080236  0.919764  0.000000  1
  Fe  Fe15  1  0.577991  0.422009  0.500000  1
  Se  Se16  1  0.293556  0.294852  0.575373  1
  Se  Se17  1  0.705148  0.706444  0.424627  1
  Se  Se18  1  0.203391  0.205613  0.074852  1
  Se  Se19  1  0.794387  0.796609  0.925148  1
  Se  Se20  1  0.704223  0.992536  0.117238  1
  Se  Se21  1  0.007464  0.295777  0.882762  1
  Se  Se22  1  0.507437  0.794125  0.616997  1
  Se  Se23  1  0.205875  0.492563  0.383003  1
  Se  Se24  1  0.298289  0.009095  0.881369  1
  Se  Se25  1  0.990905  0.701711  0.118631  1
  Se  Se26  1  0.494633  0.206963  0.384399  1
  Se  Se27  1  0.793037  0.505367  0.615601  1
