# generated using pymatgen
data_Nb12Al5Ga3(RuC)4
_symmetry_space_group_name_H-M   'P 1'
_cell_length_a   8.45346112
_cell_length_b   8.45413858
_cell_length_c   8.45242500
_cell_angle_alpha   60.00896226
_cell_angle_beta   60.01522539
_cell_angle_gamma   60.00676669
_symmetry_Int_Tables_number   1
_chemical_formula_structural   Nb12Al5Ga3(RuC)4
_chemical_formula_sum   'Nb12 Al5 Ga3 Ru4 C4'
_cell_volume   427.23991872
_cell_formula_units_Z   1
loop_
 _symmetry_equiv_pos_site_id
 _symmetry_equiv_pos_as_xyz
  1  'x, y, z'
loop_
 _atom_site_type_symbol
 _atom_site_label
 _atom_site_symmetry_multiplicity
 _atom_site_fract_x
 _atom_site_fract_y
 _atom_site_fract_z
 _atom_site_occupancy
  Nb  Nb0  1  0.691707  0.308487  0.691709  1
  Nb  Nb1  1  0.940871  0.559674  0.558935  1
  Nb  Nb2  1  0.558077  0.941029  0.941408  1
  Nb  Nb3  1  0.941731  0.557878  0.941720  1
  Nb  Nb4  1  0.558939  0.559682  0.940862  1
  Nb  Nb5  1  0.941413  0.941024  0.558078  1
  Nb  Nb6  1  0.690528  0.691654  0.309116  1
  Nb  Nb7  1  0.309106  0.691656  0.690532  1
  Nb  Nb8  1  0.689998  0.309038  0.309182  1
  Nb  Nb9  1  0.309171  0.309033  0.690011  1
  Nb  Nb10  1  0.559437  0.940609  0.559438  1
  Nb  Nb11  1  0.309774  0.689803  0.309772  1
  Al  Al12  1  0.333170  0.332822  0.333138  1
  Al  Al13  1  0.249092  0.916861  0.917641  1
  Al  Al14  1  0.917125  0.249313  0.917149  1
  Al  Al15  1  0.917624  0.916874  0.249100  1
  Al  Al16  1  0.333287  0.000753  0.333260  1
  Ga  Ga17  1  0.336565  0.335421  0.992887  1
  Ga  Ga18  1  0.992894  0.335436  0.336542  1
  Ga  Ga19  1  0.914706  0.914416  0.914714  1
  Ru  Ru20  1  0.125297  0.123594  0.125295  1
  Ru  Ru21  1  0.624723  0.125094  0.127527  1
  Ru  Ru22  1  0.126602  0.625059  0.126566  1
  Ru  Ru23  1  0.127524  0.125075  0.624764  1
  C  C24  1  0.625035  0.624672  0.625034  1
  C  C25  1  0.124632  0.625070  0.625657  1
  C  C26  1  0.625319  0.124906  0.625331  1
  C  C27  1  0.625651  0.625065  0.124635  1
