# generated using pymatgen
data_Cu30Si7Ge
_symmetry_space_group_name_H-M   'P 1'
_cell_length_a   8.41790585
_cell_length_b   8.41790698
_cell_length_c   8.41790700
_cell_angle_alpha   109.47165007
_cell_angle_beta   109.47165099
_cell_angle_gamma   109.47164016
_symmetry_Int_Tables_number   1
_chemical_formula_structural   Cu30Si7Ge
_chemical_formula_sum   'Cu30 Si7 Ge1'
_cell_volume   459.18063232
_cell_formula_units_Z   1
loop_
 _symmetry_equiv_pos_site_id
 _symmetry_equiv_pos_as_xyz
  1  'x, y, z'
loop_
 _atom_site_type_symbol
 _atom_site_label
 _atom_site_symmetry_multiplicity
 _atom_site_fract_x
 _atom_site_fract_y
 _atom_site_fract_z
 _atom_site_occupancy
  Cu  Cu0  1  0.625878  0.373401  0.247962  1
  Cu  Cu1  1  0.247962  0.625878  0.373401  1
  Cu  Cu2  1  0.749858  0.875206  0.126072  1
  Cu  Cu3  1  0.126072  0.749858  0.875206  1
  Cu  Cu4  1  0.373401  0.247962  0.625878  1
  Cu  Cu5  1  0.875206  0.126072  0.749858  1
  Cu  Cu6  1  0.069612  0.272599  0.118797  1
  Cu  Cu7  1  0.700546  0.048374  0.925866  1
  Cu  Cu8  1  0.877231  0.450859  0.151678  1
  Cu  Cu9  1  0.151678  0.877231  0.450859  1
  Cu  Cu10  1  0.348017  0.798649  0.724148  1
  Cu  Cu11  1  0.724148  0.348017  0.798649  1
  Cu  Cu12  1  0.048374  0.925866  0.700546  1
  Cu  Cu13  1  0.224871  0.298908  0.848734  1
  Cu  Cu14  1  0.199950  0.428123  0.555097  1
  Cu  Cu15  1  0.949280  0.376952  0.652398  1
  Cu  Cu16  1  0.298908  0.848734  0.224871  1
  Cu  Cu17  1  0.555097  0.199950  0.428123  1
  Cu  Cu18  1  0.376952  0.652398  0.949280  1
  Cu  Cu19  1  0.118797  0.069612  0.272599  1
  Cu  Cu20  1  0.272599  0.118797  0.069612  1
  Cu  Cu21  1  0.848734  0.224871  0.298908  1
  Cu  Cu22  1  0.428123  0.555097  0.199950  1
  Cu  Cu23  1  0.652398  0.949280  0.376952  1
  Cu  Cu24  1  0.625709  0.779401  0.576719  1
  Cu  Cu25  1  0.576719  0.625709  0.779401  1
  Cu  Cu26  1  0.779401  0.576719  0.625709  1
  Cu  Cu27  1  0.798649  0.724148  0.348017  1
  Cu  Cu28  1  0.925866  0.700546  0.048374  1
  Cu  Cu29  1  0.450859  0.151678  0.877231  1
  Si  Si30  1  0.499264  0.000090  0.587578  1
  Si  Si31  1  0.587578  0.499264  0.000090  1
  Si  Si32  1  0.000090  0.587578  0.499264  1
  Si  Si33  1  0.087887  0.500507  0.000145  1
  Si  Si34  1  0.000145  0.087887  0.500507  1
  Si  Si35  1  0.500507  0.000145  0.087887  1
  Si  Si36  1  0.912134  0.912134  0.912134  1
  Ge  Ge37  1  0.411500  0.411500  0.411500  1
