# generated using pymatgen
data_Zr3UIn2CoIr3
_symmetry_space_group_name_H-M   'P 1'
_cell_length_a   7.60858409
_cell_length_b   7.60858423
_cell_length_c   3.30634100
_cell_angle_alpha   90.00000000
_cell_angle_beta   90.00000000
_cell_angle_gamma   86.24998673
_symmetry_Int_Tables_number   1
_chemical_formula_structural   Zr3UIn2CoIr3
_chemical_formula_sum   'Zr3 U1 In2 Co1 Ir3'
_cell_volume   190.99609095
_cell_formula_units_Z   1
loop_
 _symmetry_equiv_pos_site_id
 _symmetry_equiv_pos_as_xyz
  1  'x, y, z'
loop_
 _atom_site_type_symbol
 _atom_site_label
 _atom_site_symmetry_multiplicity
 _atom_site_fract_x
 _atom_site_fract_y
 _atom_site_fract_z
 _atom_site_occupancy
  Zr  Zr0  1  0.671821  0.166565  0.500000  1
  Zr  Zr1  1  0.333435  0.828179  0.500000  1
  Zr  Zr2  1  0.170524  0.329476  0.500000  1
  U  U3  1  0.816715  0.683285  0.500000  1
  In  In4  1  0.488777  0.496067  0.000000  1
  In  In5  1  0.003933  0.011223  0.000000  1
  Co  Co6  1  0.649734  0.850266  0.000000  1
  Ir  Ir7  1  0.116334  0.637726  0.000000  1
  Ir  Ir8  1  0.862274  0.383666  0.000000  1
  Ir  Ir9  1  0.386455  0.113545  0.000000  1
