# generated using pymatgen
data_Li3Ce4ZnIr3Pt
_symmetry_space_group_name_H-M   'P 1'
_cell_length_a   3.96850000
_cell_length_b   7.06461419
_cell_length_c   8.48095036
_cell_angle_alpha   90.22167137
_cell_angle_beta   90.00000000
_cell_angle_gamma   90.00000000
_symmetry_Int_Tables_number   1
_chemical_formula_structural   Li3Ce4ZnIr3Pt
_chemical_formula_sum   'Li3 Ce4 Zn1 Ir3 Pt1'
_cell_volume   237.76947834
_cell_formula_units_Z   1
loop_
 _symmetry_equiv_pos_site_id
 _symmetry_equiv_pos_as_xyz
  1  'x, y, z'
loop_
 _atom_site_type_symbol
 _atom_site_label
 _atom_site_symmetry_multiplicity
 _atom_site_fract_x
 _atom_site_fract_y
 _atom_site_fract_z
 _atom_site_occupancy
  Li  Li0  1  0.250000  0.630115  0.554331  1
  Li  Li1  1  0.250000  0.121418  0.948171  1
  Li  Li2  1  0.750000  0.373099  0.445504  1
  Ce  Ce3  1  0.750000  0.455425  0.806443  1
  Ce  Ce4  1  0.250000  0.041200  0.319954  1
  Ce  Ce5  1  0.750000  0.954097  0.691625  1
  Ce  Ce6  1  0.250000  0.556176  0.185360  1
  Zn  Zn7  1  0.750000  0.874590  0.056275  1
  Ir  Ir8  1  0.250000  0.737258  0.869980  1
  Ir  Ir9  1  0.250000  0.232419  0.633973  1
  Ir  Ir10  1  0.750000  0.765956  0.362956  1
  Pt  Pt11  1  0.750000  0.258249  0.125428  1
