# generated using pymatgen
data_Ti3NF8
_symmetry_space_group_name_H-M   'P 1'
_cell_length_a   5.55064701
_cell_length_b   5.56827242
_cell_length_c   6.77756261
_cell_angle_alpha   90.19092281
_cell_angle_beta   90.25584616
_cell_angle_gamma   59.76418454
_symmetry_Int_Tables_number   1
_chemical_formula_structural   Ti3NF8
_chemical_formula_sum   'Ti3 N1 F8'
_cell_volume   180.97837556
_cell_formula_units_Z   1
loop_
 _symmetry_equiv_pos_site_id
 _symmetry_equiv_pos_as_xyz
  1  'x, y, z'
loop_
 _atom_site_type_symbol
 _atom_site_label
 _atom_site_symmetry_multiplicity
 _atom_site_fract_x
 _atom_site_fract_y
 _atom_site_fract_z
 _atom_site_occupancy
  Ti  Ti0  1  0.883679  0.317036  0.955465  1
  Ti  Ti1  1  0.582746  0.014872  0.654718  1
  Ti  Ti2  1  0.232837  0.666059  0.304963  1
  N  N3  1  0.735746  0.164339  0.803844  1
  F  F4  1  0.072369  0.009769  0.144132  1
  F  F5  1  0.731792  0.665703  0.805034  1
  F  F6  1  0.395925  0.322722  0.465600  1
  F  F7  1  0.888600  0.823172  0.465031  1
  F  F8  1  0.381812  0.826051  0.478170  1
  F  F9  1  0.577804  0.504704  0.145002  1
  F  F10  1  0.078781  0.511683  0.131471  1
  F  F11  1  0.234354  0.167497  0.806745  1
