# generated using pymatgen
data_YbPr3Dy2(CoSn6)2
_symmetry_space_group_name_H-M   'P 1'
_cell_length_a   8.51679511
_cell_length_b   8.51679513
_cell_length_c   13.35236603
_cell_angle_alpha   90.14566600
_cell_angle_beta   89.85433475
_cell_angle_gamma   148.30909515
_symmetry_Int_Tables_number   1
_chemical_formula_structural   YbPr3Dy2(CoSn6)2
_chemical_formula_sum   'Yb1 Pr3 Dy2 Co2 Sn12'
_cell_volume   508.79959835
_cell_formula_units_Z   1
loop_
 _symmetry_equiv_pos_site_id
 _symmetry_equiv_pos_as_xyz
  1  'x, y, z'
loop_
 _atom_site_type_symbol
 _atom_site_label
 _atom_site_symmetry_multiplicity
 _atom_site_fract_x
 _atom_site_fract_y
 _atom_site_fract_z
 _atom_site_occupancy
  Yb  Yb0  1  0.899118  0.100882  0.404170  1
  Pr  Pr1  1  0.899349  0.100651  0.094315  1
  Pr  Pr2  1  0.099335  0.900665  0.591518  1
  Pr  Pr3  1  0.099545  0.900455  0.908236  1
  Dy  Dy4  1  0.899084  0.100916  0.750751  1
  Dy  Dy5  1  0.101239  0.898761  0.251019  1
  Co  Co6  1  0.297790  0.702210  0.250705  1
  Co  Co7  1  0.702657  0.297343  0.748818  1
  Sn  Sn8  1  0.758000  0.242000  0.571269  1
  Sn  Sn9  1  0.426888  0.573112  0.576713  1
  Sn  Sn10  1  0.571983  0.428017  0.420213  1
  Sn  Sn11  1  0.734019  0.265981  0.250105  1
  Sn  Sn12  1  0.266527  0.733473  0.749556  1
  Sn  Sn13  1  0.244174  0.755826  0.073007  1
  Sn  Sn14  1  0.246728  0.753272  0.428282  1
  Sn  Sn15  1  0.571521  0.428479  0.081139  1
  Sn  Sn16  1  0.453892  0.546108  0.252027  1
  Sn  Sn17  1  0.545863  0.454137  0.749876  1
  Sn  Sn18  1  0.755157  0.244843  0.927171  1
  Sn  Sn19  1  0.427131  0.572869  0.921111  1
