# generated using pymatgen
data_HoReSeO8
_symmetry_space_group_name_H-M   'P 1'
_cell_length_a   5.94986700
_cell_length_b   5.94986764
_cell_length_c   6.53794500
_cell_angle_alpha   90.00000000
_cell_angle_beta   90.00000000
_cell_angle_gamma   120.00000051
_symmetry_Int_Tables_number   1
_chemical_formula_structural   HoReSeO8
_chemical_formula_sum   'Ho1 Re1 Se1 O8'
_cell_volume   200.44095108
_cell_formula_units_Z   1
loop_
 _symmetry_equiv_pos_site_id
 _symmetry_equiv_pos_as_xyz
  1  'x, y, z'
loop_
 _atom_site_type_symbol
 _atom_site_label
 _atom_site_symmetry_multiplicity
 _atom_site_fract_x
 _atom_site_fract_y
 _atom_site_fract_z
 _atom_site_occupancy
  Ho  Ho0  1  0.000000  0.000000  0.970821  1
  Re  Re1  1  0.333333  0.666667  0.287530  1
  Se  Se2  1  0.666667  0.333333  0.712023  1
  O  O3  1  0.365923  0.200463  0.809084  1
  O  O4  1  0.182674  0.837243  0.196219  1
  O  O5  1  0.162757  0.345430  0.196219  1
  O  O6  1  0.666667  0.333333  0.462700  1
  O  O7  1  0.333333  0.666667  0.551017  1
  O  O8  1  0.834541  0.634077  0.809084  1
  O  O9  1  0.799537  0.165459  0.809084  1
  O  O10  1  0.654570  0.817326  0.196219  1
