# generated using pymatgen
data_Er5Hf3Pt4
_symmetry_space_group_name_H-M   'P 1'
_cell_length_a   4.69097100
_cell_length_b   7.02852323
_cell_length_c   8.30907385
_cell_angle_alpha   90.28376500
_cell_angle_beta   90.00000000
_cell_angle_gamma   90.00000000
_symmetry_Int_Tables_number   1
_chemical_formula_structural   Er5Hf3Pt4
_chemical_formula_sum   'Er5 Hf3 Pt4'
_cell_volume   273.95177940
_cell_formula_units_Z   1
loop_
 _symmetry_equiv_pos_site_id
 _symmetry_equiv_pos_as_xyz
  1  'x, y, z'
loop_
 _atom_site_type_symbol
 _atom_site_label
 _atom_site_symmetry_multiplicity
 _atom_site_fract_x
 _atom_site_fract_y
 _atom_site_fract_z
 _atom_site_occupancy
  Er  Er0  1  0.250000  0.853436  0.918416  1
  Er  Er1  1  0.750000  0.510820  0.826059  1
  Er  Er2  1  0.250000  0.481429  0.181832  1
  Er  Er3  1  0.750000  0.020573  0.671304  1
  Er  Er4  1  0.250000  0.982928  0.320896  1
  Hf  Hf5  1  0.750000  0.642957  0.424978  1
  Hf  Hf6  1  0.250000  0.352381  0.577685  1
  Hf  Hf7  1  0.750000  0.146171  0.077955  1
  Pt  Pt8  1  0.750000  0.267953  0.403685  1
  Pt  Pt9  1  0.250000  0.729203  0.582436  1
  Pt  Pt10  1  0.750000  0.764607  0.109052  1
  Pt  Pt11  1  0.250000  0.247542  0.905702  1
