# generated using pymatgen
data_CaHf3ScSe8
_symmetry_space_group_name_H-M   'P 1'
_cell_length_a   8.26557020
_cell_length_b   8.26557008
_cell_length_c   8.26557000
_cell_angle_alpha   54.97436581
_cell_angle_beta   54.97436641
_cell_angle_gamma   54.97436059
_symmetry_Int_Tables_number   1
_chemical_formula_structural   CaHf3ScSe8
_chemical_formula_sum   'Ca1 Hf3 Sc1 Se8'
_cell_volume   352.60774521
_cell_formula_units_Z   1
loop_
 _symmetry_equiv_pos_site_id
 _symmetry_equiv_pos_as_xyz
  1  'x, y, z'
loop_
 _atom_site_type_symbol
 _atom_site_label
 _atom_site_symmetry_multiplicity
 _atom_site_fract_x
 _atom_site_fract_y
 _atom_site_fract_z
 _atom_site_occupancy
  Ca  Ca0  1  0.500000  0.500000  0.500000  1
  Hf  Hf1  1  0.000000  0.500000  0.500000  1
  Hf  Hf2  1  0.500000  0.000000  0.500000  1
  Hf  Hf3  1  0.500000  0.500000  0.000000  1
  Sc  Sc4  1  0.000000  0.000000  0.000000  1
  Se  Se5  1  0.256571  0.758893  0.758893  1
  Se  Se6  1  0.241107  0.241107  0.743429  1
  Se  Se7  1  0.743429  0.241107  0.241107  1
  Se  Se8  1  0.241107  0.743429  0.241107  1
  Se  Se9  1  0.259658  0.259658  0.259658  1
  Se  Se10  1  0.740342  0.740342  0.740342  1
  Se  Se11  1  0.758893  0.256571  0.758893  1
  Se  Se12  1  0.758893  0.758893  0.256571  1
