# generated using pymatgen
data_Tb(Zr3Sn2)3
_symmetry_space_group_name_H-M   'P 1'
_cell_length_a   8.63524520
_cell_length_b   8.53578332
_cell_length_c   5.85273000
_cell_angle_alpha   90.00000000
_cell_angle_beta   90.00000000
_cell_angle_gamma   119.61971530
_symmetry_Int_Tables_number   1
_chemical_formula_structural   Tb(Zr3Sn2)3
_chemical_formula_sum   'Tb1 Zr9 Sn6'
_cell_volume   375.02366365
_cell_formula_units_Z   1
loop_
 _symmetry_equiv_pos_site_id
 _symmetry_equiv_pos_as_xyz
  1  'x, y, z'
loop_
 _atom_site_type_symbol
 _atom_site_label
 _atom_site_symmetry_multiplicity
 _atom_site_fract_x
 _atom_site_fract_y
 _atom_site_fract_z
 _atom_site_occupancy
  Tb  Tb0  1  0.000000  0.765395  0.250000  1
  Zr  Zr1  1  0.667870  0.333318  0.999293  1
  Zr  Zr2  1  0.332130  0.665449  0.999293  1
  Zr  Zr3  1  0.332130  0.665449  0.500707  1
  Zr  Zr4  1  0.667870  0.333318  0.500707  1
  Zr  Zr5  1  0.749034  0.749526  0.750000  1
  Zr  Zr6  1  0.250966  0.000492  0.750000  1
  Zr  Zr7  1  0.000000  0.239978  0.750000  1
  Zr  Zr8  1  0.250301  0.251062  0.250000  1
  Zr  Zr9  1  0.749699  0.000760  0.250000  1
  Sn  Sn10  1  0.390943  0.390585  0.750000  1
  Sn  Sn11  1  0.609057  0.999642  0.750000  1
  Sn  Sn12  1  0.000000  0.606932  0.750000  1
  Sn  Sn13  1  0.602253  0.605493  0.250000  1
  Sn  Sn14  1  0.397747  0.003240  0.250000  1
  Sn  Sn15  1  0.000000  0.389362  0.250000  1
