# generated using pymatgen
data_Th2CoCuSi4
_symmetry_space_group_name_H-M   'P 1'
_cell_length_a   8.50774760
_cell_length_b   8.50774673
_cell_length_c   4.10096100
_cell_angle_alpha   90.00000000
_cell_angle_beta   90.00000000
_cell_angle_gamma   151.65888874
_symmetry_Int_Tables_number   1
_chemical_formula_structural   Th2CoCuSi4
_chemical_formula_sum   'Th2 Co1 Cu1 Si4'
_cell_volume   140.91336431
_cell_formula_units_Z   1
loop_
 _symmetry_equiv_pos_site_id
 _symmetry_equiv_pos_as_xyz
  1  'x, y, z'
loop_
 _atom_site_type_symbol
 _atom_site_label
 _atom_site_symmetry_multiplicity
 _atom_site_fract_x
 _atom_site_fract_y
 _atom_site_fract_z
 _atom_site_occupancy
  Th  Th0  1  0.603732  0.396268  0.750000  1
  Th  Th1  1  0.391546  0.608454  0.250000  1
  Co  Co2  1  0.181563  0.818437  0.250000  1
  Cu  Cu3  1  0.823851  0.176149  0.750000  1
  Si  Si4  1  0.964769  0.035231  0.750000  1
  Si  Si5  1  0.042717  0.957283  0.250000  1
  Si  Si6  1  0.246871  0.753129  0.750000  1
  Si  Si7  1  0.744950  0.255050  0.250000  1
