# generated using pymatgen
data_YbMn2(AsRh)4
_symmetry_space_group_name_H-M   'P 1'
_cell_length_a   7.27776024
_cell_length_b   7.29425910
_cell_length_c   3.77534600
_cell_angle_alpha   90.00000000
_cell_angle_beta   90.00000000
_cell_angle_gamma   120.07502207
_symmetry_Int_Tables_number   1
_chemical_formula_structural   YbMn2(AsRh)4
_chemical_formula_sum   'Yb1 Mn2 As4 Rh4'
_cell_volume   173.43530566
_cell_formula_units_Z   1
loop_
 _symmetry_equiv_pos_site_id
 _symmetry_equiv_pos_as_xyz
  1  'x, y, z'
loop_
 _atom_site_type_symbol
 _atom_site_label
 _atom_site_symmetry_multiplicity
 _atom_site_fract_x
 _atom_site_fract_y
 _atom_site_fract_z
 _atom_site_occupancy
  Yb  Yb0  1  0.001163  0.000582  0.000000  1
  Mn  Mn1  1  0.529573  0.073436  0.000000  1
  Mn  Mn2  1  0.529573  0.456137  0.000000  1
  As  As3  1  0.814952  0.625279  0.500000  1
  As  As4  1  0.339198  0.669600  0.000000  1
  As  As5  1  0.374724  0.187361  0.500000  1
  As  As6  1  0.814952  0.189672  0.500000  1
  Rh  Rh7  1  0.604487  0.802244  0.500000  1
  Rh  Rh8  1  0.202860  0.400009  0.500000  1
  Rh  Rh9  1  0.202860  0.802851  0.500000  1
  Rh  Rh10  1  0.918992  0.459496  0.000000  1
