# generated using pymatgen
data_Hf2Zr3Sn3S
_symmetry_space_group_name_H-M   'P 1'
_cell_length_a   8.55296500
_cell_length_b   8.55296478
_cell_length_c   5.97713700
_cell_angle_alpha   90.00000000
_cell_angle_beta   90.00000000
_cell_angle_gamma   119.99999699
_symmetry_Int_Tables_number   1
_chemical_formula_structural   Hf2Zr3Sn3S
_chemical_formula_sum   'Hf4 Zr6 Sn6 S2'
_cell_volume   378.66680345
_cell_formula_units_Z   2
loop_
 _symmetry_equiv_pos_site_id
 _symmetry_equiv_pos_as_xyz
  1  'x, y, z'
loop_
 _atom_site_type_symbol
 _atom_site_label
 _atom_site_symmetry_multiplicity
 _atom_site_fract_x
 _atom_site_fract_y
 _atom_site_fract_z
 _atom_site_occupancy
  Hf  Hf0  1  0.666667  0.333333  0.000000  1
  Hf  Hf1  1  0.333333  0.666667  0.000000  1
  Hf  Hf2  1  0.333333  0.666667  0.500000  1
  Hf  Hf3  1  0.666667  0.333333  0.500000  1
  Zr  Zr4  1  0.747710  0.747710  0.750000  1
  Zr  Zr5  1  0.252290  0.000000  0.750000  1
  Zr  Zr6  1  0.000000  0.252290  0.750000  1
  Zr  Zr7  1  0.252290  0.252290  0.250000  1
  Zr  Zr8  1  0.747710  0.000000  0.250000  1
  Zr  Zr9  1  0.000000  0.747710  0.250000  1
  Sn  Sn10  1  0.399713  0.399713  0.750000  1
  Sn  Sn11  1  0.600287  0.000000  0.750000  1
  Sn  Sn12  1  0.000000  0.600287  0.750000  1
  Sn  Sn13  1  0.600287  0.600287  0.250000  1
  Sn  Sn14  1  0.399713  0.000000  0.250000  1
  Sn  Sn15  1  0.000000  0.399713  0.250000  1
  S  S16  1  0.000000  0.000000  0.000000  1
  S  S17  1  0.000000  0.000000  0.500000  1
