# generated using pymatgen
data_Li4La3Sn4
_symmetry_space_group_name_H-M   'P 1'
_cell_length_a   4.77854373
_cell_length_b   7.32464403
_cell_length_c   9.03175269
_cell_angle_alpha   113.92209209
_cell_angle_beta   105.33971754
_cell_angle_gamma   89.99999310
_symmetry_Int_Tables_number   1
_chemical_formula_structural   Li4La3Sn4
_chemical_formula_sum   'Li4 La3 Sn4'
_cell_volume   276.60046626
_cell_formula_units_Z   1
loop_
 _symmetry_equiv_pos_site_id
 _symmetry_equiv_pos_as_xyz
  1  'x, y, z'
loop_
 _atom_site_type_symbol
 _atom_site_label
 _atom_site_symmetry_multiplicity
 _atom_site_fract_x
 _atom_site_fract_y
 _atom_site_fract_z
 _atom_site_occupancy
  Li  Li0  1  0.671274  0.980972  0.342547  1
  Li  Li1  1  0.328726  0.019028  0.657453  1
  Li  Li2  1  0.328726  0.638426  0.657453  1
  Li  Li3  1  0.671274  0.361574  0.342547  1
  La  La4  1  0.000000  0.000000  0.000000  1
  La  La5  1  0.131728  0.631728  0.263456  1
  La  La6  1  0.868272  0.368272  0.736544  1
  Sn  Sn7  1  0.500000  0.695006  0.000000  1
  Sn  Sn8  1  0.500000  0.304994  0.000000  1
  Sn  Sn9  1  0.786312  0.786312  0.572623  1
  Sn  Sn10  1  0.213688  0.213688  0.427377  1
