# generated using pymatgen
data_Ba3(NbS4)2
_symmetry_space_group_name_H-M   'P 1'
_cell_length_a   6.95291300
_cell_length_b   12.13257309
_cell_length_c   12.77768867
_cell_angle_alpha   70.89171586
_cell_angle_beta   90.00000000
_cell_angle_gamma   90.00000000
_symmetry_Int_Tables_number   1
_chemical_formula_structural   Ba3(NbS4)2
_chemical_formula_sum   'Ba9 Nb6 S24'
_cell_volume   1018.49428002
_cell_formula_units_Z   3
loop_
 _symmetry_equiv_pos_site_id
 _symmetry_equiv_pos_as_xyz
  1  'x, y, z'
loop_
 _atom_site_type_symbol
 _atom_site_label
 _atom_site_symmetry_multiplicity
 _atom_site_fract_x
 _atom_site_fract_y
 _atom_site_fract_z
 _atom_site_occupancy
  Ba  Ba0  1  0.000000  0.500000  0.000000  1
  Ba  Ba1  1  0.000000  0.954208  0.690176  1
  Ba  Ba2  1  0.000000  0.045792  0.309824  1
  Ba  Ba3  1  0.500000  0.723937  0.343762  1
  Ba  Ba4  1  0.500000  0.276063  0.656238  1
  Ba  Ba5  1  0.000000  0.596535  0.634341  1
  Ba  Ba6  1  0.500000  0.180922  0.036071  1
  Ba  Ba7  1  0.500000  0.819078  0.963929  1
  Ba  Ba8  1  0.000000  0.403465  0.365659  1
  Nb  Nb9  1  0.000000  0.000000  0.000000  1
  Nb  Nb10  1  0.500000  0.000000  0.500000  1
  Nb  Nb11  1  0.000000  0.728374  0.174348  1
  Nb  Nb12  1  0.000000  0.271626  0.825652  1
  Nb  Nb13  1  0.500000  0.732380  0.676988  1
  Nb  Nb14  1  0.500000  0.267620  0.323012  1
  S  S15  1  0.752588  0.686840  0.801335  1
  S  S16  1  0.752588  0.313160  0.198665  1
  S  S17  1  0.247412  0.313160  0.198665  1
  S  S18  1  0.247412  0.686840  0.801335  1
  S  S19  1  0.743685  0.616479  0.152035  1
  S  S20  1  0.743685  0.383521  0.847965  1
  S  S21  1  0.256315  0.383521  0.847965  1
  S  S22  1  0.256315  0.616479  0.152035  1
  S  S23  1  0.746248  0.847160  0.515404  1
  S  S24  1  0.746248  0.152840  0.484596  1
  S  S25  1  0.253752  0.152840  0.484596  1
  S  S26  1  0.253752  0.847160  0.515404  1
  S  S27  1  0.757890  0.907415  0.145693  1
  S  S28  1  0.757890  0.092585  0.854307  1
  S  S29  1  0.242110  0.092585  0.854307  1
  S  S30  1  0.500000  0.943458  0.701173  1
  S  S31  1  0.500000  0.056542  0.298827  1
  S  S32  1  0.000000  0.673990  0.369123  1
  S  S33  1  0.000000  0.326010  0.630877  1
  S  S34  1  0.500000  0.577977  0.603981  1
  S  S35  1  0.500000  0.422023  0.396019  1
  S  S36  1  0.000000  0.821677  0.952891  1
  S  S37  1  0.000000  0.178323  0.047109  1
  S  S38  1  0.242110  0.907415  0.145693  1
