# generated using pymatgen
data_Sm2Co2Sn2C
_symmetry_space_group_name_H-M   'P 1'
_cell_length_a   5.88793410
_cell_length_b   5.88793346
_cell_length_c   7.22236633
_cell_angle_alpha   123.13475114
_cell_angle_beta   123.13474372
_cell_angle_gamma   42.57116540
_symmetry_Int_Tables_number   1
_chemical_formula_structural   Sm2Co2Sn2C
_chemical_formula_sum   'Sm2 Co2 Sn2 C1'
_cell_volume   137.17806308
_cell_formula_units_Z   1
loop_
 _symmetry_equiv_pos_site_id
 _symmetry_equiv_pos_as_xyz
  1  'x, y, z'
loop_
 _atom_site_type_symbol
 _atom_site_label
 _atom_site_symmetry_multiplicity
 _atom_site_fract_x
 _atom_site_fract_y
 _atom_site_fract_z
 _atom_site_occupancy
  Sm  Sm0  1  0.442470  0.442470  0.172884  1
  Sm  Sm1  1  0.557530  0.557530  0.827117  1
  Co  Co2  1  0.182043  0.182043  0.245157  1
  Co  Co3  1  0.817956  0.817956  0.754842  1
  Sn  Sn4  1  0.830374  0.830374  0.401608  1
  Sn  Sn5  1  0.169625  0.169625  0.598392  1
  C  C6  1  0.000000  0.000000  0.000000  1
