# generated using pymatgen
data_TmPa3(InPt2)2
_symmetry_space_group_name_H-M   'P 1'
_cell_length_a   7.83239227
_cell_length_b   7.83239227
_cell_length_c   3.65046800
_cell_angle_alpha   90.00000000
_cell_angle_beta   90.00000000
_cell_angle_gamma   89.33907961
_symmetry_Int_Tables_number   1
_chemical_formula_structural   TmPa3(InPt2)2
_chemical_formula_sum   'Tm1 Pa3 In2 Pt4'
_cell_volume   223.92805700
_cell_formula_units_Z   1
loop_
 _symmetry_equiv_pos_site_id
 _symmetry_equiv_pos_as_xyz
  1  'x, y, z'
loop_
 _atom_site_type_symbol
 _atom_site_label
 _atom_site_symmetry_multiplicity
 _atom_site_fract_x
 _atom_site_fract_y
 _atom_site_fract_z
 _atom_site_occupancy
  Tm  Tm0  1  0.674114  0.174114  0.500000  1
  Pa  Pa1  1  0.172301  0.326303  0.500000  1
  Pa  Pa2  1  0.331578  0.831578  0.500000  1
  Pa  Pa3  1  0.826303  0.672301  0.500000  1
  In  In4  1  0.991329  0.003506  0.000000  1
  In  In5  1  0.503506  0.491329  0.000000  1
  Pt  Pt6  1  0.878596  0.378596  0.000000  1
  Pt  Pt7  1  0.625756  0.861174  0.000000  1
  Pt  Pt8  1  0.135344  0.635344  0.000000  1
  Pt  Pt9  1  0.361174  0.125756  0.000000  1
