# generated using pymatgen
data_CaY(Re2Si)4
_symmetry_space_group_name_H-M   'P 1'
_cell_length_a   7.40206088
_cell_length_b   7.40206088
_cell_length_c   4.16971000
_cell_angle_alpha   90.00000000
_cell_angle_beta   90.00000000
_cell_angle_gamma   89.85557739
_symmetry_Int_Tables_number   1
_chemical_formula_structural   CaY(Re2Si)4
_chemical_formula_sum   'Ca1 Y1 Re8 Si4'
_cell_volume   228.45979188
_cell_formula_units_Z   1
loop_
 _symmetry_equiv_pos_site_id
 _symmetry_equiv_pos_as_xyz
  1  'x, y, z'
loop_
 _atom_site_type_symbol
 _atom_site_label
 _atom_site_symmetry_multiplicity
 _atom_site_fract_x
 _atom_site_fract_y
 _atom_site_fract_z
 _atom_site_occupancy
  Ca  Ca0  1  0.500000  0.500000  0.000000  1
  Y  Y1  1  0.000000  0.000000  0.500000  1
  Re  Re2  1  0.658502  0.906968  0.000000  1
  Re  Re3  1  0.156975  0.596907  0.500000  1
  Re  Re4  1  0.093032  0.341498  0.000000  1
  Re  Re5  1  0.906968  0.658502  0.000000  1
  Re  Re6  1  0.403093  0.843025  0.500000  1
  Re  Re7  1  0.596907  0.156975  0.500000  1
  Re  Re8  1  0.341498  0.093032  0.000000  1
  Re  Re9  1  0.843025  0.403093  0.500000  1
  Si  Si10  1  0.209653  0.790347  0.000000  1
  Si  Si11  1  0.790347  0.209653  0.000000  1
  Si  Si12  1  0.707276  0.707276  0.500000  1
  Si  Si13  1  0.292724  0.292724  0.500000  1
