# generated using pymatgen
data_CeScSe3
_symmetry_space_group_name_H-M   'P 1'
_cell_length_a   6.83564300
_cell_length_b   7.52869500
_cell_length_c   10.03009700
_cell_angle_alpha   90.00000000
_cell_angle_beta   90.00000000
_cell_angle_gamma   90.00000000
_symmetry_Int_Tables_number   1
_chemical_formula_structural   CeScSe3
_chemical_formula_sum   'Ce4 Sc4 Se12'
_cell_volume   516.18360885
_cell_formula_units_Z   4
loop_
 _symmetry_equiv_pos_site_id
 _symmetry_equiv_pos_as_xyz
  1  'x, y, z'
loop_
 _atom_site_type_symbol
 _atom_site_label
 _atom_site_symmetry_multiplicity
 _atom_site_fract_x
 _atom_site_fract_y
 _atom_site_fract_z
 _atom_site_occupancy
  Ce  Ce0  1  0.539562  0.397738  0.750000  1
  Ce  Ce1  1  0.460438  0.602262  0.250000  1
  Ce  Ce2  1  0.039562  0.102262  0.250000  1
  Ce  Ce3  1  0.960438  0.897738  0.750000  1
  Sc  Sc4  1  0.000000  0.500000  0.000000  1
  Sc  Sc5  1  0.000000  0.500000  0.500000  1
  Sc  Sc6  1  0.500000  0.000000  0.500000  1
  Sc  Sc7  1  0.500000  0.000000  0.000000  1
  Se  Se8  1  0.823120  0.186384  0.562886  1
  Se  Se9  1  0.176880  0.813616  0.062886  1
  Se  Se10  1  0.323120  0.313616  0.062886  1
  Se  Se11  1  0.676880  0.686384  0.562886  1
  Se  Se12  1  0.823120  0.186384  0.937114  1
  Se  Se13  1  0.176880  0.813616  0.437114  1
  Se  Se14  1  0.323120  0.313616  0.437114  1
  Se  Se15  1  0.676880  0.686384  0.937114  1
  Se  Se16  1  0.868096  0.462739  0.250000  1
  Se  Se17  1  0.131904  0.537261  0.750000  1
  Se  Se18  1  0.368096  0.037261  0.750000  1
  Se  Se19  1  0.631904  0.962739  0.250000  1
