# generated using pymatgen
data_Sc3Nb(SnRu3)2
_symmetry_space_group_name_H-M   'P 1'
_cell_length_a   4.53586300
_cell_length_b   6.41555000
_cell_length_c   13.58231000
_cell_angle_alpha   90.00032105
_cell_angle_beta   90.00002526
_cell_angle_gamma   90.00028184
_symmetry_Int_Tables_number   1
_chemical_formula_structural   Sc3Nb(SnRu3)2
_chemical_formula_sum   'Sc6 Nb2 Sn4 Ru12'
_cell_volume   395.24597983
_cell_formula_units_Z   2
loop_
 _symmetry_equiv_pos_site_id
 _symmetry_equiv_pos_as_xyz
  1  'x, y, z'
loop_
 _atom_site_type_symbol
 _atom_site_label
 _atom_site_symmetry_multiplicity
 _atom_site_fract_x
 _atom_site_fract_y
 _atom_site_fract_z
 _atom_site_occupancy
  Sc  Sc0  1  0.999998  0.499997  0.003281  1
  Sc  Sc1  1  0.499996  0.999998  0.166395  1
  Sc  Sc2  1  0.999987  0.500003  0.333604  1
  Sc  Sc3  1  0.499995  0.000010  0.496720  1
  Sc  Sc4  1  0.000009  0.500005  0.664023  1
  Sc  Sc5  1  0.500009  0.999996  0.835987  1
  Nb  Nb6  1  0.000008  0.000004  0.666299  1
  Nb  Nb7  1  0.500008  0.499996  0.833729  1
  Sn  Sn8  1  0.000003  0.999998  0.001120  1
  Sn  Sn9  1  0.499990  0.499998  0.167450  1
  Sn  Sn10  1  0.999993  0.999999  0.332526  1
  Sn  Sn11  1  0.500002  0.500001  0.498890  1
  Ru  Ru12  1  0.500002  0.256938  0.993359  1
  Ru  Ru13  1  0.500006  0.743060  0.993357  1
  Ru  Ru14  1  0.999990  0.250249  0.165948  1
  Ru  Ru15  1  0.999988  0.749751  0.165949  1
  Ru  Ru16  1  0.499993  0.249755  0.334043  1
  Ru  Ru17  1  0.499992  0.750241  0.334041  1
  Ru  Ru18  1  0.000000  0.243057  0.506639  1
  Ru  Ru19  1  0.000005  0.756941  0.506638  1
  Ru  Ru20  1  0.500005  0.246190  0.669844  1
  Ru  Ru21  1  0.500008  0.753808  0.669842  1
  Ru  Ru22  1  0.000004  0.253802  0.830158  1
  Ru  Ru23  1  0.000004  0.746200  0.830157  1
