# generated using pymatgen
data_Sn2WF8
_symmetry_space_group_name_H-M   'P 1'
_cell_length_a   5.55011000
_cell_length_b   5.51126154
_cell_length_c   13.66469678
_cell_angle_alpha   67.07578791
_cell_angle_beta   90.00000000
_cell_angle_gamma   90.00000000
_symmetry_Int_Tables_number   1
_chemical_formula_structural   Sn2WF8
_chemical_formula_sum   'Sn4 W2 F16'
_cell_volume   384.96574825
_cell_formula_units_Z   2
loop_
 _symmetry_equiv_pos_site_id
 _symmetry_equiv_pos_as_xyz
  1  'x, y, z'
loop_
 _atom_site_type_symbol
 _atom_site_label
 _atom_site_symmetry_multiplicity
 _atom_site_fract_x
 _atom_site_fract_y
 _atom_site_fract_z
 _atom_site_occupancy
  Sn  Sn0  1  0.442728  0.378850  0.165268  1
  Sn  Sn1  1  0.942728  0.621150  0.334732  1
  Sn  Sn2  1  0.557272  0.621150  0.834732  1
  Sn  Sn3  1  0.057272  0.378850  0.665268  1
  W  W4  1  0.500000  0.000000  0.500000  1
  W  W5  1  0.000000  0.000000  0.000000  1
  F  F6  1  0.107975  0.415782  0.246116  1
  F  F7  1  0.607975  0.584218  0.253884  1
  F  F8  1  0.892025  0.584218  0.753884  1
  F  F9  1  0.392025  0.415782  0.746116  1
  F  F10  1  0.301911  0.325824  0.462798  1
  F  F11  1  0.801911  0.674176  0.037202  1
  F  F12  1  0.030160  0.011524  0.852009  1
  F  F13  1  0.530160  0.988476  0.647991  1
  F  F14  1  0.969840  0.988476  0.147991  1
  F  F15  1  0.469840  0.011524  0.352009  1
  F  F16  1  0.191517  0.769666  0.549366  1
  F  F17  1  0.691517  0.230334  0.950634  1
  F  F18  1  0.808483  0.230334  0.450634  1
  F  F19  1  0.308483  0.769666  0.049366  1
  F  F20  1  0.198089  0.325824  0.962798  1
  F  F21  1  0.698089  0.674176  0.537202  1
