# generated using pymatgen
data_K4LiCuP2
_symmetry_space_group_name_H-M   'P 1'
_cell_length_a   6.28175522
_cell_length_b   6.28175448
_cell_length_c   5.79857121
_cell_angle_alpha   88.63955005
_cell_angle_beta   88.63955860
_cell_angle_gamma   104.31678639
_symmetry_Int_Tables_number   1
_chemical_formula_structural   K4LiCuP2
_chemical_formula_sum   'K4 Li1 Cu1 P2'
_cell_volume   221.54189480
_cell_formula_units_Z   1
loop_
 _symmetry_equiv_pos_site_id
 _symmetry_equiv_pos_as_xyz
  1  'x, y, z'
loop_
 _atom_site_type_symbol
 _atom_site_label
 _atom_site_symmetry_multiplicity
 _atom_site_fract_x
 _atom_site_fract_y
 _atom_site_fract_z
 _atom_site_occupancy
  K  K0  1  0.973328  0.310258  0.755328  1
  K  K1  1  0.310258  0.973328  0.755328  1
  K  K2  1  0.026672  0.689742  0.244672  1
  K  K3  1  0.689742  0.026672  0.244672  1
  Li  Li4  1  0.500000  0.500000  0.500000  1
  Cu  Cu5  1  0.500000  0.500000  0.000000  1
  P  P6  1  0.736628  0.736628  0.760545  1
  P  P7  1  0.263372  0.263372  0.239455  1
