# generated using pymatgen
data_La2NdSn6Ir
_symmetry_space_group_name_H-M   'P 1'
_cell_length_a   8.77812300
_cell_length_b   8.77812375
_cell_length_c   13.54013700
_cell_angle_alpha   90.00000000
_cell_angle_beta   90.00000000
_cell_angle_gamma   148.52190702
_symmetry_Int_Tables_number   1
_chemical_formula_structural   La2NdSn6Ir
_chemical_formula_sum   'La4 Nd2 Sn12 Ir2'
_cell_volume   544.80418172
_cell_formula_units_Z   2
loop_
 _symmetry_equiv_pos_site_id
 _symmetry_equiv_pos_as_xyz
  1  'x, y, z'
loop_
 _atom_site_type_symbol
 _atom_site_label
 _atom_site_symmetry_multiplicity
 _atom_site_fract_x
 _atom_site_fract_y
 _atom_site_fract_z
 _atom_site_occupancy
  La  La0  1  0.399287  0.600713  0.404766  1
  La  La1  1  0.600713  0.399287  0.595234  1
  La  La2  1  0.399287  0.600713  0.095234  1
  La  La3  1  0.600713  0.399287  0.904766  1
  Nd  Nd4  1  0.602580  0.397420  0.250000  1
  Nd  Nd5  1  0.397420  0.602580  0.750000  1
  Sn  Sn6  1  0.926801  0.073199  0.922361  1
  Sn  Sn7  1  0.073199  0.926801  0.077639  1
  Sn  Sn8  1  0.926801  0.073199  0.577639  1
  Sn  Sn9  1  0.073199  0.926801  0.422361  1
  Sn  Sn10  1  0.960922  0.039078  0.250000  1
  Sn  Sn11  1  0.039078  0.960922  0.750000  1
  Sn  Sn12  1  0.744896  0.255105  0.433385  1
  Sn  Sn13  1  0.255105  0.744895  0.566615  1
  Sn  Sn14  1  0.744896  0.255105  0.066615  1
  Sn  Sn15  1  0.255105  0.744895  0.933385  1
  Sn  Sn16  1  0.231892  0.768108  0.250000  1
  Sn  Sn17  1  0.768108  0.231892  0.750000  1
  Ir  Ir18  1  0.802498  0.197502  0.250000  1
  Ir  Ir19  1  0.197502  0.802498  0.750000  1
