# generated using pymatgen
data_Nd3U5(TcB6)4
_symmetry_space_group_name_H-M   'P 1'
_cell_length_a   3.68375300
_cell_length_b   9.36652959
_cell_length_c   11.47558495
_cell_angle_alpha   90.06678862
_cell_angle_beta   90.00000000
_cell_angle_gamma   90.00000000
_symmetry_Int_Tables_number   1
_chemical_formula_structural   Nd3U5(TcB6)4
_chemical_formula_sum   'Nd3 U5 Tc4 B24'
_cell_volume   395.95310155
_cell_formula_units_Z   1
loop_
 _symmetry_equiv_pos_site_id
 _symmetry_equiv_pos_as_xyz
  1  'x, y, z'
loop_
 _atom_site_type_symbol
 _atom_site_label
 _atom_site_symmetry_multiplicity
 _atom_site_fract_x
 _atom_site_fract_y
 _atom_site_fract_z
 _atom_site_occupancy
  Nd  Nd0  1  0.000000  0.337565  0.407970  1
  Nd  Nd1  1  0.000000  0.662533  0.592350  1
  Nd  Nd2  1  0.000000  0.836533  0.092228  1
  U  U3  1  0.000000  0.162920  0.907456  1
  U  U4  1  0.000000  0.957003  0.397054  1
  U  U5  1  0.000000  0.042344  0.603824  1
  U  U6  1  0.000000  0.457342  0.102930  1
  U  U7  1  0.000000  0.541783  0.896681  1
  Tc  Tc8  1  0.000000  0.647566  0.317643  1
  Tc  Tc9  1  0.000000  0.349264  0.686243  1
  Tc  Tc10  1  0.000000  0.148075  0.177869  1
  Tc  Tc11  1  0.000000  0.858249  0.818840  1
  B  B12  1  0.500000  0.555051  0.428631  1
  B  B13  1  0.500000  0.443639  0.573024  1
  B  B14  1  0.500000  0.055615  0.067747  1
  B  B15  1  0.500000  0.950299  0.929100  1
  B  B16  1  0.500000  0.745366  0.421439  1
  B  B17  1  0.500000  0.254122  0.579564  1
  B  B18  1  0.500000  0.243589  0.075886  1
  B  B19  1  0.500000  0.755731  0.921094  1
  B  B20  1  0.500000  0.802601  0.274961  1
  B  B21  1  0.500000  0.195206  0.727649  1
  B  B22  1  0.500000  0.302375  0.223769  1
  B  B23  1  0.500000  0.698641  0.775636  1
  B  B24  1  0.500000  0.643376  0.187948  1
  B  B25  1  0.500000  0.353032  0.813168  1
  B  B26  1  0.500000  0.144134  0.310739  1
  B  B27  1  0.500000  0.856977  0.688898  1
  B  B28  1  0.500000  0.992401  0.219770  1
  B  B29  1  0.500000  0.012692  0.781334  1
  B  B30  1  0.500000  0.491487  0.279044  1
  B  B31  1  0.500000  0.507607  0.721652  1
  B  B32  1  0.500000  0.637686  0.037050  1
  B  B33  1  0.500000  0.356674  0.960680  1
  B  B34  1  0.500000  0.136970  0.462137  1
  B  B35  1  0.500000  0.863550  0.537993  1
