# generated using pymatgen
data_Sc6Ga7Cu16
_symmetry_space_group_name_H-M   'P 1'
_cell_length_a   8.47151667
_cell_length_b   8.46322747
_cell_length_c   8.45892716
_cell_angle_alpha   60.06250478
_cell_angle_beta   60.05801545
_cell_angle_gamma   60.06480001
_symmetry_Int_Tables_number   1
_chemical_formula_structural   Sc6Ga7Cu16
_chemical_formula_sum   'Sc6 Ga7 Cu16'
_cell_volume   429.44253691
_cell_formula_units_Z   1
loop_
 _symmetry_equiv_pos_site_id
 _symmetry_equiv_pos_as_xyz
  1  'x, y, z'
loop_
 _atom_site_type_symbol
 _atom_site_label
 _atom_site_symmetry_multiplicity
 _atom_site_fract_x
 _atom_site_fract_y
 _atom_site_fract_z
 _atom_site_occupancy
  Sc  Sc0  1  0.710303  0.710316  0.289684  1
  Sc  Sc1  1  0.289727  0.710279  0.289676  1
  Sc  Sc2  1  0.710262  0.289678  0.289681  1
  Sc  Sc3  1  0.289697  0.289684  0.710316  1
  Sc  Sc4  1  0.710273  0.289721  0.710324  1
  Sc  Sc5  1  0.289738  0.710322  0.710319  1
  Ga  Ga6  1  0.000000  0.000000  0.000000  1
  Ga  Ga7  1  0.000000  0.000000  0.500000  1
  Ga  Ga8  1  0.500000  0.000000  0.500000  1
  Ga  Ga9  1  0.000000  0.500000  0.500000  1
  Ga  Ga10  1  0.500000  0.500000  0.000000  1
  Ga  Ga11  1  0.000000  0.500000  0.000000  1
  Ga  Ga12  1  0.500000  0.000000  0.000000  1
  Cu  Cu13  1  0.879627  0.879675  0.361007  1
  Cu  Cu14  1  0.879565  0.361168  0.879589  1
  Cu  Cu15  1  0.361077  0.879608  0.879619  1
  Cu  Cu16  1  0.879482  0.879637  0.879657  1
  Cu  Cu17  1  0.120373  0.120325  0.638993  1
  Cu  Cu18  1  0.120435  0.638832  0.120411  1
  Cu  Cu19  1  0.638923  0.120392  0.120381  1
  Cu  Cu20  1  0.120518  0.120363  0.120343  1
  Cu  Cu21  1  0.670015  0.669973  0.990279  1
  Cu  Cu22  1  0.669939  0.990344  0.669989  1
  Cu  Cu23  1  0.990405  0.669741  0.670058  1
  Cu  Cu24  1  0.669954  0.669780  0.669888  1
  Cu  Cu25  1  0.329985  0.330027  0.009721  1
  Cu  Cu26  1  0.330061  0.009656  0.330011  1
  Cu  Cu27  1  0.009595  0.330259  0.329942  1
  Cu  Cu28  1  0.330046  0.330220  0.330112  1
