# generated using pymatgen
data_Ba3LuCrSe6
_symmetry_space_group_name_H-M   'P 1'
_cell_length_a   8.66531424
_cell_length_b   8.66531448
_cell_length_c   8.66531500
_cell_angle_alpha   93.45297565
_cell_angle_beta   93.45296912
_cell_angle_gamma   93.45297989
_symmetry_Int_Tables_number   1
_chemical_formula_structural   Ba3LuCrSe6
_chemical_formula_sum   'Ba6 Lu2 Cr2 Se12'
_cell_volume   646.96523554
_cell_formula_units_Z   2
loop_
 _symmetry_equiv_pos_site_id
 _symmetry_equiv_pos_as_xyz
  1  'x, y, z'
loop_
 _atom_site_type_symbol
 _atom_site_label
 _atom_site_symmetry_multiplicity
 _atom_site_fract_x
 _atom_site_fract_y
 _atom_site_fract_z
 _atom_site_occupancy
  Ba  Ba0  1  0.368284  0.750000  0.131716  1
  Ba  Ba1  1  0.131716  0.368284  0.750000  1
  Ba  Ba2  1  0.750000  0.131716  0.368284  1
  Ba  Ba3  1  0.631716  0.250000  0.868284  1
  Ba  Ba4  1  0.868284  0.631716  0.250000  1
  Ba  Ba5  1  0.250000  0.868284  0.631716  1
  Lu  Lu6  1  0.250000  0.250000  0.250000  1
  Lu  Lu7  1  0.750000  0.750000  0.750000  1
  Cr  Cr8  1  0.500000  0.500000  0.500000  1
  Cr  Cr9  1  0.000000  0.000000  0.000000  1
  Se  Se10  1  0.535640  0.413883  0.210189  1
  Se  Se11  1  0.210189  0.535640  0.413883  1
  Se  Se12  1  0.413883  0.210189  0.535640  1
  Se  Se13  1  0.964360  0.289811  0.086117  1
  Se  Se14  1  0.086117  0.964360  0.289811  1
  Se  Se15  1  0.289811  0.086117  0.964360  1
  Se  Se16  1  0.464360  0.586117  0.789811  1
  Se  Se17  1  0.789811  0.464360  0.586117  1
  Se  Se18  1  0.586117  0.789811  0.464360  1
  Se  Se19  1  0.035640  0.710189  0.913883  1
  Se  Se20  1  0.710189  0.913883  0.035640  1
  Se  Se21  1  0.913883  0.035640  0.710189  1
