# generated using pymatgen
data_AcLa9(Cd2Ru3)2
_symmetry_space_group_name_H-M   'P 1'
_cell_length_a   8.79006218
_cell_length_b   8.80903546
_cell_length_c   8.80903601
_cell_angle_alpha   109.78072248
_cell_angle_beta   109.23555324
_cell_angle_gamma   109.48463597
_symmetry_Int_Tables_number   1
_chemical_formula_structural   AcLa9(Cd2Ru3)2
_chemical_formula_sum   'Ac1 La9 Cd4 Ru6'
_cell_volume   524.50651691
_cell_formula_units_Z   1
loop_
 _symmetry_equiv_pos_site_id
 _symmetry_equiv_pos_as_xyz
  1  'x, y, z'
loop_
 _atom_site_type_symbol
 _atom_site_label
 _atom_site_symmetry_multiplicity
 _atom_site_fract_x
 _atom_site_fract_y
 _atom_site_fract_z
 _atom_site_occupancy
  Ac  Ac0  1  0.250000  0.684982  0.434983  1
  La  La1  1  0.750000  0.816073  0.066073  1
  La  La2  1  0.433974  0.251188  0.685425  1
  La  La3  1  0.684413  0.434937  0.249411  1
  La  La4  1  0.066027  0.751452  0.817215  1
  La  La5  1  0.815587  0.064998  0.750523  1
  La  La6  1  0.211569  0.209849  0.210517  1
  La  La7  1  0.501617  0.001605  0.287889  1
  La  La8  1  0.288431  0.498949  0.998280  1
  La  La9  1  0.998384  0.286272  0.499990  1
  Cd  Cd10  1  0.501070  0.000723  0.912135  1
  Cd  Cd11  1  0.593430  0.589982  0.592331  1
  Cd  Cd12  1  0.906570  0.498903  0.996552  1
  Cd  Cd13  1  0.998931  0.911066  0.499655  1
  Ru  Ru14  1  0.250001  0.137708  0.887708  1
  Ru  Ru15  1  0.750000  0.357711  0.607711  1
  Ru  Ru16  1  0.889201  0.250812  0.139450  1
  Ru  Ru17  1  0.133439  0.894063  0.241920  1
  Ru  Ru18  1  0.610798  0.750250  0.361609  1
  Ru  Ru19  1  0.366560  0.608480  0.760624  1
