# generated using pymatgen
data_Tb4ReOs6W
_symmetry_space_group_name_H-M   'P 1'
_cell_length_a   5.22292395
_cell_length_b   5.22292488
_cell_length_c   9.06987900
_cell_angle_alpha   90.00000000
_cell_angle_beta   90.00000000
_cell_angle_gamma   115.86831997
_symmetry_Int_Tables_number   1
_chemical_formula_structural   Tb4ReOs6W
_chemical_formula_sum   'Tb4 Re1 Os6 W1'
_cell_volume   222.62532049
_cell_formula_units_Z   1
loop_
 _symmetry_equiv_pos_site_id
 _symmetry_equiv_pos_as_xyz
  1  'x, y, z'
loop_
 _atom_site_type_symbol
 _atom_site_label
 _atom_site_symmetry_multiplicity
 _atom_site_fract_x
 _atom_site_fract_y
 _atom_site_fract_z
 _atom_site_occupancy
  Tb  Tb0  1  0.330905  0.669095  0.437183  1
  Tb  Tb1  1  0.667212  0.332788  0.565052  1
  Tb  Tb2  1  0.667212  0.332788  0.934948  1
  Tb  Tb3  1  0.330905  0.669095  0.062817  1
  Re  Re4  1  0.164751  0.835249  0.750000  1
  Os  Os5  1  0.998365  0.001635  0.502145  1
  Os  Os6  1  0.998365  0.001635  0.997855  1
  Os  Os7  1  0.830815  0.651118  0.250000  1
  Os  Os8  1  0.348882  0.169185  0.250000  1
  Os  Os9  1  0.169494  0.346228  0.750000  1
  Os  Os10  1  0.653772  0.830506  0.750000  1
  W  W11  1  0.839322  0.160678  0.250000  1
