# generated using pymatgen
data_CaSm2(MnC3)2
_symmetry_space_group_name_H-M   'P 1'
_cell_length_a   8.15482158
_cell_length_b   8.16040230
_cell_length_c   5.08621700
_cell_angle_alpha   90.00000000
_cell_angle_beta   90.00000000
_cell_angle_gamma   120.08725411
_symmetry_Int_Tables_number   1
_chemical_formula_structural   CaSm2(MnC3)2
_chemical_formula_sum   'Ca2 Sm4 Mn4 C12'
_cell_volume   292.86605244
_cell_formula_units_Z   2
loop_
 _symmetry_equiv_pos_site_id
 _symmetry_equiv_pos_as_xyz
  1  'x, y, z'
loop_
 _atom_site_type_symbol
 _atom_site_label
 _atom_site_symmetry_multiplicity
 _atom_site_fract_x
 _atom_site_fract_y
 _atom_site_fract_z
 _atom_site_occupancy
  Ca  Ca0  1  0.609186  0.683893  0.750000  1
  Ca  Ca1  1  0.923590  0.610717  0.250000  1
  Sm  Sm2  1  0.686512  0.072011  0.250000  1
  Sm  Sm3  1  0.311411  0.928028  0.750000  1
  Sm  Sm4  1  0.071559  0.387404  0.750000  1
  Sm  Sm5  1  0.386892  0.315950  0.250000  1
  Mn  Mn6  1  0.997327  0.996961  0.500570  1
  Mn  Mn7  1  0.997327  0.996961  0.999430  1
  Mn  Mn8  1  0.666608  0.330615  0.750000  1
  Mn  Mn9  1  0.336822  0.667342  0.250000  1
  C  C10  1  0.953254  0.771304  0.750000  1
  C  C11  1  0.187622  0.957491  0.250000  1
  C  C12  1  0.776915  0.822215  0.250000  1
  C  C13  1  0.229400  0.189099  0.750000  1
  C  C14  1  0.818720  0.042811  0.750000  1
  C  C15  1  0.041404  0.229447  0.250000  1
  C  C16  1  0.855099  0.579423  0.750000  1
  C  C17  1  0.276484  0.854223  0.250000  1
  C  C18  1  0.584266  0.722287  0.250000  1
  C  C19  1  0.422787  0.279754  0.750000  1
  C  C20  1  0.144587  0.422787  0.250000  1
  C  C21  1  0.722229  0.139278  0.750000  1
