# generated using pymatgen
data_Nd8Tm12Si15Pd
_symmetry_space_group_name_H-M   'P 1'
_cell_length_a   7.70792424
_cell_length_b   7.74135169
_cell_length_c   14.22472200
_cell_angle_alpha   89.68686581
_cell_angle_beta   89.89379952
_cell_angle_gamma   90.09636862
_symmetry_Int_Tables_number   1
_chemical_formula_structural   Nd8Tm12Si15Pd
_chemical_formula_sum   'Nd8 Tm12 Si15 Pd1'
_cell_volume   848.77029024
_cell_formula_units_Z   1
loop_
 _symmetry_equiv_pos_site_id
 _symmetry_equiv_pos_as_xyz
  1  'x, y, z'
loop_
 _atom_site_type_symbol
 _atom_site_label
 _atom_site_symmetry_multiplicity
 _atom_site_fract_x
 _atom_site_fract_y
 _atom_site_fract_z
 _atom_site_occupancy
  Nd  Nd0  1  0.646908  0.991333  0.461134  1
  Nd  Nd1  1  0.357704  0.006146  0.959457  1
  Nd  Nd2  1  0.988901  0.639092  0.539430  1
  Nd  Nd3  1  0.493246  0.855601  0.209651  1
  Nd  Nd4  1  0.511064  0.150350  0.711633  1
  Nd  Nd5  1  0.856189  0.495639  0.791820  1
  Nd  Nd6  1  0.143792  0.504337  0.289383  1
  Nd  Nd7  1  0.008041  0.355296  0.040688  1
  Tm  Tm8  1  0.491653  0.357464  0.123564  1
  Tm  Tm9  1  0.990134  0.146731  0.629396  1
  Tm  Tm10  1  0.859262  0.005895  0.874786  1
  Tm  Tm11  1  0.140299  0.985918  0.375204  1
  Tm  Tm12  1  0.507722  0.641173  0.621243  1
  Tm  Tm13  1  0.360030  0.494997  0.877123  1
  Tm  Tm14  1  0.641880  0.503837  0.375248  1
  Tm  Tm15  1  0.006993  0.860633  0.125271  1
  Tm  Tm16  1  0.314603  0.314743  0.501333  1
  Tm  Tm17  1  0.186461  0.826529  0.746276  1
  Tm  Tm18  1  0.820399  0.180323  0.251007  1
  Tm  Tm19  1  0.681320  0.681943  0.000277  1
  Si  Si20  1  0.710025  0.062085  0.061986  1
  Si  Si21  1  0.939520  0.290257  0.437525  1
  Si  Si22  1  0.437859  0.209098  0.311322  1
  Si  Si23  1  0.562488  0.790970  0.811415  1
  Si  Si24  1  0.210204  0.441848  0.689853  1
  Si  Si25  1  0.789575  0.561688  0.187467  1
  Si  Si26  1  0.060918  0.710181  0.937706  1
  Si  Si27  1  0.793848  0.852204  0.687654  1
  Si  Si28  1  0.204635  0.147589  0.187724  1
  Si  Si29  1  0.848953  0.793813  0.310204  1
  Si  Si30  1  0.353080  0.699627  0.434888  1
  Si  Si31  1  0.650588  0.296625  0.938857  1
  Si  Si32  1  0.703755  0.350226  0.561215  1
  Si  Si33  1  0.295528  0.650113  0.061728  1
  Si  Si34  1  0.148451  0.209734  0.815366  1
  Pd  Pd35  1  0.283972  0.935962  0.561163  1
