# generated using pymatgen
data_Hf18MnRe8B
_symmetry_space_group_name_H-M   'P 1'
_cell_length_a   8.50071900
_cell_length_b   8.50071909
_cell_length_c   8.54011500
_cell_angle_alpha   90.00000000
_cell_angle_beta   90.00000000
_cell_angle_gamma   119.99999575
_symmetry_Int_Tables_number   1
_chemical_formula_structural   Hf18MnRe8B
_chemical_formula_sum   'Hf18 Mn1 Re8 B1'
_cell_volume   534.44829342
_cell_formula_units_Z   1
loop_
 _symmetry_equiv_pos_site_id
 _symmetry_equiv_pos_as_xyz
  1  'x, y, z'
loop_
 _atom_site_type_symbol
 _atom_site_label
 _atom_site_symmetry_multiplicity
 _atom_site_fract_x
 _atom_site_fract_y
 _atom_site_fract_z
 _atom_site_occupancy
  Hf  Hf0  1  0.201434  0.798566  0.443920  1
  Hf  Hf1  1  0.201434  0.402868  0.443920  1
  Hf  Hf2  1  0.597132  0.798566  0.443920  1
  Hf  Hf3  1  0.799230  0.200770  0.555725  1
  Hf  Hf4  1  0.799230  0.598460  0.555725  1
  Hf  Hf5  1  0.401540  0.200770  0.555725  1
  Hf  Hf6  1  0.799230  0.200770  0.944275  1
  Hf  Hf7  1  0.799230  0.598460  0.944275  1
  Hf  Hf8  1  0.401540  0.200770  0.944275  1
  Hf  Hf9  1  0.201434  0.798566  0.056080  1
  Hf  Hf10  1  0.201434  0.402868  0.056080  1
  Hf  Hf11  1  0.597132  0.798566  0.056080  1
  Hf  Hf12  1  0.539931  0.460069  0.250000  1
  Hf  Hf13  1  0.539931  0.079862  0.250000  1
  Hf  Hf14  1  0.920138  0.460069  0.250000  1
  Hf  Hf15  1  0.460683  0.539317  0.750000  1
  Hf  Hf16  1  0.460683  0.921366  0.750000  1
  Hf  Hf17  1  0.078634  0.539317  0.750000  1
  Mn  Mn18  1  0.333333  0.666667  0.250000  1
  Re  Re19  1  0.888846  0.111154  0.250000  1
  Re  Re20  1  0.888846  0.777693  0.250000  1
  Re  Re21  1  0.222307  0.111154  0.250000  1
  Re  Re22  1  0.110219  0.889781  0.750000  1
  Re  Re23  1  0.110219  0.220437  0.750000  1
  Re  Re24  1  0.779563  0.889781  0.750000  1
  Re  Re25  1  0.000000  0.000000  0.498950  1
  Re  Re26  1  0.000000  0.000000  0.001050  1
  B  B27  1  0.666667  0.333333  0.750000  1
