# generated using pymatgen
data_V2FeTeO7
_symmetry_space_group_name_H-M   'P 1'
_cell_length_a   6.76293357
_cell_length_b   7.01213587
_cell_length_c   7.93497728
_cell_angle_alpha   94.59037705
_cell_angle_beta   113.49278600
_cell_angle_gamma   114.53902681
_symmetry_Int_Tables_number   1
_chemical_formula_structural   V2FeTeO7
_chemical_formula_sum   'V4 Fe2 Te2 O14'
_cell_volume   300.02525501
_cell_formula_units_Z   2
loop_
 _symmetry_equiv_pos_site_id
 _symmetry_equiv_pos_as_xyz
  1  'x, y, z'
loop_
 _atom_site_type_symbol
 _atom_site_label
 _atom_site_symmetry_multiplicity
 _atom_site_fract_x
 _atom_site_fract_y
 _atom_site_fract_z
 _atom_site_occupancy
  V  V0  1  0.026918  0.888588  0.670929  1
  V  V1  1  0.510112  0.565389  0.326383  1
  V  V2  1  0.489888  0.434611  0.673617  1
  V  V3  1  0.973082  0.111412  0.329071  1
  Fe  Fe4  1  0.438800  0.060651  0.178441  1
  Fe  Fe5  1  0.561200  0.939349  0.821559  1
  Te  Te6  1  0.063441  0.695464  0.292201  1
  Te  Te7  1  0.936559  0.304536  0.707799  1
  O  O8  1  0.151806  0.986493  0.257164  1
  O  O9  1  0.455137  0.365702  0.153876  1
  O  O10  1  0.173000  0.182537  0.631191  1
  O  O11  1  0.348510  0.743036  0.252808  1
  O  O12  1  0.222589  0.783671  0.565956  1
  O  O13  1  0.651490  0.256964  0.747192  1
  O  O14  1  0.827000  0.817463  0.368809  1
  O  O15  1  0.751994  0.091460  0.110861  1
  O  O16  1  0.848194  0.013507  0.742836  1
  O  O17  1  0.262899  0.408432  0.412724  1
  O  O18  1  0.544863  0.634298  0.846124  1
  O  O19  1  0.777411  0.216329  0.434044  1
  O  O20  1  0.248006  0.908540  0.889139  1
  O  O21  1  0.737101  0.591568  0.587276  1
