# generated using pymatgen
data_Cs6In3RhBr18
_symmetry_space_group_name_H-M   'P 1'
_cell_length_a   7.91731100
_cell_length_b   7.91731122
_cell_length_c   20.11619500
_cell_angle_alpha   90.00000000
_cell_angle_beta   90.00000000
_cell_angle_gamma   119.99999490
_symmetry_Int_Tables_number   1
_chemical_formula_structural   Cs6In3RhBr18
_chemical_formula_sum   'Cs6 In3 Rh1 Br18'
_cell_volume   1092.02331974
_cell_formula_units_Z   1
loop_
 _symmetry_equiv_pos_site_id
 _symmetry_equiv_pos_as_xyz
  1  'x, y, z'
loop_
 _atom_site_type_symbol
 _atom_site_label
 _atom_site_symmetry_multiplicity
 _atom_site_fract_x
 _atom_site_fract_y
 _atom_site_fract_z
 _atom_site_occupancy
  Cs  Cs0  1  0.333333  0.666667  0.070821  1
  Cs  Cs1  1  0.666667  0.333333  0.931564  1
  Cs  Cs2  1  0.666667  0.333333  0.573273  1
  Cs  Cs3  1  0.333333  0.666667  0.433839  1
  Cs  Cs4  1  0.000000  0.000000  0.250776  1
  Cs  Cs5  1  0.000000  0.000000  0.745172  1
  In  In6  1  0.666667  0.333333  0.345356  1
  In  In7  1  0.666667  0.333333  0.156254  1
  In  In8  1  0.333333  0.666667  0.841550  1
  Rh  Rh9  1  0.333333  0.666667  0.665358  1
  Br  Br10  1  0.183704  0.367407  0.594909  1
  Br  Br11  1  0.832136  0.664272  0.410903  1
  Br  Br12  1  0.632593  0.816296  0.594909  1
  Br  Br13  1  0.831745  0.663491  0.089262  1
  Br  Br14  1  0.335728  0.167864  0.410903  1
  Br  Br15  1  0.167924  0.335846  0.907360  1
  Br  Br16  1  0.183704  0.816296  0.594909  1
  Br  Br17  1  0.336509  0.168255  0.089262  1
  Br  Br18  1  0.832136  0.167864  0.410903  1
  Br  Br19  1  0.664154  0.832076  0.907360  1
  Br  Br20  1  0.831745  0.168255  0.089262  1
  Br  Br21  1  0.167924  0.832076  0.907360  1
  Br  Br22  1  0.512211  0.024422  0.250048  1
  Br  Br23  1  0.482029  0.964057  0.742864  1
  Br  Br24  1  0.975578  0.487789  0.250048  1
  Br  Br25  1  0.035943  0.517971  0.742864  1
  Br  Br26  1  0.512211  0.487789  0.250048  1
  Br  Br27  1  0.482029  0.517971  0.742864  1
