# generated using pymatgen
data_Li4MoF7
_symmetry_space_group_name_H-M   'P 1'
_cell_length_a   6.08587221
_cell_length_b   6.08587228
_cell_length_c   6.08587300
_cell_angle_alpha   60.00000155
_cell_angle_beta   60.00000115
_cell_angle_gamma   60.00000117
_symmetry_Int_Tables_number   1
_chemical_formula_structural   Li4MoF7
_chemical_formula_sum   'Li4 Mo1 F7'
_cell_volume   159.38724476
_cell_formula_units_Z   1
loop_
 _symmetry_equiv_pos_site_id
 _symmetry_equiv_pos_as_xyz
  1  'x, y, z'
loop_
 _atom_site_type_symbol
 _atom_site_label
 _atom_site_symmetry_multiplicity
 _atom_site_fract_x
 _atom_site_fract_y
 _atom_site_fract_z
 _atom_site_occupancy
  Li  Li0  1  0.373596  0.373596  0.373596  1
  Li  Li1  1  0.373596  0.373596  0.879214  1
  Li  Li2  1  0.373596  0.879214  0.373596  1
  Li  Li3  1  0.879214  0.373596  0.373596  1
  Mo  Mo4  1  0.000000  0.000000  0.000000  1
  F  F5  1  0.246046  0.246046  0.753954  1
  F  F6  1  0.246046  0.753954  0.246046  1
  F  F7  1  0.753954  0.246046  0.246046  1
  F  F8  1  0.753954  0.753954  0.246046  1
  F  F9  1  0.250000  0.250000  0.250000  1
  F  F10  1  0.246046  0.753954  0.753954  1
  F  F11  1  0.753954  0.246046  0.753954  1
