# generated using pymatgen
data_TbDy7(RuI4)2
_symmetry_space_group_name_H-M   'P 1'
_cell_length_a   11.66463393
_cell_length_b   11.66512791
_cell_length_c   6.19059800
_cell_angle_alpha   90.03953931
_cell_angle_beta   90.05268529
_cell_angle_gamma   89.92827718
_symmetry_Int_Tables_number   1
_chemical_formula_structural   TbDy7(RuI4)2
_chemical_formula_sum   'Tb1 Dy7 Ru2 I8'
_cell_volume   842.35002928
_cell_formula_units_Z   1
loop_
 _symmetry_equiv_pos_site_id
 _symmetry_equiv_pos_as_xyz
  1  'x, y, z'
loop_
 _atom_site_type_symbol
 _atom_site_label
 _atom_site_symmetry_multiplicity
 _atom_site_fract_x
 _atom_site_fract_y
 _atom_site_fract_z
 _atom_site_occupancy
  Tb  Tb0  1  0.807048  0.079652  0.000985  1
  Dy  Dy1  1  0.079250  0.808194  0.501103  1
  Dy  Dy2  1  0.078800  0.191745  0.001118  1
  Dy  Dy3  1  0.191844  0.078620  0.501107  1
  Dy  Dy4  1  0.921461  0.808144  0.998886  1
  Dy  Dy5  1  0.920983  0.191748  0.498869  1
  Dy  Dy6  1  0.191832  0.920801  0.998913  1
  Dy  Dy7  1  0.808356  0.921257  0.498864  1
  Ru  Ru8  1  0.000300  0.999759  0.249983  1
  Ru  Ru9  1  0.999912  0.000157  0.749977  1
  I  I10  1  0.653971  0.143463  0.487804  1
  I  I11  1  0.855297  0.655751  0.507204  1
  I  I12  1  0.344285  0.144725  0.992798  1
  I  I13  1  0.144713  0.344247  0.492802  1
  I  I14  1  0.655666  0.854909  0.007216  1
  I  I15  1  0.346066  0.856527  0.512360  1
  I  I16  1  0.143479  0.653925  0.987649  1
  I  I17  1  0.856737  0.346376  0.012361  1
