# generated using pymatgen
data_La2Nd3Sn3(BRh6)2
_symmetry_space_group_name_H-M   'P 1'
_cell_length_a   5.92904700
_cell_length_b   5.92904510
_cell_length_c   13.74069300
_cell_angle_alpha   90.00000000
_cell_angle_beta   90.00000000
_cell_angle_gamma   119.99999384
_symmetry_Int_Tables_number   1
_chemical_formula_structural   La2Nd3Sn3(BRh6)2
_chemical_formula_sum   'La2 Nd3 Sn3 B2 Rh12'
_cell_volume   418.32030213
_cell_formula_units_Z   1
loop_
 _symmetry_equiv_pos_site_id
 _symmetry_equiv_pos_as_xyz
  1  'x, y, z'
loop_
 _atom_site_type_symbol
 _atom_site_label
 _atom_site_symmetry_multiplicity
 _atom_site_fract_x
 _atom_site_fract_y
 _atom_site_fract_z
 _atom_site_occupancy
  La  La0  1  0.000000  0.000000  0.749871  1
  La  La1  1  0.333333  0.666667  0.099272  1
  Nd  Nd2  1  0.333333  0.666667  0.404455  1
  Nd  Nd3  1  0.666667  0.333333  0.910971  1
  Nd  Nd4  1  0.666667  0.333333  0.588157  1
  Sn  Sn5  1  0.000000  0.000000  0.250863  1
  Sn  Sn6  1  0.333333  0.666667  0.749691  1
  Sn  Sn7  1  0.666667  0.333333  0.250420  1
  B  B8  1  0.000000  0.000000  0.497170  1
  B  B9  1  0.000000  0.000000  0.002214  1
  Rh  Rh10  1  0.337506  0.168753  0.405874  1
  Rh  Rh11  1  0.831247  0.168753  0.405874  1
  Rh  Rh12  1  0.831247  0.662494  0.405874  1
  Rh  Rh13  1  0.171732  0.343464  0.915971  1
  Rh  Rh14  1  0.656294  0.828146  0.583312  1
  Rh  Rh15  1  0.656536  0.828268  0.915971  1
  Rh  Rh16  1  0.337161  0.168581  0.093815  1
  Rh  Rh17  1  0.171854  0.343706  0.583312  1
  Rh  Rh18  1  0.171854  0.828146  0.583312  1
  Rh  Rh19  1  0.831419  0.168581  0.093815  1
  Rh  Rh20  1  0.831419  0.662839  0.093815  1
  Rh  Rh21  1  0.171732  0.828268  0.915971  1
