# generated using pymatgen
data_La3NdIn2(CuNi)2
_symmetry_space_group_name_H-M   'P 1'
_cell_length_a   7.82942128
_cell_length_b   7.82942215
_cell_length_c   3.78572200
_cell_angle_alpha   90.00000000
_cell_angle_beta   90.00000000
_cell_angle_gamma   89.34909515
_symmetry_Int_Tables_number   1
_chemical_formula_structural   La3NdIn2(CuNi)2
_chemical_formula_sum   'La3 Nd1 In2 Cu2 Ni2'
_cell_volume   232.04919466
_cell_formula_units_Z   1
loop_
 _symmetry_equiv_pos_site_id
 _symmetry_equiv_pos_as_xyz
  1  'x, y, z'
loop_
 _atom_site_type_symbol
 _atom_site_label
 _atom_site_symmetry_multiplicity
 _atom_site_fract_x
 _atom_site_fract_y
 _atom_site_fract_z
 _atom_site_occupancy
  La  La0  1  0.669877  0.167724  0.500000  1
  La  La1  1  0.332276  0.830123  0.500000  1
  La  La2  1  0.184969  0.315031  0.500000  1
  Nd  Nd3  1  0.815909  0.684091  0.500000  1
  In  In4  1  0.502599  0.502188  0.000000  1
  In  In5  1  0.997812  0.997401  0.000000  1
  Cu  Cu6  1  0.115314  0.617711  0.000000  1
  Cu  Cu7  1  0.882289  0.384686  0.000000  1
  Ni  Ni8  1  0.618994  0.881006  0.000000  1
  Ni  Ni9  1  0.379960  0.120040  0.000000  1
