# generated using pymatgen
data_Hf3Ti(ZnIr3)2
_symmetry_space_group_name_H-M   'P 1'
_cell_length_a   4.27414200
_cell_length_b   7.02799500
_cell_length_c   12.80949400
_cell_angle_alpha   89.99995318
_cell_angle_beta   90.00068396
_cell_angle_gamma   89.99982989
_symmetry_Int_Tables_number   1
_chemical_formula_structural   Hf3Ti(ZnIr3)2
_chemical_formula_sum   'Hf6 Ti2 Zn4 Ir12'
_cell_volume   384.77988906
_cell_formula_units_Z   2
loop_
 _symmetry_equiv_pos_site_id
 _symmetry_equiv_pos_as_xyz
  1  'x, y, z'
loop_
 _atom_site_type_symbol
 _atom_site_label
 _atom_site_symmetry_multiplicity
 _atom_site_fract_x
 _atom_site_fract_y
 _atom_site_fract_z
 _atom_site_occupancy
  Hf  Hf0  1  0.999994  0.500000  0.990014  1
  Hf  Hf1  1  0.499939  0.000000  0.176683  1
  Hf  Hf2  1  0.999923  0.499999  0.344668  1
  Hf  Hf3  1  0.500003  0.000000  0.500151  1
  Hf  Hf4  1  0.000072  0.500000  0.666501  1
  Hf  Hf5  1  0.500068  0.999999  0.821991  1
  Ti  Ti6  1  0.999995  0.000000  0.998435  1
  Ti  Ti7  1  0.499933  0.500000  0.168222  1
  Zn  Zn8  1  0.999920  0.000000  0.336734  1
  Zn  Zn9  1  0.499992  0.500000  0.503456  1
  Zn  Zn10  1  0.000085  0.000000  0.663196  1
  Zn  Zn11  1  0.500067  0.500000  0.829934  1
  Ir  Ir12  1  0.499997  0.238640  0.002786  1
  Ir  Ir13  1  0.499996  0.761359  0.002786  1
  Ir  Ir14  1  0.999943  0.261327  0.163904  1
  Ir  Ir15  1  0.999944  0.738671  0.163904  1
  Ir  Ir16  1  0.499933  0.258308  0.330176  1
  Ir  Ir17  1  0.499932  0.741692  0.330175  1
  Ir  Ir18  1  0.000006  0.248041  0.500817  1
  Ir  Ir19  1  0.000006  0.751960  0.500817  1
  Ir  Ir20  1  0.500070  0.251961  0.665828  1
  Ir  Ir21  1  0.500069  0.748040  0.665828  1
  Ir  Ir22  1  0.000057  0.241691  0.836496  1
  Ir  Ir23  1  0.000058  0.758309  0.836496  1
