# generated using pymatgen
data_NdU(GeRu)2
_symmetry_space_group_name_H-M   'P 1'
_cell_length_a   4.53218900
_cell_length_b   7.40935817
_cell_length_c   7.20983052
_cell_angle_alpha   95.05264453
_cell_angle_beta   90.00000000
_cell_angle_gamma   90.00000000
_symmetry_Int_Tables_number   1
_chemical_formula_structural   NdU(GeRu)2
_chemical_formula_sum   'Nd2 U2 Ge4 Ru4'
_cell_volume   241.16972439
_cell_formula_units_Z   2
loop_
 _symmetry_equiv_pos_site_id
 _symmetry_equiv_pos_as_xyz
  1  'x, y, z'
loop_
 _atom_site_type_symbol
 _atom_site_label
 _atom_site_symmetry_multiplicity
 _atom_site_fract_x
 _atom_site_fract_y
 _atom_site_fract_z
 _atom_site_occupancy
  Nd  Nd0  1  0.250000  0.983275  0.770601  1
  Nd  Nd1  1  0.750000  0.016725  0.229399  1
  U  U2  1  0.250000  0.493613  0.700347  1
  U  U3  1  0.750000  0.506387  0.299653  1
  Ge  Ge4  1  0.250000  0.287769  0.092892  1
  Ge  Ge5  1  0.750000  0.712231  0.907108  1
  Ge  Ge6  1  0.250000  0.791105  0.386062  1
  Ge  Ge7  1  0.750000  0.208895  0.613938  1
  Ru  Ru8  1  0.750000  0.728905  0.547988  1
  Ru  Ru9  1  0.250000  0.271095  0.452012  1
  Ru  Ru10  1  0.750000  0.365732  0.962786  1
  Ru  Ru11  1  0.250000  0.634268  0.037214  1
