# generated using pymatgen
data_Ac2BeSi4Ni
_symmetry_space_group_name_H-M   'P 1'
_cell_length_a   8.76889284
_cell_length_b   8.76889206
_cell_length_c   4.18959600
_cell_angle_alpha   90.00000000
_cell_angle_beta   90.00000000
_cell_angle_gamma   151.09019809
_symmetry_Int_Tables_number   1
_chemical_formula_structural   Ac2BeSi4Ni
_chemical_formula_sum   'Ac2 Be1 Si4 Ni1'
_cell_volume   155.73892032
_cell_formula_units_Z   1
loop_
 _symmetry_equiv_pos_site_id
 _symmetry_equiv_pos_as_xyz
  1  'x, y, z'
loop_
 _atom_site_type_symbol
 _atom_site_label
 _atom_site_symmetry_multiplicity
 _atom_site_fract_x
 _atom_site_fract_y
 _atom_site_fract_z
 _atom_site_occupancy
  Ac  Ac0  1  0.109554  0.890446  0.250000  1
  Ac  Ac1  1  0.895518  0.104482  0.750000  1
  Be  Be2  1  0.678328  0.321672  0.750000  1
  Si  Si3  1  0.751144  0.248856  0.250000  1
  Si  Si4  1  0.251027  0.748973  0.750000  1
  Si  Si5  1  0.538596  0.461404  0.750000  1
  Si  Si6  1  0.459915  0.540085  0.250000  1
  Ni  Ni7  1  0.315917  0.684083  0.250000  1
