# generated using pymatgen
data_Ta10Ir4Ru
_symmetry_space_group_name_H-M   'P 1'
_cell_length_a   9.98442400
_cell_length_b   9.98442400
_cell_length_c   5.12126000
_cell_angle_alpha   90.00000000
_cell_angle_beta   90.00000000
_cell_angle_gamma   90.00000000
_symmetry_Int_Tables_number   1
_chemical_formula_structural   Ta10Ir4Ru
_chemical_formula_sum   'Ta20 Ir8 Ru2'
_cell_volume   510.53186756
_cell_formula_units_Z   2
loop_
 _symmetry_equiv_pos_site_id
 _symmetry_equiv_pos_as_xyz
  1  'x, y, z'
loop_
 _atom_site_type_symbol
 _atom_site_label
 _atom_site_symmetry_multiplicity
 _atom_site_fract_x
 _atom_site_fract_y
 _atom_site_fract_z
 _atom_site_occupancy
  Ta  Ta0  1  0.395480  0.395480  0.000000  1
  Ta  Ta1  1  0.895480  0.104520  0.500000  1
  Ta  Ta2  1  0.104520  0.895480  0.500000  1
  Ta  Ta3  1  0.604520  0.604520  0.000000  1
  Ta  Ta4  1  0.129453  0.463003  0.000000  1
  Ta  Ta5  1  0.963003  0.370547  0.500000  1
  Ta  Ta6  1  0.036997  0.629453  0.500000  1
  Ta  Ta7  1  0.870547  0.536997  0.000000  1
  Ta  Ta8  1  0.370547  0.963003  0.500000  1
  Ta  Ta9  1  0.629453  0.036997  0.500000  1
  Ta  Ta10  1  0.463003  0.129453  0.000000  1
  Ta  Ta11  1  0.536997  0.870547  0.000000  1
  Ta  Ta12  1  0.178381  0.178381  0.250842  1
  Ta  Ta13  1  0.678381  0.321619  0.750842  1
  Ta  Ta14  1  0.321619  0.678381  0.750842  1
  Ta  Ta15  1  0.821619  0.821619  0.250842  1
  Ta  Ta16  1  0.321619  0.678381  0.249158  1
  Ta  Ta17  1  0.678381  0.321619  0.249158  1
  Ta  Ta18  1  0.178381  0.178381  0.749158  1
  Ta  Ta19  1  0.821619  0.821619  0.749158  1
  Ir  Ir20  1  0.261706  0.931408  0.000000  1
  Ir  Ir21  1  0.431408  0.238294  0.500000  1
  Ir  Ir22  1  0.568592  0.761706  0.500000  1
  Ir  Ir23  1  0.738294  0.068592  0.000000  1
  Ir  Ir24  1  0.238294  0.431408  0.500000  1
  Ir  Ir25  1  0.761706  0.568592  0.500000  1
  Ir  Ir26  1  0.931408  0.261706  0.000000  1
  Ir  Ir27  1  0.068592  0.738294  0.000000  1
  Ru  Ru28  1  0.000000  0.000000  0.000000  1
  Ru  Ru29  1  0.500000  0.500000  0.500000  1
