# generated using pymatgen
data_YHo3Al17CuPd6
_symmetry_space_group_name_H-M   'P 1'
_cell_length_a   7.59108900
_cell_length_b   7.59045321
_cell_length_c   9.44966500
_cell_angle_alpha   90.00000000
_cell_angle_beta   90.00000000
_cell_angle_gamma   119.01286133
_symmetry_Int_Tables_number   1
_chemical_formula_structural   YHo3Al17CuPd6
_chemical_formula_sum   'Y1 Ho3 Al17 Cu1 Pd6'
_cell_volume   476.16054853
_cell_formula_units_Z   1
loop_
 _symmetry_equiv_pos_site_id
 _symmetry_equiv_pos_as_xyz
  1  'x, y, z'
loop_
 _atom_site_type_symbol
 _atom_site_label
 _atom_site_symmetry_multiplicity
 _atom_site_fract_x
 _atom_site_fract_y
 _atom_site_fract_z
 _atom_site_occupancy
  Y  Y0  1  0.328874  0.006509  0.750000  1
  Ho  Ho1  1  0.991498  0.671244  0.250000  1
  Ho  Ho2  1  0.006360  0.328717  0.750000  1
  Ho  Ho3  1  0.671518  0.991700  0.250000  1
  Al  Al4  1  0.865493  0.865741  0.750000  1
  Al  Al5  1  0.003339  0.328141  0.083753  1
  Al  Al6  1  0.999148  0.662950  0.924457  1
  Al  Al7  1  0.999148  0.662950  0.575543  1
  Al  Al8  1  0.328108  0.003334  0.416044  1
  Al  Al9  1  0.003339  0.328141  0.416247  1
  Al  Al10  1  0.663515  0.999579  0.575603  1
  Al  Al11  1  0.663515  0.999579  0.924397  1
  Al  Al12  1  0.328108  0.003334  0.083956  1
  Al  Al13  1  0.332207  0.332501  0.549098  1
  Al  Al14  1  0.667119  0.667243  0.442684  1
  Al  Al15  1  0.667119  0.667243  0.057316  1
  Al  Al16  1  0.332207  0.332501  0.950902  1
  Al  Al17  1  0.338121  0.544466  0.250000  1
  Al  Al18  1  0.659449  0.450528  0.750000  1
  Al  Al19  1  0.544829  0.338431  0.250000  1
  Al  Al20  1  0.450103  0.659071  0.750000  1
  Cu  Cu21  1  0.158146  0.156642  0.250000  1
  Pd  Pd22  1  0.674927  0.327769  0.000647  1
  Pd  Pd23  1  0.327581  0.674747  0.000685  1
  Pd  Pd24  1  0.327581  0.674747  0.499315  1
  Pd  Pd25  1  0.674927  0.327769  0.499353  1
  Pd  Pd26  1  0.996861  0.997213  0.994231  1
  Pd  Pd27  1  0.996861  0.997213  0.505769  1
