# generated using pymatgen
data_TbNpScO6
_symmetry_space_group_name_H-M   'P 1'
_cell_length_a   5.46784000
_cell_length_b   7.67904161
_cell_length_c   11.57483506
_cell_angle_alpha   76.73985263
_cell_angle_beta   90.00000000
_cell_angle_gamma   90.00000000
_symmetry_Int_Tables_number   1
_chemical_formula_structural   TbNpScO6
_chemical_formula_sum   'Tb4 Np4 Sc4 O24'
_cell_volume   473.04406595
_cell_formula_units_Z   4
loop_
 _symmetry_equiv_pos_site_id
 _symmetry_equiv_pos_as_xyz
  1  'x, y, z'
loop_
 _atom_site_type_symbol
 _atom_site_label
 _atom_site_symmetry_multiplicity
 _atom_site_fract_x
 _atom_site_fract_y
 _atom_site_fract_z
 _atom_site_occupancy
  Tb  Tb0  1  0.773850  0.000000  0.750000  1
  Tb  Tb1  1  0.226150  0.000000  0.250000  1
  Tb  Tb2  1  0.706054  0.500000  0.750000  1
  Tb  Tb3  1  0.293946  0.500000  0.250000  1
  Np  Np4  1  0.273328  0.731760  0.892047  1
  Np  Np5  1  0.726672  0.731760  0.392047  1
  Np  Np6  1  0.273328  0.268240  0.607953  1
  Np  Np7  1  0.726672  0.268240  0.107953  1
  Sc  Sc8  1  0.207374  0.773744  0.594415  1
  Sc  Sc9  1  0.792626  0.773744  0.094415  1
  Sc  Sc10  1  0.207374  0.226256  0.905585  1
  Sc  Sc11  1  0.792626  0.226256  0.405585  1
  O  O12  1  0.098473  0.970195  0.887335  1
  O  O13  1  0.597894  0.841847  0.940010  1
  O  O14  1  0.901527  0.970195  0.387335  1
  O  O15  1  0.470068  0.793776  0.727416  1
  O  O16  1  0.402106  0.841847  0.440010  1
  O  O17  1  0.985171  0.711518  0.774366  1
  O  O18  1  0.529932  0.793776  0.227416  1
  O  O19  1  0.886866  0.650478  0.557940  1
  O  O20  1  0.391190  0.482794  0.886537  1
  O  O21  1  0.014829  0.711518  0.274366  1
  O  O22  1  0.391190  0.517206  0.613463  1
  O  O23  1  0.886866  0.349522  0.942060  1
  O  O24  1  0.113134  0.650478  0.057940  1
  O  O25  1  0.608810  0.482794  0.386537  1
  O  O26  1  0.985171  0.288482  0.725634  1
  O  O27  1  0.608810  0.517206  0.113463  1
  O  O28  1  0.113134  0.349522  0.442060  1
  O  O29  1  0.470068  0.206224  0.772584  1
  O  O30  1  0.014829  0.288482  0.225634  1
  O  O31  1  0.597894  0.158153  0.559990  1
  O  O32  1  0.529932  0.206224  0.272584  1
  O  O33  1  0.098473  0.029805  0.612665  1
  O  O34  1  0.402106  0.158153  0.059990  1
  O  O35  1  0.901527  0.029805  0.112665  1
