# generated using pymatgen
data_Cs4YOsBr12
_symmetry_space_group_name_H-M   'P 1'
_cell_length_a   7.97641500
_cell_length_b   7.97641500
_cell_length_c   11.17575900
_cell_angle_alpha   90.00000000
_cell_angle_beta   90.00000000
_cell_angle_gamma   90.00000000
_symmetry_Int_Tables_number   1
_chemical_formula_structural   Cs4YOsBr12
_chemical_formula_sum   'Cs4 Y1 Os1 Br12'
_cell_volume   711.03750812
_cell_formula_units_Z   1
loop_
 _symmetry_equiv_pos_site_id
 _symmetry_equiv_pos_as_xyz
  1  'x, y, z'
loop_
 _atom_site_type_symbol
 _atom_site_label
 _atom_site_symmetry_multiplicity
 _atom_site_fract_x
 _atom_site_fract_y
 _atom_site_fract_z
 _atom_site_occupancy
  Cs  Cs0  1  0.500000  0.000000  0.778396  1
  Cs  Cs1  1  0.000000  0.500000  0.221604  1
  Cs  Cs2  1  0.500000  0.000000  0.221604  1
  Cs  Cs3  1  0.000000  0.500000  0.778396  1
  Y  Y4  1  0.000000  0.000000  0.000000  1
  Os  Os5  1  0.500000  0.500000  0.500000  1
  Br  Br6  1  0.000000  0.000000  0.747891  1
  Br  Br7  1  0.500000  0.500000  0.276773  1
  Br  Br8  1  0.720782  0.720782  0.500000  1
  Br  Br9  1  0.248866  0.248866  0.000000  1
  Br  Br10  1  0.720782  0.279218  0.500000  1
  Br  Br11  1  0.248866  0.751134  0.000000  1
  Br  Br12  1  0.000000  0.000000  0.252109  1
  Br  Br13  1  0.500000  0.500000  0.723227  1
  Br  Br14  1  0.279218  0.279218  0.500000  1
  Br  Br15  1  0.751134  0.751134  0.000000  1
  Br  Br16  1  0.279218  0.720782  0.500000  1
  Br  Br17  1  0.751134  0.248866  0.000000  1
