# generated using pymatgen
data_Ho3ErGa4IrPt3
_symmetry_space_group_name_H-M   'P 1'
_cell_length_a   4.43197100
_cell_length_b   6.83711969
_cell_length_c   7.69044047
_cell_angle_alpha   89.68973346
_cell_angle_beta   90.00000000
_cell_angle_gamma   90.00000000
_symmetry_Int_Tables_number   1
_chemical_formula_structural   Ho3ErGa4IrPt3
_chemical_formula_sum   'Ho3 Er1 Ga4 Ir1 Pt3'
_cell_volume   233.03166559
_cell_formula_units_Z   1
loop_
 _symmetry_equiv_pos_site_id
 _symmetry_equiv_pos_as_xyz
  1  'x, y, z'
loop_
 _atom_site_type_symbol
 _atom_site_label
 _atom_site_symmetry_multiplicity
 _atom_site_fract_x
 _atom_site_fract_y
 _atom_site_fract_z
 _atom_site_occupancy
  Ho  Ho0  1  0.250000  0.986087  0.306416  1
  Ho  Ho1  1  0.750000  0.021226  0.691301  1
  Ho  Ho2  1  0.750000  0.517685  0.806178  1
  Er  Er3  1  0.250000  0.481300  0.196242  1
  Ga  Ga4  1  0.250000  0.330843  0.569388  1
  Ga  Ga5  1  0.250000  0.831308  0.929375  1
  Ga  Ga6  1  0.750000  0.662366  0.428493  1
  Ga  Ga7  1  0.750000  0.170594  0.073498  1
  Ir  Ir8  1  0.750000  0.271683  0.395931  1
  Pt  Pt9  1  0.250000  0.226219  0.896489  1
  Pt  Pt10  1  0.250000  0.726157  0.603879  1
  Pt  Pt11  1  0.750000  0.774532  0.102810  1
