# generated using pymatgen
data_CeMgTa2(PN3)4
_symmetry_space_group_name_H-M   'P 1'
_cell_length_a   6.65348927
_cell_length_b   6.65348843
_cell_length_c   5.35279040
_cell_angle_alpha   77.52828459
_cell_angle_beta   77.52824853
_cell_angle_gamma   83.87483070
_symmetry_Int_Tables_number   1
_chemical_formula_structural   CeMgTa2(PN3)4
_chemical_formula_sum   'Ce1 Mg1 Ta2 P4 N12'
_cell_volume   225.46202977
_cell_formula_units_Z   1
loop_
 _symmetry_equiv_pos_site_id
 _symmetry_equiv_pos_as_xyz
  1  'x, y, z'
loop_
 _atom_site_type_symbol
 _atom_site_label
 _atom_site_symmetry_multiplicity
 _atom_site_fract_x
 _atom_site_fract_y
 _atom_site_fract_z
 _atom_site_occupancy
  Ce  Ce0  1  0.680255  0.319745  0.750000  1
  Mg  Mg1  1  0.307950  0.692050  0.250000  1
  Ta  Ta2  1  0.901257  0.098743  0.250000  1
  Ta  Ta3  1  0.116337  0.883663  0.750000  1
  P  P4  1  0.200691  0.375507  0.754533  1
  P  P5  1  0.373695  0.203813  0.262099  1
  P  P6  1  0.796187  0.626305  0.237901  1
  P  P7  1  0.624493  0.799309  0.745467  1
  N  N8  1  0.336188  0.359818  0.984972  1
  N  N9  1  0.027991  0.201041  0.856216  1
  N  N10  1  0.973454  0.793591  0.145108  1
  N  N11  1  0.365947  0.346165  0.482233  1
  N  N12  1  0.615579  0.120920  0.182211  1
  N  N13  1  0.388242  0.886730  0.822236  1
  N  N14  1  0.879080  0.384421  0.317789  1
  N  N15  1  0.653835  0.634053  0.017767  1
  N  N16  1  0.798959  0.972009  0.643784  1
  N  N17  1  0.113270  0.611758  0.677764  1
  N  N18  1  0.206409  0.026546  0.354892  1
  N  N19  1  0.640182  0.663812  0.515028  1
