# generated using pymatgen
data_Pr3Nd(In2I5)4
_symmetry_space_group_name_H-M   'P 1'
_cell_length_a   9.19827207
_cell_length_b   9.82138300
_cell_length_c   14.41550411
_cell_angle_alpha   90.00000000
_cell_angle_beta   90.01398022
_cell_angle_gamma   90.00000000
_symmetry_Int_Tables_number   1
_chemical_formula_structural   Pr3Nd(In2I5)4
_chemical_formula_sum   'Pr3 Nd1 In8 I20'
_cell_volume   1302.29304054
_cell_formula_units_Z   1
loop_
 _symmetry_equiv_pos_site_id
 _symmetry_equiv_pos_as_xyz
  1  'x, y, z'
loop_
 _atom_site_type_symbol
 _atom_site_label
 _atom_site_symmetry_multiplicity
 _atom_site_fract_x
 _atom_site_fract_y
 _atom_site_fract_z
 _atom_site_occupancy
  Pr  Pr0  1  0.079415  0.250000  0.494102  1
  Pr  Pr1  1  0.420588  0.250000  0.994101  1
  Pr  Pr2  1  0.579412  0.750000  0.005890  1
  Nd  Nd3  1  0.920705  0.750000  0.505813  1
  In  In4  1  0.950800  0.004468  0.826856  1
  In  In5  1  0.049197  0.995528  0.173145  1
  In  In6  1  0.450807  0.995528  0.673130  1
  In  In7  1  0.049197  0.504472  0.173145  1
  In  In8  1  0.549213  0.004457  0.326872  1
  In  In9  1  0.950800  0.495532  0.826856  1
  In  In10  1  0.549213  0.495543  0.326872  1
  In  In11  1  0.450807  0.504472  0.673130  1
  I  I12  1  0.128496  0.750000  0.684401  1
  I  I13  1  0.871013  0.250000  0.315203  1
  I  I14  1  0.628987  0.250000  0.815199  1
  I  I15  1  0.371020  0.750000  0.184795  1
  I  I16  1  0.830856  0.044858  0.579888  1
  I  I17  1  0.168926  0.954202  0.420105  1
  I  I18  1  0.330680  0.954527  0.919948  1
  I  I19  1  0.168926  0.545798  0.420105  1
  I  I20  1  0.669317  0.045468  0.080052  1
  I  I21  1  0.830856  0.455142  0.579888  1
  I  I22  1  0.669317  0.454532  0.080052  1
  I  I23  1  0.330680  0.545473  0.919948  1
  I  I24  1  0.567465  0.750000  0.505805  1
  I  I25  1  0.433150  0.250000  0.494196  1
  I  I26  1  0.066837  0.250000  0.994205  1
  I  I27  1  0.933164  0.750000  0.005809  1
  I  I28  1  0.665370  0.750000  0.790916  1
  I  I29  1  0.334618  0.250000  0.209098  1
  I  I30  1  0.165374  0.250000  0.709098  1
  I  I31  1  0.834797  0.750000  0.291378  1
