# generated using pymatgen
data_Ba3SrIrO6
_symmetry_space_group_name_H-M   'P 1'
_cell_length_a   7.25952190
_cell_length_b   7.25952243
_cell_length_c   7.25952160
_cell_angle_alpha   91.31676213
_cell_angle_beta   91.31675711
_cell_angle_gamma   91.31677351
_symmetry_Int_Tables_number   1
_chemical_formula_structural   Ba3SrIrO6
_chemical_formula_sum   'Ba6 Sr2 Ir2 O12'
_cell_volume   382.27378133
_cell_formula_units_Z   2
loop_
 _symmetry_equiv_pos_site_id
 _symmetry_equiv_pos_as_xyz
  1  'x, y, z'
loop_
 _atom_site_type_symbol
 _atom_site_label
 _atom_site_symmetry_multiplicity
 _atom_site_fract_x
 _atom_site_fract_y
 _atom_site_fract_z
 _atom_site_occupancy
  Ba  Ba0  1  0.750000  0.385941  0.114059  1
  Ba  Ba1  1  0.114059  0.750000  0.385941  1
  Ba  Ba2  1  0.385941  0.114059  0.750000  1
  Ba  Ba3  1  0.250000  0.614059  0.885941  1
  Ba  Ba4  1  0.885941  0.250000  0.614059  1
  Ba  Ba5  1  0.614059  0.885941  0.250000  1
  Sr  Sr6  1  0.250000  0.250000  0.250000  1
  Sr  Sr7  1  0.750000  0.750000  0.750000  1
  Ir  Ir8  1  0.000000  0.000000  0.000000  1
  Ir  Ir9  1  0.500000  0.500000  0.500000  1
  O  O10  1  0.447575  0.771918  0.581702  1
  O  O11  1  0.581702  0.447575  0.771918  1
  O  O12  1  0.771918  0.581702  0.447575  1
  O  O13  1  0.052425  0.918298  0.728082  1
  O  O14  1  0.728082  0.052425  0.918298  1
  O  O15  1  0.918298  0.728082  0.052425  1
  O  O16  1  0.552425  0.228082  0.418298  1
  O  O17  1  0.418298  0.552425  0.228082  1
  O  O18  1  0.228082  0.418298  0.552425  1
  O  O19  1  0.947575  0.081702  0.271918  1
  O  O20  1  0.081702  0.271918  0.947575  1
  O  O21  1  0.271918  0.947575  0.081702  1
