# generated using pymatgen
data_PaCo2NiSn
_symmetry_space_group_name_H-M   'P 1'
_cell_length_a   5.26329200
_cell_length_b   7.25444100
_cell_length_c   8.25078700
_cell_angle_alpha   90.00000000
_cell_angle_beta   90.00000000
_cell_angle_gamma   90.00000000
_symmetry_Int_Tables_number   1
_chemical_formula_structural   PaCo2NiSn
_chemical_formula_sum   'Pa4 Co8 Ni4 Sn4'
_cell_volume   315.03353998
_cell_formula_units_Z   4
loop_
 _symmetry_equiv_pos_site_id
 _symmetry_equiv_pos_as_xyz
  1  'x, y, z'
loop_
 _atom_site_type_symbol
 _atom_site_label
 _atom_site_symmetry_multiplicity
 _atom_site_fract_x
 _atom_site_fract_y
 _atom_site_fract_z
 _atom_site_occupancy
  Pa  Pa0  1  0.773060  0.892329  0.845999  1
  Pa  Pa1  1  0.726940  0.392329  0.654001  1
  Pa  Pa2  1  0.273060  0.107671  0.154001  1
  Pa  Pa3  1  0.226940  0.607671  0.345999  1
  Co  Co4  1  0.721845  0.575121  0.392034  1
  Co  Co5  1  0.778155  0.075121  0.107966  1
  Co  Co6  1  0.221845  0.424879  0.607966  1
  Co  Co7  1  0.278155  0.924879  0.892034  1
  Co  Co8  1  0.976197  0.743374  0.626482  1
  Co  Co9  1  0.523803  0.243374  0.873518  1
  Co  Co10  1  0.476197  0.256626  0.373518  1
  Co  Co11  1  0.023803  0.756626  0.126482  1
  Ni  Ni12  1  0.969504  0.265232  0.381036  1
  Ni  Ni13  1  0.530496  0.765232  0.118964  1
  Ni  Ni14  1  0.469504  0.734768  0.618964  1
  Ni  Ni15  1  0.030496  0.234768  0.881036  1
  Sn  Sn16  1  0.747177  0.933334  0.395195  1
  Sn  Sn17  1  0.752823  0.433334  0.104805  1
  Sn  Sn18  1  0.247177  0.066666  0.604805  1
  Sn  Sn19  1  0.252823  0.566666  0.895195  1
