# generated using pymatgen
data_Ca5Tm3(Ni4As3)4
_symmetry_space_group_name_H-M   'P 1'
_cell_length_a   12.92411600
_cell_length_b   12.92411446
_cell_length_c   3.97754800
_cell_angle_alpha   90.00000000
_cell_angle_beta   90.00000000
_cell_angle_gamma   120.00000394
_symmetry_Int_Tables_number   1
_chemical_formula_structural   Ca5Tm3(Ni4As3)4
_chemical_formula_sum   'Ca5 Tm3 Ni16 As12'
_cell_volume   575.37062648
_cell_formula_units_Z   1
loop_
 _symmetry_equiv_pos_site_id
 _symmetry_equiv_pos_as_xyz
  1  'x, y, z'
loop_
 _atom_site_type_symbol
 _atom_site_label
 _atom_site_symmetry_multiplicity
 _atom_site_fract_x
 _atom_site_fract_y
 _atom_site_fract_z
 _atom_site_occupancy
  Ca  Ca0  1  0.182568  0.182568  0.500000  1
  Ca  Ca1  1  0.817432  0.000000  0.500000  1
  Ca  Ca2  1  0.000000  0.817432  0.500000  1
  Ca  Ca3  1  0.333333  0.666667  0.000000  1
  Ca  Ca4  1  0.666667  0.333333  0.000000  1
  Tm  Tm5  1  0.564148  0.564148  0.000000  1
  Tm  Tm6  1  0.435852  0.000000  0.000000  1
  Tm  Tm7  1  0.000000  0.435852  0.000000  1
  Ni  Ni8  1  0.723980  0.723980  0.500000  1
  Ni  Ni9  1  0.276020  0.000000  0.500000  1
  Ni  Ni10  1  0.000000  0.276020  0.500000  1
  Ni  Ni11  1  0.186264  0.378304  0.000000  1
  Ni  Ni12  1  0.621696  0.807960  0.000000  1
  Ni  Ni13  1  0.192040  0.813736  0.000000  1
  Ni  Ni14  1  0.807960  0.621696  0.000000  1
  Ni  Ni15  1  0.813736  0.192040  0.000000  1
  Ni  Ni16  1  0.378304  0.186264  0.000000  1
  Ni  Ni17  1  0.361575  0.480063  0.500000  1
  Ni  Ni18  1  0.519937  0.881513  0.500000  1
  Ni  Ni19  1  0.118487  0.638425  0.500000  1
  Ni  Ni20  1  0.881513  0.519937  0.500000  1
  Ni  Ni21  1  0.638425  0.118487  0.500000  1
  Ni  Ni22  1  0.480063  0.361575  0.500000  1
  Ni  Ni23  1  0.000000  0.000000  0.000000  1
  As  As24  1  0.820976  0.820976  0.000000  1
  As  As25  1  0.179024  0.000000  0.000000  1
  As  As26  1  0.000000  0.179024  0.000000  1
  As  As27  1  0.174468  0.476917  0.500000  1
  As  As28  1  0.523083  0.697551  0.500000  1
  As  As29  1  0.302449  0.825532  0.500000  1
  As  As30  1  0.697551  0.523083  0.500000  1
  As  As31  1  0.825532  0.302449  0.500000  1
  As  As32  1  0.476917  0.174468  0.500000  1
  As  As33  1  0.352283  0.352283  0.000000  1
  As  As34  1  0.647717  0.000000  0.000000  1
  As  As35  1  0.000000  0.647717  0.000000  1
