# generated using pymatgen
data_Rb8MnCo3S4(O4F3)4
_symmetry_space_group_name_H-M   'P 1'
_cell_length_a   11.36641800
_cell_length_b   7.48220557
_cell_length_c   8.94543000
_cell_angle_alpha   86.77934547
_cell_angle_beta   90.00000000
_cell_angle_gamma   90.00000000
_symmetry_Int_Tables_number   1
_chemical_formula_structural   Rb8MnCo3S4(O4F3)4
_chemical_formula_sum   'Rb8 Mn1 Co3 S4 O16 F12'
_cell_volume   759.57035024
_cell_formula_units_Z   1
loop_
 _symmetry_equiv_pos_site_id
 _symmetry_equiv_pos_as_xyz
  1  'x, y, z'
loop_
 _atom_site_type_symbol
 _atom_site_label
 _atom_site_symmetry_multiplicity
 _atom_site_fract_x
 _atom_site_fract_y
 _atom_site_fract_z
 _atom_site_occupancy
  Rb  Rb0  1  0.189575  0.302241  0.672541  1
  Rb  Rb1  1  0.687894  0.697592  0.828224  1
  Rb  Rb2  1  0.810425  0.697759  0.327459  1
  Rb  Rb3  1  0.312106  0.302408  0.171776  1
  Rb  Rb4  1  0.308771  0.805275  0.831319  1
  Rb  Rb5  1  0.807994  0.195127  0.670323  1
  Rb  Rb6  1  0.691229  0.194725  0.168681  1
  Rb  Rb7  1  0.192006  0.804873  0.329677  1
  Mn  Mn8  1  0.000000  0.500000  0.000000  1
  Co  Co9  1  0.500000  0.000000  0.500000  1
  Co  Co10  1  0.000000  0.000000  0.000000  1
  Co  Co11  1  0.500000  0.500000  0.500000  1
  S  S12  1  0.498656  0.242271  0.798934  1
  S  S13  1  0.999199  0.755319  0.702061  1
  S  S14  1  0.501344  0.757729  0.201066  1
  S  S15  1  0.000801  0.244681  0.297939  1
  O  O16  1  0.403393  0.166918  0.894379  1
  O  O17  1  0.902858  0.829651  0.608305  1
  O  O18  1  0.596607  0.833082  0.105621  1
  O  O19  1  0.097142  0.170349  0.391695  1
  O  O20  1  0.596417  0.315661  0.884450  1
  O  O21  1  0.094770  0.678347  0.615578  1
  O  O22  1  0.403583  0.684339  0.115550  1
  O  O23  1  0.905230  0.321653  0.384422  1
  O  O24  1  0.444322  0.390899  0.698779  1
  O  O25  1  0.943193  0.608833  0.805812  1
  O  O26  1  0.555678  0.609101  0.301221  1
  O  O27  1  0.056807  0.391167  0.194188  1
  O  O28  1  0.050930  0.896699  0.796981  1
  O  O29  1  0.548870  0.098570  0.703540  1
  O  O30  1  0.949070  0.103301  0.203019  1
  O  O31  1  0.451130  0.901430  0.296460  1
  F  F32  1  0.343126  0.518603  0.444167  1
  F  F33  1  0.841550  0.478513  0.056340  1
  F  F34  1  0.656874  0.481397  0.555833  1
  F  F35  1  0.158450  0.521487  0.943660  1
  F  F36  1  0.158044  0.021932  0.046343  1
  F  F37  1  0.657665  0.981153  0.453773  1
  F  F38  1  0.841956  0.978068  0.953657  1
  F  F39  1  0.342335  0.018847  0.546227  1
  F  F40  1  0.001834  0.757955  0.104347  1
  F  F41  1  0.502370  0.254095  0.405268  1
  F  F42  1  0.998166  0.242045  0.895653  1
  F  F43  1  0.497630  0.745905  0.594732  1
