# generated using pymatgen
data_Cr8P4Ru3W
_symmetry_space_group_name_H-M   'P 1'
_cell_length_a   4.55481123
_cell_length_b   6.98646124
_cell_length_c   6.93016008
_cell_angle_alpha   84.84291671
_cell_angle_beta   70.69020246
_cell_angle_gamma   70.95949189
_symmetry_Int_Tables_number   1
_chemical_formula_structural   Cr8P4Ru3W
_chemical_formula_sum   'Cr8 P4 Ru3 W1'
_cell_volume   196.69855920
_cell_formula_units_Z   1
loop_
 _symmetry_equiv_pos_site_id
 _symmetry_equiv_pos_as_xyz
  1  'x, y, z'
loop_
 _atom_site_type_symbol
 _atom_site_label
 _atom_site_symmetry_multiplicity
 _atom_site_fract_x
 _atom_site_fract_y
 _atom_site_fract_z
 _atom_site_occupancy
  Cr  Cr0  1  0.636956  0.391675  0.328203  1
  Cr  Cr1  1  0.359068  0.609015  0.672963  1
  Cr  Cr2  1  0.049054  0.320613  0.606149  1
  Cr  Cr3  1  0.967433  0.675003  0.394662  1
  Cr  Cr4  1  0.585796  0.396737  0.941382  1
  Cr  Cr5  1  0.920791  0.612598  0.058024  1
  Cr  Cr6  1  0.467431  0.935782  0.613943  1
  Cr  Cr7  1  0.020459  0.058562  0.389492  1
  P  P8  1  0.195282  0.354084  0.247694  1
  P  P9  1  0.803602  0.648738  0.752411  1
  P  P10  1  0.552399  0.247169  0.656179  1
  P  P11  1  0.446594  0.748292  0.345253  1
  Ru  Ru12  1  0.149395  0.196712  0.970025  1
  Ru  Ru13  1  0.311842  0.806852  0.029780  1
  Ru  Ru14  1  0.877573  0.964071  0.803429  1
  W  W15  1  0.656329  0.034099  0.190412  1
