# generated using pymatgen
data_Dy5AlCo16(ReP6)2
_symmetry_space_group_name_H-M   'P 1'
_cell_length_a   12.03319915
_cell_length_b   11.96427006
_cell_length_c   3.70434100
_cell_angle_alpha   90.00000000
_cell_angle_beta   90.00000000
_cell_angle_gamma   119.81068395
_symmetry_Int_Tables_number   1
_chemical_formula_structural   Dy5AlCo16(ReP6)2
_chemical_formula_sum   'Dy5 Al1 Co16 Re2 P12'
_cell_volume   462.73701100
_cell_formula_units_Z   1
loop_
 _symmetry_equiv_pos_site_id
 _symmetry_equiv_pos_as_xyz
  1  'x, y, z'
loop_
 _atom_site_type_symbol
 _atom_site_label
 _atom_site_symmetry_multiplicity
 _atom_site_fract_x
 _atom_site_fract_y
 _atom_site_fract_z
 _atom_site_occupancy
  Dy  Dy0  1  0.662584  0.331293  0.000000  1
  Dy  Dy1  1  0.337416  0.668710  0.000000  1
  Dy  Dy2  1  0.185072  0.186085  0.500000  1
  Dy  Dy3  1  0.814928  0.001012  0.500000  1
  Dy  Dy4  1  0.000000  0.814963  0.500000  1
  Al  Al5  1  0.000000  0.439732  0.000000  1
  Co  Co6  1  0.822436  0.201787  0.000000  1
  Co  Co7  1  0.801801  0.625599  0.000000  1
  Co  Co8  1  0.374472  0.176410  0.000000  1
  Co  Co9  1  0.198199  0.823798  0.000000  1
  Co  Co10  1  0.625528  0.801938  0.000000  1
  Co  Co11  1  0.177564  0.379352  0.000000  1
  Co  Co12  1  0.640338  0.121581  0.500000  1
  Co  Co13  1  0.872983  0.516394  0.500000  1
  Co  Co14  1  0.483745  0.355805  0.500000  1
  Co  Co15  1  0.127017  0.643411  0.500000  1
  Co  Co16  1  0.516255  0.872059  0.500000  1
  Co  Co17  1  0.359662  0.481243  0.500000  1
  Co  Co18  1  0.717137  0.717852  0.500000  1
  Co  Co19  1  0.282863  0.000715  0.500000  1
  Co  Co20  1  0.000000  0.289048  0.500000  1
  Co  Co21  1  0.000000  0.001215  0.000000  1
  Re  Re22  1  0.554562  0.553109  0.000000  1
  Re  Re23  1  0.445438  0.998546  0.000000  1
  P  P24  1  0.362251  0.360973  0.000000  1
  P  P25  1  0.637749  0.998722  0.000000  1
  P  P26  1  0.000000  0.638680  0.000000  1
  P  P27  1  0.826716  0.310136  0.500000  1
  P  P28  1  0.686740  0.521032  0.500000  1
  P  P29  1  0.478724  0.163417  0.500000  1
  P  P30  1  0.313260  0.834292  0.500000  1
  P  P31  1  0.521276  0.684694  0.500000  1
  P  P32  1  0.173284  0.483420  0.500000  1
  P  P33  1  0.823187  0.823512  0.000000  1
  P  P34  1  0.176813  0.000325  0.000000  1
  P  P35  1  0.000000  0.179137  0.000000  1
