# generated using pymatgen
data_Sr3ThRe15Si8Ru
_symmetry_space_group_name_H-M   'P 1'
_cell_length_a   4.18743100
_cell_length_b   7.41562736
_cell_length_c   15.56911893
_cell_angle_alpha   90.26723388
_cell_angle_beta   90.00000000
_cell_angle_gamma   90.00000000
_symmetry_Int_Tables_number   1
_chemical_formula_structural   Sr3ThRe15Si8Ru
_chemical_formula_sum   'Sr3 Th1 Re15 Si8 Ru1'
_cell_volume   483.45368431
_cell_formula_units_Z   1
loop_
 _symmetry_equiv_pos_site_id
 _symmetry_equiv_pos_as_xyz
  1  'x, y, z'
loop_
 _atom_site_type_symbol
 _atom_site_label
 _atom_site_symmetry_multiplicity
 _atom_site_fract_x
 _atom_site_fract_y
 _atom_site_fract_z
 _atom_site_occupancy
  Sr  Sr0  1  0.000000  0.573552  0.116303  1
  Sr  Sr1  1  0.000000  0.423072  0.884096  1
  Sr  Sr2  1  0.500000  0.074552  0.380275  1
  Th  Th3  1  0.500000  0.919995  0.618011  1
  Re  Re4  1  0.000000  0.870597  0.947646  1
  Re  Re5  1  0.500000  0.632455  0.449501  1
  Re  Re6  1  0.500000  0.365381  0.553782  1
  Re  Re7  1  0.000000  0.729830  0.318840  1
  Re  Re8  1  0.000000  0.265705  0.679147  1
  Re  Re9  1  0.500000  0.231758  0.180370  1
  Re  Re10  1  0.500000  0.771840  0.819101  1
  Re  Re11  1  0.000000  0.439037  0.417934  1
  Re  Re12  1  0.000000  0.567805  0.582390  1
  Re  Re13  1  0.500000  0.940883  0.083718  1
  Re  Re14  1  0.500000  0.062581  0.919013  1
  Re  Re15  1  0.000000  0.987729  0.204370  1
  Re  Re16  1  0.000000  0.007618  0.792346  1
  Re  Re17  1  0.500000  0.491939  0.292902  1
  Re  Re18  1  0.500000  0.508337  0.707107  1
  Si  Si19  1  0.000000  0.822504  0.474591  1
  Si  Si20  1  0.000000  0.175692  0.524722  1
  Si  Si21  1  0.500000  0.317391  0.026777  1
  Si  Si22  1  0.500000  0.685841  0.974627  1
  Si  Si23  1  0.000000  0.289818  0.273557  1
  Si  Si24  1  0.000000  0.703751  0.727954  1
  Si  Si25  1  0.500000  0.785977  0.223822  1
  Si  Si26  1  0.500000  0.209416  0.775340  1
  Ru  Ru27  1  0.000000  0.144942  0.051761  1
