# generated using pymatgen
data_Tm2MgCo3(PRh)6
_symmetry_space_group_name_H-M   'P 1'
_cell_length_a   3.79610800
_cell_length_b   10.71519200
_cell_length_c   12.46042600
_cell_angle_alpha   90.00000000
_cell_angle_beta   90.00000000
_cell_angle_gamma   90.00000000
_symmetry_Int_Tables_number   1
_chemical_formula_structural   Tm2MgCo3(PRh)6
_chemical_formula_sum   'Tm4 Mg2 Co6 P12 Rh12'
_cell_volume   506.84061285
_cell_formula_units_Z   2
loop_
 _symmetry_equiv_pos_site_id
 _symmetry_equiv_pos_as_xyz
  1  'x, y, z'
loop_
 _atom_site_type_symbol
 _atom_site_label
 _atom_site_symmetry_multiplicity
 _atom_site_fract_x
 _atom_site_fract_y
 _atom_site_fract_z
 _atom_site_occupancy
  Tm  Tm0  1  0.250000  0.578924  0.710401  1
  Tm  Tm1  1  0.250000  0.921076  0.210401  1
  Tm  Tm2  1  0.750000  0.416726  0.292220  1
  Tm  Tm3  1  0.750000  0.083274  0.792220  1
  Mg  Mg4  1  0.750000  0.291009  0.009677  1
  Mg  Mg5  1  0.750000  0.208991  0.509677  1
  Co  Co6  1  0.750000  0.116018  0.305232  1
  Co  Co7  1  0.750000  0.383982  0.805232  1
  Co  Co8  1  0.250000  0.463331  0.935017  1
  Co  Co9  1  0.250000  0.036669  0.435017  1
  Co  Co10  1  0.750000  0.535954  0.064576  1
  Co  Co11  1  0.750000  0.964046  0.564576  1
  P  P12  1  0.250000  0.426448  0.111575  1
  P  P13  1  0.250000  0.073552  0.611575  1
  P  P14  1  0.750000  0.566777  0.889009  1
  P  P15  1  0.750000  0.933223  0.389009  1
  P  P16  1  0.250000  0.274535  0.860147  1
  P  P17  1  0.250000  0.225465  0.360147  1
  P  P18  1  0.750000  0.731293  0.129059  1
  P  P19  1  0.750000  0.768707  0.629059  1
  P  P20  1  0.250000  0.598922  0.389874  1
  P  P21  1  0.250000  0.901078  0.889874  1
  P  P22  1  0.750000  0.409020  0.622707  1
  P  P23  1  0.750000  0.090980  0.122707  1
  Rh  Rh24  1  0.250000  0.710746  0.988278  1
  Rh  Rh25  1  0.250000  0.789254  0.488278  1
  Rh  Rh26  1  0.250000  0.403037  0.474451  1
  Rh  Rh27  1  0.250000  0.096963  0.974451  1
  Rh  Rh28  1  0.750000  0.593206  0.520436  1
  Rh  Rh29  1  0.750000  0.906794  0.020436  1
  Rh  Rh30  1  0.250000  0.221424  0.174806  1
  Rh  Rh31  1  0.250000  0.278576  0.674806  1
  Rh  Rh32  1  0.750000  0.765197  0.821916  1
  Rh  Rh33  1  0.750000  0.734803  0.321916  1
  Rh  Rh34  1  0.250000  0.885263  0.700621  1
  Rh  Rh35  1  0.250000  0.614737  0.200621  1
