# generated using pymatgen
data_Tm2Ga10Tc2Rh
_symmetry_space_group_name_H-M   'P 1'
_cell_length_a   9.01465800
_cell_length_b   9.01465800
_cell_length_c   6.26258800
_cell_angle_alpha   90.00000000
_cell_angle_beta   90.00000000
_cell_angle_gamma   90.00000000
_symmetry_Int_Tables_number   1
_chemical_formula_structural   Tm2Ga10Tc2Rh
_chemical_formula_sum   'Tm4 Ga20 Tc4 Rh2'
_cell_volume   508.92331983
_cell_formula_units_Z   2
loop_
 _symmetry_equiv_pos_site_id
 _symmetry_equiv_pos_as_xyz
  1  'x, y, z'
loop_
 _atom_site_type_symbol
 _atom_site_label
 _atom_site_symmetry_multiplicity
 _atom_site_fract_x
 _atom_site_fract_y
 _atom_site_fract_z
 _atom_site_occupancy
  Tm  Tm0  1  0.182752  0.317248  0.000000  1
  Tm  Tm1  1  0.682752  0.182752  0.000000  1
  Tm  Tm2  1  0.817248  0.682752  0.000000  1
  Tm  Tm3  1  0.317248  0.817248  0.000000  1
  Ga  Ga4  1  0.500000  0.000000  0.282939  1
  Ga  Ga5  1  0.500000  0.000000  0.717061  1
  Ga  Ga6  1  0.292867  0.560359  0.708506  1
  Ga  Ga7  1  0.000000  0.500000  0.282939  1
  Ga  Ga8  1  0.000000  0.500000  0.717061  1
  Ga  Ga9  1  0.060359  0.792867  0.708506  1
  Ga  Ga10  1  0.207133  0.060359  0.291494  1
  Ga  Ga11  1  0.060359  0.792867  0.291494  1
  Ga  Ga12  1  0.707133  0.439641  0.708506  1
  Ga  Ga13  1  0.207133  0.060359  0.708506  1
  Ga  Ga14  1  0.939641  0.207133  0.708506  1
  Ga  Ga15  1  0.707133  0.439641  0.291494  1
  Ga  Ga16  1  0.560359  0.707133  0.291494  1
  Ga  Ga17  1  0.939641  0.207133  0.291494  1
  Ga  Ga18  1  0.560359  0.707133  0.708506  1
  Ga  Ga19  1  0.792867  0.939641  0.291494  1
  Ga  Ga20  1  0.439641  0.292867  0.708506  1
  Ga  Ga21  1  0.792867  0.939641  0.708506  1
  Ga  Ga22  1  0.439641  0.292867  0.291494  1
  Ga  Ga23  1  0.292867  0.560359  0.291494  1
  Tc  Tc24  1  0.178973  0.321027  0.500000  1
  Tc  Tc25  1  0.321027  0.821027  0.500000  1
  Tc  Tc26  1  0.821027  0.678973  0.500000  1
  Tc  Tc27  1  0.678973  0.178973  0.500000  1
  Rh  Rh28  1  0.000000  0.000000  0.000000  1
  Rh  Rh29  1  0.500000  0.500000  0.000000  1
