# generated using pymatgen
data_Yb3Dy3Si24Os3Ru5
_symmetry_space_group_name_H-M   'P 1'
_cell_length_a   10.14429106
_cell_length_b   10.14458198
_cell_length_c   8.13335891
_cell_angle_alpha   89.95411463
_cell_angle_beta   90.05219251
_cell_angle_gamma   132.71943641
_symmetry_Int_Tables_number   1
_chemical_formula_structural   Yb3Dy3Si24Os3Ru5
_chemical_formula_sum   'Yb3 Dy3 Si24 Os3 Ru5'
_cell_volume   614.93113055
_cell_formula_units_Z   1
loop_
 _symmetry_equiv_pos_site_id
 _symmetry_equiv_pos_as_xyz
  1  'x, y, z'
loop_
 _atom_site_type_symbol
 _atom_site_label
 _atom_site_symmetry_multiplicity
 _atom_site_fract_x
 _atom_site_fract_y
 _atom_site_fract_z
 _atom_site_occupancy
  Yb  Yb0  1  0.500168  0.500076  0.500185  1
  Yb  Yb1  1  0.000082  0.000172  0.999826  1
  Yb  Yb2  1  0.501442  0.001345  0.750090  1
  Dy  Dy3  1  0.999527  0.499532  0.249923  1
  Dy  Dy4  1  0.499152  0.999150  0.249879  1
  Dy  Dy5  1  0.000874  0.500925  0.750145  1
  Si  Si6  1  0.795116  0.203003  0.500886  1
  Si  Si7  1  0.297259  0.705345  0.998634  1
  Si  Si8  1  0.205293  0.797217  0.501358  1
  Si  Si9  1  0.703709  0.294671  0.999243  1
  Si  Si10  1  0.332976  0.333332  0.832351  1
  Si  Si11  1  0.666946  0.667934  0.167410  1
  Si  Si12  1  0.167975  0.166677  0.332382  1
  Si  Si13  1  0.833671  0.832954  0.667883  1
  Si  Si14  1  0.122030  0.889714  0.730088  1
  Si  Si15  1  0.109573  0.878068  0.270535  1
  Si  Si16  1  0.609620  0.377909  0.228776  1
  Si  Si17  1  0.622072  0.389491  0.770762  1
  Si  Si18  1  0.877045  0.109024  0.269553  1
  Si  Si19  1  0.890266  0.122861  0.730719  1
  Si  Si20  1  0.389975  0.622388  0.770167  1
  Si  Si21  1  0.377742  0.609284  0.229208  1
  Si  Si22  1  0.345994  0.113583  0.506039  1
  Si  Si23  1  0.886379  0.654548  0.493708  1
  Si  Si24  1  0.386844  0.154266  0.005440  1
  Si  Si25  1  0.844817  0.613205  0.993703  1
  Si  Si26  1  0.653823  0.886350  0.493368  1
  Si  Si27  1  0.113669  0.345271  0.507518  1
  Si  Si28  1  0.614017  0.846689  0.994138  1
  Si  Si29  1  0.153542  0.385796  0.006272  1
  Os  Os30  1  0.671913  0.329480  0.498790  1
  Os  Os31  1  0.169691  0.827645  0.001287  1
  Os  Os32  1  0.327627  0.669697  0.498662  1
  Ru  Ru33  1  0.829424  0.171812  0.001114  1
  Ru  Ru34  1  0.126114  0.126213  0.625710  1
  Ru  Ru35  1  0.873776  0.874154  0.374500  1
  Ru  Ru36  1  0.373846  0.373934  0.125507  1
  Ru  Ru37  1  0.626014  0.626284  0.874238  1
