# generated using pymatgen
data_Zr6InCCl15
_symmetry_space_group_name_H-M   'P 1'
_cell_length_a   9.91430900
_cell_length_b   14.13258300
_cell_length_c   18.88891600
_cell_angle_alpha   90.00000000
_cell_angle_beta   90.00000000
_cell_angle_gamma   90.00000000
_symmetry_Int_Tables_number   1
_chemical_formula_structural   Zr6InCCl15
_chemical_formula_sum   'Zr24 In4 C4 Cl60'
_cell_volume   2646.61658990
_cell_formula_units_Z   4
loop_
 _symmetry_equiv_pos_site_id
 _symmetry_equiv_pos_as_xyz
  1  'x, y, z'
loop_
 _atom_site_type_symbol
 _atom_site_label
 _atom_site_symmetry_multiplicity
 _atom_site_fract_x
 _atom_site_fract_y
 _atom_site_fract_z
 _atom_site_occupancy
  Zr  Zr0  1  0.345133  0.384607  0.970266  1
  Zr  Zr1  1  0.158465  0.115745  0.836534  1
  Zr  Zr2  1  0.841535  0.884255  0.163466  1
  Zr  Zr3  1  0.654867  0.615393  0.470266  1
  Zr  Zr4  1  0.654867  0.384607  0.470266  1
  Zr  Zr5  1  0.654867  0.384607  0.029734  1
  Zr  Zr6  1  0.580239  0.500000  0.612790  1
  Zr  Zr7  1  0.345133  0.384607  0.529734  1
  Zr  Zr8  1  0.345133  0.615393  0.529734  1
  Zr  Zr9  1  0.654867  0.615393  0.029734  1
  Zr  Zr10  1  0.841535  0.884255  0.336534  1
  Zr  Zr11  1  0.158465  0.115745  0.663466  1
  Zr  Zr12  1  0.580239  0.500000  0.887210  1
  Zr  Zr13  1  0.928740  0.000000  0.750000  1
  Zr  Zr14  1  0.841535  0.115745  0.163466  1
  Zr  Zr15  1  0.419761  0.500000  0.112790  1
  Zr  Zr16  1  0.345133  0.615393  0.970266  1
  Zr  Zr17  1  0.158465  0.884255  0.663466  1
  Zr  Zr18  1  0.071260  0.000000  0.250000  1
  Zr  Zr19  1  0.614417  0.000000  0.250000  1
  Zr  Zr20  1  0.419761  0.500000  0.387210  1
  Zr  Zr21  1  0.841535  0.115745  0.336534  1
  Zr  Zr22  1  0.385583  0.000000  0.750000  1
  Zr  Zr23  1  0.158465  0.884255  0.836534  1
  In  In24  1  0.668855  0.252771  0.750000  1
  In  In25  1  0.668855  0.747229  0.750000  1
  In  In26  1  0.331145  0.252771  0.250000  1
  In  In27  1  0.331145  0.747229  0.250000  1
  C  C28  1  0.156748  0.000000  0.750000  1
  C  C29  1  0.500000  0.500000  0.500000  1
  C  C30  1  0.500000  0.500000  0.000000  1
  C  C31  1  0.843252  0.000000  0.250000  1
  Cl  Cl32  1  0.415658  0.125800  0.655452  1
  Cl  Cl33  1  0.500000  0.246726  0.500000  1
  Cl  Cl34  1  0.164324  0.250716  0.936049  1
  Cl  Cl35  1  0.500000  0.753274  0.500000  1
  Cl  Cl36  1  0.584342  0.874200  0.344548  1
  Cl  Cl37  1  0.580532  0.625354  0.158926  1
  Cl  Cl38  1  0.840079  0.500000  0.065507  1
  Cl  Cl39  1  0.100025  0.126885  0.345780  1
  Cl  Cl40  1  0.759641  0.627575  0.594599  1
  Cl  Cl41  1  0.899975  0.126885  0.845780  1
  Cl  Cl42  1  0.842058  0.000000  0.060038  1
  Cl  Cl43  1  0.240359  0.372425  0.405401  1
  Cl  Cl44  1  0.500000  0.246726  0.000000  1
  Cl  Cl45  1  0.159921  0.500000  0.934493  1
  Cl  Cl46  1  0.320209  0.500000  0.250000  1
  Cl  Cl47  1  0.500000  0.753274  0.000000  1
  Cl  Cl48  1  0.157942  0.000000  0.560038  1
  Cl  Cl49  1  0.419468  0.374646  0.658926  1
  Cl  Cl50  1  0.415658  0.874200  0.844548  1
  Cl  Cl51  1  0.240359  0.372425  0.094599  1
  Cl  Cl52  1  0.842058  0.000000  0.439962  1
  Cl  Cl53  1  0.899975  0.873115  0.845780  1
  Cl  Cl54  1  0.100025  0.126885  0.154220  1
  Cl  Cl55  1  0.840079  0.500000  0.434493  1
  Cl  Cl56  1  0.580532  0.625354  0.341074  1
  Cl  Cl57  1  0.164324  0.749284  0.563951  1
  Cl  Cl58  1  0.584342  0.874200  0.155452  1
  Cl  Cl59  1  0.657827  0.000000  0.750000  1
  Cl  Cl60  1  0.849420  0.746031  0.250000  1
  Cl  Cl61  1  0.419468  0.625354  0.841074  1
  Cl  Cl62  1  0.835676  0.250716  0.063951  1
  Cl  Cl63  1  0.759641  0.372425  0.905401  1
  Cl  Cl64  1  0.584342  0.125800  0.344548  1
  Cl  Cl65  1  0.835676  0.749284  0.063951  1
  Cl  Cl66  1  0.342173  0.000000  0.250000  1
  Cl  Cl67  1  0.580532  0.374646  0.341074  1
  Cl  Cl68  1  0.759641  0.372425  0.594599  1
  Cl  Cl69  1  0.849420  0.253969  0.250000  1
  Cl  Cl70  1  0.679791  0.500000  0.750000  1
  Cl  Cl71  1  0.164324  0.250716  0.563951  1
  Cl  Cl72  1  0.159921  0.500000  0.565507  1
  Cl  Cl73  1  0.100025  0.873115  0.345780  1
  Cl  Cl74  1  0.240359  0.627575  0.405401  1
  Cl  Cl75  1  0.899975  0.873115  0.654220  1
  Cl  Cl76  1  0.415658  0.125800  0.844548  1
  Cl  Cl77  1  0.240359  0.627575  0.094599  1
  Cl  Cl78  1  0.419468  0.625354  0.658926  1
  Cl  Cl79  1  0.100025  0.873115  0.154220  1
  Cl  Cl80  1  0.164324  0.749284  0.936049  1
  Cl  Cl81  1  0.415658  0.874200  0.655452  1
  Cl  Cl82  1  0.157942  0.000000  0.939962  1
  Cl  Cl83  1  0.150580  0.746031  0.750000  1
  Cl  Cl84  1  0.759641  0.627575  0.905401  1
  Cl  Cl85  1  0.580532  0.374646  0.158926  1
  Cl  Cl86  1  0.899975  0.126885  0.654220  1
  Cl  Cl87  1  0.835676  0.749284  0.436049  1
  Cl  Cl88  1  0.419468  0.374646  0.841074  1
  Cl  Cl89  1  0.584342  0.125800  0.155452  1
  Cl  Cl90  1  0.150580  0.253969  0.750000  1
  Cl  Cl91  1  0.835676  0.250716  0.436049  1
