# generated using pymatgen
data_CaYb5(DyBi3)2
_symmetry_space_group_name_H-M   'P 1'
_cell_length_a   8.18095257
_cell_length_b   8.36134101
_cell_length_c   8.36330632
_cell_angle_alpha   109.93111826
_cell_angle_beta   109.02902302
_cell_angle_gamma   109.02478291
_symmetry_Int_Tables_number   1
_chemical_formula_structural   CaYb5(DyBi3)2
_chemical_formula_sum   'Ca1 Yb5 Dy2 Bi6'
_cell_volume   442.67562097
_cell_formula_units_Z   1
loop_
 _symmetry_equiv_pos_site_id
 _symmetry_equiv_pos_as_xyz
  1  'x, y, z'
loop_
 _atom_site_type_symbol
 _atom_site_label
 _atom_site_symmetry_multiplicity
 _atom_site_fract_x
 _atom_site_fract_y
 _atom_site_fract_z
 _atom_site_occupancy
  Ca  Ca0  1  0.500996  0.999025  0.646096  1
  Yb  Yb1  1  0.354880  0.352664  0.353813  1
  Yb  Yb2  1  0.502048  0.001031  0.147314  1
  Yb  Yb3  1  0.001576  0.646982  0.500900  1
  Yb  Yb4  1  0.855023  0.853540  0.852832  1
  Yb  Yb5  1  0.000892  0.146126  0.498859  1
  Dy  Dy6  1  0.141049  0.500153  0.000050  1
  Dy  Dy7  1  0.641303  0.500528  0.000421  1
  Bi  Bi8  1  0.376467  0.622560  0.755849  1
  Bi  Bi9  1  0.877116  0.256136  0.123613  1
  Bi  Bi10  1  0.621036  0.743844  0.366838  1
  Bi  Bi11  1  0.120306  0.867018  0.243482  1
  Bi  Bi12  1  0.253399  0.132915  0.877170  1
  Bi  Bi13  1  0.753908  0.377479  0.632762  1
