# generated using pymatgen
data_Er12In2Fe2Ir
_symmetry_space_group_name_H-M   'P 1'
_cell_length_a   8.30829305
_cell_length_b   8.30829247
_cell_length_c   8.30829258
_cell_angle_alpha   108.83184504
_cell_angle_beta   108.83185017
_cell_angle_gamma   110.75767431
_symmetry_Int_Tables_number   1
_chemical_formula_structural   Er12In2Fe2Ir
_chemical_formula_sum   'Er12 In2 Fe2 Ir1'
_cell_volume   441.31514262
_cell_formula_units_Z   1
loop_
 _symmetry_equiv_pos_site_id
 _symmetry_equiv_pos_as_xyz
  1  'x, y, z'
loop_
 _atom_site_type_symbol
 _atom_site_label
 _atom_site_symmetry_multiplicity
 _atom_site_fract_x
 _atom_site_fract_y
 _atom_site_fract_z
 _atom_site_occupancy
  Er  Er0  1  0.307047  0.307047  0.614092  1
  Er  Er1  1  0.692953  0.692953  0.385908  1
  Er  Er2  1  0.307047  0.692953  0.000000  1
  Er  Er3  1  0.692953  0.307047  0.000000  1
  Er  Er4  1  0.432844  0.194207  0.238636  1
  Er  Er5  1  0.567156  0.805793  0.761364  1
  Er  Er6  1  0.955571  0.194207  0.761364  1
  Er  Er7  1  0.194207  0.955571  0.761364  1
  Er  Er8  1  0.044429  0.805793  0.238636  1
  Er  Er9  1  0.805793  0.044429  0.238636  1
  Er  Er10  1  0.194207  0.432844  0.238636  1
  Er  Er11  1  0.805793  0.567156  0.761364  1
  In  In12  1  0.500000  0.000000  0.500000  1
  In  In13  1  0.000000  0.500000  0.500000  1
  Fe  Fe14  1  0.386400  0.386400  0.000000  1
  Fe  Fe15  1  0.613600  0.613600  0.000000  1
  Ir  Ir16  1  0.000000  0.000000  0.000000  1
