# generated using pymatgen
data_Hf2AlMo3
_symmetry_space_group_name_H-M   'P 1'
_cell_length_a   5.24974100
_cell_length_b   5.24974069
_cell_length_c   8.95462500
_cell_angle_alpha   90.00000000
_cell_angle_beta   90.00000000
_cell_angle_gamma   119.99999565
_symmetry_Int_Tables_number   1
_chemical_formula_structural   Hf2AlMo3
_chemical_formula_sum   'Hf4 Al2 Mo6'
_cell_volume   213.72424113
_cell_formula_units_Z   2
loop_
 _symmetry_equiv_pos_site_id
 _symmetry_equiv_pos_as_xyz
  1  'x, y, z'
loop_
 _atom_site_type_symbol
 _atom_site_label
 _atom_site_symmetry_multiplicity
 _atom_site_fract_x
 _atom_site_fract_y
 _atom_site_fract_z
 _atom_site_occupancy
  Hf  Hf0  1  0.333333  0.666667  0.434383  1
  Hf  Hf1  1  0.666667  0.333333  0.934383  1
  Hf  Hf2  1  0.666667  0.333333  0.565617  1
  Hf  Hf3  1  0.333333  0.666667  0.065617  1
  Al  Al4  1  0.000000  0.000000  0.000000  1
  Al  Al5  1  0.000000  0.000000  0.500000  1
  Mo  Mo6  1  0.169384  0.338769  0.750000  1
  Mo  Mo7  1  0.830616  0.169384  0.250000  1
  Mo  Mo8  1  0.338769  0.169384  0.250000  1
  Mo  Mo9  1  0.661231  0.830616  0.750000  1
  Mo  Mo10  1  0.830616  0.661231  0.250000  1
  Mo  Mo11  1  0.169384  0.830616  0.750000  1
