# generated using pymatgen
data_Nd6Ga5CuRh12
_symmetry_space_group_name_H-M   'P 1'
_cell_length_a   5.62020300
_cell_length_b   5.62020362
_cell_length_c   15.94913900
_cell_angle_alpha   90.00000000
_cell_angle_beta   90.00000000
_cell_angle_gamma   120.00000223
_symmetry_Int_Tables_number   1
_chemical_formula_structural   Nd6Ga5CuRh12
_chemical_formula_sum   'Nd6 Ga5 Cu1 Rh12'
_cell_volume   436.28664357
_cell_formula_units_Z   1
loop_
 _symmetry_equiv_pos_site_id
 _symmetry_equiv_pos_as_xyz
  1  'x, y, z'
loop_
 _atom_site_type_symbol
 _atom_site_label
 _atom_site_symmetry_multiplicity
 _atom_site_fract_x
 _atom_site_fract_y
 _atom_site_fract_z
 _atom_site_occupancy
  Nd  Nd0  1  0.333333  0.666667  0.536998  1
  Nd  Nd1  1  0.666667  0.333333  0.041412  1
  Nd  Nd2  1  0.666667  0.333333  0.463002  1
  Nd  Nd3  1  0.333333  0.666667  0.958588  1
  Nd  Nd4  1  0.333333  0.666667  0.747014  1
  Nd  Nd5  1  0.666667  0.333333  0.252986  1
  Ga  Ga6  1  0.000000  0.000000  0.247568  1
  Ga  Ga7  1  0.000000  0.000000  0.752432  1
  Ga  Ga8  1  0.333333  0.666667  0.250144  1
  Ga  Ga9  1  0.666667  0.333333  0.749856  1
  Ga  Ga10  1  0.000000  0.000000  0.000000  1
  Cu  Cu11  1  0.000000  0.000000  0.500000  1
  Rh  Rh12  1  0.168596  0.337191  0.125959  1
  Rh  Rh13  1  0.834493  0.668986  0.629097  1
  Rh  Rh14  1  0.662809  0.831404  0.125959  1
  Rh  Rh15  1  0.168596  0.831404  0.125959  1
  Rh  Rh16  1  0.834493  0.165507  0.629097  1
  Rh  Rh17  1  0.331014  0.165507  0.629097  1
  Rh  Rh18  1  0.831404  0.662809  0.874041  1
  Rh  Rh19  1  0.831404  0.168596  0.874041  1
  Rh  Rh20  1  0.337191  0.168596  0.874041  1
  Rh  Rh21  1  0.668986  0.834493  0.370903  1
  Rh  Rh22  1  0.165507  0.834493  0.370903  1
  Rh  Rh23  1  0.165507  0.331014  0.370903  1
