# generated using pymatgen
data_Y8Ga12CoNi3
_symmetry_space_group_name_H-M   'P 1'
_cell_length_a   7.03543600
_cell_length_b   8.76526548
_cell_length_c   8.76526600
_cell_angle_alpha   119.99999443
_cell_angle_beta   90.00000000
_cell_angle_gamma   90.00000000
_symmetry_Int_Tables_number   1
_chemical_formula_structural   Y8Ga12CoNi3
_chemical_formula_sum   'Y8 Ga12 Co1 Ni3'
_cell_volume   468.11423428
_cell_formula_units_Z   1
loop_
 _symmetry_equiv_pos_site_id
 _symmetry_equiv_pos_as_xyz
  1  'x, y, z'
loop_
 _atom_site_type_symbol
 _atom_site_label
 _atom_site_symmetry_multiplicity
 _atom_site_fract_x
 _atom_site_fract_y
 _atom_site_fract_z
 _atom_site_occupancy
  Y  Y0  1  0.748803  0.000000  0.000000  1
  Y  Y1  1  0.249755  0.000000  0.000000  1
  Y  Y2  1  0.750468  0.479213  0.520787  1
  Y  Y3  1  0.252787  0.523775  0.476225  1
  Y  Y4  1  0.750468  0.041575  0.520787  1
  Y  Y5  1  0.252787  0.952449  0.476225  1
  Y  Y6  1  0.750468  0.479213  0.958425  1
  Y  Y7  1  0.252787  0.523775  0.047551  1
  Ga  Ga8  1  0.954857  0.828544  0.171456  1
  Ga  Ga9  1  0.046635  0.172119  0.827881  1
  Ga  Ga10  1  0.954857  0.342914  0.171456  1
  Ga  Ga11  1  0.454636  0.171936  0.828064  1
  Ga  Ga12  1  0.046635  0.655761  0.827881  1
  Ga  Ga13  1  0.545432  0.826812  0.173188  1
  Ga  Ga14  1  0.954857  0.828544  0.657086  1
  Ga  Ga15  1  0.454636  0.656128  0.828064  1
  Ga  Ga16  1  0.046635  0.172119  0.344239  1
  Ga  Ga17  1  0.545432  0.346377  0.173188  1
  Ga  Ga18  1  0.454636  0.171936  0.343872  1
  Ga  Ga19  1  0.545432  0.826812  0.653623  1
  Co  Co20  1  0.518525  0.666667  0.333333  1
  Ni  Ni21  1  0.967723  0.666667  0.333333  1
  Ni  Ni22  1  0.029699  0.333333  0.666667  1
  Ni  Ni23  1  0.471051  0.333333  0.666667  1
