# generated using pymatgen
data_Yb3WO6
_symmetry_space_group_name_H-M   'P 1'
_cell_length_a   6.52046734
_cell_length_b   6.52046590
_cell_length_c   6.52046684
_cell_angle_alpha   91.60181557
_cell_angle_beta   91.60181341
_cell_angle_gamma   91.60182408
_symmetry_Int_Tables_number   1
_chemical_formula_structural   Yb3WO6
_chemical_formula_sum   'Yb6 W2 O12'
_cell_volume   276.89614297
_cell_formula_units_Z   2
loop_
 _symmetry_equiv_pos_site_id
 _symmetry_equiv_pos_as_xyz
  1  'x, y, z'
loop_
 _atom_site_type_symbol
 _atom_site_label
 _atom_site_symmetry_multiplicity
 _atom_site_fract_x
 _atom_site_fract_y
 _atom_site_fract_z
 _atom_site_occupancy
  Yb  Yb0  1  0.933605  0.436095  0.747591  1
  Yb  Yb1  1  0.747591  0.933605  0.436095  1
  Yb  Yb2  1  0.563905  0.252409  0.066395  1
  Yb  Yb3  1  0.436095  0.747591  0.933605  1
  Yb  Yb4  1  0.252409  0.066395  0.563905  1
  Yb  Yb5  1  0.066395  0.563905  0.252409  1
  W  W6  1  0.000000  0.000000  0.000000  1
  W  W7  1  0.500000  0.500000  0.500000  1
  O  O8  1  0.934925  0.286116  0.068030  1
  O  O9  1  0.931970  0.065075  0.713884  1
  O  O10  1  0.785986  0.580196  0.454006  1
  O  O11  1  0.713884  0.931970  0.065075  1
  O  O12  1  0.580196  0.454006  0.785986  1
  O  O13  1  0.545994  0.214014  0.419804  1
  O  O14  1  0.454006  0.785986  0.580196  1
  O  O15  1  0.419804  0.545994  0.214014  1
  O  O16  1  0.286116  0.068030  0.934925  1
  O  O17  1  0.214014  0.419804  0.545994  1
  O  O18  1  0.068030  0.934925  0.286116  1
  O  O19  1  0.065075  0.713884  0.931970  1
