# generated using pymatgen
data_Y4Zr3CrF28
_symmetry_space_group_name_H-M   'P 1'
_cell_length_a   5.69435822
_cell_length_b   9.06875899
_cell_length_c   12.13723900
_cell_angle_alpha   62.69012591
_cell_angle_beta   90.07761714
_cell_angle_gamma   89.99479084
_symmetry_Int_Tables_number   1
_chemical_formula_structural   Y4Zr3CrF28
_chemical_formula_sum   'Y4 Zr3 Cr1 F28'
_cell_volume   556.91395916
_cell_formula_units_Z   1
loop_
 _symmetry_equiv_pos_site_id
 _symmetry_equiv_pos_as_xyz
  1  'x, y, z'
loop_
 _atom_site_type_symbol
 _atom_site_label
 _atom_site_symmetry_multiplicity
 _atom_site_fract_x
 _atom_site_fract_y
 _atom_site_fract_z
 _atom_site_occupancy
  Y  Y0  1  0.256655  0.811944  0.259261  1
  Y  Y1  1  0.742944  0.183731  0.734084  1
  Y  Y2  1  0.756700  0.182818  0.233777  1
  Y  Y3  1  0.241418  0.813094  0.773001  1
  Zr  Zr4  1  0.246103  0.273951  0.957026  1
  Zr  Zr5  1  0.255367  0.273939  0.454464  1
  Zr  Zr6  1  0.742528  0.726105  0.544653  1
  Cr  Cr7  1  0.755975  0.726005  0.044851  1
  F  F8  1  0.958536  0.708590  0.417850  1
  F  F9  1  0.038978  0.294293  0.579736  1
  F  F10  1  0.464433  0.290463  0.082917  1
  F  F11  1  0.546427  0.713544  0.930346  1
  F  F12  1  0.501512  0.733982  0.140204  1
  F  F13  1  0.527463  0.260429  0.858386  1
  F  F14  1  0.980058  0.272964  0.346897  1
  F  F15  1  0.018510  0.731550  0.650612  1
  F  F16  1  0.960775  0.741921  0.162314  1
  F  F17  1  0.035767  0.250631  0.828314  1
  F  F18  1  0.464217  0.254317  0.324210  1
  F  F19  1  0.535258  0.748890  0.675472  1
  F  F20  1  0.764807  0.498726  0.133634  1
  F  F21  1  0.237817  0.525612  0.860104  1
  F  F22  1  0.276480  0.526002  0.355609  1
  F  F23  1  0.722228  0.474014  0.643130  1
  F  F24  1  0.950342  0.283846  0.049497  1
  F  F25  1  0.020978  0.717744  0.953100  1
  F  F26  1  0.445527  0.724397  0.449469  1
  F  F27  1  0.555010  0.277419  0.547620  1
  F  F28  1  0.742808  0.977941  0.442778  1
  F  F29  1  0.257644  0.023991  0.558255  1
  F  F30  1  0.238469  0.022834  0.055776  1
  F  F31  1  0.759863  0.954218  0.954783  1
  F  F32  1  0.572914  0.971297  0.232806  1
  F  F33  1  0.423467  0.029485  0.768126  1
  F  F34  1  0.073704  0.023954  0.264125  1
  F  F35  1  0.928319  0.975353  0.732813  1
