# generated using pymatgen
data_MgCoP3Ru4
_symmetry_space_group_name_H-M   'P 1'
_cell_length_a   3.74908000
_cell_length_b   10.86685400
_cell_length_c   11.98864700
_cell_angle_alpha   90.00000000
_cell_angle_beta   90.00000000
_cell_angle_gamma   90.00000000
_symmetry_Int_Tables_number   1
_chemical_formula_structural   MgCoP3Ru4
_chemical_formula_sum   'Mg4 Co4 P12 Ru16'
_cell_volume   488.42593071
_cell_formula_units_Z   4
loop_
 _symmetry_equiv_pos_site_id
 _symmetry_equiv_pos_as_xyz
  1  'x, y, z'
loop_
 _atom_site_type_symbol
 _atom_site_label
 _atom_site_symmetry_multiplicity
 _atom_site_fract_x
 _atom_site_fract_y
 _atom_site_fract_z
 _atom_site_occupancy
  Mg  Mg0  1  0.250000  0.607318  0.721476  1
  Mg  Mg1  1  0.250000  0.892682  0.221476  1
  Mg  Mg2  1  0.750000  0.392682  0.278524  1
  Mg  Mg3  1  0.750000  0.107318  0.778524  1
  Co  Co4  1  0.250000  0.471858  0.930011  1
  Co  Co5  1  0.250000  0.028142  0.430011  1
  Co  Co6  1  0.750000  0.528142  0.069989  1
  Co  Co7  1  0.750000  0.971858  0.569989  1
  P  P8  1  0.250000  0.418066  0.104382  1
  P  P9  1  0.250000  0.081934  0.604382  1
  P  P10  1  0.750000  0.581934  0.895618  1
  P  P11  1  0.750000  0.918066  0.395618  1
  P  P12  1  0.250000  0.286555  0.851097  1
  P  P13  1  0.250000  0.213445  0.351097  1
  P  P14  1  0.750000  0.713445  0.148903  1
  P  P15  1  0.750000  0.786555  0.648903  1
  P  P16  1  0.250000  0.613643  0.417750  1
  P  P17  1  0.250000  0.886357  0.917750  1
  P  P18  1  0.750000  0.386357  0.582250  1
  P  P19  1  0.750000  0.113643  0.082250  1
  Ru  Ru20  1  0.250000  0.702299  0.014997  1
  Ru  Ru21  1  0.250000  0.797701  0.514997  1
  Ru  Ru22  1  0.750000  0.297701  0.985003  1
  Ru  Ru23  1  0.750000  0.202299  0.485003  1
  Ru  Ru24  1  0.250000  0.406599  0.455975  1
  Ru  Ru25  1  0.250000  0.093401  0.955975  1
  Ru  Ru26  1  0.750000  0.593401  0.544025  1
  Ru  Ru27  1  0.750000  0.906599  0.044025  1
  Ru  Ru28  1  0.250000  0.220606  0.156606  1
  Ru  Ru29  1  0.250000  0.279394  0.656606  1
  Ru  Ru30  1  0.750000  0.779394  0.843394  1
  Ru  Ru31  1  0.750000  0.720606  0.343394  1
  Ru  Ru32  1  0.250000  0.916122  0.724870  1
  Ru  Ru33  1  0.250000  0.583878  0.224870  1
  Ru  Ru34  1  0.750000  0.083878  0.275130  1
  Ru  Ru35  1  0.750000  0.416122  0.775130  1
