# generated using pymatgen
data_YbNp3(FeB4)4
_symmetry_space_group_name_H-M   'P 1'
_cell_length_a   3.33403800
_cell_length_b   5.88875002
_cell_length_c   11.40591998
_cell_angle_alpha   90.06747463
_cell_angle_beta   90.00000000
_cell_angle_gamma   90.00000000
_symmetry_Int_Tables_number   1
_chemical_formula_structural   YbNp3(FeB4)4
_chemical_formula_sum   'Yb1 Np3 Fe4 B16'
_cell_volume   223.93587980
_cell_formula_units_Z   1
loop_
 _symmetry_equiv_pos_site_id
 _symmetry_equiv_pos_as_xyz
  1  'x, y, z'
loop_
 _atom_site_type_symbol
 _atom_site_label
 _atom_site_symmetry_multiplicity
 _atom_site_fract_x
 _atom_site_fract_y
 _atom_site_fract_z
 _atom_site_occupancy
  Yb  Yb0  1  0.000000  0.373967  0.150407  1
  Np  Np1  1  0.000000  0.125950  0.650671  1
  Np  Np2  1  0.000000  0.874673  0.348454  1
  Np  Np3  1  0.000000  0.625626  0.849974  1
  Fe  Fe4  1  0.000000  0.131585  0.911223  1
  Fe  Fe5  1  0.000000  0.867972  0.087039  1
  Fe  Fe6  1  0.000000  0.632053  0.588056  1
  Fe  Fe7  1  0.000000  0.367007  0.412953  1
  B  B8  1  0.500000  0.361501  0.967664  1
  B  B9  1  0.500000  0.639181  0.032737  1
  B  B10  1  0.500000  0.862051  0.532898  1
  B  B11  1  0.500000  0.137036  0.466920  1
  B  B12  1  0.500000  0.473874  0.690735  1
  B  B13  1  0.500000  0.525741  0.309598  1
  B  B14  1  0.500000  0.974324  0.809575  1
  B  B15  1  0.500000  0.024964  0.189820  1
  B  B16  1  0.500000  0.281184  0.815819  1
  B  B17  1  0.500000  0.720124  0.184362  1
  B  B18  1  0.500000  0.781198  0.685188  1
  B  B19  1  0.500000  0.219750  0.315609  1
  B  B20  1  0.500000  0.387194  0.545989  1
  B  B21  1  0.500000  0.612036  0.453380  1
  B  B22  1  0.500000  0.887903  0.954524  1
  B  B23  1  0.500000  0.113107  0.046405  1
