# generated using pymatgen
data_Ho12InNi4Rh
_symmetry_space_group_name_H-M   'P 1'
_cell_length_a   8.28967541
_cell_length_b   8.28967560
_cell_length_c   8.28967600
_cell_angle_alpha   111.71427092
_cell_angle_beta   109.88824689
_cell_angle_gamma   106.84809339
_symmetry_Int_Tables_number   1
_chemical_formula_structural   Ho12InNi4Rh
_chemical_formula_sum   'Ho12 In1 Ni4 Rh1'
_cell_volume   437.71911618
_cell_formula_units_Z   1
loop_
 _symmetry_equiv_pos_site_id
 _symmetry_equiv_pos_as_xyz
  1  'x, y, z'
loop_
 _atom_site_type_symbol
 _atom_site_label
 _atom_site_symmetry_multiplicity
 _atom_site_fract_x
 _atom_site_fract_y
 _atom_site_fract_z
 _atom_site_occupancy
  Ho  Ho0  1  0.404534  0.213414  0.191119  1
  Ho  Ho1  1  0.595466  0.786586  0.808881  1
  Ho  Ho2  1  0.022295  0.213414  0.808881  1
  Ho  Ho3  1  0.977705  0.786586  0.191119  1
  Ho  Ho4  1  0.183743  0.295332  0.479076  1
  Ho  Ho5  1  0.816257  0.704668  0.520924  1
  Ho  Ho6  1  0.183743  0.704668  0.888412  1
  Ho  Ho7  1  0.816257  0.295332  0.111588  1
  Ho  Ho8  1  0.321133  0.626055  0.304922  1
  Ho  Ho9  1  0.678867  0.373945  0.695078  1
  Ho  Ho10  1  0.321133  0.016212  0.695078  1
  Ho  Ho11  1  0.678867  0.983788  0.304922  1
  In  In12  1  0.500000  0.500000  0.000000  1
  Ni  Ni13  1  0.365292  0.000000  0.365292  1
  Ni  Ni14  1  0.634708  0.000000  0.634708  1
  Ni  Ni15  1  0.124066  0.624066  0.500000  1
  Ni  Ni16  1  0.875934  0.375934  0.500000  1
  Rh  Rh17  1  0.000000  0.000000  0.000000  1
