# generated using pymatgen
data_DyHo3Al2(CdPt2)2
_symmetry_space_group_name_H-M   'P 1'
_cell_length_a   4.35346900
_cell_length_b   6.95230472
_cell_length_c   8.22004311
_cell_angle_alpha   92.39105501
_cell_angle_beta   90.00000000
_cell_angle_gamma   90.00000000
_symmetry_Int_Tables_number   1
_chemical_formula_structural   DyHo3Al2(CdPt2)2
_chemical_formula_sum   'Dy1 Ho3 Al2 Cd2 Pt4'
_cell_volume   248.57650053
_cell_formula_units_Z   1
loop_
 _symmetry_equiv_pos_site_id
 _symmetry_equiv_pos_as_xyz
  1  'x, y, z'
loop_
 _atom_site_type_symbol
 _atom_site_label
 _atom_site_symmetry_multiplicity
 _atom_site_fract_x
 _atom_site_fract_y
 _atom_site_fract_z
 _atom_site_occupancy
  Dy  Dy0  1  0.250000  0.963768  0.323227  1
  Ho  Ho1  1  0.250000  0.463810  0.185540  1
  Ho  Ho2  1  0.750000  0.536175  0.814369  1
  Ho  Ho3  1  0.750000  0.036423  0.676879  1
  Al  Al4  1  0.750000  0.639223  0.442906  1
  Al  Al5  1  0.250000  0.360765  0.557215  1
  Cd  Cd6  1  0.250000  0.857706  0.935148  1
  Cd  Cd7  1  0.750000  0.142364  0.064641  1
  Pt  Pt8  1  0.250000  0.731516  0.600573  1
  Pt  Pt9  1  0.750000  0.268573  0.399749  1
  Pt  Pt10  1  0.750000  0.737886  0.143326  1
  Pt  Pt11  1  0.250000  0.261791  0.856425  1
