# generated using pymatgen
data_Nb4AlGa(B2Ru5)2
_symmetry_space_group_name_H-M   'P 1'
_cell_length_a   9.33745700
_cell_length_b   9.33745700
_cell_length_c   2.99931000
_cell_angle_alpha   90.00000000
_cell_angle_beta   90.00000000
_cell_angle_gamma   90.00000000
_symmetry_Int_Tables_number   1
_chemical_formula_structural   Nb4AlGa(B2Ru5)2
_chemical_formula_sum   'Nb4 Al1 Ga1 B4 Ru10'
_cell_volume   261.50414989
_cell_formula_units_Z   1
loop_
 _symmetry_equiv_pos_site_id
 _symmetry_equiv_pos_as_xyz
  1  'x, y, z'
loop_
 _atom_site_type_symbol
 _atom_site_label
 _atom_site_symmetry_multiplicity
 _atom_site_fract_x
 _atom_site_fract_y
 _atom_site_fract_z
 _atom_site_occupancy
  Nb  Nb0  1  0.824853  0.677963  0.000000  1
  Nb  Nb1  1  0.175147  0.322037  0.000000  1
  Nb  Nb2  1  0.322037  0.824853  0.000000  1
  Nb  Nb3  1  0.677963  0.175147  0.000000  1
  Al  Al4  1  0.000000  0.000000  0.000000  1
  Ga  Ga5  1  0.500000  0.500000  0.000000  1
  B  B6  1  0.624886  0.875404  0.000000  1
  B  B7  1  0.375114  0.124596  0.000000  1
  B  B8  1  0.124596  0.624886  0.000000  1
  B  B9  1  0.875404  0.375114  0.000000  1
  Ru  Ru10  1  0.568182  0.715229  0.500000  1
  Ru  Ru11  1  0.431818  0.284771  0.500000  1
  Ru  Ru12  1  0.068177  0.785054  0.500000  1
  Ru  Ru13  1  0.931823  0.214946  0.500000  1
  Ru  Ru14  1  0.284771  0.568182  0.500000  1
  Ru  Ru15  1  0.715229  0.431818  0.500000  1
  Ru  Ru16  1  0.214946  0.068177  0.500000  1
  Ru  Ru17  1  0.785054  0.931823  0.500000  1
  Ru  Ru18  1  0.500000  0.000000  0.500000  1
  Ru  Ru19  1  0.000000  0.500000  0.500000  1
