# generated using pymatgen
data_Dy5Y(Si3Ru2)2
_symmetry_space_group_name_H-M   'P 1'
_cell_length_a   5.76571400
_cell_length_b   5.76571490
_cell_length_c   13.79981000
_cell_angle_alpha   90.00000000
_cell_angle_beta   90.00000000
_cell_angle_gamma   137.45987946
_symmetry_Int_Tables_number   1
_chemical_formula_structural   Dy5Y(Si3Ru2)2
_chemical_formula_sum   'Dy5 Y1 Si6 Ru4'
_cell_volume   310.16611886
_cell_formula_units_Z   1
loop_
 _symmetry_equiv_pos_site_id
 _symmetry_equiv_pos_as_xyz
  1  'x, y, z'
loop_
 _atom_site_type_symbol
 _atom_site_label
 _atom_site_symmetry_multiplicity
 _atom_site_fract_x
 _atom_site_fract_y
 _atom_site_fract_z
 _atom_site_occupancy
  Dy  Dy0  1  0.924078  0.075922  0.385507  1
  Dy  Dy1  1  0.075903  0.924097  0.614639  1
  Dy  Dy2  1  0.924078  0.075922  0.114493  1
  Dy  Dy3  1  0.075903  0.924097  0.885361  1
  Dy  Dy4  1  0.356774  0.643226  0.750000  1
  Y  Y5  1  0.642999  0.357001  0.250000  1
  Si  Si6  1  0.618289  0.381711  0.461610  1
  Si  Si7  1  0.381741  0.618259  0.538460  1
  Si  Si8  1  0.618289  0.381711  0.038390  1
  Si  Si9  1  0.381741  0.618259  0.961540  1
  Si  Si10  1  0.329987  0.670013  0.250000  1
  Si  Si11  1  0.670077  0.329923  0.750000  1
  Ru  Ru12  1  0.786308  0.213692  0.919254  1
  Ru  Ru13  1  0.213763  0.786237  0.080679  1
  Ru  Ru14  1  0.786308  0.213692  0.580746  1
  Ru  Ru15  1  0.213763  0.786237  0.419321  1
