# generated using pymatgen
data_Sm3Ho(Tm3Sn4)2
_symmetry_space_group_name_H-M   'P 1'
_cell_length_a   8.01149000
_cell_length_b   8.15941231
_cell_length_c   15.39729858
_cell_angle_alpha   90.03141863
_cell_angle_beta   90.00000000
_cell_angle_gamma   90.00000000
_symmetry_Int_Tables_number   1
_chemical_formula_structural   Sm3Ho(Tm3Sn4)2
_chemical_formula_sum   'Sm6 Ho2 Tm12 Sn16'
_cell_volume   1006.50663089
_cell_formula_units_Z   2
loop_
 _symmetry_equiv_pos_site_id
 _symmetry_equiv_pos_as_xyz
  1  'x, y, z'
loop_
 _atom_site_type_symbol
 _atom_site_label
 _atom_site_symmetry_multiplicity
 _atom_site_fract_x
 _atom_site_fract_y
 _atom_site_fract_z
 _atom_site_occupancy
  Sm  Sm0  1  0.482005  0.678908  0.403691  1
  Sm  Sm1  1  0.982005  0.821092  0.096309  1
  Sm  Sm2  1  0.481666  0.678210  0.096249  1
  Sm  Sm3  1  0.981666  0.821790  0.403751  1
  Sm  Sm4  1  0.517377  0.320714  0.596414  1
  Sm  Sm5  1  0.017377  0.179286  0.903586  1
  Ho  Ho6  1  0.519915  0.321308  0.901978  1
  Ho  Ho7  1  0.019915  0.178692  0.598022  1
  Tm  Tm8  1  0.363529  0.836749  0.876603  1
  Tm  Tm9  1  0.863529  0.663251  0.623397  1
  Tm  Tm10  1  0.635352  0.163209  0.377306  1
  Tm  Tm11  1  0.135352  0.336791  0.122694  1
  Tm  Tm12  1  0.635616  0.163774  0.122662  1
  Tm  Tm13  1  0.135616  0.336226  0.377338  1
  Tm  Tm14  1  0.364266  0.837248  0.623434  1
  Tm  Tm15  1  0.864266  0.662752  0.876566  1
  Tm  Tm16  1  0.196274  0.503498  0.750125  1
  Tm  Tm17  1  0.696274  0.996502  0.749875  1
  Tm  Tm18  1  0.803632  0.495805  0.250012  1
  Tm  Tm19  1  0.303632  0.004195  0.249988  1
  Sn  Sn20  1  0.299493  0.039999  0.041532  1
  Sn  Sn21  1  0.799493  0.460001  0.458468  1
  Sn  Sn22  1  0.703950  0.962663  0.542580  1
  Sn  Sn23  1  0.203950  0.537337  0.957420  1
  Sn  Sn24  1  0.699493  0.961579  0.957669  1
  Sn  Sn25  1  0.199493  0.538421  0.542331  1
  Sn  Sn26  1  0.297006  0.040587  0.459433  1
  Sn  Sn27  1  0.797006  0.459413  0.040567  1
  Sn  Sn28  1  0.561914  0.621753  0.750224  1
  Sn  Sn29  1  0.061914  0.878247  0.749776  1
  Sn  Sn30  1  0.437680  0.376841  0.249997  1
  Sn  Sn31  1  0.937680  0.123159  0.250003  1
  Sn  Sn32  1  0.328137  0.147042  0.750817  1
  Sn  Sn33  1  0.828137  0.352958  0.749183  1
  Sn  Sn34  1  0.672695  0.854639  0.249880  1
  Sn  Sn35  1  0.172695  0.645361  0.250120  1
