# generated using pymatgen
data_K4CaMnGa2F14
_symmetry_space_group_name_H-M   'P 1'
_cell_length_a   7.86538385
_cell_length_b   7.86538356
_cell_length_c   7.91934508
_cell_angle_alpha   120.70779886
_cell_angle_beta   117.35563190
_cell_angle_gamma   91.32777629
_symmetry_Int_Tables_number   1
_chemical_formula_structural   K4CaMnGa2F14
_chemical_formula_sum   'K4 Ca1 Mn1 Ga2 F14'
_cell_volume   352.15420140
_cell_formula_units_Z   1
loop_
 _symmetry_equiv_pos_site_id
 _symmetry_equiv_pos_as_xyz
  1  'x, y, z'
loop_
 _atom_site_type_symbol
 _atom_site_label
 _atom_site_symmetry_multiplicity
 _atom_site_fract_x
 _atom_site_fract_y
 _atom_site_fract_z
 _atom_site_occupancy
  K  K0  1  0.500000  0.500000  0.000000  1
  K  K1  1  0.000000  0.000000  0.000000  1
  K  K2  1  0.000000  0.500000  0.000000  1
  K  K3  1  0.000000  0.000000  0.500000  1
  Ca  Ca4  1  0.500000  0.000000  0.000000  1
  Mn  Mn5  1  0.500000  0.500000  0.500000  1
  Ga  Ga6  1  0.000000  0.500000  0.500000  1
  Ga  Ga7  1  0.500000  0.000000  0.500000  1
  F  F8  1  0.875099  0.580329  0.291322  1
  F  F9  1  0.210992  0.916223  0.291322  1
  F  F10  1  0.169955  0.791411  0.745872  1
  F  F11  1  0.460498  0.711251  0.398149  1
  F  F12  1  0.454462  0.075918  0.745872  1
  F  F13  1  0.186899  0.437651  0.398149  1
  F  F14  1  0.813101  0.562349  0.601851  1
  F  F15  1  0.545538  0.924082  0.254128  1
  F  F16  1  0.539502  0.288749  0.601851  1
  F  F17  1  0.830045  0.208589  0.254128  1
  F  F18  1  0.377834  0.261794  0.139628  1
  F  F19  1  0.124901  0.419671  0.708678  1
  F  F20  1  0.789008  0.083777  0.708678  1
  F  F21  1  0.622166  0.738206  0.860372  1
