# generated using pymatgen
data_K2Tc3Cl7O5
_symmetry_space_group_name_H-M   'P 1'
_cell_length_a   9.55427216
_cell_length_b   9.55403813
_cell_length_c   10.74309931
_cell_angle_alpha   71.88372206
_cell_angle_beta   71.89220962
_cell_angle_gamma   53.38053316
_symmetry_Int_Tables_number   1
_chemical_formula_structural   K2Tc3Cl7O5
_chemical_formula_sum   'K4 Tc6 Cl14 O10'
_cell_volume   737.90171146
_cell_formula_units_Z   2
loop_
 _symmetry_equiv_pos_site_id
 _symmetry_equiv_pos_as_xyz
  1  'x, y, z'
loop_
 _atom_site_type_symbol
 _atom_site_label
 _atom_site_symmetry_multiplicity
 _atom_site_fract_x
 _atom_site_fract_y
 _atom_site_fract_z
 _atom_site_occupancy
  K  K0  1  0.825781  0.741620  0.863257  1
  K  K1  1  0.258243  0.174319  0.636549  1
  K  K2  1  0.741755  0.825873  0.363566  1
  K  K3  1  0.174064  0.258348  0.136718  1
  Tc  Tc4  1  0.784443  0.211991  0.961273  1
  Tc  Tc5  1  0.212038  0.784403  0.461098  1
  Tc  Tc6  1  0.215736  0.787806  0.038847  1
  Tc  Tc7  1  0.559157  0.440778  0.250260  1
  Tc  Tc8  1  0.440889  0.559200  0.749708  1
  Tc  Tc9  1  0.788182  0.215373  0.538786  1
  Cl  Cl10  1  0.053916  0.648271  0.129094  1
  Cl  Cl11  1  0.352415  0.945519  0.370265  1
  Cl  Cl12  1  0.355219  0.947368  0.961172  1
  Cl  Cl13  1  0.647714  0.054385  0.629688  1
  Cl  Cl14  1  0.285428  0.411186  0.832192  1
  Cl  Cl15  1  0.918890  0.081096  0.749905  1
  Cl  Cl16  1  0.053190  0.644030  0.538355  1
  Cl  Cl17  1  0.644807  0.052587  0.038826  1
  Cl  Cl18  1  0.588858  0.714691  0.668158  1
  Cl  Cl19  1  0.946934  0.355835  0.461598  1
  Cl  Cl20  1  0.081050  0.918962  0.250065  1
  Cl  Cl21  1  0.714086  0.588943  0.167870  1
  Cl  Cl22  1  0.411035  0.285819  0.331907  1
  Cl  Cl23  1  0.946083  0.351675  0.870919  1
  O  O24  1  0.397537  0.600299  0.375808  1
  O  O25  1  0.295206  0.705866  0.881093  1
  O  O26  1  0.294199  0.704840  0.618454  1
  O  O27  1  0.705067  0.293831  0.118261  1
  O  O28  1  0.602062  0.400142  0.624917  1
  O  O29  1  0.000187  0.999793  0.000074  1
  O  O30  1  0.706030  0.294979  0.382167  1
  O  O31  1  0.600424  0.397486  0.875021  1
  O  O32  1  0.399175  0.602888  0.124235  1
  O  O33  1  0.000200  0.999798  0.499891  1
