# generated using pymatgen
data_SmHo5Rh18
_symmetry_space_group_name_H-M   'P 1'
_cell_length_a   5.25898000
_cell_length_b   5.25898063
_cell_length_c   17.55654000
_cell_angle_alpha   90.00000000
_cell_angle_beta   90.00000000
_cell_angle_gamma   119.99999607
_symmetry_Int_Tables_number   1
_chemical_formula_structural   SmHo5Rh18
_chemical_formula_sum   'Sm1 Ho5 Rh18'
_cell_volume   420.50645731
_cell_formula_units_Z   1
loop_
 _symmetry_equiv_pos_site_id
 _symmetry_equiv_pos_as_xyz
  1  'x, y, z'
loop_
 _atom_site_type_symbol
 _atom_site_label
 _atom_site_symmetry_multiplicity
 _atom_site_fract_x
 _atom_site_fract_y
 _atom_site_fract_z
 _atom_site_occupancy
  Sm  Sm0  1  0.666667  0.333333  0.250000  1
  Ho  Ho1  1  0.333333  0.666667  0.957730  1
  Ho  Ho2  1  0.666667  0.333333  0.041846  1
  Ho  Ho3  1  0.666667  0.333333  0.458154  1
  Ho  Ho4  1  0.333333  0.666667  0.542270  1
  Ho  Ho5  1  0.333333  0.666667  0.750000  1
  Rh  Rh6  1  0.167243  0.832757  0.374929  1
  Rh  Rh7  1  0.167243  0.334485  0.374929  1
  Rh  Rh8  1  0.665515  0.832757  0.374929  1
  Rh  Rh9  1  0.832767  0.167233  0.625563  1
  Rh  Rh10  1  0.832767  0.665533  0.625563  1
  Rh  Rh11  1  0.334467  0.167233  0.625563  1
  Rh  Rh12  1  0.832767  0.167233  0.874437  1
  Rh  Rh13  1  0.832767  0.665533  0.874437  1
  Rh  Rh14  1  0.334467  0.167233  0.874437  1
  Rh  Rh15  1  0.167243  0.832757  0.125071  1
  Rh  Rh16  1  0.167243  0.334485  0.125071  1
  Rh  Rh17  1  0.665515  0.832757  0.125071  1
  Rh  Rh18  1  0.333333  0.666667  0.250000  1
  Rh  Rh19  1  0.666667  0.333333  0.750000  1
  Rh  Rh20  1  0.000000  0.000000  0.250000  1
  Rh  Rh21  1  0.000000  0.000000  0.750000  1
  Rh  Rh22  1  0.000000  0.000000  0.500177  1
  Rh  Rh23  1  0.000000  0.000000  0.999823  1
