# generated using pymatgen
data_Nd3CdCu(PtAu)2
_symmetry_space_group_name_H-M   'P 1'
_cell_length_a   7.72183100
_cell_length_b   7.72183129
_cell_length_c   3.86452000
_cell_angle_alpha   90.00000000
_cell_angle_beta   90.00000000
_cell_angle_gamma   120.51325745
_symmetry_Int_Tables_number   1
_chemical_formula_structural   Nd3CdCu(PtAu)2
_chemical_formula_sum   'Nd3 Cd1 Cu1 Pt2 Au2'
_cell_volume   198.51683392
_cell_formula_units_Z   1
loop_
 _symmetry_equiv_pos_site_id
 _symmetry_equiv_pos_as_xyz
  1  'x, y, z'
loop_
 _atom_site_type_symbol
 _atom_site_label
 _atom_site_symmetry_multiplicity
 _atom_site_fract_x
 _atom_site_fract_y
 _atom_site_fract_z
 _atom_site_occupancy
  Nd  Nd0  1  0.593617  0.010185  0.000000  1
  Nd  Nd1  1  0.010185  0.593617  0.000000  1
  Nd  Nd2  1  0.393075  0.393075  0.000000  1
  Cd  Cd3  1  0.754348  0.754348  0.500000  1
  Cu  Cu4  1  0.998312  0.998312  0.000000  1
  Pt  Pt5  1  0.342646  0.669025  0.500000  1
  Pt  Pt6  1  0.669025  0.342646  0.500000  1
  Au  Au7  1  0.243693  0.995097  0.500000  1
  Au  Au8  1  0.995097  0.243693  0.500000  1
