# generated using pymatgen
data_Lu3Al(Co3C)2
_symmetry_space_group_name_H-M   'P 1'
_cell_length_a   5.08889300
_cell_length_b   5.08889172
_cell_length_c   13.58157500
_cell_angle_alpha   90.00000000
_cell_angle_beta   90.00000000
_cell_angle_gamma   119.99998884
_symmetry_Int_Tables_number   1
_chemical_formula_structural   Lu3Al(Co3C)2
_chemical_formula_sum   'Lu6 Al2 Co12 C4'
_cell_volume   304.59820951
_cell_formula_units_Z   2
loop_
 _symmetry_equiv_pos_site_id
 _symmetry_equiv_pos_as_xyz
  1  'x, y, z'
loop_
 _atom_site_type_symbol
 _atom_site_label
 _atom_site_symmetry_multiplicity
 _atom_site_fract_x
 _atom_site_fract_y
 _atom_site_fract_z
 _atom_site_occupancy
  Lu  Lu0  1  0.333333  0.666667  0.533697  1
  Lu  Lu1  1  0.666667  0.333333  0.033697  1
  Lu  Lu2  1  0.666667  0.333333  0.466303  1
  Lu  Lu3  1  0.333333  0.666667  0.966303  1
  Lu  Lu4  1  0.333333  0.666667  0.750000  1
  Lu  Lu5  1  0.666667  0.333333  0.250000  1
  Al  Al6  1  0.000000  0.000000  0.000000  1
  Al  Al7  1  0.000000  0.000000  0.500000  1
  Co  Co8  1  0.166452  0.332903  0.154371  1
  Co  Co9  1  0.833548  0.667097  0.654371  1
  Co  Co10  1  0.667097  0.833548  0.154371  1
  Co  Co11  1  0.166452  0.833548  0.154371  1
  Co  Co12  1  0.833548  0.166452  0.654371  1
  Co  Co13  1  0.332903  0.166452  0.654371  1
  Co  Co14  1  0.833548  0.667097  0.845629  1
  Co  Co15  1  0.833548  0.166452  0.845629  1
  Co  Co16  1  0.332903  0.166452  0.845629  1
  Co  Co17  1  0.667097  0.833548  0.345629  1
  Co  Co18  1  0.166452  0.833548  0.345629  1
  Co  Co19  1  0.166452  0.332903  0.345629  1
  C  C20  1  0.333333  0.666667  0.250000  1
  C  C21  1  0.666667  0.333333  0.750000  1
  C  C22  1  0.000000  0.000000  0.250000  1
  C  C23  1  0.000000  0.000000  0.750000  1
