# generated using pymatgen
data_Er6U(Ga3Co8)2
_symmetry_space_group_name_H-M   'P 1'
_cell_length_a   8.45845185
_cell_length_b   8.45211198
_cell_length_c   8.46235356
_cell_angle_alpha   60.03919435
_cell_angle_beta   60.06416637
_cell_angle_gamma   60.02479497
_symmetry_Int_Tables_number   1
_chemical_formula_structural   Er6U(Ga3Co8)2
_chemical_formula_sum   'Er6 U1 Ga6 Co16'
_cell_volume   428.20575525
_cell_formula_units_Z   1
loop_
 _symmetry_equiv_pos_site_id
 _symmetry_equiv_pos_as_xyz
  1  'x, y, z'
loop_
 _atom_site_type_symbol
 _atom_site_label
 _atom_site_symmetry_multiplicity
 _atom_site_fract_x
 _atom_site_fract_y
 _atom_site_fract_z
 _atom_site_occupancy
  Er  Er0  1  0.709097  0.708742  0.290785  1
  Er  Er1  1  0.291255  0.708854  0.290938  1
  Er  Er2  1  0.709054  0.291419  0.290751  1
  Er  Er3  1  0.290903  0.291258  0.709215  1
  Er  Er4  1  0.708745  0.291146  0.709062  1
  Er  Er5  1  0.290946  0.708581  0.709249  1
  U  U6  1  0.000000  0.000000  0.000000  1
  Ga  Ga7  1  0.000000  0.000000  0.500000  1
  Ga  Ga8  1  0.500000  0.000000  0.500000  1
  Ga  Ga9  1  0.000000  0.500000  0.500000  1
  Ga  Ga10  1  0.500000  0.500000  0.000000  1
  Ga  Ga11  1  0.000000  0.500000  0.000000  1
  Ga  Ga12  1  0.500000  0.000000  0.000000  1
  Co  Co13  1  0.877428  0.877419  0.367734  1
  Co  Co14  1  0.877373  0.367886  0.877384  1
  Co  Co15  1  0.367929  0.877351  0.877372  1
  Co  Co16  1  0.877417  0.877403  0.877427  1
  Co  Co17  1  0.122572  0.122581  0.632266  1
  Co  Co18  1  0.122627  0.632114  0.122616  1
  Co  Co19  1  0.632071  0.122649  0.122628  1
  Co  Co20  1  0.122583  0.122597  0.122573  1
  Co  Co21  1  0.677790  0.677685  0.966922  1
  Co  Co22  1  0.677751  0.967027  0.677662  1
  Co  Co23  1  0.967093  0.677661  0.677675  1
  Co  Co24  1  0.677741  0.677637  0.677655  1
  Co  Co25  1  0.322210  0.322315  0.033078  1
  Co  Co26  1  0.322249  0.032973  0.322338  1
  Co  Co27  1  0.032907  0.322339  0.322325  1
  Co  Co28  1  0.322259  0.322363  0.322345  1
