# generated using pymatgen
data_PrEr(WF7)2
_symmetry_space_group_name_H-M   'P 1'
_cell_length_a   5.69987300
_cell_length_b   9.07589919
_cell_length_c   12.30367700
_cell_angle_alpha   62.79735748
_cell_angle_beta   90.00000000
_cell_angle_gamma   90.00000000
_symmetry_Int_Tables_number   1
_chemical_formula_structural   PrEr(WF7)2
_chemical_formula_sum   'Pr2 Er2 W4 F28'
_cell_volume   566.08883522
_cell_formula_units_Z   2
loop_
 _symmetry_equiv_pos_site_id
 _symmetry_equiv_pos_as_xyz
  1  'x, y, z'
loop_
 _atom_site_type_symbol
 _atom_site_label
 _atom_site_symmetry_multiplicity
 _atom_site_fract_x
 _atom_site_fract_y
 _atom_site_fract_z
 _atom_site_occupancy
  Pr  Pr0  1  0.757271  0.808637  0.766098  1
  Pr  Pr1  1  0.257271  0.191363  0.733902  1
  Er  Er2  1  0.244572  0.183695  0.234441  1
  Er  Er3  1  0.744572  0.816305  0.265559  1
  W  W4  1  0.753044  0.266339  0.966448  1
  W  W5  1  0.253044  0.733661  0.533552  1
  W  W6  1  0.243236  0.722203  0.051292  1
  W  W7  1  0.743236  0.277797  0.448708  1
  F  F8  1  0.451186  0.702902  0.922023  1
  F  F9  1  0.951186  0.297098  0.577977  1
  F  F10  1  0.543392  0.291915  0.086970  1
  F  F11  1  0.043392  0.708085  0.413030  1
  F  F12  1  0.451871  0.282498  0.537905  1
  F  F13  1  0.951871  0.717502  0.962095  1
  F  F14  1  0.556836  0.730638  0.443734  1
  F  F15  1  0.056836  0.269362  0.056266  1
  F  F16  1  0.775975  0.511330  0.865947  1
  F  F17  1  0.275975  0.488670  0.634053  1
  F  F18  1  0.227350  0.475175  0.145339  1
  F  F19  1  0.727350  0.524825  0.354661  1
  F  F20  1  0.757150  0.019837  0.060359  1
  F  F21  1  0.257150  0.980163  0.439641  1
  F  F22  1  0.239110  0.967567  0.953151  1
  F  F23  1  0.739110  0.032433  0.546849  1
  F  F24  1  0.962984  0.726339  0.632492  1
  F  F25  1  0.462984  0.273661  0.867508  1
  F  F26  1  0.025084  0.268080  0.354847  1
  F  F27  1  0.525084  0.731920  0.145153  1
  F  F28  1  0.034644  0.746803  0.179169  1
  F  F29  1  0.534644  0.253197  0.320831  1
  F  F30  1  0.948723  0.249681  0.836979  1
  F  F31  1  0.448723  0.750319  0.663021  1
  F  F32  1  0.431033  0.976526  0.232730  1
  F  F33  1  0.931033  0.023474  0.267270  1
  F  F34  1  0.596539  0.038322  0.768601  1
  F  F35  1  0.096539  0.961678  0.731399  1
