# generated using pymatgen
data_YbSm3Dy4(B6Ru)4
_symmetry_space_group_name_H-M   'P 1'
_cell_length_a   3.69133400
_cell_length_b   9.19257003
_cell_length_c   11.59404706
_cell_angle_alpha   89.91683230
_cell_angle_beta   90.00000000
_cell_angle_gamma   90.00000000
_symmetry_Int_Tables_number   1
_chemical_formula_structural   YbSm3Dy4(B6Ru)4
_chemical_formula_sum   'Yb1 Sm3 Dy4 B24 Ru4'
_cell_volume   393.41860229
_cell_formula_units_Z   1
loop_
 _symmetry_equiv_pos_site_id
 _symmetry_equiv_pos_as_xyz
  1  'x, y, z'
loop_
 _atom_site_type_symbol
 _atom_site_label
 _atom_site_symmetry_multiplicity
 _atom_site_fract_x
 _atom_site_fract_y
 _atom_site_fract_z
 _atom_site_occupancy
  Yb  Yb0  1  0.000000  0.323779  0.413777  1
  Sm  Sm1  1  0.000000  0.675232  0.584925  1
  Sm  Sm2  1  0.000000  0.823090  0.086705  1
  Sm  Sm3  1  0.000000  0.177273  0.914310  1
  Dy  Dy4  1  0.000000  0.944343  0.370991  1
  Dy  Dy5  1  0.000000  0.058465  0.627854  1
  Dy  Dy6  1  0.000000  0.442734  0.130429  1
  Dy  Dy7  1  0.000000  0.555981  0.871491  1
  B  B8  1  0.500000  0.553566  0.431388  1
  B  B9  1  0.500000  0.444363  0.567517  1
  B  B10  1  0.500000  0.054694  0.068473  1
  B  B11  1  0.500000  0.944909  0.931087  1
  B  B12  1  0.500000  0.748039  0.417980  1
  B  B13  1  0.500000  0.252298  0.580521  1
  B  B14  1  0.500000  0.248080  0.082241  1
  B  B15  1  0.500000  0.751262  0.918379  1
  B  B16  1  0.500000  0.790344  0.267105  1
  B  B17  1  0.500000  0.210657  0.732611  1
  B  B18  1  0.500000  0.289968  0.234281  1
  B  B19  1  0.500000  0.710032  0.766765  1
  B  B20  1  0.500000  0.630862  0.186714  1
  B  B21  1  0.500000  0.368924  0.814430  1
  B  B22  1  0.500000  0.131942  0.314569  1
  B  B23  1  0.500000  0.869176  0.685341  1
  B  B24  1  0.500000  0.985440  0.212921  1
  B  B25  1  0.500000  0.015186  0.786447  1
  B  B26  1  0.500000  0.483734  0.288048  1
  B  B27  1  0.500000  0.514521  0.712702  1
  B  B28  1  0.500000  0.605468  0.029532  1
  B  B29  1  0.500000  0.394342  0.971330  1
  B  B30  1  0.500000  0.105193  0.470834  1
  B  B31  1  0.500000  0.896006  0.528659  1
  Ru  Ru32  1  0.000000  0.639005  0.320474  1
  Ru  Ru33  1  0.000000  0.361423  0.679808  1
  Ru  Ru34  1  0.000000  0.138118  0.179225  1
  Ru  Ru35  1  0.000000  0.861547  0.820139  1
