# generated using pymatgen
data_LiTb8SiPd23
_symmetry_space_group_name_H-M   'P 1'
_cell_length_a   8.29756100
_cell_length_b   8.37298000
_cell_length_c   8.39161100
_cell_angle_alpha   90.00000000
_cell_angle_beta   90.00000000
_cell_angle_gamma   90.00000000
_symmetry_Int_Tables_number   1
_chemical_formula_structural   LiTb8SiPd23
_chemical_formula_sum   'Li1 Tb8 Si1 Pd23'
_cell_volume   583.00979494
_cell_formula_units_Z   1
loop_
 _symmetry_equiv_pos_site_id
 _symmetry_equiv_pos_as_xyz
  1  'x, y, z'
loop_
 _atom_site_type_symbol
 _atom_site_label
 _atom_site_symmetry_multiplicity
 _atom_site_fract_x
 _atom_site_fract_y
 _atom_site_fract_z
 _atom_site_occupancy
  Li  Li0  1  0.262385  0.500000  0.000000  1
  Tb  Tb1  1  0.253399  0.248562  0.260039  1
  Tb  Tb2  1  0.746383  0.745747  0.747221  1
  Tb  Tb3  1  0.746383  0.745747  0.252779  1
  Tb  Tb4  1  0.746383  0.254253  0.747221  1
  Tb  Tb5  1  0.253399  0.248562  0.739961  1
  Tb  Tb6  1  0.253399  0.751438  0.260039  1
  Tb  Tb7  1  0.253399  0.751438  0.739961  1
  Tb  Tb8  1  0.746383  0.254253  0.252779  1
  Si  Si9  1  0.998211  0.000000  0.000000  1
  Pd  Pd10  1  0.743336  0.500000  0.000000  1
  Pd  Pd11  1  0.998987  0.256809  0.500000  1
  Pd  Pd12  1  0.494877  0.260334  0.000000  1
  Pd  Pd13  1  0.998987  0.743191  0.500000  1
  Pd  Pd14  1  0.494877  0.739666  0.000000  1
  Pd  Pd15  1  0.500566  0.000000  0.257331  1
  Pd  Pd16  1  0.256299  0.000000  0.500000  1
  Pd  Pd17  1  0.500566  0.000000  0.742669  1
  Pd  Pd18  1  0.742936  0.000000  0.500000  1
  Pd  Pd19  1  0.002913  0.500000  0.257318  1
  Pd  Pd20  1  0.002913  0.500000  0.742682  1
  Pd  Pd21  1  0.252239  0.500000  0.500000  1
  Pd  Pd22  1  0.747890  0.500000  0.500000  1
  Pd  Pd23  1  0.501058  0.252556  0.500000  1
  Pd  Pd24  1  0.501058  0.747444  0.500000  1
  Pd  Pd25  1  0.496014  0.500000  0.251052  1
  Pd  Pd26  1  0.496014  0.500000  0.748948  1
  Pd  Pd27  1  0.280057  0.000000  0.000000  1
  Pd  Pd28  1  0.717114  0.000000  0.000000  1
  Pd  Pd29  1  0.007295  0.282693  0.000000  1
  Pd  Pd30  1  0.007295  0.717307  0.000000  1
  Pd  Pd31  1  0.998491  0.000000  0.278848  1
  Pd  Pd32  1  0.998491  0.000000  0.721152  1
