# generated using pymatgen
data_LuTa8MoN12
_symmetry_space_group_name_H-M   'P 1'
_cell_length_a   5.22278544
_cell_length_b   5.22137606
_cell_length_c   10.44737700
_cell_angle_alpha   90.07138140
_cell_angle_beta   90.02357528
_cell_angle_gamma   120.07733616
_symmetry_Int_Tables_number   1
_chemical_formula_structural   LuTa8MoN12
_chemical_formula_sum   'Lu1 Ta8 Mo1 N12'
_cell_volume   246.53889172
_cell_formula_units_Z   1
loop_
 _symmetry_equiv_pos_site_id
 _symmetry_equiv_pos_as_xyz
  1  'x, y, z'
loop_
 _atom_site_type_symbol
 _atom_site_label
 _atom_site_symmetry_multiplicity
 _atom_site_fract_x
 _atom_site_fract_y
 _atom_site_fract_z
 _atom_site_occupancy
  Lu  Lu0  1  0.667504  0.335197  0.999044  1
  Ta  Ta1  1  0.322588  0.999545  0.747557  1
  Ta  Ta2  1  0.995747  0.320851  0.747393  1
  Ta  Ta3  1  0.327368  0.324335  0.253108  1
  Ta  Ta4  1  0.678386  0.004405  0.253137  1
  Ta  Ta5  1  0.998950  0.675636  0.253099  1
  Ta  Ta6  1  0.334768  0.667331  0.003824  1
  Ta  Ta7  1  0.336478  0.665519  0.497627  1
  Ta  Ta8  1  0.664333  0.336842  0.498653  1
  Mo  Mo9  1  0.673296  0.670381  0.746313  1
  N  N10  1  0.665602  0.666221  0.380228  1
  N  N11  1  0.339232  0.000735  0.381139  1
  N  N12  1  0.001167  0.340044  0.381183  1
  N  N13  1  0.334991  0.335805  0.621227  1
  N  N14  1  0.656284  0.001074  0.620890  1
  N  N15  1  0.001647  0.657137  0.621233  1
  N  N16  1  0.330579  0.344291  0.871876  1
  N  N17  1  0.650552  0.986473  0.871058  1
  N  N18  1  0.016185  0.663774  0.871283  1
  N  N19  1  0.654707  0.667870  0.126261  1
  N  N20  1  0.335760  0.988338  0.126866  1
  N  N21  1  0.013875  0.348196  0.127001  1
