# generated using pymatgen
data_Ho4Al18(CoPd)3
_symmetry_space_group_name_H-M   'P 1'
_cell_length_a   7.50989784
_cell_length_b   7.50989678
_cell_length_c   9.44238500
_cell_angle_alpha   90.04011523
_cell_angle_beta   90.04011522
_cell_angle_gamma   119.58668980
_symmetry_Int_Tables_number   1
_chemical_formula_structural   Ho4Al18(CoPd)3
_chemical_formula_sum   'Ho4 Al18 Co3 Pd3'
_cell_volume   463.09877484
_cell_formula_units_Z   1
loop_
 _symmetry_equiv_pos_site_id
 _symmetry_equiv_pos_as_xyz
  1  'x, y, z'
loop_
 _atom_site_type_symbol
 _atom_site_label
 _atom_site_symmetry_multiplicity
 _atom_site_fract_x
 _atom_site_fract_y
 _atom_site_fract_z
 _atom_site_occupancy
  Ho  Ho0  1  0.322922  0.999815  0.749317  1
  Ho  Ho1  1  0.006913  0.328017  0.749196  1
  Ho  Ho2  1  0.671983  0.993087  0.250804  1
  Ho  Ho3  1  0.000185  0.677078  0.250683  1
  Al  Al4  1  0.664075  0.009919  0.925152  1
  Al  Al5  1  0.344133  0.999489  0.428538  1
  Al  Al6  1  0.996373  0.342409  0.428391  1
  Al  Al7  1  0.346206  0.013273  0.074203  1
  Al  Al8  1  0.986727  0.653794  0.925797  1
  Al  Al9  1  0.990081  0.335925  0.074848  1
  Al  Al10  1  0.339612  0.338502  0.549257  1
  Al  Al11  1  0.342664  0.335518  0.942409  1
  Al  Al12  1  0.664482  0.657336  0.057591  1
  Al  Al13  1  0.661498  0.660388  0.450743  1
  Al  Al14  1  0.862818  0.864055  0.748885  1
  Al  Al15  1  0.135945  0.137182  0.251115  1
  Al  Al16  1  0.338336  0.550631  0.259230  1
  Al  Al17  1  0.560699  0.339213  0.252720  1
  Al  Al18  1  0.660787  0.439301  0.747280  1
  Al  Al19  1  0.449369  0.661664  0.740770  1
  Al  Al20  1  0.657591  0.003627  0.571609  1
  Al  Al21  1  0.000511  0.655867  0.571462  1
  Co  Co22  1  0.671165  0.328835  0.500000  1
  Co  Co23  1  0.669866  0.330134  0.000000  1
  Co  Co24  1  0.328379  0.671621  0.500000  1
  Pd  Pd25  1  0.327332  0.672668  0.000000  1
  Pd  Pd26  1  0.999374  0.000626  0.000000  1
  Pd  Pd27  1  0.999971  0.000029  0.500000  1
