# generated using pymatgen
data_Sm2Fe2NiB8Os5
_symmetry_space_group_name_H-M   'P 1'
_cell_length_a   7.40577478
_cell_length_b   7.33074427
_cell_length_c   3.96911751
_cell_angle_alpha   90.13163884
_cell_angle_beta   89.71971137
_cell_angle_gamma   88.82876071
_symmetry_Int_Tables_number   1
_chemical_formula_structural   Sm2Fe2NiB8Os5
_chemical_formula_sum   'Sm2 Fe2 Ni1 B8 Os5'
_cell_volume   215.43454045
_cell_formula_units_Z   1
loop_
 _symmetry_equiv_pos_site_id
 _symmetry_equiv_pos_as_xyz
  1  'x, y, z'
loop_
 _atom_site_type_symbol
 _atom_site_label
 _atom_site_symmetry_multiplicity
 _atom_site_fract_x
 _atom_site_fract_y
 _atom_site_fract_z
 _atom_site_occupancy
  Sm  Sm0  1  0.996643  0.001412  0.073915  1
  Sm  Sm1  1  0.506120  0.500485  0.599118  1
  Fe  Fe2  1  0.871647  0.610357  0.876518  1
  Fe  Fe3  1  0.881068  0.372686  0.375647  1
  Ni  Ni4  1  0.116175  0.375692  0.877853  1
  B  B5  1  0.675776  0.770327  0.095981  1
  B  B6  1  0.326711  0.225154  0.102177  1
  B  B7  1  0.278765  0.832801  0.600222  1
  B  B8  1  0.732564  0.172292  0.596808  1
  B  B9  1  0.836596  0.681415  0.377732  1
  B  B10  1  0.153968  0.312893  0.380379  1
  B  B11  1  0.193845  0.671191  0.878775  1
  B  B12  1  0.808020  0.340470  0.878649  1
  Os  Os13  1  0.118937  0.617547  0.377121  1
  Os  Os14  1  0.343505  0.113650  0.603854  1
  Os  Os15  1  0.656868  0.893305  0.600880  1
  Os  Os16  1  0.606821  0.158120  0.102533  1
  Os  Os17  1  0.395970  0.850203  0.101839  1
