# generated using pymatgen
data_Nd3Sm(Sc3Sn4)2
_symmetry_space_group_name_H-M   'P 1'
_cell_length_a   7.85827100
_cell_length_b   8.00794627
_cell_length_c   15.07143950
_cell_angle_alpha   90.02959214
_cell_angle_beta   90.00000000
_cell_angle_gamma   90.00000000
_symmetry_Int_Tables_number   1
_chemical_formula_structural   Nd3Sm(Sc3Sn4)2
_chemical_formula_sum   'Nd6 Sm2 Sc12 Sn16'
_cell_volume   948.42464103
_cell_formula_units_Z   2
loop_
 _symmetry_equiv_pos_site_id
 _symmetry_equiv_pos_as_xyz
  1  'x, y, z'
loop_
 _atom_site_type_symbol
 _atom_site_label
 _atom_site_symmetry_multiplicity
 _atom_site_fract_x
 _atom_site_fract_y
 _atom_site_fract_z
 _atom_site_occupancy
  Nd  Nd0  1  0.514678  0.324349  0.904709  1
  Nd  Nd1  1  0.014678  0.175651  0.595291  1
  Nd  Nd2  1  0.484845  0.674994  0.404839  1
  Nd  Nd3  1  0.984845  0.825006  0.095161  1
  Nd  Nd4  1  0.485210  0.675376  0.095156  1
  Nd  Nd5  1  0.985210  0.824624  0.404844  1
  Sm  Sm6  1  0.515815  0.323956  0.596255  1
  Sm  Sm7  1  0.015815  0.176044  0.903745  1
  Sc  Sc8  1  0.356995  0.837278  0.874213  1
  Sc  Sc9  1  0.856995  0.662722  0.625787  1
  Sc  Sc10  1  0.642844  0.163595  0.374421  1
  Sc  Sc11  1  0.142844  0.336405  0.125579  1
  Sc  Sc12  1  0.642788  0.163051  0.125527  1
  Sc  Sc13  1  0.142788  0.336949  0.374473  1
  Sc  Sc14  1  0.356872  0.836765  0.625840  1
  Sc  Sc15  1  0.856872  0.663235  0.874160  1
  Sc  Sc16  1  0.189098  0.506237  0.749932  1
  Sc  Sc17  1  0.689098  0.993763  0.750068  1
  Sc  Sc18  1  0.810922  0.493222  0.249978  1
  Sc  Sc19  1  0.310922  0.006778  0.250022  1
  Sn  Sn20  1  0.311054  0.045570  0.042706  1
  Sn  Sn21  1  0.811054  0.454430  0.457294  1
  Sn  Sn22  1  0.686316  0.956147  0.543712  1
  Sn  Sn23  1  0.186316  0.543853  0.956288  1
  Sn  Sn24  1  0.689269  0.956258  0.956115  1
  Sn  Sn25  1  0.189269  0.543742  0.543885  1
  Sn  Sn26  1  0.313493  0.045615  0.456940  1
  Sn  Sn27  1  0.813493  0.454385  0.043060  1
  Sn  Sn28  1  0.553915  0.630582  0.749781  1
  Sn  Sn29  1  0.053915  0.869418  0.750219  1
  Sn  Sn30  1  0.445963  0.368583  0.249912  1
  Sn  Sn31  1  0.945963  0.131417  0.250088  1
  Sn  Sn32  1  0.324669  0.141738  0.749679  1
  Sn  Sn33  1  0.824669  0.358262  0.750321  1
  Sn  Sn34  1  0.675254  0.859243  0.250024  1
  Sn  Sn35  1  0.175254  0.640757  0.249976  1
