# generated using pymatgen
data_Tb7PaGaPd24
_symmetry_space_group_name_H-M   'P 1'
_cell_length_a   8.37479199
_cell_length_b   8.37479199
_cell_length_c   8.37479199
_cell_angle_alpha   90.24108569
_cell_angle_beta   90.24108569
_cell_angle_gamma   89.75891431
_symmetry_Int_Tables_number   1
_chemical_formula_structural   Tb7PaGaPd24
_chemical_formula_sum   'Tb7 Pa1 Ga1 Pd24'
_cell_volume   587.36841005
_cell_formula_units_Z   1
loop_
 _symmetry_equiv_pos_site_id
 _symmetry_equiv_pos_as_xyz
  1  'x, y, z'
loop_
 _atom_site_type_symbol
 _atom_site_label
 _atom_site_symmetry_multiplicity
 _atom_site_fract_x
 _atom_site_fract_y
 _atom_site_fract_z
 _atom_site_occupancy
  Tb  Tb0  1  0.252215  0.747448  0.252552  1
  Tb  Tb1  1  0.747448  0.252215  0.252552  1
  Tb  Tb2  1  0.747448  0.747448  0.747785  1
  Tb  Tb3  1  0.746971  0.746971  0.253029  1
  Tb  Tb4  1  0.749538  0.252520  0.747480  1
  Tb  Tb5  1  0.252520  0.749538  0.747480  1
  Tb  Tb6  1  0.252520  0.252520  0.250462  1
  Pa  Pa7  1  0.254983  0.254983  0.745017  1
  Ga  Ga8  1  0.997063  0.997063  0.002937  1
  Pd  Pd9  1  0.496709  0.496709  0.746714  1
  Pd  Pd10  1  0.496709  0.253286  0.503291  1
  Pd  Pd11  1  0.253286  0.496709  0.503291  1
  Pd  Pd12  1  0.499170  0.499170  0.252416  1
  Pd  Pd13  1  0.499170  0.747584  0.500830  1
  Pd  Pd14  1  0.747584  0.499170  0.500830  1
  Pd  Pd15  1  0.003335  0.003335  0.711287  1
  Pd  Pd16  1  0.003335  0.288713  0.996665  1
  Pd  Pd17  1  0.288713  0.003335  0.996665  1
  Pd  Pd18  1  0.999819  0.999819  0.292260  1
  Pd  Pd19  1  0.999819  0.707740  0.000181  1
  Pd  Pd20  1  0.707740  0.999819  0.000181  1
  Pd  Pd21  1  0.005969  0.496921  0.740325  1
  Pd  Pd22  1  0.496921  0.259675  0.994031  1
  Pd  Pd23  1  0.259675  0.005969  0.503079  1
  Pd  Pd24  1  0.005969  0.259675  0.503079  1
  Pd  Pd25  1  0.496921  0.005969  0.740325  1
  Pd  Pd26  1  0.259675  0.496921  0.994031  1
  Pd  Pd27  1  0.000184  0.498769  0.259566  1
  Pd  Pd28  1  0.498769  0.740434  0.999816  1
  Pd  Pd29  1  0.000184  0.740434  0.501231  1
  Pd  Pd30  1  0.498769  0.000184  0.259566  1
  Pd  Pd31  1  0.740434  0.000184  0.501231  1
  Pd  Pd32  1  0.740434  0.498769  0.999816  1
