# generated using pymatgen
data_LiPr2Si3
_symmetry_space_group_name_H-M   'P 1'
_cell_length_a   8.36077721
_cell_length_b   8.33610390
_cell_length_c   5.93436562
_cell_angle_alpha   69.40379015
_cell_angle_beta   68.95846178
_cell_angle_gamma   41.63776071
_symmetry_Int_Tables_number   1
_chemical_formula_structural   LiPr2Si3
_chemical_formula_sum   'Li2 Pr4 Si6'
_cell_volume   254.14928794
_cell_formula_units_Z   2
loop_
 _symmetry_equiv_pos_site_id
 _symmetry_equiv_pos_as_xyz
  1  'x, y, z'
loop_
 _atom_site_type_symbol
 _atom_site_label
 _atom_site_symmetry_multiplicity
 _atom_site_fract_x
 _atom_site_fract_y
 _atom_site_fract_z
 _atom_site_occupancy
  Li  Li0  1  0.666060  0.666060  0.333940  1
  Li  Li1  1  0.333940  0.333940  0.666060  1
  Pr  Pr2  1  0.242483  0.757517  0.242483  1
  Pr  Pr3  1  0.757517  0.242483  0.757517  1
  Pr  Pr4  1  0.750000  0.750000  0.750000  1
  Pr  Pr5  1  0.250000  0.250000  0.250000  1
  Si  Si6  1  0.666439  0.167654  0.333561  1
  Si  Si7  1  0.832346  0.333561  0.167654  1
  Si  Si8  1  0.333561  0.832346  0.666439  1
  Si  Si9  1  0.167654  0.666439  0.832346  1
  Si  Si10  1  0.834083  0.834083  0.165917  1
  Si  Si11  1  0.165917  0.165917  0.834083  1
