# generated using pymatgen
data_ErSc11In2Tc3
_symmetry_space_group_name_H-M   'P 1'
_cell_length_a   7.97566724
_cell_length_b   7.97566723
_cell_length_c   7.91584600
_cell_angle_alpha   109.56499363
_cell_angle_beta   109.56499361
_cell_angle_gamma   109.58905045
_symmetry_Int_Tables_number   1
_chemical_formula_structural   ErSc11In2Tc3
_chemical_formula_sum   'Er1 Sc11 In2 Tc3'
_cell_volume   386.15518630
_cell_formula_units_Z   1
loop_
 _symmetry_equiv_pos_site_id
 _symmetry_equiv_pos_as_xyz
  1  'x, y, z'
loop_
 _atom_site_type_symbol
 _atom_site_label
 _atom_site_symmetry_multiplicity
 _atom_site_fract_x
 _atom_site_fract_y
 _atom_site_fract_z
 _atom_site_occupancy
  Er  Er0  1  0.309339  0.690661  0.000000  1
  Sc  Sc1  1  0.188499  0.427339  0.244154  1
  Sc  Sc2  1  0.808094  0.567478  0.755335  1
  Sc  Sc3  1  0.187857  0.947242  0.755335  1
  Sc  Sc4  1  0.944347  0.183185  0.755846  1
  Sc  Sc5  1  0.816815  0.055653  0.244154  1
  Sc  Sc6  1  0.052758  0.812143  0.244665  1
  Sc  Sc7  1  0.432522  0.191906  0.244665  1
  Sc  Sc8  1  0.572661  0.811501  0.755846  1
  Sc  Sc9  1  0.314516  0.313151  0.627668  1
  Sc  Sc10  1  0.686849  0.685484  0.372332  1
  Sc  Sc11  1  0.687817  0.312183  0.000000  1
  In  In12  1  0.993492  0.499893  0.493384  1
  In  In13  1  0.500107  0.006508  0.506616  1
  Tc  Tc14  1  0.343473  0.340506  0.000000  1
  Tc  Tc15  1  0.659494  0.656527  0.000000  1
  Tc  Tc16  1  0.001359  0.998641  0.000000  1
