# generated using pymatgen
data_Sc2P3Ir4
_symmetry_space_group_name_H-M   'P 1'
_cell_length_a   12.78364100
_cell_length_b   12.78364137
_cell_length_c   3.89558700
_cell_angle_alpha   90.00000000
_cell_angle_beta   90.00000000
_cell_angle_gamma   120.00000162
_symmetry_Int_Tables_number   1
_chemical_formula_structural   Sc2P3Ir4
_chemical_formula_sum   'Sc8 P12 Ir16'
_cell_volume   551.33133581
_cell_formula_units_Z   4
loop_
 _symmetry_equiv_pos_site_id
 _symmetry_equiv_pos_as_xyz
  1  'x, y, z'
loop_
 _atom_site_type_symbol
 _atom_site_label
 _atom_site_symmetry_multiplicity
 _atom_site_fract_x
 _atom_site_fract_y
 _atom_site_fract_z
 _atom_site_occupancy
  Sc  Sc0  1  0.443155  0.000000  0.000000  1
  Sc  Sc1  1  0.000000  0.443155  0.000000  1
  Sc  Sc2  1  0.556845  0.556845  0.000000  1
  Sc  Sc3  1  0.333333  0.666667  0.000000  1
  Sc  Sc4  1  0.666667  0.333333  0.000000  1
  Sc  Sc5  1  0.809508  0.000000  0.500000  1
  Sc  Sc6  1  0.000000  0.809508  0.500000  1
  Sc  Sc7  1  0.190492  0.190492  0.500000  1
  P  P8  1  0.173774  0.000000  0.000000  1
  P  P9  1  0.000000  0.173774  0.000000  1
  P  P10  1  0.826226  0.826226  0.000000  1
  P  P11  1  0.172318  0.483624  0.500000  1
  P  P12  1  0.516376  0.688694  0.500000  1
  P  P13  1  0.311306  0.827682  0.500000  1
  P  P14  1  0.688694  0.516376  0.500000  1
  P  P15  1  0.827682  0.311306  0.500000  1
  P  P16  1  0.483624  0.172318  0.500000  1
  P  P17  1  0.646081  0.000000  0.000000  1
  P  P18  1  0.000000  0.646081  0.000000  1
  P  P19  1  0.353919  0.353919  0.000000  1
  Ir  Ir20  1  0.359906  0.493014  0.500000  1
  Ir  Ir21  1  0.506986  0.866893  0.500000  1
  Ir  Ir22  1  0.133107  0.640094  0.500000  1
  Ir  Ir23  1  0.866893  0.506986  0.500000  1
  Ir  Ir24  1  0.640094  0.133107  0.500000  1
  Ir  Ir25  1  0.493014  0.359906  0.500000  1
  Ir  Ir26  1  0.179919  0.369206  0.000000  1
  Ir  Ir27  1  0.630794  0.810714  0.000000  1
  Ir  Ir28  1  0.189286  0.820081  0.000000  1
  Ir  Ir29  1  0.810714  0.630794  0.000000  1
  Ir  Ir30  1  0.820081  0.189286  0.000000  1
  Ir  Ir31  1  0.369206  0.179919  0.000000  1
  Ir  Ir32  1  0.273959  0.000000  0.500000  1
  Ir  Ir33  1  0.000000  0.273959  0.500000  1
  Ir  Ir34  1  0.726041  0.726041  0.500000  1
  Ir  Ir35  1  0.000000  0.000000  0.000000  1
