# generated using pymatgen
data_K6MoRhF12
_symmetry_space_group_name_H-M   'P 1'
_cell_length_a   6.43442977
_cell_length_b   6.16643969
_cell_length_c   10.81081200
_cell_angle_alpha   54.95720916
_cell_angle_beta   89.75512380
_cell_angle_gamma   90.04080200
_symmetry_Int_Tables_number   1
_chemical_formula_structural   K6MoRhF12
_chemical_formula_sum   'K6 Mo1 Rh1 F12'
_cell_volume   351.18251251
_cell_formula_units_Z   1
loop_
 _symmetry_equiv_pos_site_id
 _symmetry_equiv_pos_as_xyz
  1  'x, y, z'
loop_
 _atom_site_type_symbol
 _atom_site_label
 _atom_site_symmetry_multiplicity
 _atom_site_fract_x
 _atom_site_fract_y
 _atom_site_fract_z
 _atom_site_occupancy
  K  K0  1  0.500000  0.500000  0.500000  1
  K  K1  1  0.948697  0.724779  0.258102  1
  K  K2  1  0.445769  0.262964  0.251242  1
  K  K3  1  0.000000  0.500000  0.000000  1
  K  K4  1  0.554231  0.737036  0.748758  1
  K  K5  1  0.051303  0.275221  0.741898  1
  Mo  Mo6  1  0.500000  0.000000  0.000000  1
  Rh  Rh7  1  0.000000  0.000000  0.500000  1
  F  F8  1  0.450057  0.118501  0.777319  1
  F  F9  1  0.231256  0.762046  0.067980  1
  F  F10  1  0.175905  0.308220  0.456428  1
  F  F11  1  0.677188  0.676166  0.046433  1
  F  F12  1  0.742254  0.228534  0.437444  1
  F  F13  1  0.953529  0.886876  0.714370  1
  F  F14  1  0.046471  0.113124  0.285630  1
  F  F15  1  0.257746  0.771466  0.562556  1
  F  F16  1  0.322812  0.323834  0.953567  1
  F  F17  1  0.824095  0.691780  0.543572  1
  F  F18  1  0.768744  0.237954  0.932020  1
  F  F19  1  0.549943  0.881499  0.222681  1
