# generated using pymatgen
data_HfSc5(GaPd)6
_symmetry_space_group_name_H-M   'P 1'
_cell_length_a   7.30484505
_cell_length_b   7.30071331
_cell_length_c   6.84880800
_cell_angle_alpha   90.00000000
_cell_angle_beta   90.00000000
_cell_angle_gamma   120.00558442
_symmetry_Int_Tables_number   1
_chemical_formula_structural   HfSc5(GaPd)6
_chemical_formula_sum   'Hf1 Sc5 Ga6 Pd6'
_cell_volume   316.29875623
_cell_formula_units_Z   1
loop_
 _symmetry_equiv_pos_site_id
 _symmetry_equiv_pos_as_xyz
  1  'x, y, z'
loop_
 _atom_site_type_symbol
 _atom_site_label
 _atom_site_symmetry_multiplicity
 _atom_site_fract_x
 _atom_site_fract_y
 _atom_site_fract_z
 _atom_site_occupancy
  Hf  Hf0  1  0.985562  0.395451  0.250000  1
  Sc  Sc1  1  0.607076  0.593364  0.250000  1
  Sc  Sc2  1  0.013795  0.406146  0.750000  1
  Sc  Sc3  1  0.407044  0.013639  0.250000  1
  Sc  Sc4  1  0.393817  0.986370  0.750000  1
  Sc  Sc5  1  0.592635  0.606169  0.750000  1
  Ga  Ga6  1  0.272351  0.271858  0.500879  1
  Ga  Ga7  1  0.727447  0.999064  0.500369  1
  Ga  Ga8  1  0.000646  0.729521  0.499220  1
  Ga  Ga9  1  0.727447  0.999064  0.999631  1
  Ga  Ga10  1  0.272351  0.271858  0.999121  1
  Ga  Ga11  1  0.000646  0.729521  0.000780  1
  Pd  Pd12  1  0.331220  0.664674  0.480944  1
  Pd  Pd13  1  0.999616  0.998124  0.750000  1
  Pd  Pd14  1  0.000110  0.003992  0.250000  1
  Pd  Pd15  1  0.331220  0.664674  0.019056  1
  Pd  Pd16  1  0.668508  0.333255  0.515265  1
  Pd  Pd17  1  0.668508  0.333255  0.984735  1
