# generated using pymatgen
data_SmZr8(In2Co)7
_symmetry_space_group_name_H-M   'P 1'
_cell_length_a   9.49829270
_cell_length_b   9.49822063
_cell_length_c   9.49859760
_cell_angle_alpha   59.96476973
_cell_angle_beta   59.96615558
_cell_angle_gamma   59.96754947
_symmetry_Int_Tables_number   1
_chemical_formula_structural   SmZr8(In2Co)7
_chemical_formula_sum   'Sm1 Zr8 In14 Co7'
_cell_volume   605.47870089
_cell_formula_units_Z   1
loop_
 _symmetry_equiv_pos_site_id
 _symmetry_equiv_pos_as_xyz
  1  'x, y, z'
loop_
 _atom_site_type_symbol
 _atom_site_label
 _atom_site_symmetry_multiplicity
 _atom_site_fract_x
 _atom_site_fract_y
 _atom_site_fract_z
 _atom_site_occupancy
  Sm  Sm0  1  0.500000  0.500000  0.500000  1
  Zr  Zr1  1  0.120559  0.637864  0.120762  1
  Zr  Zr2  1  0.362137  0.879440  0.879216  1
  Zr  Zr3  1  0.879267  0.879248  0.879463  1
  Zr  Zr4  1  0.637863  0.120560  0.120784  1
  Zr  Zr5  1  0.879203  0.879223  0.362142  1
  Zr  Zr6  1  0.120733  0.120752  0.120537  1
  Zr  Zr7  1  0.879441  0.362136  0.879238  1
  Zr  Zr8  1  0.120797  0.120777  0.637858  1
  In  In9  1  0.500185  0.845808  0.154176  1
  In  In10  1  0.500334  0.845417  0.500048  1
  In  In11  1  0.499666  0.154583  0.499952  1
  In  In12  1  0.500155  0.500244  0.845407  1
  In  In13  1  0.154584  0.499645  0.499972  1
  In  In14  1  0.845816  0.154194  0.499993  1
  In  In15  1  0.154184  0.845806  0.500007  1
  In  In16  1  0.499815  0.154192  0.845824  1
  In  In17  1  0.154178  0.499820  0.845827  1
  In  In18  1  0.499845  0.499756  0.154593  1
  In  In19  1  0.845416  0.500355  0.500028  1
  In  In20  1  0.845822  0.500180  0.154173  1
  In  In21  1  0.250121  0.250119  0.250134  1
  In  In22  1  0.749879  0.749881  0.749866  1
  Co  Co23  1  0.779734  0.779733  0.220002  1
  Co  Co24  1  0.000000  0.000000  0.000000  1
  Co  Co25  1  0.219814  0.780487  0.219814  1
  Co  Co26  1  0.219568  0.780135  0.780137  1
  Co  Co27  1  0.220266  0.220267  0.779998  1
  Co  Co28  1  0.780186  0.219513  0.780186  1
  Co  Co29  1  0.780432  0.219865  0.219863  1
