# generated using pymatgen
data_SrHoTh2(AsPt)4
_symmetry_space_group_name_H-M   'P 1'
_cell_length_a   4.34411500
_cell_length_b   4.34411530
_cell_length_c   16.21156700
_cell_angle_alpha   90.00000000
_cell_angle_beta   90.00000000
_cell_angle_gamma   120.00000536
_symmetry_Int_Tables_number   1
_chemical_formula_structural   SrHoTh2(AsPt)4
_chemical_formula_sum   'Sr1 Ho1 Th2 As4 Pt4'
_cell_volume   264.94654504
_cell_formula_units_Z   1
loop_
 _symmetry_equiv_pos_site_id
 _symmetry_equiv_pos_as_xyz
  1  'x, y, z'
loop_
 _atom_site_type_symbol
 _atom_site_label
 _atom_site_symmetry_multiplicity
 _atom_site_fract_x
 _atom_site_fract_y
 _atom_site_fract_z
 _atom_site_occupancy
  Sr  Sr0  1  0.000000  0.000000  0.250000  1
  Ho  Ho1  1  0.000000  0.000000  0.750000  1
  Th  Th2  1  0.000000  0.000000  0.508995  1
  Th  Th3  1  0.000000  0.000000  0.991005  1
  As  As4  1  0.333333  0.666667  0.877516  1
  As  As5  1  0.666667  0.333333  0.117171  1
  As  As6  1  0.666667  0.333333  0.382829  1
  As  As7  1  0.333333  0.666667  0.622484  1
  Pt  Pt8  1  0.333333  0.666667  0.398134  1
  Pt  Pt9  1  0.666667  0.333333  0.649440  1
  Pt  Pt10  1  0.666667  0.333333  0.850560  1
  Pt  Pt11  1  0.333333  0.666667  0.101866  1
