# generated using pymatgen
data_Ho6Er4Si5Ge
_symmetry_space_group_name_H-M   'P 1'
_cell_length_a   8.40183700
_cell_length_b   8.40332908
_cell_length_c   6.30778600
_cell_angle_alpha   90.00000000
_cell_angle_beta   90.00000000
_cell_angle_gamma   119.99411479
_symmetry_Int_Tables_number   1
_chemical_formula_structural   Ho6Er4Si5Ge
_chemical_formula_sum   'Ho6 Er4 Si5 Ge1'
_cell_volume   385.70827600
_cell_formula_units_Z   1
loop_
 _symmetry_equiv_pos_site_id
 _symmetry_equiv_pos_as_xyz
  1  'x, y, z'
loop_
 _atom_site_type_symbol
 _atom_site_label
 _atom_site_symmetry_multiplicity
 _atom_site_fract_x
 _atom_site_fract_y
 _atom_site_fract_z
 _atom_site_occupancy
  Ho  Ho0  1  0.998812  0.756228  0.750000  1
  Ho  Ho1  1  0.999926  0.242844  0.250000  1
  Ho  Ho2  1  0.757084  0.757156  0.250000  1
  Ho  Ho3  1  0.758019  0.000000  0.750000  1
  Ho  Ho4  1  0.242583  0.243772  0.750000  1
  Ho  Ho5  1  0.242525  0.000000  0.250000  1
  Er  Er6  1  0.333171  0.665711  0.499320  1
  Er  Er7  1  0.667460  0.334289  0.000680  1
  Er  Er8  1  0.667460  0.334289  0.499320  1
  Er  Er9  1  0.333171  0.665711  0.000680  1
  Si  Si10  1  0.394492  0.394427  0.250000  1
  Si  Si11  1  0.000065  0.605573  0.250000  1
  Si  Si12  1  0.999953  0.394496  0.750000  1
  Si  Si13  1  0.605458  0.605504  0.750000  1
  Si  Si14  1  0.605664  0.000000  0.250000  1
  Ge  Ge15  1  0.394160  0.000000  0.750000  1
