# generated using pymatgen
data_Rb4InGa3I16
_symmetry_space_group_name_H-M   'P 1'
_cell_length_a   8.45792140
_cell_length_b   8.90381712
_cell_length_c   17.07366765
_cell_angle_alpha   85.36658542
_cell_angle_beta   90.20507265
_cell_angle_gamma   89.92969415
_symmetry_Int_Tables_number   1
_chemical_formula_structural   Rb4InGa3I16
_chemical_formula_sum   'Rb4 In1 Ga3 I16'
_cell_volume   1281.56839720
_cell_formula_units_Z   1
loop_
 _symmetry_equiv_pos_site_id
 _symmetry_equiv_pos_as_xyz
  1  'x, y, z'
loop_
 _atom_site_type_symbol
 _atom_site_label
 _atom_site_symmetry_multiplicity
 _atom_site_fract_x
 _atom_site_fract_y
 _atom_site_fract_z
 _atom_site_occupancy
  Rb  Rb0  1  0.501920  0.256643  0.639185  1
  Rb  Rb1  1  0.000779  0.743193  0.860155  1
  Rb  Rb2  1  0.498946  0.743121  0.359650  1
  Rb  Rb3  1  0.997750  0.257454  0.141070  1
  In  In4  1  0.142146  0.243844  0.861650  1
  Ga  Ga5  1  0.357831  0.245962  0.360725  1
  Ga  Ga6  1  0.858060  0.754358  0.138980  1
  Ga  Ga7  1  0.642352  0.753968  0.639156  1
  I  I8  1  0.849882  0.137397  0.910703  1
  I  I9  1  0.369034  0.854918  0.591343  1
  I  I10  1  0.131162  0.856157  0.092558  1
  I  I11  1  0.631818  0.145046  0.407852  1
  I  I12  1  0.391189  0.407302  0.228296  1
  I  I13  1  0.891500  0.592998  0.271726  1
  I  I14  1  0.609572  0.592622  0.771779  1
  I  I15  1  0.108295  0.418145  0.720887  1
  I  I16  1  0.660677  0.970925  0.158944  1
  I  I17  1  0.161006  0.028927  0.341233  1
  I  I18  1  0.351678  0.013364  0.839509  1
  I  I19  1  0.839522  0.970925  0.658525  1
  I  I20  1  0.243773  0.415877  0.463688  1
  I  I21  1  0.743641  0.584305  0.035899  1
  I  I22  1  0.756158  0.584474  0.535867  1
  I  I23  1  0.261311  0.428074  0.970619  1
