# generated using pymatgen
data_Y3Lu2Sn2Bi
_symmetry_space_group_name_H-M   'P 1'
_cell_length_a   8.96814171
_cell_length_b   8.96197747
_cell_length_c   6.46680300
_cell_angle_alpha   90.00000000
_cell_angle_beta   90.00000000
_cell_angle_gamma   119.97725780
_symmetry_Int_Tables_number   1
_chemical_formula_structural   Y3Lu2Sn2Bi
_chemical_formula_sum   'Y6 Lu4 Sn4 Bi2'
_cell_volume   450.22131499
_cell_formula_units_Z   2
loop_
 _symmetry_equiv_pos_site_id
 _symmetry_equiv_pos_as_xyz
  1  'x, y, z'
loop_
 _atom_site_type_symbol
 _atom_site_label
 _atom_site_symmetry_multiplicity
 _atom_site_fract_x
 _atom_site_fract_y
 _atom_site_fract_z
 _atom_site_occupancy
  Y  Y0  1  0.764398  0.758436  0.750000  1
  Y  Y1  1  0.235602  0.994038  0.750000  1
  Y  Y2  1  0.000000  0.243283  0.750000  1
  Y  Y3  1  0.240351  0.240519  0.250000  1
  Y  Y4  1  0.759649  0.000169  0.250000  1
  Y  Y5  1  0.000000  0.758727  0.250000  1
  Lu  Lu6  1  0.671906  0.337531  0.003885  1
  Lu  Lu7  1  0.328094  0.665626  0.003885  1
  Lu  Lu8  1  0.328094  0.665626  0.496115  1
  Lu  Lu9  1  0.671906  0.337531  0.496115  1
  Sn  Sn10  1  0.000000  0.602157  0.750000  1
  Sn  Sn11  1  0.604144  0.605495  0.250000  1
  Sn  Sn12  1  0.395856  0.001350  0.250000  1
  Sn  Sn13  1  0.000000  0.395758  0.250000  1
  Bi  Bi14  1  0.395045  0.394399  0.750000  1
  Bi  Bi15  1  0.604955  0.999354  0.750000  1
