# generated using pymatgen
data_Tb3Pa3Co17P12W
_symmetry_space_group_name_H-M   'P 1'
_cell_length_a   3.73238200
_cell_length_b   10.50498884
_cell_length_c   12.22654835
_cell_angle_alpha   90.02296814
_cell_angle_beta   90.00000000
_cell_angle_gamma   90.00000000
_symmetry_Int_Tables_number   1
_chemical_formula_structural   Tb3Pa3Co17P12W
_chemical_formula_sum   'Tb3 Pa3 Co17 P12 W1'
_cell_volume   479.38618764
_cell_formula_units_Z   1
loop_
 _symmetry_equiv_pos_site_id
 _symmetry_equiv_pos_as_xyz
  1  'x, y, z'
loop_
 _atom_site_type_symbol
 _atom_site_label
 _atom_site_symmetry_multiplicity
 _atom_site_fract_x
 _atom_site_fract_y
 _atom_site_fract_z
 _atom_site_occupancy
  Tb  Tb0  1  0.500000  0.186209  0.204366  1
  Tb  Tb1  1  0.000000  0.683852  0.793386  1
  Tb  Tb2  1  0.000000  0.316759  0.792399  1
  Pa  Pa3  1  0.000000  0.499296  0.528265  1
  Pa  Pa4  1  0.500000  0.000218  0.471995  1
  Pa  Pa5  1  0.500000  0.818046  0.206721  1
  Co  Co6  1  0.500000  0.500237  0.161797  1
  Co  Co7  1  0.500000  0.499386  0.695028  1
  Co  Co8  1  0.000000  0.993972  0.301035  1
  Co  Co9  1  0.000000  0.499966  0.980945  1
  Co  Co10  1  0.500000  0.999787  0.014816  1
  Co  Co11  1  0.500000  0.336455  0.993085  1
  Co  Co12  1  0.500000  0.665473  0.994799  1
  Co  Co13  1  0.000000  0.169589  0.009672  1
  Co  Co14  1  0.000000  0.832703  0.012543  1
  Co  Co15  1  0.500000  0.299742  0.432022  1
  Co  Co16  1  0.500000  0.697226  0.430260  1
  Co  Co17  1  0.000000  0.198109  0.566293  1
  Co  Co18  1  0.000000  0.800902  0.569336  1
  Co  Co19  1  0.500000  0.880211  0.709725  1
  Co  Co20  1  0.500000  0.120122  0.709413  1
  Co  Co21  1  0.000000  0.622081  0.287463  1
  Co  Co22  1  0.000000  0.381125  0.290171  1
  P  P23  1  0.500000  0.500362  0.877650  1
  P  P24  1  0.000000  0.003519  0.120238  1
  P  P25  1  0.500000  0.498543  0.344396  1
  P  P26  1  0.000000  0.999459  0.652525  1
  P  P27  1  0.500000  0.306602  0.615571  1
  P  P28  1  0.500000  0.692372  0.616161  1
  P  P29  1  0.000000  0.190917  0.381529  1
  P  P30  1  0.000000  0.805647  0.387455  1
  P  P31  1  0.500000  0.843047  0.895320  1
  P  P32  1  0.500000  0.158430  0.895606  1
  P  P33  1  0.000000  0.647051  0.105114  1
  P  P34  1  0.000000  0.352479  0.106907  1
  W  W35  1  0.000000  0.000103  0.845992  1
