# generated using pymatgen
data_V7Si2B4W3
_symmetry_space_group_name_H-M   'P 1'
_cell_length_a   6.83239782
_cell_length_b   6.85609510
_cell_length_c   6.83414760
_cell_angle_alpha   129.27552896
_cell_angle_beta   129.18101135
_cell_angle_gamma   74.75443876
_symmetry_Int_Tables_number   1
_chemical_formula_structural   V7Si2B4W3
_chemical_formula_sum   'V7 Si2 B4 W3'
_cell_volume   187.02631393
_cell_formula_units_Z   1
loop_
 _symmetry_equiv_pos_site_id
 _symmetry_equiv_pos_as_xyz
  1  'x, y, z'
loop_
 _atom_site_type_symbol
 _atom_site_label
 _atom_site_symmetry_multiplicity
 _atom_site_fract_x
 _atom_site_fract_y
 _atom_site_fract_z
 _atom_site_occupancy
  V  V0  1  0.972383  0.469961  0.166688  1
  V  V1  1  0.192920  0.033253  0.500000  1
  V  V2  1  0.471113  0.305143  0.500000  1
  V  V3  1  0.804050  0.971566  0.500000  1
  V  V4  1  0.305695  0.803273  0.833312  1
  V  V5  1  0.003869  0.003287  0.002895  1
  V  V6  1  0.500974  0.500392  0.997105  1
  Si  Si7  1  0.241818  0.238390  0.992021  1
  Si  Si8  1  0.749798  0.746370  0.007979  1
  B  B9  1  0.616133  0.119707  0.731613  1
  B  B10  1  0.122717  0.383259  0.500000  1
  B  B11  1  0.884456  0.623343  0.500000  1
  B  B12  1  0.384520  0.888093  0.268387  1
  W  W13  1  0.527136  0.692366  0.500000  1
  W  W14  1  0.030429  0.530019  0.838440  1
  W  W15  1  0.691989  0.191579  0.161560  1
