# generated using pymatgen
data_Zr8Nb12Si15Pt
_symmetry_space_group_name_H-M   'P 1'
_cell_length_a   6.93801161
_cell_length_b   6.91849921
_cell_length_c   12.79219978
_cell_angle_alpha   89.86454143
_cell_angle_beta   89.79362571
_cell_angle_gamma   90.03844100
_symmetry_Int_Tables_number   1
_chemical_formula_structural   Zr8Nb12Si15Pt
_chemical_formula_sum   'Zr8 Nb12 Si15 Pt1'
_cell_volume   614.02778066
_cell_formula_units_Z   1
loop_
 _symmetry_equiv_pos_site_id
 _symmetry_equiv_pos_as_xyz
  1  'x, y, z'
loop_
 _atom_site_type_symbol
 _atom_site_label
 _atom_site_symmetry_multiplicity
 _atom_site_fract_x
 _atom_site_fract_y
 _atom_site_fract_z
 _atom_site_occupancy
  Zr  Zr0  1  0.000743  0.658977  0.031431  1
  Zr  Zr1  1  0.995798  0.333078  0.532332  1
  Zr  Zr2  1  0.658884  0.000085  0.969218  1
  Zr  Zr3  1  0.157388  0.499020  0.783229  1
  Zr  Zr4  1  0.837726  0.496922  0.278923  1
  Zr  Zr5  1  0.499129  0.156237  0.215978  1
  Zr  Zr6  1  0.499388  0.842992  0.717913  1
  Zr  Zr7  1  0.349079  0.004170  0.468375  1
  Nb  Nb8  1  0.356262  0.500513  0.373158  1
  Nb  Nb9  1  0.840948  0.001130  0.370348  1
  Nb  Nb10  1  0.004381  0.153087  0.126024  1
  Nb  Nb11  1  0.994727  0.850399  0.631743  1
  Nb  Nb12  1  0.651674  0.494961  0.876521  1
  Nb  Nb13  1  0.503164  0.349596  0.623855  1
  Nb  Nb14  1  0.496069  0.652422  0.122556  1
  Nb  Nb15  1  0.151602  0.004660  0.873795  1
  Nb  Nb16  1  0.666097  0.672356  0.501956  1
  Nb  Nb17  1  0.829267  0.169886  0.750394  1
  Nb  Nb18  1  0.171300  0.831166  0.248865  1
  Nb  Nb19  1  0.328652  0.329994  0.000221  1
  Si  Si20  1  0.954266  0.297553  0.936829  1
  Si  Si21  1  0.705280  0.045262  0.562873  1
  Si  Si22  1  0.201620  0.454728  0.187450  1
  Si  Si23  1  0.798197  0.545456  0.686335  1
  Si  Si24  1  0.454765  0.202611  0.813393  1
  Si  Si25  1  0.545618  0.796571  0.313178  1
  Si  Si26  1  0.297466  0.954679  0.062894  1
  Si  Si27  1  0.863036  0.792020  0.823907  1
  Si  Si28  1  0.136474  0.206460  0.323806  1
  Si  Si29  1  0.792276  0.864007  0.176862  1
  Si  Si30  1  0.292430  0.638019  0.571574  1
  Si  Si31  1  0.707874  0.365045  0.072367  1
  Si  Si32  1  0.637341  0.293402  0.428461  1
  Si  Si33  1  0.364468  0.708152  0.926877  1
  Si  Si34  1  0.209432  0.135971  0.677573  1
  Pt  Pt35  1  0.047177  0.698415  0.438783  1
