# generated using pymatgen
data_Pt2Pb(SO4)4
_symmetry_space_group_name_H-M   'P 1'
_cell_length_a   6.69815893
_cell_length_b   6.69815848
_cell_length_c   9.14962900
_cell_angle_alpha   72.47723597
_cell_angle_beta   72.47723717
_cell_angle_gamma   85.40320540
_symmetry_Int_Tables_number   1
_chemical_formula_structural   Pt2Pb(SO4)4
_chemical_formula_sum   'Pt2 Pb1 S4 O16'
_cell_volume   373.26345474
_cell_formula_units_Z   1
loop_
 _symmetry_equiv_pos_site_id
 _symmetry_equiv_pos_as_xyz
  1  'x, y, z'
loop_
 _atom_site_type_symbol
 _atom_site_label
 _atom_site_symmetry_multiplicity
 _atom_site_fract_x
 _atom_site_fract_y
 _atom_site_fract_z
 _atom_site_occupancy
  Pt  Pt0  1  0.000000  0.000000  0.500000  1
  Pt  Pt1  1  0.500000  0.500000  0.500000  1
  Pb  Pb2  1  0.000000  0.000000  0.000000  1
  S  S3  1  0.089764  0.592937  0.737607  1
  S  S4  1  0.592937  0.089764  0.737607  1
  S  S5  1  0.910236  0.407063  0.262393  1
  S  S6  1  0.407063  0.910236  0.262393  1
  O  O7  1  0.329253  0.633374  0.661685  1
  O  O8  1  0.633374  0.329253  0.661685  1
  O  O9  1  0.670747  0.366626  0.338315  1
  O  O10  1  0.366626  0.670747  0.338315  1
  O  O11  1  0.024665  0.702890  0.857734  1
  O  O12  1  0.702890  0.024665  0.857734  1
  O  O13  1  0.975335  0.297110  0.142266  1
  O  O14  1  0.297110  0.975335  0.142266  1
  O  O15  1  0.997902  0.692616  0.594994  1
  O  O16  1  0.692616  0.997902  0.594994  1
  O  O17  1  0.002098  0.307384  0.405006  1
  O  O18  1  0.307384  0.002098  0.405006  1
  O  O19  1  0.037680  0.372315  0.788131  1
  O  O20  1  0.372315  0.037680  0.788131  1
  O  O21  1  0.962320  0.627685  0.211869  1
  O  O22  1  0.627685  0.962320  0.211869  1
