# generated using pymatgen
data_Lu3Zr2GaSb2
_symmetry_space_group_name_H-M   'P 1'
_cell_length_a   8.57182484
_cell_length_b   8.57182449
_cell_length_c   5.95701700
_cell_angle_alpha   90.00000000
_cell_angle_beta   90.00000000
_cell_angle_gamma   119.50969330
_symmetry_Int_Tables_number   1
_chemical_formula_structural   Lu3Zr2GaSb2
_chemical_formula_sum   'Lu6 Zr4 Ga2 Sb4'
_cell_volume   380.91721070
_cell_formula_units_Z   2
loop_
 _symmetry_equiv_pos_site_id
 _symmetry_equiv_pos_as_xyz
  1  'x, y, z'
loop_
 _atom_site_type_symbol
 _atom_site_label
 _atom_site_symmetry_multiplicity
 _atom_site_fract_x
 _atom_site_fract_y
 _atom_site_fract_z
 _atom_site_occupancy
  Lu  Lu0  1  0.757473  0.757473  0.750000  1
  Lu  Lu1  1  0.239901  0.998174  0.750000  1
  Lu  Lu2  1  0.998174  0.239901  0.750000  1
  Lu  Lu3  1  0.238680  0.238680  0.250000  1
  Lu  Lu4  1  0.761726  0.012621  0.250000  1
  Lu  Lu5  1  0.012621  0.761726  0.250000  1
  Zr  Zr6  1  0.667493  0.326568  0.005706  1
  Zr  Zr7  1  0.326568  0.667493  0.005706  1
  Zr  Zr8  1  0.326568  0.667493  0.494294  1
  Zr  Zr9  1  0.667493  0.326568  0.494294  1
  Ga  Ga10  1  0.399666  0.002266  0.250000  1
  Ga  Ga11  1  0.002266  0.399666  0.250000  1
  Sb  Sb12  1  0.396478  0.396478  0.750000  1
  Sb  Sb13  1  0.599253  0.995731  0.750000  1
  Sb  Sb14  1  0.995731  0.599253  0.750000  1
  Sb  Sb15  1  0.609911  0.609911  0.250000  1
