# generated using pymatgen
data_Zr10Sn2Bi4As
_symmetry_space_group_name_H-M   'P 1'
_cell_length_a   5.91787820
_cell_length_b   8.73739230
_cell_length_c   8.72409547
_cell_angle_alpha   120.05043901
_cell_angle_beta   89.98536028
_cell_angle_gamma   90.02923249
_symmetry_Int_Tables_number   1
_chemical_formula_structural   Zr10Sn2Bi4As
_chemical_formula_sum   'Zr10 Sn2 Bi4 As1'
_cell_volume   390.46119987
_cell_formula_units_Z   1
loop_
 _symmetry_equiv_pos_site_id
 _symmetry_equiv_pos_as_xyz
  1  'x, y, z'
loop_
 _atom_site_type_symbol
 _atom_site_label
 _atom_site_symmetry_multiplicity
 _atom_site_fract_x
 _atom_site_fract_y
 _atom_site_fract_z
 _atom_site_occupancy
  Zr  Zr0  1  0.497085  0.333090  0.663827  1
  Zr  Zr1  1  0.497085  0.669263  0.336173  1
  Zr  Zr2  1  0.003377  0.668935  0.335981  1
  Zr  Zr3  1  0.003377  0.332954  0.664019  1
  Zr  Zr4  1  0.762671  0.253270  0.000000  1
  Zr  Zr5  1  0.763787  0.746487  0.745545  1
  Zr  Zr6  1  0.763787  0.000942  0.254455  1
  Zr  Zr7  1  0.236725  0.747680  0.000000  1
  Zr  Zr8  1  0.237337  0.252788  0.258845  1
  Zr  Zr9  1  0.237337  0.993944  0.741155  1
  Sn  Sn10  1  0.250759  0.609558  0.610201  1
  Sn  Sn11  1  0.250759  0.999358  0.389799  1
  Bi  Bi12  1  0.748418  0.609565  0.000000  1
  Bi  Bi13  1  0.748412  0.392953  0.392266  1
  Bi  Bi14  1  0.748412  0.000688  0.607734  1
  Bi  Bi15  1  0.251196  0.388097  0.000000  1
  As  As16  1  0.499482  0.000429  0.000000  1
