# generated using pymatgen
data_DySc3Ga2(B2Ru5)2
_symmetry_space_group_name_H-M   'P 1'
_cell_length_a   9.43528793
_cell_length_b   9.43528793
_cell_length_c   3.05962500
_cell_angle_alpha   90.00000000
_cell_angle_beta   90.00000000
_cell_angle_gamma   89.25215426
_symmetry_Int_Tables_number   1
_chemical_formula_structural   DySc3Ga2(B2Ru5)2
_chemical_formula_sum   'Dy1 Sc3 Ga2 B4 Ru10'
_cell_volume   272.35886838
_cell_formula_units_Z   1
loop_
 _symmetry_equiv_pos_site_id
 _symmetry_equiv_pos_as_xyz
  1  'x, y, z'
loop_
 _atom_site_type_symbol
 _atom_site_label
 _atom_site_symmetry_multiplicity
 _atom_site_fract_x
 _atom_site_fract_y
 _atom_site_fract_z
 _atom_site_occupancy
  Dy  Dy0  1  0.675681  0.175681  0.000000  1
  Sc  Sc1  1  0.324296  0.824296  0.000000  1
  Sc  Sc2  1  0.173773  0.326383  0.000000  1
  Sc  Sc3  1  0.826383  0.673773  0.000000  1
  Ga  Ga4  1  0.996686  0.000760  0.000000  1
  Ga  Ga5  1  0.500760  0.496686  0.000000  1
  B  B6  1  0.126141  0.626141  0.000000  1
  B  B7  1  0.880636  0.380636  0.000000  1
  B  B8  1  0.622818  0.871894  0.000000  1
  B  B9  1  0.371894  0.122818  0.000000  1
  Ru  Ru10  1  0.212946  0.070449  0.500000  1
  Ru  Ru11  1  0.783908  0.920770  0.500000  1
  Ru  Ru12  1  0.071421  0.786090  0.500000  1
  Ru  Ru13  1  0.720327  0.437205  0.500000  1
  Ru  Ru14  1  0.937205  0.220327  0.500000  1
  Ru  Ru15  1  0.286090  0.571421  0.500000  1
  Ru  Ru16  1  0.570449  0.712946  0.500000  1
  Ru  Ru17  1  0.420770  0.283908  0.500000  1
  Ru  Ru18  1  0.494634  0.994634  0.500000  1
  Ru  Ru19  1  0.003181  0.503181  0.500000  1
