# generated using pymatgen
data_CaYb7(Sc3Sn4)4
_symmetry_space_group_name_H-M   'P 1'
_cell_length_a   7.64001165
_cell_length_b   8.06894206
_cell_length_c   15.07720500
_cell_angle_alpha   89.96376472
_cell_angle_beta   89.93030022
_cell_angle_gamma   90.22537768
_symmetry_Int_Tables_number   1
_chemical_formula_structural   CaYb7(Sc3Sn4)4
_chemical_formula_sum   'Ca1 Yb7 Sc12 Sn16'
_cell_volume   929.45354576
_cell_formula_units_Z   1
loop_
 _symmetry_equiv_pos_site_id
 _symmetry_equiv_pos_as_xyz
  1  'x, y, z'
loop_
 _atom_site_type_symbol
 _atom_site_label
 _atom_site_symmetry_multiplicity
 _atom_site_fract_x
 _atom_site_fract_y
 _atom_site_fract_z
 _atom_site_occupancy
  Ca  Ca0  1  0.503686  0.679315  0.592318  1
  Yb  Yb1  1  0.996491  0.179117  0.091381  1
  Yb  Yb2  1  0.003635  0.821423  0.907750  1
  Yb  Yb3  1  0.504574  0.678386  0.908152  1
  Yb  Yb4  1  0.004456  0.821492  0.591800  1
  Yb  Yb5  1  0.496313  0.320838  0.091367  1
  Yb  Yb6  1  0.996600  0.179598  0.409252  1
  Yb  Yb7  1  0.496382  0.320403  0.408880  1
  Sc  Sc8  1  0.161908  0.500804  0.750201  1
  Sc  Sc9  1  0.837270  0.498790  0.250157  1
  Sc  Sc10  1  0.338309  0.000915  0.249991  1
  Sc  Sc11  1  0.662078  0.999571  0.749951  1
  Sc  Sc12  1  0.328609  0.158275  0.625717  1
  Sc  Sc13  1  0.670612  0.841510  0.374289  1
  Sc  Sc14  1  0.170976  0.658168  0.374810  1
  Sc  Sc15  1  0.671512  0.841710  0.125365  1
  Sc  Sc16  1  0.829172  0.341303  0.625585  1
  Sc  Sc17  1  0.328035  0.158554  0.873643  1
  Sc  Sc18  1  0.828773  0.340991  0.873704  1
  Sc  Sc19  1  0.170805  0.658682  0.125414  1
  Sn  Sn20  1  0.023499  0.128546  0.749369  1
  Sn  Sn21  1  0.976364  0.870981  0.250317  1
  Sn  Sn22  1  0.475627  0.627901  0.249676  1
  Sn  Sn23  1  0.523698  0.372469  0.749689  1
  Sn  Sn24  1  0.300708  0.855118  0.750530  1
  Sn  Sn25  1  0.700650  0.144311  0.250213  1
  Sn  Sn26  1  0.199843  0.356097  0.250425  1
  Sn  Sn27  1  0.800948  0.644039  0.749567  1
  Sn  Sn28  1  0.171541  0.458814  0.544348  1
  Sn  Sn29  1  0.827191  0.542834  0.456829  1
  Sn  Sn30  1  0.328355  0.958010  0.456530  1
  Sn  Sn31  1  0.828496  0.541891  0.043563  1
  Sn  Sn32  1  0.672146  0.040666  0.544337  1
  Sn  Sn33  1  0.171462  0.458533  0.955784  1
  Sn  Sn34  1  0.671037  0.041272  0.955503  1
  Sn  Sn35  1  0.328234  0.958674  0.043591  1
