# generated using pymatgen
data_LuScFe2Co10P7
_symmetry_space_group_name_H-M   'P 1'
_cell_length_a   3.57186500
_cell_length_b   8.94570841
_cell_length_c   8.94307413
_cell_angle_alpha   120.08622260
_cell_angle_beta   90.00000000
_cell_angle_gamma   90.00000000
_symmetry_Int_Tables_number   1
_chemical_formula_structural   LuScFe2Co10P7
_chemical_formula_sum   'Lu1 Sc1 Fe2 Co10 P7'
_cell_volume   247.25737230
_cell_formula_units_Z   1
loop_
 _symmetry_equiv_pos_site_id
 _symmetry_equiv_pos_as_xyz
  1  'x, y, z'
loop_
 _atom_site_type_symbol
 _atom_site_label
 _atom_site_symmetry_multiplicity
 _atom_site_fract_x
 _atom_site_fract_y
 _atom_site_fract_z
 _atom_site_occupancy
  Lu  Lu0  1  0.000000  0.667009  0.333404  1
  Sc  Sc1  1  0.500000  0.333946  0.666416  1
  Fe  Fe2  1  0.500000  0.094298  0.219030  1
  Fe  Fe3  1  0.500000  0.778851  0.873835  1
  Co  Co4  1  0.000000  0.370148  0.937135  1
  Co  Co5  1  0.000000  0.063641  0.433718  1
  Co  Co6  1  0.000000  0.566563  0.629342  1
  Co  Co7  1  0.000000  0.884330  0.724734  1
  Co  Co8  1  0.000000  0.274703  0.157300  1
  Co  Co9  1  0.000000  0.840138  0.117112  1
  Co  Co10  1  0.500000  0.950917  0.564863  1
  Co  Co11  1  0.500000  0.435491  0.385600  1
  Co  Co12  1  0.500000  0.613202  0.049552  1
  Co  Co13  1  0.500000  0.126532  0.907419  1
  P  P14  1  0.000000  0.117514  0.702425  1
  P  P15  1  0.000000  0.297189  0.414338  1
  P  P16  1  0.000000  0.585424  0.882095  1
  P  P17  1  0.500000  0.710856  0.596131  1
  P  P18  1  0.500000  0.405342  0.116097  1
  P  P19  1  0.500000  0.885660  0.289623  1
  P  P20  1  0.000000  0.998247  0.999833  1
