# generated using pymatgen
data_UPa3Ir4
_symmetry_space_group_name_H-M   'P 1'
_cell_length_a   10.83811900
_cell_length_b   5.60944324
_cell_length_c   5.65258930
_cell_angle_alpha   82.66409250
_cell_angle_beta   90.00000000
_cell_angle_gamma   90.00000000
_symmetry_Int_Tables_number   1
_chemical_formula_structural   UPa3Ir4
_chemical_formula_sum   'U2 Pa6 Ir8'
_cell_volume   340.84082579
_cell_formula_units_Z   2
loop_
 _symmetry_equiv_pos_site_id
 _symmetry_equiv_pos_as_xyz
  1  'x, y, z'
loop_
 _atom_site_type_symbol
 _atom_site_label
 _atom_site_symmetry_multiplicity
 _atom_site_fract_x
 _atom_site_fract_y
 _atom_site_fract_z
 _atom_site_occupancy
  U  U0  1  0.136212  0.095441  0.605667  1
  U  U1  1  0.636212  0.404559  0.394333  1
  Pa  Pa2  1  0.860957  0.352531  0.862517  1
  Pa  Pa3  1  0.360957  0.147469  0.137483  1
  Pa  Pa4  1  0.862682  0.908186  0.393878  1
  Pa  Pa5  1  0.362682  0.591814  0.606122  1
  Pa  Pa6  1  0.139771  0.648435  0.129743  1
  Pa  Pa7  1  0.639771  0.851565  0.870257  1
  Ir  Ir8  1  0.598758  0.349790  0.896991  1
  Ir  Ir9  1  0.098758  0.150210  0.103009  1
  Ir  Ir10  1  0.601576  0.905505  0.363792  1
  Ir  Ir11  1  0.101576  0.594495  0.636208  1
  Ir  Ir12  1  0.403230  0.649560  0.103301  1
  Ir  Ir13  1  0.903230  0.850440  0.896699  1
  Ir  Ir14  1  0.396814  0.091526  0.643273  1
  Ir  Ir15  1  0.896814  0.408474  0.356727  1
