# generated using pymatgen
data_Y6MnFeB14
_symmetry_space_group_name_H-M   'P 1'
_cell_length_a   8.03884388
_cell_length_b   8.03884336
_cell_length_c   9.30333700
_cell_angle_alpha   90.00000000
_cell_angle_beta   90.00000000
_cell_angle_gamma   155.33522096
_symmetry_Int_Tables_number   1
_chemical_formula_structural   Y6MnFeB14
_chemical_formula_sum   'Y6 Mn1 Fe1 B14'
_cell_volume   250.88988946
_cell_formula_units_Z   1
loop_
 _symmetry_equiv_pos_site_id
 _symmetry_equiv_pos_as_xyz
  1  'x, y, z'
loop_
 _atom_site_type_symbol
 _atom_site_label
 _atom_site_symmetry_multiplicity
 _atom_site_fract_x
 _atom_site_fract_y
 _atom_site_fract_z
 _atom_site_occupancy
  Y  Y0  1  0.758206  0.241794  0.250000  1
  Y  Y1  1  0.242206  0.757794  0.750000  1
  Y  Y2  1  0.895384  0.104616  0.559874  1
  Y  Y3  1  0.104531  0.895469  0.438428  1
  Y  Y4  1  0.104531  0.895469  0.061572  1
  Y  Y5  1  0.895384  0.104616  0.940126  1
  Mn  Mn6  1  0.946505  0.053495  0.250000  1
  Fe  Fe7  1  0.054370  0.945630  0.750000  1
  B  B8  1  0.539995  0.460005  0.250000  1
  B  B9  1  0.460449  0.539551  0.750000  1
  B  B10  1  0.521738  0.478262  0.901692  1
  B  B11  1  0.478212  0.521788  0.098439  1
  B  B12  1  0.478212  0.521788  0.401561  1
  B  B13  1  0.521738  0.478262  0.598308  1
  B  B14  1  0.629886  0.370114  0.846774  1
  B  B15  1  0.369764  0.630236  0.153146  1
  B  B16  1  0.727291  0.272709  0.966480  1
  B  B17  1  0.272330  0.727670  0.032626  1
  B  B18  1  0.272330  0.727670  0.467374  1
  B  B19  1  0.727291  0.272709  0.533520  1
  B  B20  1  0.629886  0.370114  0.653226  1
  B  B21  1  0.369764  0.630236  0.346854  1
