# generated using pymatgen
data_Cs8Na4SmHo3Sb8
_symmetry_space_group_name_H-M   'P 1'
_cell_length_a   11.67101510
_cell_length_b   11.67101341
_cell_length_c   7.60726775
_cell_angle_alpha   90.05958793
_cell_angle_beta   89.94041196
_cell_angle_gamma   99.75302007
_symmetry_Int_Tables_number   1
_chemical_formula_structural   Cs8Na4SmHo3Sb8
_chemical_formula_sum   'Cs8 Na4 Sm1 Ho3 Sb8'
_cell_volume   1021.22843345
_cell_formula_units_Z   1
loop_
 _symmetry_equiv_pos_site_id
 _symmetry_equiv_pos_as_xyz
  1  'x, y, z'
loop_
 _atom_site_type_symbol
 _atom_site_label
 _atom_site_symmetry_multiplicity
 _atom_site_fract_x
 _atom_site_fract_y
 _atom_site_fract_z
 _atom_site_occupancy
  Cs  Cs0  1  0.070988  0.429356  0.250168  1
  Cs  Cs1  1  0.429356  0.070988  0.749832  1
  Cs  Cs2  1  0.928945  0.570919  0.749877  1
  Cs  Cs3  1  0.570919  0.928945  0.250123  1
  Cs  Cs4  1  0.676672  0.323347  0.213042  1
  Cs  Cs5  1  0.822982  0.176713  0.712790  1
  Cs  Cs6  1  0.323347  0.676672  0.786958  1
  Cs  Cs7  1  0.176713  0.822982  0.287210  1
  Na  Na8  1  0.382023  0.382023  0.000000  1
  Na  Na9  1  0.118354  0.118354  0.500000  1
  Na  Na10  1  0.618340  0.618340  0.000000  1
  Na  Na11  1  0.881528  0.881528  0.500000  1
  Sm  Sm12  1  0.131201  0.131201  0.000000  1
  Ho  Ho13  1  0.369864  0.369864  0.500000  1
  Ho  Ho14  1  0.868607  0.868607  0.000000  1
  Ho  Ho15  1  0.630446  0.630446  0.500000  1
  Sb  Sb16  1  0.841253  0.658780  0.249895  1
  Sb  Sb17  1  0.658780  0.841253  0.750105  1
  Sb  Sb18  1  0.158950  0.344229  0.746504  1
  Sb  Sb19  1  0.344229  0.158950  0.253496  1
  Sb  Sb20  1  0.902257  0.094045  0.211903  1
  Sb  Sb21  1  0.594933  0.405265  0.709547  1
  Sb  Sb22  1  0.094045  0.902257  0.788097  1
  Sb  Sb23  1  0.405265  0.594933  0.290453  1
