# generated using pymatgen
data_Dy16Cd4Co3Os
_symmetry_space_group_name_H-M   'P 1'
_cell_length_a   9.50369089
_cell_length_b   9.50369050
_cell_length_c   9.57204560
_cell_angle_alpha   60.23594573
_cell_angle_beta   60.23594577
_cell_angle_gamma   60.00000271
_symmetry_Int_Tables_number   1
_chemical_formula_structural   Dy16Cd4Co3Os
_chemical_formula_sum   'Dy16 Cd4 Co3 Os1'
_cell_volume   613.49922454
_cell_formula_units_Z   1
loop_
 _symmetry_equiv_pos_site_id
 _symmetry_equiv_pos_as_xyz
  1  'x, y, z'
loop_
 _atom_site_type_symbol
 _atom_site_label
 _atom_site_symmetry_multiplicity
 _atom_site_fract_x
 _atom_site_fract_y
 _atom_site_fract_z
 _atom_site_occupancy
  Dy  Dy0  1  0.151014  0.540471  0.157500  1
  Dy  Dy1  1  0.691763  0.311960  0.684317  1
  Dy  Dy2  1  0.687725  0.312673  0.311877  1
  Dy  Dy3  1  0.937114  0.562977  0.562795  1
  Dy  Dy4  1  0.540471  0.151014  0.157500  1
  Dy  Dy5  1  0.153996  0.153996  0.538010  1
  Dy  Dy6  1  0.937114  0.937114  0.562795  1
  Dy  Dy7  1  0.312673  0.687725  0.311877  1
  Dy  Dy8  1  0.561410  0.940633  0.936548  1
  Dy  Dy9  1  0.562977  0.937114  0.562795  1
  Dy  Dy10  1  0.687725  0.687725  0.311877  1
  Dy  Dy11  1  0.561410  0.561410  0.936548  1
  Dy  Dy12  1  0.940633  0.561410  0.936548  1
  Dy  Dy13  1  0.311960  0.691763  0.684317  1
  Dy  Dy14  1  0.151014  0.151014  0.157500  1
  Dy  Dy15  1  0.311960  0.311960  0.684317  1
  Cd  Cd16  1  0.920011  0.240271  0.919708  1
  Cd  Cd17  1  0.920011  0.920011  0.919708  1
  Cd  Cd18  1  0.919983  0.919983  0.240052  1
  Cd  Cd19  1  0.240271  0.920011  0.919708  1
  Co  Co20  1  0.358812  0.922123  0.360254  1
  Co  Co21  1  0.922123  0.358812  0.360254  1
  Co  Co22  1  0.358812  0.358812  0.360254  1
  Os  Os23  1  0.359018  0.359018  0.922947  1
