# generated using pymatgen
data_Dy2ErTm(WO6)2
_symmetry_space_group_name_H-M   'P 1'
_cell_length_a   5.38395800
_cell_length_b   7.68659529
_cell_length_c   11.40719810
_cell_angle_alpha   75.48200422
_cell_angle_beta   90.00000000
_cell_angle_gamma   90.00000000
_symmetry_Int_Tables_number   1
_chemical_formula_structural   Dy2ErTm(WO6)2
_chemical_formula_sum   'Dy4 Er2 Tm2 W4 O24'
_cell_volume   457.00500249
_cell_formula_units_Z   2
loop_
 _symmetry_equiv_pos_site_id
 _symmetry_equiv_pos_as_xyz
  1  'x, y, z'
loop_
 _atom_site_type_symbol
 _atom_site_label
 _atom_site_symmetry_multiplicity
 _atom_site_fract_x
 _atom_site_fract_y
 _atom_site_fract_z
 _atom_site_occupancy
  Dy  Dy0  1  0.741446  0.000301  0.750076  1
  Dy  Dy1  1  0.258554  0.000301  0.250076  1
  Dy  Dy2  1  0.683871  0.499653  0.750215  1
  Dy  Dy3  1  0.316129  0.499653  0.250215  1
  Er  Er4  1  0.183289  0.794047  0.578562  1
  Er  Er5  1  0.816711  0.794047  0.078562  1
  Tm  Tm6  1  0.183504  0.206537  0.921071  1
  Tm  Tm7  1  0.816496  0.206537  0.421071  1
  W  W8  1  0.255977  0.723291  0.885830  1
  W  W9  1  0.744023  0.723291  0.385830  1
  W  W10  1  0.255897  0.276377  0.614080  1
  W  W11  1  0.744103  0.276377  0.114080  1
  O  O12  1  0.047101  0.941044  0.896591  1
  O  O13  1  0.536383  0.844741  0.931836  1
  O  O14  1  0.952899  0.941044  0.396591  1
  O  O15  1  0.457295  0.790611  0.726689  1
  O  O16  1  0.463617  0.844741  0.431836  1
  O  O17  1  0.980736  0.711591  0.771426  1
  O  O18  1  0.542705  0.790611  0.226689  1
  O  O19  1  0.850642  0.634277  0.549278  1
  O  O20  1  0.358711  0.488551  0.886059  1
  O  O21  1  0.019264  0.711591  0.271426  1
  O  O22  1  0.359632  0.510599  0.613688  1
  O  O23  1  0.852089  0.365131  0.950704  1
  O  O24  1  0.149358  0.634277  0.049278  1
  O  O25  1  0.641289  0.488551  0.386059  1
  O  O26  1  0.981603  0.288476  0.729412  1
  O  O27  1  0.640368  0.510599  0.113688  1
  O  O28  1  0.147911  0.365131  0.450704  1
  O  O29  1  0.456410  0.208706  0.773771  1
  O  O30  1  0.018397  0.288476  0.229412  1
  O  O31  1  0.536895  0.155792  0.567681  1
  O  O32  1  0.543590  0.208706  0.273771  1
  O  O33  1  0.045293  0.060273  0.603032  1
  O  O34  1  0.463105  0.155792  0.067681  1
  O  O35  1  0.954707  0.060273  0.103032  1
