# generated using pymatgen
data_Er6Mn(CrC4)3
_symmetry_space_group_name_H-M   'P 1'
_cell_length_a   8.09019400
_cell_length_b   8.09019478
_cell_length_c   4.95300000
_cell_angle_alpha   90.00000000
_cell_angle_beta   90.00000000
_cell_angle_gamma   119.99998865
_symmetry_Int_Tables_number   1
_chemical_formula_structural   Er6Mn(CrC4)3
_chemical_formula_sum   'Er6 Mn1 Cr3 C12'
_cell_volume   280.74816284
_cell_formula_units_Z   1
loop_
 _symmetry_equiv_pos_site_id
 _symmetry_equiv_pos_as_xyz
  1  'x, y, z'
loop_
 _atom_site_type_symbol
 _atom_site_label
 _atom_site_symmetry_multiplicity
 _atom_site_fract_x
 _atom_site_fract_y
 _atom_site_fract_z
 _atom_site_occupancy
  Er  Er0  1  0.625112  0.686760  0.750000  1
  Er  Er1  1  0.936864  0.622389  0.250000  1
  Er  Er2  1  0.685524  0.063136  0.250000  1
  Er  Er3  1  0.313240  0.938351  0.750000  1
  Er  Er4  1  0.061649  0.374888  0.750000  1
  Er  Er5  1  0.377611  0.314476  0.250000  1
  Mn  Mn6  1  0.333333  0.666667  0.250000  1
  Cr  Cr7  1  0.000000  0.000000  0.500767  1
  Cr  Cr8  1  0.000000  0.000000  0.999233  1
  Cr  Cr9  1  0.666667  0.333333  0.750000  1
  C  C10  1  0.966274  0.776222  0.750000  1
  C  C11  1  0.193738  0.964948  0.250000  1
  C  C12  1  0.771211  0.806262  0.250000  1
  C  C13  1  0.223778  0.190053  0.750000  1
  C  C14  1  0.809947  0.033726  0.750000  1
  C  C15  1  0.035052  0.228789  0.250000  1
  C  C16  1  0.866627  0.579557  0.750000  1
  C  C17  1  0.288702  0.864891  0.250000  1
  C  C18  1  0.576189  0.711298  0.250000  1
  C  C19  1  0.420443  0.287070  0.750000  1
  C  C20  1  0.135109  0.423811  0.250000  1
  C  C21  1  0.712930  0.133373  0.750000  1
