# generated using pymatgen
data_Ho3Lu(Co3Si5)2
_symmetry_space_group_name_H-M   'P 1'
_cell_length_a   7.81553685
_cell_length_b   7.81319503
_cell_length_c   5.47598139
_cell_angle_alpha   70.81716553
_cell_angle_beta   70.78674237
_cell_angle_gamma   93.47877370
_symmetry_Int_Tables_number   1
_chemical_formula_structural   Ho3Lu(Co3Si5)2
_chemical_formula_sum   'Ho3 Lu1 Co6 Si10'
_cell_volume   292.83813808
_cell_formula_units_Z   1
loop_
 _symmetry_equiv_pos_site_id
 _symmetry_equiv_pos_as_xyz
  1  'x, y, z'
loop_
 _atom_site_type_symbol
 _atom_site_label
 _atom_site_symmetry_multiplicity
 _atom_site_fract_x
 _atom_site_fract_y
 _atom_site_fract_z
 _atom_site_occupancy
  Ho  Ho0  1  0.870340  0.597585  0.762533  1
  Ho  Ho1  1  0.402491  0.130063  0.737307  1
  Ho  Ho2  1  0.130127  0.402152  0.237047  1
  Lu  Lu3  1  0.597152  0.870283  0.263873  1
  Co  Co4  1  0.538996  0.261607  0.125546  1
  Co  Co5  1  0.996065  0.003089  0.250254  1
  Co  Co6  1  0.263245  0.539757  0.624515  1
  Co  Co7  1  0.461482  0.738429  0.873630  1
  Co  Co8  1  0.737440  0.460588  0.374778  1
  Co  Co9  1  0.002756  0.996641  0.750148  1
  Si  Si10  1  0.771555  0.227601  0.750736  1
  Si  Si11  1  0.229242  0.771750  0.249598  1
  Si  Si12  1  0.511179  0.489619  0.749846  1
  Si  Si13  1  0.489808  0.512202  0.248972  1
  Si  Si14  1  0.214473  0.785610  0.750559  1
  Si  Si15  1  0.785307  0.213507  0.249829  1
  Si  Si16  1  0.064743  0.262290  0.834261  1
  Si  Si17  1  0.262268  0.063937  0.334752  1
  Si  Si18  1  0.934044  0.738325  0.165649  1
  Si  Si19  1  0.737286  0.934963  0.666168  1
