# generated using pymatgen
data_Ca3PrLu4(B6Ru)4
_symmetry_space_group_name_H-M   'P 1'
_cell_length_a   3.63830500
_cell_length_b   9.12435998
_cell_length_c   11.54635925
_cell_angle_alpha   89.94673560
_cell_angle_beta   90.00000000
_cell_angle_gamma   90.00000000
_symmetry_Int_Tables_number   1
_chemical_formula_structural   Ca3PrLu4(B6Ru)4
_chemical_formula_sum   'Ca3 Pr1 Lu4 B24 Ru4'
_cell_volume   383.30668420
_cell_formula_units_Z   1
loop_
 _symmetry_equiv_pos_site_id
 _symmetry_equiv_pos_as_xyz
  1  'x, y, z'
loop_
 _atom_site_type_symbol
 _atom_site_label
 _atom_site_symmetry_multiplicity
 _atom_site_fract_x
 _atom_site_fract_y
 _atom_site_fract_z
 _atom_site_occupancy
  Ca  Ca0  1  0.000000  0.324890  0.414968  1
  Ca  Ca1  1  0.000000  0.675513  0.583763  1
  Ca  Ca2  1  0.000000  0.822831  0.086114  1
  Pr  Pr3  1  0.000000  0.175892  0.915491  1
  Lu  Lu4  1  0.000000  0.941447  0.367085  1
  Lu  Lu5  1  0.000000  0.057164  0.630927  1
  Lu  Lu6  1  0.000000  0.444219  0.134129  1
  Lu  Lu7  1  0.000000  0.558252  0.867240  1
  B  B8  1  0.500000  0.554864  0.431976  1
  B  B9  1  0.500000  0.445534  0.567723  1
  B  B10  1  0.500000  0.054309  0.070644  1
  B  B11  1  0.500000  0.942267  0.931534  1
  B  B12  1  0.500000  0.750286  0.416592  1
  B  B13  1  0.500000  0.249866  0.582470  1
  B  B14  1  0.500000  0.250927  0.086046  1
  B  B15  1  0.500000  0.748991  0.916665  1
  B  B16  1  0.500000  0.792123  0.264773  1
  B  B17  1  0.500000  0.208692  0.733470  1
  B  B18  1  0.500000  0.292637  0.236710  1
  B  B19  1  0.500000  0.707893  0.764098  1
  B  B20  1  0.500000  0.630978  0.185426  1
  B  B21  1  0.500000  0.370969  0.813586  1
  B  B22  1  0.500000  0.130444  0.315416  1
  B  B23  1  0.500000  0.868827  0.683826  1
  B  B24  1  0.500000  0.983652  0.212882  1
  B  B25  1  0.500000  0.013538  0.786320  1
  B  B26  1  0.500000  0.484599  0.288644  1
  B  B27  1  0.500000  0.516399  0.711392  1
  B  B28  1  0.500000  0.596967  0.026429  1
  B  B29  1  0.500000  0.405941  0.974684  1
  B  B30  1  0.500000  0.095324  0.473583  1
  B  B31  1  0.500000  0.903954  0.525418  1
  Ru  Ru32  1  0.000000  0.640795  0.318489  1
  Ru  Ru33  1  0.000000  0.359151  0.681355  1
  Ru  Ru34  1  0.000000  0.140674  0.182559  1
  Ru  Ru35  1  0.000000  0.859189  0.817573  1
