# generated using pymatgen
data_V20Ga9Pt
_symmetry_space_group_name_H-M   'P 1'
_cell_length_a   9.35322651
_cell_length_b   9.35322701
_cell_length_c   4.75588400
_cell_angle_alpha   90.00000000
_cell_angle_beta   90.00000000
_cell_angle_gamma   89.88076629
_symmetry_Int_Tables_number   1
_chemical_formula_structural   V20Ga9Pt
_chemical_formula_sum   'V20 Ga9 Pt1'
_cell_volume   416.05738952
_cell_formula_units_Z   1
loop_
 _symmetry_equiv_pos_site_id
 _symmetry_equiv_pos_as_xyz
  1  'x, y, z'
loop_
 _atom_site_type_symbol
 _atom_site_label
 _atom_site_symmetry_multiplicity
 _atom_site_fract_x
 _atom_site_fract_y
 _atom_site_fract_z
 _atom_site_occupancy
  V  V0  1  0.397369  0.397369  0.000000  1
  V  V1  1  0.895278  0.104722  0.500000  1
  V  V2  1  0.104722  0.895278  0.500000  1
  V  V3  1  0.602631  0.602631  0.000000  1
  V  V4  1  0.128109  0.465324  0.000000  1
  V  V5  1  0.966109  0.371622  0.500000  1
  V  V6  1  0.033891  0.628378  0.500000  1
  V  V7  1  0.871891  0.534676  0.000000  1
  V  V8  1  0.371622  0.966109  0.500000  1
  V  V9  1  0.628378  0.033891  0.500000  1
  V  V10  1  0.465324  0.128109  0.000000  1
  V  V11  1  0.534676  0.871891  0.000000  1
  V  V12  1  0.183602  0.183602  0.252607  1
  V  V13  1  0.680963  0.319037  0.755966  1
  V  V14  1  0.319037  0.680963  0.755966  1
  V  V15  1  0.816398  0.816398  0.252607  1
  V  V16  1  0.319037  0.680963  0.244034  1
  V  V17  1  0.680963  0.319037  0.244034  1
  V  V18  1  0.183602  0.183602  0.747393  1
  V  V19  1  0.816398  0.816398  0.747393  1
  Ga  Ga20  1  0.500000  0.500000  0.500000  1
  Ga  Ga21  1  0.266266  0.934584  0.000000  1
  Ga  Ga22  1  0.435527  0.233082  0.500000  1
  Ga  Ga23  1  0.564473  0.766918  0.500000  1
  Ga  Ga24  1  0.733734  0.065416  0.000000  1
  Ga  Ga25  1  0.233082  0.435527  0.500000  1
  Ga  Ga26  1  0.766918  0.564473  0.500000  1
  Ga  Ga27  1  0.934584  0.266266  0.000000  1
  Ga  Ga28  1  0.065416  0.733734  0.000000  1
  Pt  Pt29  1  0.000000  0.000000  0.000000  1
