# generated using pymatgen
data_La4Y12Cd4Ni3Pd
_symmetry_space_group_name_H-M   'P 1'
_cell_length_a   9.76520660
_cell_length_b   9.74087876
_cell_length_c   9.74087800
_cell_angle_alpha   59.99999580
_cell_angle_beta   60.08237244
_cell_angle_gamma   60.08237811
_symmetry_Int_Tables_number   1
_chemical_formula_structural   La4Y12Cd4Ni3Pd
_chemical_formula_sum   'La4 Y12 Cd4 Ni3 Pd1'
_cell_volume   655.99765468
_cell_formula_units_Z   1
loop_
 _symmetry_equiv_pos_site_id
 _symmetry_equiv_pos_as_xyz
  1  'x, y, z'
loop_
 _atom_site_type_symbol
 _atom_site_label
 _atom_site_symmetry_multiplicity
 _atom_site_fract_x
 _atom_site_fract_y
 _atom_site_fract_z
 _atom_site_occupancy
  La  La0  1  0.345750  0.355841  0.355841  1
  La  La1  1  0.345750  0.355841  0.942568  1
  La  La2  1  0.345750  0.942568  0.355841  1
  La  La3  1  0.947069  0.350977  0.350977  1
  Y  Y4  1  0.819391  0.186502  0.186502  1
  Y  Y5  1  0.186102  0.814257  0.814257  1
  Y  Y6  1  0.186102  0.814257  0.185385  1
  Y  Y7  1  0.819391  0.186502  0.807604  1
  Y  Y8  1  0.186102  0.185385  0.814257  1
  Y  Y9  1  0.819391  0.807604  0.186502  1
  Y  Y10  1  0.933198  0.566451  0.566451  1
  Y  Y11  1  0.565929  0.933725  0.933725  1
  Y  Y12  1  0.565929  0.933725  0.566621  1
  Y  Y13  1  0.933198  0.566451  0.933900  1
  Y  Y14  1  0.565929  0.566621  0.933725  1
  Y  Y15  1  0.933198  0.933900  0.566451  1
  Cd  Cd16  1  0.584199  0.583314  0.583314  1
  Cd  Cd17  1  0.584199  0.583314  0.249175  1
  Cd  Cd18  1  0.584199  0.249175  0.583314  1
  Cd  Cd19  1  0.247579  0.584141  0.584141  1
  Ni  Ni20  1  0.142315  0.141395  0.141395  1
  Ni  Ni21  1  0.142315  0.141395  0.574893  1
  Ni  Ni22  1  0.142315  0.574893  0.141395  1
  Pd  Pd23  1  0.574700  0.141766  0.141766  1
