# generated using pymatgen
data_Ba5Sm(TiH9)3
_symmetry_space_group_name_H-M   'P 1'
_cell_length_a   9.68760800
_cell_length_b   9.40584878
_cell_length_c   5.36564800
_cell_angle_alpha   90.00000000
_cell_angle_beta   90.00000000
_cell_angle_gamma   119.04248692
_symmetry_Int_Tables_number   1
_chemical_formula_structural   Ba5Sm(TiH9)3
_chemical_formula_sum   'Ba5 Sm1 Ti3 H27'
_cell_volume   427.44212250
_cell_formula_units_Z   1
loop_
 _symmetry_equiv_pos_site_id
 _symmetry_equiv_pos_as_xyz
  1  'x, y, z'
loop_
 _atom_site_type_symbol
 _atom_site_label
 _atom_site_symmetry_multiplicity
 _atom_site_fract_x
 _atom_site_fract_y
 _atom_site_fract_z
 _atom_site_occupancy
  Ba  Ba0  1  0.733837  0.745141  0.500000  1
  Ba  Ba1  1  0.266163  0.011304  0.500000  1
  Ba  Ba2  1  0.000000  0.601328  0.000000  1
  Ba  Ba3  1  0.397970  0.383395  0.000000  1
  Ba  Ba4  1  0.602030  0.985425  0.000000  1
  Sm  Sm5  1  0.000000  0.252514  0.500000  1
  Ti  Ti6  1  0.686464  0.322494  0.500000  1
  Ti  Ti7  1  0.313536  0.636031  0.500000  1
  Ti  Ti8  1  0.000000  0.016953  0.000000  1
  H  H9  1  0.843596  0.339435  0.715684  1
  H  H10  1  0.727351  0.489808  0.723274  1
  H  H11  1  0.541302  0.187981  0.737731  1
  H  H12  1  0.156404  0.495840  0.284316  1
  H  H13  1  0.541302  0.187981  0.262269  1
  H  H14  1  0.843596  0.339435  0.284316  1
  H  H15  1  0.727351  0.489808  0.276726  1
  H  H16  1  0.272649  0.762458  0.723274  1
  H  H17  1  0.458698  0.646679  0.737731  1
  H  H18  1  0.200895  0.029277  0.000000  1
  H  H19  1  0.799105  0.828381  0.000000  1
  H  H20  1  0.000000  0.218410  0.000000  1
  H  H21  1  0.869369  0.023724  0.251167  1
  H  H22  1  0.130631  0.154356  0.748833  1
  H  H23  1  0.000000  0.868199  0.771588  1
  H  H24  1  0.000000  0.868199  0.228412  1
  H  H25  1  0.130631  0.154356  0.251167  1
  H  H26  1  0.869369  0.023724  0.748833  1
  H  H27  1  0.045851  0.653813  0.500000  1
  H  H28  1  0.482455  0.843090  0.500000  1
  H  H29  1  0.287372  0.427127  0.500000  1
  H  H30  1  0.517545  0.360635  0.500000  1
  H  H31  1  0.954149  0.607962  0.500000  1
  H  H32  1  0.712628  0.139755  0.500000  1
  H  H33  1  0.156404  0.495840  0.715684  1
  H  H34  1  0.272649  0.762458  0.276726  1
  H  H35  1  0.458698  0.646679  0.262269  1
