# generated using pymatgen
data_TbYb3(Al3Pd)6
_symmetry_space_group_name_H-M   'P 1'
_cell_length_a   7.66533463
_cell_length_b   7.66223914
_cell_length_c   9.49302400
_cell_angle_alpha   90.00000000
_cell_angle_beta   90.00000000
_cell_angle_gamma   119.67453339
_symmetry_Int_Tables_number   1
_chemical_formula_structural   TbYb3(Al3Pd)6
_chemical_formula_sum   'Tb1 Yb3 Al18 Pd6'
_cell_volume   484.43669129
_cell_formula_units_Z   1
loop_
 _symmetry_equiv_pos_site_id
 _symmetry_equiv_pos_as_xyz
  1  'x, y, z'
loop_
 _atom_site_type_symbol
 _atom_site_label
 _atom_site_symmetry_multiplicity
 _atom_site_fract_x
 _atom_site_fract_y
 _atom_site_fract_z
 _atom_site_occupancy
  Tb  Tb0  1  0.330508  0.002742  0.750000  1
  Yb  Yb1  1  0.995279  0.669173  0.250000  1
  Yb  Yb2  1  0.003316  0.330283  0.750000  1
  Yb  Yb3  1  0.671703  0.997259  0.250000  1
  Al  Al4  1  0.132165  0.132136  0.250000  1
  Al  Al5  1  0.871624  0.869345  0.750000  1
  Al  Al6  1  0.001115  0.334874  0.075525  1
  Al  Al7  1  0.998802  0.664568  0.922584  1
  Al  Al8  1  0.998802  0.664568  0.577416  1
  Al  Al9  1  0.334601  0.000271  0.423825  1
  Al  Al10  1  0.001115  0.334874  0.424475  1
  Al  Al11  1  0.666031  0.999639  0.577000  1
  Al  Al12  1  0.666031  0.999639  0.923000  1
  Al  Al13  1  0.334601  0.000271  0.076175  1
  Al  Al14  1  0.332482  0.332369  0.557562  1
  Al  Al15  1  0.666700  0.666749  0.445267  1
  Al  Al16  1  0.666700  0.666749  0.054733  1
  Al  Al17  1  0.332482  0.332369  0.942438  1
  Al  Al18  1  0.340088  0.546818  0.250000  1
  Al  Al19  1  0.656344  0.452279  0.750000  1
  Al  Al20  1  0.544260  0.340262  0.250000  1
  Al  Al21  1  0.455769  0.663217  0.750000  1
  Pd  Pd22  1  0.671817  0.327823  0.999898  1
  Pd  Pd23  1  0.327826  0.671948  0.999451  1
  Pd  Pd24  1  0.327826  0.671948  0.500549  1
  Pd  Pd25  1  0.671817  0.327823  0.500102  1
  Pd  Pd26  1  0.000098  0.000002  0.999767  1
  Pd  Pd27  1  0.000098  0.000002  0.500233  1
