# generated using pymatgen
data_Dy3ErLuPb3
_symmetry_space_group_name_H-M   'P 1'
_cell_length_a   6.56233500
_cell_length_b   9.03689588
_cell_length_c   9.03672800
_cell_angle_alpha   120.00060732
_cell_angle_beta   90.00085499
_cell_angle_gamma   89.99829943
_symmetry_Int_Tables_number   1
_chemical_formula_structural   Dy3ErLuPb3
_chemical_formula_sum   'Dy6 Er2 Lu2 Pb6'
_cell_volume   464.10565454
_cell_formula_units_Z   2
loop_
 _symmetry_equiv_pos_site_id
 _symmetry_equiv_pos_as_xyz
  1  'x, y, z'
loop_
 _atom_site_type_symbol
 _atom_site_label
 _atom_site_symmetry_multiplicity
 _atom_site_fract_x
 _atom_site_fract_y
 _atom_site_fract_z
 _atom_site_occupancy
  Dy  Dy0  1  0.750206  0.237742  0.000000  1
  Dy  Dy1  1  0.750211  0.762311  0.762281  1
  Dy  Dy2  1  0.750211  0.000031  0.237719  1
  Dy  Dy3  1  0.249794  0.762276  0.000000  1
  Dy  Dy4  1  0.249799  0.237706  0.237732  1
  Dy  Dy5  1  0.249799  0.999973  0.762268  1
  Er  Er6  1  0.499994  0.333323  0.666699  1
  Er  Er7  1  0.499994  0.666624  0.333301  1
  Lu  Lu8  1  0.000003  0.666680  0.333320  1
  Lu  Lu9  1  0.000003  0.333359  0.666680  1
  Pb  Pb10  1  0.750731  0.604217  0.000000  1
  Pb  Pb11  1  0.750734  0.395821  0.395861  1
  Pb  Pb12  1  0.750734  0.999961  0.604139  1
  Pb  Pb13  1  0.249248  0.395757  0.000000  1
  Pb  Pb14  1  0.249268  0.604170  0.604119  1
  Pb  Pb15  1  0.249268  0.000050  0.395881  1
