# generated using pymatgen
data_Tm20(Ir3Pt)3
_symmetry_space_group_name_H-M   'P 1'
_cell_length_a   10.82043389
_cell_length_b   10.82043389
_cell_length_c   6.28115812
_cell_angle_alpha   89.98430619
_cell_angle_beta   89.98430619
_cell_angle_gamma   90.23520951
_symmetry_Int_Tables_number   1
_chemical_formula_structural   Tm20(Ir3Pt)3
_chemical_formula_sum   'Tm20 Ir9 Pt3'
_cell_volume   735.40298168
_cell_formula_units_Z   1
loop_
 _symmetry_equiv_pos_site_id
 _symmetry_equiv_pos_as_xyz
  1  'x, y, z'
loop_
 _atom_site_type_symbol
 _atom_site_label
 _atom_site_symmetry_multiplicity
 _atom_site_fract_x
 _atom_site_fract_y
 _atom_site_fract_z
 _atom_site_occupancy
  Tm  Tm0  1  0.294226  0.086212  0.371489  1
  Tm  Tm1  1  0.293337  0.909283  0.876403  1
  Tm  Tm2  1  0.704877  0.089348  0.873653  1
  Tm  Tm3  1  0.703951  0.910498  0.372874  1
  Tm  Tm4  1  0.584398  0.791253  0.877706  1
  Tm  Tm5  1  0.584704  0.208790  0.377460  1
  Tm  Tm6  1  0.411689  0.791542  0.377232  1
  Tm  Tm7  1  0.414968  0.208718  0.877303  1
  Tm  Tm8  1  0.208747  0.415602  0.622294  1
  Tm  Tm9  1  0.208458  0.588311  0.122768  1
  Tm  Tm10  1  0.791210  0.415296  0.122540  1
  Tm  Tm11  1  0.791282  0.585032  0.622697  1
  Tm  Tm12  1  0.913788  0.705774  0.128511  1
  Tm  Tm13  1  0.910652  0.295123  0.626347  1
  Tm  Tm14  1  0.090717  0.706663  0.623597  1
  Tm  Tm15  1  0.089502  0.296049  0.127126  1
  Tm  Tm16  1  0.001419  0.998100  0.499209  1
  Tm  Tm17  1  0.001900  0.998581  0.000791  1
  Tm  Tm18  1  0.499806  0.499923  0.000351  1
  Tm  Tm19  1  0.500077  0.500194  0.499649  1
  Ir  Ir20  1  0.152514  0.847486  0.250000  1
  Ir  Ir21  1  0.654548  0.345452  0.750000  1
  Ir  Ir22  1  0.654852  0.654505  0.249777  1
  Ir  Ir23  1  0.345495  0.345148  0.250223  1
  Ir  Ir24  1  0.346355  0.653645  0.750000  1
  Ir  Ir25  1  0.500414  0.000093  0.122577  1
  Ir  Ir26  1  0.500394  0.000217  0.623861  1
  Ir  Ir27  1  0.999783  0.499606  0.876139  1
  Ir  Ir28  1  0.999907  0.499586  0.377423  1
  Pt  Pt29  1  0.846780  0.153220  0.250000  1
  Pt  Pt30  1  0.845659  0.846405  0.749847  1
  Pt  Pt31  1  0.153595  0.154341  0.750153  1
