# generated using pymatgen
data_ErPa3(GeRu)4
_symmetry_space_group_name_H-M   'P 1'
_cell_length_a   4.40641100
_cell_length_b   7.13940636
_cell_length_c   7.18491656
_cell_angle_alpha   90.52759887
_cell_angle_beta   90.00000000
_cell_angle_gamma   90.00000000
_symmetry_Int_Tables_number   1
_chemical_formula_structural   ErPa3(GeRu)4
_chemical_formula_sum   'Er1 Pa3 Ge4 Ru4'
_cell_volume   226.02184756
_cell_formula_units_Z   1
loop_
 _symmetry_equiv_pos_site_id
 _symmetry_equiv_pos_as_xyz
  1  'x, y, z'
loop_
 _atom_site_type_symbol
 _atom_site_label
 _atom_site_symmetry_multiplicity
 _atom_site_fract_x
 _atom_site_fract_y
 _atom_site_fract_z
 _atom_site_occupancy
  Er  Er0  1  0.750000  0.010735  0.689500  1
  Pa  Pa1  1  0.250000  0.490828  0.182923  1
  Pa  Pa2  1  0.750000  0.511856  0.814368  1
  Pa  Pa3  1  0.250000  0.986052  0.304652  1
  Ge  Ge4  1  0.250000  0.797290  0.881238  1
  Ge  Ge5  1  0.750000  0.212046  0.110241  1
  Ge  Ge6  1  0.250000  0.281324  0.608738  1
  Ge  Ge7  1  0.750000  0.713962  0.394979  1
  Ru  Ru8  1  0.750000  0.846079  0.064684  1
  Ru  Ru9  1  0.250000  0.151266  0.949922  1
  Ru  Ru10  1  0.750000  0.359916  0.441751  1
  Ru  Ru11  1  0.250000  0.638646  0.557004  1
