# generated using pymatgen
data_Y8Tc3RuC8
_symmetry_space_group_name_H-M   'P 1'
_cell_length_a   5.11225900
_cell_length_b   6.56584250
_cell_length_c   9.87595582
_cell_angle_alpha   90.13442957
_cell_angle_beta   90.00000000
_cell_angle_gamma   90.00000000
_symmetry_Int_Tables_number   1
_chemical_formula_structural   Y8Tc3RuC8
_chemical_formula_sum   'Y8 Tc3 Ru1 C8'
_cell_volume   331.49825920
_cell_formula_units_Z   1
loop_
 _symmetry_equiv_pos_site_id
 _symmetry_equiv_pos_as_xyz
  1  'x, y, z'
loop_
 _atom_site_type_symbol
 _atom_site_label
 _atom_site_symmetry_multiplicity
 _atom_site_fract_x
 _atom_site_fract_y
 _atom_site_fract_z
 _atom_site_occupancy
  Y  Y0  1  0.250000  0.678502  0.557249  1
  Y  Y1  1  0.750000  0.321756  0.443236  1
  Y  Y2  1  0.750000  0.821140  0.056972  1
  Y  Y3  1  0.250000  0.174761  0.944017  1
  Y  Y4  1  0.250000  0.531730  0.215269  1
  Y  Y5  1  0.750000  0.469443  0.786938  1
  Y  Y6  1  0.750000  0.966888  0.715172  1
  Y  Y7  1  0.250000  0.030877  0.283865  1
  Tc  Tc8  1  0.750000  0.278795  0.134508  1
  Tc  Tc9  1  0.750000  0.779416  0.365632  1
  Tc  Tc10  1  0.250000  0.220410  0.635447  1
  Ru  Ru11  1  0.250000  0.720718  0.864531  1
  C  C12  1  0.250000  0.453587  0.757147  1
  C  C13  1  0.750000  0.546085  0.240945  1
  C  C14  1  0.750000  0.046581  0.258989  1
  C  C15  1  0.250000  0.954848  0.740736  1
  C  C16  1  0.250000  0.823416  0.047649  1
  C  C17  1  0.750000  0.180046  0.950176  1
  C  C18  1  0.750000  0.679909  0.549348  1
  C  C19  1  0.250000  0.321093  0.452176  1
