# generated using pymatgen
data_Ca6GaSi3Ir4
_symmetry_space_group_name_H-M   'P 1'
_cell_length_a   5.84362400
_cell_length_b   7.62236700
_cell_length_c   13.59996900
_cell_angle_alpha   90.00000000
_cell_angle_beta   90.00000000
_cell_angle_gamma   90.00000000
_symmetry_Int_Tables_number   1
_chemical_formula_structural   Ca6GaSi3Ir4
_chemical_formula_sum   'Ca12 Ga2 Si6 Ir8'
_cell_volume   605.77317483
_cell_formula_units_Z   2
loop_
 _symmetry_equiv_pos_site_id
 _symmetry_equiv_pos_as_xyz
  1  'x, y, z'
loop_
 _atom_site_type_symbol
 _atom_site_label
 _atom_site_symmetry_multiplicity
 _atom_site_fract_x
 _atom_site_fract_y
 _atom_site_fract_z
 _atom_site_occupancy
  Ca  Ca0  1  0.131262  0.607865  0.098927  1
  Ca  Ca1  1  0.131262  0.892135  0.901073  1
  Ca  Ca2  1  0.866967  0.111228  0.400925  1
  Ca  Ca3  1  0.866967  0.388772  0.599075  1
  Ca  Ca4  1  0.866967  0.388772  0.900925  1
  Ca  Ca5  1  0.866967  0.111228  0.099075  1
  Ca  Ca6  1  0.131262  0.892135  0.598927  1
  Ca  Ca7  1  0.131262  0.607865  0.401073  1
  Ca  Ca8  1  0.370801  0.270649  0.250000  1
  Ca  Ca9  1  0.370801  0.229351  0.750000  1
  Ca  Ca10  1  0.627222  0.774207  0.250000  1
  Ca  Ca11  1  0.627222  0.725793  0.750000  1
  Ga  Ga12  1  0.159534  0.919672  0.250000  1
  Ga  Ga13  1  0.159534  0.580328  0.750000  1
  Si  Si14  1  0.422698  0.250000  0.000000  1
  Si  Si15  1  0.577669  0.750000  0.500000  1
  Si  Si16  1  0.577669  0.750000  0.000000  1
  Si  Si17  1  0.422698  0.250000  0.500000  1
  Si  Si18  1  0.833989  0.425223  0.250000  1
  Si  Si19  1  0.833989  0.074777  0.750000  1
  Ir  Ir20  1  0.640096  0.477171  0.092722  1
  Ir  Ir21  1  0.640096  0.022829  0.907278  1
  Ir  Ir22  1  0.365718  0.978562  0.412555  1
  Ir  Ir23  1  0.365718  0.521438  0.587445  1
  Ir  Ir24  1  0.365718  0.521438  0.912555  1
  Ir  Ir25  1  0.365718  0.978562  0.087445  1
  Ir  Ir26  1  0.640096  0.022829  0.592722  1
  Ir  Ir27  1  0.640096  0.477171  0.407278  1
