# generated using pymatgen
data_CaGdMgRuO6
_symmetry_space_group_name_H-M   'P 1'
_cell_length_a   5.41648149
_cell_length_b   5.66230500
_cell_length_c   7.76348856
_cell_angle_alpha   90.00000000
_cell_angle_beta   90.02696709
_cell_angle_gamma   90.00000000
_symmetry_Int_Tables_number   1
_chemical_formula_structural   CaGdMgRuO6
_chemical_formula_sum   'Ca2 Gd2 Mg2 Ru2 O12'
_cell_volume   238.10438370
_cell_formula_units_Z   2
loop_
 _symmetry_equiv_pos_site_id
 _symmetry_equiv_pos_as_xyz
  1  'x, y, z'
loop_
 _atom_site_type_symbol
 _atom_site_label
 _atom_site_symmetry_multiplicity
 _atom_site_fract_x
 _atom_site_fract_y
 _atom_site_fract_z
 _atom_site_occupancy
  Ca  Ca0  1  0.485936  0.557686  0.249523  1
  Ca  Ca1  1  0.985936  0.942314  0.749523  1
  Gd  Gd2  1  0.018554  0.065208  0.252436  1
  Gd  Gd3  1  0.518554  0.434792  0.752436  1
  Mg  Mg4  1  0.000946  0.505460  0.500359  1
  Mg  Mg5  1  0.500946  0.994540  0.000359  1
  Ru  Ru6  1  0.000362  0.502322  0.000219  1
  Ru  Ru7  1  0.500362  0.997678  0.500219  1
  O  O8  1  0.108962  0.534073  0.756377  1
  O  O9  1  0.185040  0.795329  0.056931  1
  O  O10  1  0.202079  0.808530  0.446878  1
  O  O11  1  0.291387  0.301027  0.049681  1
  O  O12  1  0.303971  0.285646  0.444077  1
  O  O13  1  0.402764  0.036449  0.743518  1
  O  O14  1  0.608962  0.965927  0.256377  1
  O  O15  1  0.685040  0.704671  0.556931  1
  O  O16  1  0.702079  0.691470  0.946878  1
  O  O17  1  0.791387  0.198973  0.549681  1
  O  O18  1  0.803971  0.214354  0.944077  1
  O  O19  1  0.902764  0.463551  0.243518  1
