# generated using pymatgen
data_Th2Si5Ir2Os
_symmetry_space_group_name_H-M   'P 1'
_cell_length_a   8.24652304
_cell_length_b   8.24652183
_cell_length_c   8.24652186
_cell_angle_alpha   137.31106714
_cell_angle_beta   105.42730102
_cell_angle_gamma   89.93921038
_symmetry_Int_Tables_number   1
_chemical_formula_structural   Th2Si5Ir2Os
_chemical_formula_sum   'Th4 Si10 Ir4 Os2'
_cell_volume   349.93453954
_cell_formula_units_Z   2
loop_
 _symmetry_equiv_pos_site_id
 _symmetry_equiv_pos_as_xyz
  1  'x, y, z'
loop_
 _atom_site_type_symbol
 _atom_site_label
 _atom_site_symmetry_multiplicity
 _atom_site_fract_x
 _atom_site_fract_y
 _atom_site_fract_z
 _atom_site_occupancy
  Th  Th0  1  0.861865  0.628900  0.232965  1
  Th  Th1  1  0.138136  0.371100  0.767035  1
  Th  Th2  1  0.395934  0.128900  0.267035  1
  Th  Th3  1  0.604066  0.871100  0.732965  1
  Si  Si4  1  0.500000  0.750000  0.250000  1
  Si  Si5  1  0.500000  0.250000  0.750000  1
  Si  Si6  1  0.226469  0.976469  0.750000  1
  Si  Si7  1  0.773531  0.523531  0.750000  1
  Si  Si8  1  0.773531  0.023531  0.250000  1
  Si  Si9  1  0.226469  0.476469  0.250000  1
  Si  Si10  1  0.043454  0.894141  0.149313  1
  Si  Si11  1  0.956546  0.105859  0.850687  1
  Si  Si12  1  0.744827  0.394141  0.350687  1
  Si  Si13  1  0.255173  0.605859  0.649313  1
  Ir  Ir14  1  0.246577  0.860263  0.386312  1
  Ir  Ir15  1  0.753423  0.139737  0.613688  1
  Ir  Ir16  1  0.473952  0.360263  0.113688  1
  Ir  Ir17  1  0.526048  0.639737  0.886312  1
  Os  Os18  1  0.000000  0.750000  0.750000  1
  Os  Os19  1  0.000000  0.250000  0.250000  1
