# generated using pymatgen
data_Tb3Ho9Co4TcBi
_symmetry_space_group_name_H-M   'P 1'
_cell_length_a   8.31100733
_cell_length_b   8.31089276
_cell_length_c   8.30754512
_cell_angle_alpha   111.55986016
_cell_angle_beta   110.54202745
_cell_angle_gamma   106.37508239
_symmetry_Int_Tables_number   1
_chemical_formula_structural   Tb3Ho9Co4TcBi
_chemical_formula_sum   'Tb3 Ho9 Co4 Tc1 Bi1'
_cell_volume   440.62725177
_cell_formula_units_Z   1
loop_
 _symmetry_equiv_pos_site_id
 _symmetry_equiv_pos_as_xyz
  1  'x, y, z'
loop_
 _atom_site_type_symbol
 _atom_site_label
 _atom_site_symmetry_multiplicity
 _atom_site_fract_x
 _atom_site_fract_y
 _atom_site_fract_z
 _atom_site_occupancy
  Tb  Tb0  1  0.816599  0.717574  0.534090  1
  Tb  Tb1  1  0.183246  0.282365  0.465552  1
  Tb  Tb2  1  0.183800  0.717855  0.901586  1
  Ho  Ho3  1  0.817130  0.282044  0.099082  1
  Ho  Ho4  1  0.690263  0.381246  0.691261  1
  Ho  Ho5  1  0.309260  0.618354  0.308525  1
  Ho  Ho6  1  0.690260  0.999391  0.308547  1
  Ho  Ho7  1  0.310147  0.001157  0.691296  1
  Ho  Ho8  1  0.589041  0.786221  0.803596  1
  Ho  Ho9  1  0.411314  0.214679  0.196249  1
  Ho  Ho10  1  0.981633  0.784952  0.196284  1
  Ho  Ho11  1  0.017426  0.214584  0.803631  1
  Co  Co12  1  0.621762  0.000012  0.621790  1
  Co  Co13  1  0.378288  0.999885  0.378199  1
  Co  Co14  1  0.110590  0.610165  0.499807  1
  Co  Co15  1  0.889221  0.388793  0.499821  1
  Tc  Tc16  1  0.999850  0.000825  0.000686  1
  Bi  Bi17  1  0.500167  0.499897  0.999997  1
