# generated using pymatgen
data_CeNp9S10
_symmetry_space_group_name_H-M   'P 1'
_cell_length_a   6.77609110
_cell_length_b   7.85497290
_cell_length_c   8.74658100
_cell_angle_alpha   103.01393619
_cell_angle_beta   97.61097594
_cell_angle_gamma   106.76430153
_symmetry_Int_Tables_number   1
_chemical_formula_structural   CeNp9S10
_chemical_formula_sum   'Ce1 Np9 S10'
_cell_volume   424.47654432
_cell_formula_units_Z   1
loop_
 _symmetry_equiv_pos_site_id
 _symmetry_equiv_pos_as_xyz
  1  'x, y, z'
loop_
 _atom_site_type_symbol
 _atom_site_label
 _atom_site_symmetry_multiplicity
 _atom_site_fract_x
 _atom_site_fract_y
 _atom_site_fract_z
 _atom_site_occupancy
  Ce  Ce0  1  0.000000  0.500000  0.000000  1
  Np  Np1  1  0.799320  0.600184  0.602189  1
  Np  Np2  1  0.604285  0.201562  0.201146  1
  Np  Np3  1  0.395715  0.798438  0.798854  1
  Np  Np4  1  0.600757  0.699808  0.200767  1
  Np  Np5  1  0.200680  0.399816  0.397811  1
  Np  Np6  1  0.399243  0.300192  0.799233  1
  Np  Np7  1  0.000000  0.000000  0.000000  1
  Np  Np8  1  0.201029  0.900017  0.400215  1
  Np  Np9  1  0.798971  0.099983  0.599785  1
  S  S10  1  0.693467  0.653943  0.898283  1
  S  S11  1  0.501320  0.253100  0.498035  1
  S  S12  1  0.693003  0.142152  0.898538  1
  S  S13  1  0.306997  0.857848  0.101462  1
  S  S14  1  0.498680  0.746900  0.501965  1
  S  S15  1  0.100797  0.449253  0.692860  1
  S  S16  1  0.306533  0.346057  0.101717  1
  S  S17  1  0.902363  0.051802  0.298931  1
  S  S18  1  0.097637  0.948198  0.701069  1
  S  S19  1  0.899203  0.550747  0.307140  1
