# generated using pymatgen
data_Er3Fe(Co4P3)2
_symmetry_space_group_name_H-M   'P 1'
_cell_length_a   3.67345800
_cell_length_b   10.48469200
_cell_length_c   12.13213300
_cell_angle_alpha   90.00000000
_cell_angle_beta   90.00000000
_cell_angle_gamma   90.00000000
_symmetry_Int_Tables_number   1
_chemical_formula_structural   Er3Fe(Co4P3)2
_chemical_formula_sum   'Er6 Fe2 Co16 P12'
_cell_volume   467.27002096
_cell_formula_units_Z   2
loop_
 _symmetry_equiv_pos_site_id
 _symmetry_equiv_pos_as_xyz
  1  'x, y, z'
loop_
 _atom_site_type_symbol
 _atom_site_label
 _atom_site_symmetry_multiplicity
 _atom_site_fract_x
 _atom_site_fract_y
 _atom_site_fract_z
 _atom_site_occupancy
  Er  Er0  1  0.750000  0.250000  0.478089  1
  Er  Er1  1  0.250000  0.750000  0.521911  1
  Er  Er2  1  0.250000  0.932658  0.794641  1
  Er  Er3  1  0.250000  0.567342  0.794641  1
  Er  Er4  1  0.750000  0.067342  0.205359  1
  Er  Er5  1  0.750000  0.432658  0.205359  1
  Fe  Fe6  1  0.250000  0.250000  0.842304  1
  Fe  Fe7  1  0.750000  0.750000  0.157696  1
  Co  Co8  1  0.250000  0.250000  0.297954  1
  Co  Co9  1  0.750000  0.750000  0.702046  1
  Co  Co10  1  0.750000  0.250000  0.014291  1
  Co  Co11  1  0.250000  0.750000  0.985709  1
  Co  Co12  1  0.250000  0.416996  0.005961  1
  Co  Co13  1  0.250000  0.083004  0.005961  1
  Co  Co14  1  0.750000  0.583004  0.994039  1
  Co  Co15  1  0.750000  0.916996  0.994039  1
  Co  Co16  1  0.250000  0.453124  0.569199  1
  Co  Co17  1  0.250000  0.046876  0.569199  1
  Co  Co18  1  0.750000  0.546876  0.430801  1
  Co  Co19  1  0.750000  0.953124  0.430801  1
  Co  Co20  1  0.250000  0.871526  0.291032  1
  Co  Co21  1  0.250000  0.628474  0.291032  1
  Co  Co22  1  0.750000  0.128474  0.708968  1
  Co  Co23  1  0.750000  0.371526  0.708968  1
  P  P24  1  0.250000  0.250000  0.118529  1
  P  P25  1  0.750000  0.750000  0.881471  1
  P  P26  1  0.250000  0.250000  0.656190  1
  P  P27  1  0.750000  0.750000  0.343810  1
  P  P28  1  0.250000  0.438635  0.383760  1
  P  P29  1  0.250000  0.061365  0.383760  1
  P  P30  1  0.750000  0.561365  0.616240  1
  P  P31  1  0.750000  0.938635  0.616240  1
  P  P32  1  0.250000  0.902677  0.107548  1
  P  P33  1  0.250000  0.597323  0.107548  1
  P  P34  1  0.750000  0.097323  0.892452  1
  P  P35  1  0.750000  0.402677  0.892452  1
