# generated using pymatgen
data_LaHg3(Pd2O7)2
_symmetry_space_group_name_H-M   'P 1'
_cell_length_a   7.35796980
_cell_length_b   7.35797024
_cell_length_c   7.35796882
_cell_angle_alpha   59.60382525
_cell_angle_beta   59.60381816
_cell_angle_gamma   59.60382685
_symmetry_Int_Tables_number   1
_chemical_formula_structural   LaHg3(Pd2O7)2
_chemical_formula_sum   'La1 Hg3 Pd4 O14'
_cell_volume   279.14553775
_cell_formula_units_Z   1
loop_
 _symmetry_equiv_pos_site_id
 _symmetry_equiv_pos_as_xyz
  1  'x, y, z'
loop_
 _atom_site_type_symbol
 _atom_site_label
 _atom_site_symmetry_multiplicity
 _atom_site_fract_x
 _atom_site_fract_y
 _atom_site_fract_z
 _atom_site_occupancy
  La  La0  1  0.125000  0.125000  0.125000  1
  Hg  Hg1  1  0.625000  0.125000  0.125000  1
  Hg  Hg2  1  0.125000  0.625000  0.125000  1
  Hg  Hg3  1  0.125000  0.125000  0.625000  1
  Pd  Pd4  1  0.625000  0.625000  0.125000  1
  Pd  Pd5  1  0.625000  0.625000  0.625000  1
  Pd  Pd6  1  0.625000  0.125000  0.625000  1
  Pd  Pd7  1  0.125000  0.625000  0.625000  1
  O  O8  1  0.711270  0.294780  0.294780  1
  O  O9  1  0.704699  0.704699  0.294170  1
  O  O10  1  0.294780  0.711270  0.294780  1
  O  O11  1  0.989015  0.989015  0.989015  1
  O  O12  1  0.704699  0.294170  0.704699  1
  O  O13  1  0.955830  0.545301  0.545301  1
  O  O14  1  0.294170  0.704699  0.704699  1
  O  O15  1  0.545301  0.955830  0.545301  1
  O  O16  1  0.260985  0.260985  0.260985  1
  O  O17  1  0.955220  0.538730  0.955220  1
  O  O18  1  0.545301  0.545301  0.955830  1
  O  O19  1  0.955220  0.955220  0.538730  1
  O  O20  1  0.538730  0.955220  0.955220  1
  O  O21  1  0.294780  0.294780  0.711270  1
