# generated using pymatgen
data_Er12GaCo3NiPb
_symmetry_space_group_name_H-M   'P 1'
_cell_length_a   8.27703354
_cell_length_b   8.27703277
_cell_length_c   8.27703350
_cell_angle_alpha   107.20646637
_cell_angle_beta   109.67477573
_cell_angle_gamma   111.56173412
_symmetry_Int_Tables_number   1
_chemical_formula_structural   Er12GaCo3NiPb
_chemical_formula_sum   'Er12 Ga1 Co3 Ni1 Pb1'
_cell_volume   435.88566147
_cell_formula_units_Z   1
loop_
 _symmetry_equiv_pos_site_id
 _symmetry_equiv_pos_as_xyz
  1  'x, y, z'
loop_
 _atom_site_type_symbol
 _atom_site_label
 _atom_site_symmetry_multiplicity
 _atom_site_fract_x
 _atom_site_fract_y
 _atom_site_fract_z
 _atom_site_occupancy
  Er  Er0  1  0.703586  0.270460  0.974047  1
  Er  Er1  1  0.296509  0.730248  0.026756  1
  Er  Er2  1  0.703586  0.729540  0.433127  1
  Er  Er3  1  0.296509  0.269752  0.566260  1
  Er  Er4  1  0.812427  0.131206  0.321661  1
  Er  Er5  1  0.812427  0.490767  0.681221  1
  Er  Er6  1  0.190455  0.868794  0.681221  1
  Er  Er7  1  0.190455  0.509233  0.321661  1
  Er  Er8  1  0.597261  0.780262  0.816999  1
  Er  Er9  1  0.963419  0.784198  0.179222  1
  Er  Er10  1  0.036738  0.219738  0.816999  1
  Er  Er11  1  0.395023  0.215802  0.179222  1
  Ga  Ga12  1  0.498227  0.500000  0.998227  1
  Co  Co13  1  0.150932  0.500000  0.650932  1
  Co  Co14  1  0.998263  0.114095  0.112359  1
  Co  Co15  1  0.998263  0.885905  0.884168  1
  Ni  Ni16  1  0.857103  0.500000  0.357103  1
  Pb  Pb17  1  0.498814  0.000000  0.498814  1
