# generated using pymatgen
data_NaY2CuS4
_symmetry_space_group_name_H-M   'P 1'
_cell_length_a   3.91221600
_cell_length_b   6.82958950
_cell_length_c   13.75081900
_cell_angle_alpha   90.00000000
_cell_angle_beta   90.00000000
_cell_angle_gamma   73.35645408
_symmetry_Int_Tables_number   1
_chemical_formula_structural   NaY2CuS4
_chemical_formula_sum   'Na2 Y4 Cu2 S8'
_cell_volume   352.01338239
_cell_formula_units_Z   2
loop_
 _symmetry_equiv_pos_site_id
 _symmetry_equiv_pos_as_xyz
  1  'x, y, z'
loop_
 _atom_site_type_symbol
 _atom_site_label
 _atom_site_symmetry_multiplicity
 _atom_site_fract_x
 _atom_site_fract_y
 _atom_site_fract_z
 _atom_site_occupancy
  Na  Na0  1  0.890997  0.218004  0.250000  1
  Na  Na1  1  0.109002  0.781997  0.750000  1
  Y  Y2  1  0.634655  0.730687  0.065582  1
  Y  Y3  1  0.634655  0.730687  0.434419  1
  Y  Y4  1  0.365345  0.269312  0.565582  1
  Y  Y5  1  0.365345  0.269312  0.934418  1
  Cu  Cu6  1  0.159962  0.680076  0.250000  1
  Cu  Cu7  1  0.840037  0.319924  0.750000  1
  S  S8  1  0.000000  0.000000  0.000000  1
  S  S9  1  0.269008  0.461986  0.115175  1
  S  S10  1  0.558487  0.883025  0.250000  1
  S  S11  1  0.269008  0.461986  0.384825  1
  S  S12  1  0.000000  0.000000  0.500000  1
  S  S13  1  0.730991  0.538014  0.615175  1
  S  S14  1  0.441513  0.116974  0.750000  1
  S  S15  1  0.730991  0.538014  0.884825  1
