# generated using pymatgen
data_DyTm2Fe8Os
_symmetry_space_group_name_H-M   'P 1'
_cell_length_a   5.07996926
_cell_length_b   5.07997004
_cell_length_c   8.70891329
_cell_angle_alpha   73.04302943
_cell_angle_beta   73.04302895
_cell_angle_gamma   60.00000197
_symmetry_Int_Tables_number   1
_chemical_formula_structural   DyTm2Fe8Os
_chemical_formula_sum   'Dy1 Tm2 Fe8 Os1'
_cell_volume   183.26387946
_cell_formula_units_Z   1
loop_
 _symmetry_equiv_pos_site_id
 _symmetry_equiv_pos_as_xyz
  1  'x, y, z'
loop_
 _atom_site_type_symbol
 _atom_site_label
 _atom_site_symmetry_multiplicity
 _atom_site_fract_x
 _atom_site_fract_y
 _atom_site_fract_z
 _atom_site_occupancy
  Dy  Dy0  1  0.000000  0.000000  0.000000  1
  Tm  Tm1  1  0.141796  0.141796  0.574612  1
  Tm  Tm2  1  0.858204  0.858204  0.425388  1
  Fe  Fe3  1  0.077216  0.582758  0.757268  1
  Fe  Fe4  1  0.582758  0.582758  0.757268  1
  Fe  Fe5  1  0.582758  0.077216  0.757268  1
  Fe  Fe6  1  0.922784  0.417242  0.242732  1
  Fe  Fe7  1  0.417242  0.417242  0.242732  1
  Fe  Fe8  1  0.417242  0.922784  0.242732  1
  Fe  Fe9  1  0.333072  0.333072  0.000783  1
  Fe  Fe10  1  0.666928  0.666928  0.999217  1
  Os  Os11  1  0.500000  0.500000  0.500000  1
