# generated using pymatgen
data_Hf4AlSi2MoN
_symmetry_space_group_name_H-M   'P 1'
_cell_length_a   7.80956937
_cell_length_b   7.82664528
_cell_length_c   5.43192924
_cell_angle_alpha   89.98273834
_cell_angle_beta   90.03460614
_cell_angle_gamma   119.92786663
_symmetry_Int_Tables_number   1
_chemical_formula_structural   Hf4AlSi2MoN
_chemical_formula_sum   'Hf8 Al2 Si4 Mo2 N2'
_cell_volume   287.74156968
_cell_formula_units_Z   2
loop_
 _symmetry_equiv_pos_site_id
 _symmetry_equiv_pos_as_xyz
  1  'x, y, z'
loop_
 _atom_site_type_symbol
 _atom_site_label
 _atom_site_symmetry_multiplicity
 _atom_site_fract_x
 _atom_site_fract_y
 _atom_site_fract_z
 _atom_site_occupancy
  Hf  Hf0  1  0.235906  0.000000  0.248936  1
  Hf  Hf1  1  0.000561  0.233642  0.252200  1
  Hf  Hf2  1  0.766919  0.766358  0.252200  1
  Hf  Hf3  1  0.663097  0.328600  0.499099  1
  Hf  Hf4  1  0.334496  0.671400  0.499099  1
  Hf  Hf5  1  0.764637  0.000000  0.748434  1
  Hf  Hf6  1  0.003592  0.769923  0.748862  1
  Hf  Hf7  1  0.233669  0.230077  0.748862  1
  Al  Al8  1  0.000310  0.410304  0.771743  1
  Al  Al9  1  0.590006  0.589696  0.771743  1
  Si  Si10  1  0.593157  0.000000  0.228524  1
  Si  Si11  1  0.997877  0.588233  0.228647  1
  Si  Si12  1  0.409643  0.411767  0.228647  1
  Si  Si13  1  0.408490  0.000000  0.772153  1
  Mo  Mo14  1  0.661784  0.327280  0.001744  1
  Mo  Mo15  1  0.334503  0.672720  0.001744  1
  N  N16  1  0.000197  0.000000  0.999505  1
  N  N17  1  0.001156  0.000000  0.497861  1
