# generated using pymatgen
data_CaPrTiSbO7
_symmetry_space_group_name_H-M   'P 1'
_cell_length_a   7.34614400
_cell_length_b   7.34614400
_cell_length_c   10.39909200
_cell_angle_alpha   90.00000000
_cell_angle_beta   90.00000000
_cell_angle_gamma   90.00000000
_symmetry_Int_Tables_number   1
_chemical_formula_structural   CaPrTiSbO7
_chemical_formula_sum   'Ca4 Pr4 Ti4 Sb4 O28'
_cell_volume   561.19564838
_cell_formula_units_Z   4
loop_
 _symmetry_equiv_pos_site_id
 _symmetry_equiv_pos_as_xyz
  1  'x, y, z'
loop_
 _atom_site_type_symbol
 _atom_site_label
 _atom_site_symmetry_multiplicity
 _atom_site_fract_x
 _atom_site_fract_y
 _atom_site_fract_z
 _atom_site_occupancy
  Ca  Ca0  1  0.500000  0.748115  0.000000  1
  Ca  Ca1  1  0.500000  0.251885  0.500000  1
  Ca  Ca2  1  0.748115  0.500000  0.750000  1
  Ca  Ca3  1  0.251885  0.500000  0.250000  1
  Pr  Pr4  1  0.000000  0.742890  0.000000  1
  Pr  Pr5  1  0.257110  0.000000  0.250000  1
  Pr  Pr6  1  0.000000  0.257110  0.500000  1
  Pr  Pr7  1  0.742890  0.000000  0.750000  1
  Ti  Ti8  1  0.757490  0.000000  0.250000  1
  Ti  Ti9  1  0.000000  0.757490  0.500000  1
  Ti  Ti10  1  0.242510  0.000000  0.750000  1
  Ti  Ti11  1  0.000000  0.242510  0.000000  1
  Sb  Sb12  1  0.247120  0.500000  0.750000  1
  Sb  Sb13  1  0.500000  0.752880  0.500000  1
  Sb  Sb14  1  0.500000  0.247120  0.000000  1
  Sb  Sb15  1  0.752880  0.500000  0.250000  1
  O  O16  1  0.254906  0.745094  0.125000  1
  O  O17  1  0.553295  0.948550  0.372587  1
  O  O18  1  0.745094  0.254906  0.625000  1
  O  O19  1  0.947156  0.947156  0.375000  1
  O  O20  1  0.051450  0.446705  0.877413  1
  O  O21  1  0.052844  0.052844  0.875000  1
  O  O22  1  0.052844  0.947156  0.625000  1
  O  O23  1  0.249198  0.245024  0.073022  1
  O  O24  1  0.245024  0.249198  0.676978  1
  O  O25  1  0.249198  0.754976  0.426978  1
  O  O26  1  0.451403  0.451403  0.875000  1
  O  O27  1  0.446705  0.051450  0.872587  1
  O  O28  1  0.446705  0.948550  0.627413  1
  O  O29  1  0.548597  0.548597  0.375000  1
  O  O30  1  0.553295  0.051450  0.127413  1
  O  O31  1  0.548597  0.451403  0.125000  1
  O  O32  1  0.750802  0.754976  0.573022  1
  O  O33  1  0.745094  0.745094  0.875000  1
  O  O34  1  0.754976  0.249198  0.323022  1
  O  O35  1  0.754976  0.750802  0.176978  1
  O  O36  1  0.750802  0.245024  0.926978  1
  O  O37  1  0.948550  0.553295  0.377413  1
  O  O38  1  0.948550  0.446705  0.122587  1
  O  O39  1  0.947156  0.052844  0.125000  1
  O  O40  1  0.051450  0.553295  0.622587  1
  O  O41  1  0.254906  0.254906  0.375000  1
  O  O42  1  0.245024  0.750802  0.823022  1
  O  O43  1  0.451403  0.548597  0.625000  1
