# generated using pymatgen
data_Ba4Tb3Pr5S16
_symmetry_space_group_name_H-M   'P 1'
_cell_length_a   4.17643200
_cell_length_b   12.43746243
_cell_length_c   14.91008034
_cell_angle_alpha   89.80942274
_cell_angle_beta   90.00000000
_cell_angle_gamma   90.00000000
_symmetry_Int_Tables_number   1
_chemical_formula_structural   Ba4Tb3Pr5S16
_chemical_formula_sum   'Ba4 Tb3 Pr5 S16'
_cell_volume   774.48815112
_cell_formula_units_Z   1
loop_
 _symmetry_equiv_pos_site_id
 _symmetry_equiv_pos_as_xyz
  1  'x, y, z'
loop_
 _atom_site_type_symbol
 _atom_site_label
 _atom_site_symmetry_multiplicity
 _atom_site_fract_x
 _atom_site_fract_y
 _atom_site_fract_z
 _atom_site_occupancy
  Ba  Ba0  1  0.250000  0.757218  0.342163  1
  Ba  Ba1  1  0.250000  0.254344  0.161385  1
  Ba  Ba2  1  0.750000  0.242923  0.655719  1
  Ba  Ba3  1  0.750000  0.743646  0.840704  1
  Tb  Tb4  1  0.250000  0.924390  0.602039  1
  Tb  Tb5  1  0.750000  0.577652  0.104994  1
  Tb  Tb6  1  0.750000  0.074272  0.397489  1
  Pr  Pr7  1  0.250000  0.424812  0.390522  1
  Pr  Pr8  1  0.250000  0.923735  0.108835  1
  Pr  Pr9  1  0.750000  0.577773  0.606618  1
  Pr  Pr10  1  0.750000  0.072736  0.889499  1
  Pr  Pr11  1  0.250000  0.423696  0.898554  1
  S  S12  1  0.250000  0.210314  0.823690  1
  S  S13  1  0.250000  0.716163  0.671277  1
  S  S14  1  0.750000  0.785527  0.174647  1
  S  S15  1  0.750000  0.283772  0.329221  1
  S  S16  1  0.250000  0.125088  0.519875  1
  S  S17  1  0.250000  0.631323  0.982994  1
  S  S18  1  0.750000  0.873713  0.479597  1
  S  S19  1  0.750000  0.374110  0.027803  1
  S  S20  1  0.250000  0.019492  0.287362  1
  S  S21  1  0.250000  0.520635  0.213831  1
  S  S22  1  0.750000  0.978955  0.711734  1
  S  S23  1  0.750000  0.484543  0.783236  1
  S  S24  1  0.250000  0.420512  0.579673  1
  S  S25  1  0.250000  0.918108  0.919206  1
  S  S26  1  0.750000  0.580838  0.417850  1
  S  S27  1  0.750000  0.079708  0.079486  1
