# generated using pymatgen
data_Zn2Ir3RhO12
_symmetry_space_group_name_H-M   'P 1'
_cell_length_a   4.57017163
_cell_length_b   4.57017163
_cell_length_c   9.47377800
_cell_angle_alpha   90.00000000
_cell_angle_beta   90.00000000
_cell_angle_gamma   90.09686009
_symmetry_Int_Tables_number   1
_chemical_formula_structural   Zn2Ir3RhO12
_chemical_formula_sum   'Zn2 Ir3 Rh1 O12'
_cell_volume   197.87348541
_cell_formula_units_Z   1
loop_
 _symmetry_equiv_pos_site_id
 _symmetry_equiv_pos_as_xyz
  1  'x, y, z'
loop_
 _atom_site_type_symbol
 _atom_site_label
 _atom_site_symmetry_multiplicity
 _atom_site_fract_x
 _atom_site_fract_y
 _atom_site_fract_z
 _atom_site_occupancy
  Zn  Zn0  1  0.000000  0.000000  0.999720  1
  Zn  Zn1  1  0.500000  0.500000  0.500774  1
  Ir  Ir2  1  0.000000  0.000000  0.332314  1
  Ir  Ir3  1  0.500000  0.500000  0.166528  1
  Ir  Ir4  1  0.000000  0.000000  0.669515  1
  Rh  Rh5  1  0.500000  0.500000  0.830949  1
  O  O6  1  0.702767  0.702767  0.668808  1
  O  O7  1  0.297233  0.297233  0.668808  1
  O  O8  1  0.698674  0.698674  0.328482  1
  O  O9  1  0.199439  0.800561  0.171810  1
  O  O10  1  0.800561  0.199439  0.171810  1
  O  O11  1  0.805827  0.194173  0.828831  1
  O  O12  1  0.313480  0.313480  0.002197  1
  O  O13  1  0.185877  0.814123  0.499973  1
  O  O14  1  0.814123  0.185877  0.499973  1
  O  O15  1  0.686520  0.686520  0.002197  1
  O  O16  1  0.301326  0.301326  0.328482  1
  O  O17  1  0.194173  0.805827  0.828831  1
