# generated using pymatgen
data_NdLu3(ScPt)4
_symmetry_space_group_name_H-M   'P 1'
_cell_length_a   4.60669200
_cell_length_b   6.93427162
_cell_length_c   8.41001580
_cell_angle_alpha   90.28882378
_cell_angle_beta   90.00000000
_cell_angle_gamma   90.00000000
_symmetry_Int_Tables_number   1
_chemical_formula_structural   NdLu3(ScPt)4
_chemical_formula_sum   'Nd1 Lu3 Sc4 Pt4'
_cell_volume   268.64658182
_cell_formula_units_Z   1
loop_
 _symmetry_equiv_pos_site_id
 _symmetry_equiv_pos_as_xyz
  1  'x, y, z'
loop_
 _atom_site_type_symbol
 _atom_site_label
 _atom_site_symmetry_multiplicity
 _atom_site_fract_x
 _atom_site_fract_y
 _atom_site_fract_z
 _atom_site_occupancy
  Nd  Nd0  1  0.750000  0.514524  0.822780  1
  Lu  Lu1  1  0.250000  0.983670  0.324941  1
  Lu  Lu2  1  0.750000  0.017598  0.672289  1
  Lu  Lu3  1  0.250000  0.482974  0.177760  1
  Sc  Sc4  1  0.750000  0.642840  0.423931  1
  Sc  Sc5  1  0.250000  0.357653  0.567812  1
  Sc  Sc6  1  0.750000  0.139978  0.076022  1
  Sc  Sc7  1  0.250000  0.859453  0.926489  1
  Pt  Pt8  1  0.250000  0.240770  0.905440  1
  Pt  Pt9  1  0.750000  0.755234  0.106342  1
  Pt  Pt10  1  0.250000  0.752841  0.594886  1
  Pt  Pt11  1  0.750000  0.252465  0.401308  1
