# generated using pymatgen
data_Rb4Cd4Si3GeAs8
_symmetry_space_group_name_H-M   'P 1'
_cell_length_a   8.54030357
_cell_length_b   8.62422084
_cell_length_c   8.79315267
_cell_angle_alpha   70.62569083
_cell_angle_beta   75.61140336
_cell_angle_gamma   72.68380553
_symmetry_Int_Tables_number   1
_chemical_formula_structural   Rb4Cd4Si3GeAs8
_chemical_formula_sum   'Rb4 Cd4 Si3 Ge1 As8'
_cell_volume   575.15932612
_cell_formula_units_Z   1
loop_
 _symmetry_equiv_pos_site_id
 _symmetry_equiv_pos_as_xyz
  1  'x, y, z'
loop_
 _atom_site_type_symbol
 _atom_site_label
 _atom_site_symmetry_multiplicity
 _atom_site_fract_x
 _atom_site_fract_y
 _atom_site_fract_z
 _atom_site_occupancy
  Rb  Rb0  1  0.446080  0.763889  0.320966  1
  Rb  Rb1  1  0.554428  0.236488  0.679368  1
  Rb  Rb2  1  0.433512  0.800400  0.817114  1
  Rb  Rb3  1  0.565910  0.200557  0.184018  1
  Cd  Cd4  1  0.996252  0.897306  0.688733  1
  Cd  Cd5  1  0.005337  0.102451  0.309224  1
  Cd  Cd6  1  0.961075  0.816140  0.172755  1
  Cd  Cd7  1  0.033201  0.182729  0.831189  1
  Si  Si8  1  0.040450  0.410040  0.398392  1
  Si  Si9  1  0.145892  0.448654  0.977407  1
  Si  Si10  1  0.855618  0.551425  0.021741  1
  Ge  Ge11  1  0.963368  0.581924  0.593262  1
  As  As12  1  0.807185  0.874913  0.464845  1
  As  As13  1  0.189522  0.134177  0.533706  1
  As  As14  1  0.789174  0.414817  0.310556  1
  As  As15  1  0.217207  0.587618  0.691743  1
  As  As16  1  0.766005  0.854594  0.962406  1
  As  As17  1  0.234794  0.145379  0.035817  1
  As  As18  1  0.768949  0.452945  0.834696  1
  As  As19  1  0.226040  0.543555  0.172062  1
