# generated using pymatgen
data_Ho8V11Si16Os
_symmetry_space_group_name_H-M   'P 1'
_cell_length_a   6.79431346
_cell_length_b   6.79431303
_cell_length_c   12.59374805
_cell_angle_alpha   90.01461428
_cell_angle_beta   89.98538251
_cell_angle_gamma   89.71219407
_symmetry_Int_Tables_number   1
_chemical_formula_structural   Ho8V11Si16Os
_chemical_formula_sum   'Ho8 V11 Si16 Os1'
_cell_volume   581.35394628
_cell_formula_units_Z   1
loop_
 _symmetry_equiv_pos_site_id
 _symmetry_equiv_pos_as_xyz
  1  'x, y, z'
loop_
 _atom_site_type_symbol
 _atom_site_label
 _atom_site_symmetry_multiplicity
 _atom_site_fract_x
 _atom_site_fract_y
 _atom_site_fract_z
 _atom_site_occupancy
  Ho  Ho0  1  0.999047  0.662838  0.029384  1
  Ho  Ho1  1  0.836947  0.497848  0.280059  1
  Ho  Ho2  1  0.163137  0.499500  0.780625  1
  Ho  Ho3  1  0.497848  0.836947  0.719941  1
  Ho  Ho4  1  0.499500  0.163137  0.219375  1
  Ho  Ho5  1  0.001894  0.337225  0.529932  1
  Ho  Ho6  1  0.662838  0.999047  0.970616  1
  Ho  Ho7  1  0.337225  0.001894  0.470068  1
  V  V8  1  0.171948  0.832785  0.247480  1
  V  V9  1  0.832785  0.171948  0.752520  1
  V  V10  1  0.669864  0.669864  0.500000  1
  V  V11  1  0.002408  0.155032  0.126715  1
  V  V12  1  0.339816  0.507085  0.374507  1
  V  V13  1  0.668941  0.492278  0.873228  1
  V  V14  1  0.507085  0.339816  0.625493  1
  V  V15  1  0.492278  0.668941  0.126772  1
  V  V16  1  0.990703  0.839451  0.624380  1
  V  V17  1  0.155032  0.002408  0.873285  1
  V  V18  1  0.839451  0.990703  0.375620  1
  Si  Si19  1  0.285161  0.963340  0.062127  1
  Si  Si20  1  0.539633  0.788913  0.315175  1
  Si  Si21  1  0.459086  0.211797  0.815751  1
  Si  Si22  1  0.788913  0.539633  0.684825  1
  Si  Si23  1  0.211797  0.459086  0.184249  1
  Si  Si24  1  0.711747  0.040830  0.565447  1
  Si  Si25  1  0.963340  0.285161  0.937873  1
  Si  Si26  1  0.040830  0.711747  0.434553  1
  Si  Si27  1  0.695790  0.379983  0.064999  1
  Si  Si28  1  0.124454  0.198807  0.314940  1
  Si  Si29  1  0.876053  0.798371  0.814364  1
  Si  Si30  1  0.198807  0.124454  0.685060  1
  Si  Si31  1  0.798371  0.876053  0.185636  1
  Si  Si32  1  0.300300  0.624312  0.564571  1
  Si  Si33  1  0.379983  0.695790  0.935001  1
  Si  Si34  1  0.624312  0.300300  0.435429  1
  Os  Os35  1  0.332671  0.332671  0.000000  1
