# generated using pymatgen
data_Dy2Lu2(Ga8Pt3)3
_symmetry_space_group_name_H-M   'P 1'
_cell_length_a   7.55758342
_cell_length_b   7.57082703
_cell_length_c   13.27365885
_cell_angle_alpha   84.64740262
_cell_angle_beta   79.25768562
_cell_angle_gamma   60.03650394
_symmetry_Int_Tables_number   1
_chemical_formula_structural   Dy2Lu2(Ga8Pt3)3
_chemical_formula_sum   'Dy2 Lu2 Ga24 Pt9'
_cell_volume   646.44096138
_cell_formula_units_Z   1
loop_
 _symmetry_equiv_pos_site_id
 _symmetry_equiv_pos_as_xyz
  1  'x, y, z'
loop_
 _atom_site_type_symbol
 _atom_site_label
 _atom_site_symmetry_multiplicity
 _atom_site_fract_x
 _atom_site_fract_y
 _atom_site_fract_z
 _atom_site_occupancy
  Dy  Dy0  1  0.393840  0.167862  0.809891  1
  Dy  Dy1  1  0.606160  0.832138  0.190109  1
  Lu  Lu2  1  0.732878  0.498526  0.807873  1
  Lu  Lu3  1  0.267122  0.501474  0.192127  1
  Ga  Ga4  1  0.683945  0.832213  0.938147  1
  Ga  Ga5  1  0.316055  0.167787  0.061853  1
  Ga  Ga6  1  0.146688  0.832635  0.560897  1
  Ga  Ga7  1  0.853312  0.167365  0.439103  1
  Ga  Ga8  1  0.480063  0.166644  0.557716  1
  Ga  Ga9  1  0.519937  0.833356  0.442284  1
  Ga  Ga10  1  0.220316  0.165868  0.325291  1
  Ga  Ga11  1  0.779684  0.834132  0.674709  1
  Ga  Ga12  1  0.437128  0.504719  0.674528  1
  Ga  Ga13  1  0.562872  0.495281  0.325472  1
  Ga  Ga14  1  0.107650  0.162114  0.674221  1
  Ga  Ga15  1  0.892350  0.837886  0.325779  1
  Ga  Ga16  1  0.358617  0.496979  0.939017  1
  Ga  Ga17  1  0.641383  0.503021  0.060983  1
  Ga  Ga18  1  0.017488  0.171555  0.943580  1
  Ga  Ga19  1  0.982512  0.828445  0.056420  1
  Ga  Ga20  1  0.186118  0.499755  0.442336  1
  Ga  Ga21  1  0.813882  0.500245  0.557664  1
  Ga  Ga22  1  0.734271  0.166103  0.182597  1
  Ga  Ga23  1  0.265729  0.833897  0.817403  1
  Ga  Ga24  1  0.059488  0.631839  0.816956  1
  Ga  Ga25  1  0.940512  0.368161  0.183044  1
  Ga  Ga26  1  0.856857  0.041516  0.816990  1
  Ga  Ga27  1  0.143143  0.958484  0.183010  1
  Pt  Pt28  1  0.118249  0.492947  0.639974  1
  Pt  Pt29  1  0.881751  0.507053  0.360026  1
  Pt  Pt30  1  0.660483  0.168832  0.999828  1
  Pt  Pt31  1  0.339517  0.831168  0.000172  1
  Pt  Pt32  1  0.537833  0.167713  0.360066  1
  Pt  Pt33  1  0.462167  0.832287  0.639934  1
  Pt  Pt34  1  0.778191  0.174964  0.638443  1
  Pt  Pt35  1  0.221809  0.825036  0.361557  1
  Pt  Pt36  1  0.000000  0.500000  0.000000  1
