# generated using pymatgen
data_Tm2(GaNi)5
_symmetry_space_group_name_H-M   'P 1'
_cell_length_a   4.05020700
_cell_length_b   8.79734129
_cell_length_c   15.40736443
_cell_angle_alpha   89.73552084
_cell_angle_beta   90.00000000
_cell_angle_gamma   90.00000000
_symmetry_Int_Tables_number   1
_chemical_formula_structural   Tm2(GaNi)5
_chemical_formula_sum   'Tm6 Ga15 Ni15'
_cell_volume   548.97477422
_cell_formula_units_Z   3
loop_
 _symmetry_equiv_pos_site_id
 _symmetry_equiv_pos_as_xyz
  1  'x, y, z'
loop_
 _atom_site_type_symbol
 _atom_site_label
 _atom_site_symmetry_multiplicity
 _atom_site_fract_x
 _atom_site_fract_y
 _atom_site_fract_z
 _atom_site_occupancy
  Tm  Tm0  1  0.000000  0.999666  0.337739  1
  Tm  Tm1  1  0.000000  0.505104  0.834763  1
  Tm  Tm2  1  0.000000  0.505394  0.170425  1
  Tm  Tm3  1  0.000000  0.005995  0.663114  1
  Tm  Tm4  1  0.500000  0.989061  0.001151  1
  Tm  Tm5  1  0.500000  0.497662  0.495202  1
  Ga  Ga6  1  0.500000  0.013555  0.502035  1
  Ga  Ga7  1  0.500000  0.511364  0.001218  1
  Ga  Ga8  1  0.500000  0.745298  0.258659  1
  Ga  Ga9  1  0.500000  0.252928  0.752963  1
  Ga  Ga10  1  0.500000  0.245758  0.246789  1
  Ga  Ga11  1  0.500000  0.752724  0.745885  1
  Ga  Ga12  1  0.000000  0.147349  0.853554  1
  Ga  Ga13  1  0.000000  0.144899  0.147432  1
  Ga  Ga14  1  0.000000  0.650533  0.647028  1
  Ga  Ga15  1  0.000000  0.776343  0.493354  1
  Ga  Ga16  1  0.000000  0.296434  0.001036  1
  Ga  Ga17  1  0.000000  0.849178  0.137338  1
  Ga  Ga18  1  0.000000  0.355693  0.633804  1
  Ga  Ga19  1  0.000000  0.364562  0.364971  1
  Ga  Ga20  1  0.000000  0.852855  0.865602  1
  Ni  Ni21  1  0.500000  0.990965  0.184293  1
  Ni  Ni22  1  0.500000  0.498338  0.681675  1
  Ni  Ni23  1  0.500000  0.223762  0.402483  1
  Ni  Ni24  1  0.500000  0.723533  0.903528  1
  Ni  Ni25  1  0.500000  0.784295  0.411027  1
  Ni  Ni26  1  0.500000  0.277105  0.911362  1
  Ni  Ni27  1  0.500000  0.491349  0.314473  1
  Ni  Ni28  1  0.500000  0.997169  0.816604  1
  Ni  Ni29  1  0.500000  0.722082  0.098287  1
  Ni  Ni30  1  0.500000  0.227978  0.595544  1
  Ni  Ni31  1  0.500000  0.276062  0.090057  1
  Ni  Ni32  1  0.500000  0.778558  0.587764  1
  Ni  Ni33  1  0.000000  0.200689  0.498745  1
  Ni  Ni34  1  0.000000  0.696728  0.000684  1
  Ni  Ni35  1  0.000000  0.649231  0.349408  1
