# generated using pymatgen
data_Dy2Er8Tl7InPt4
_symmetry_space_group_name_H-M   'P 1'
_cell_length_a   3.58622300
_cell_length_b   8.24332823
_cell_length_c   18.38384735
_cell_angle_alpha   89.89800634
_cell_angle_beta   90.00000000
_cell_angle_gamma   90.00000000
_symmetry_Int_Tables_number   1
_chemical_formula_structural   Dy2Er8Tl7InPt4
_chemical_formula_sum   'Dy2 Er8 Tl7 In1 Pt4'
_cell_volume   543.47003255
_cell_formula_units_Z   1
loop_
 _symmetry_equiv_pos_site_id
 _symmetry_equiv_pos_as_xyz
  1  'x, y, z'
loop_
 _atom_site_type_symbol
 _atom_site_label
 _atom_site_symmetry_multiplicity
 _atom_site_fract_x
 _atom_site_fract_y
 _atom_site_fract_z
 _atom_site_occupancy
  Dy  Dy0  1  0.000000  0.999877  0.000049  1
  Dy  Dy1  1  0.000000  0.501791  0.499709  1
  Er  Er2  1  0.000000  0.114952  0.412959  1
  Er  Er3  1  0.000000  0.884196  0.586504  1
  Er  Er4  1  0.000000  0.384773  0.912516  1
  Er  Er5  1  0.000000  0.615238  0.087512  1
  Er  Er6  1  0.000000  0.243698  0.220901  1
  Er  Er7  1  0.000000  0.756825  0.779414  1
  Er  Er8  1  0.000000  0.255998  0.720359  1
  Er  Er9  1  0.000000  0.743489  0.279791  1
  Tl  Tl10  1  0.500000  0.422910  0.352682  1
  Tl  Tl11  1  0.500000  0.579656  0.647740  1
  Tl  Tl12  1  0.500000  0.079258  0.852229  1
  Tl  Tl13  1  0.500000  0.921030  0.148011  1
  Tl  Tl14  1  0.500000  0.293734  0.065092  1
  Tl  Tl15  1  0.500000  0.706214  0.934921  1
  Tl  Tl16  1  0.500000  0.206062  0.564876  1
  In  In17  1  0.500000  0.794987  0.433694  1
  Pt  Pt18  1  0.500000  0.023323  0.304279  1
  Pt  Pt19  1  0.500000  0.972855  0.696865  1
  Pt  Pt20  1  0.500000  0.472915  0.802852  1
  Pt  Pt21  1  0.500000  0.526218  0.197045  1
