# generated using pymatgen
data_Tb3Sn2Hg3
_symmetry_space_group_name_H-M   'P 1'
_cell_length_a   6.35781416
_cell_length_b   6.35781356
_cell_length_c   10.41374700
_cell_angle_alpha   90.00000000
_cell_angle_beta   90.00000000
_cell_angle_gamma   100.94216753
_symmetry_Int_Tables_number   1
_chemical_formula_structural   Tb3Sn2Hg3
_chemical_formula_sum   'Tb6 Sn4 Hg6'
_cell_volume   413.28933213
_cell_formula_units_Z   2
loop_
 _symmetry_equiv_pos_site_id
 _symmetry_equiv_pos_as_xyz
  1  'x, y, z'
loop_
 _atom_site_type_symbol
 _atom_site_label
 _atom_site_symmetry_multiplicity
 _atom_site_fract_x
 _atom_site_fract_y
 _atom_site_fract_z
 _atom_site_occupancy
  Tb  Tb0  1  0.620999  0.620999  0.250000  1
  Tb  Tb1  1  0.379001  0.379001  0.750000  1
  Tb  Tb2  1  0.202767  0.797233  0.500000  1
  Tb  Tb3  1  0.202767  0.797233  0.000000  1
  Tb  Tb4  1  0.797233  0.202767  0.500000  1
  Tb  Tb5  1  0.797233  0.202767  0.000000  1
  Sn  Sn6  1  0.308595  0.308595  0.044665  1
  Sn  Sn7  1  0.691405  0.691405  0.955335  1
  Sn  Sn8  1  0.308595  0.308595  0.455335  1
  Sn  Sn9  1  0.691405  0.691405  0.544665  1
  Hg  Hg10  1  0.004083  0.004083  0.250000  1
  Hg  Hg11  1  0.995917  0.995917  0.750000  1
  Hg  Hg12  1  0.505718  0.067633  0.250000  1
  Hg  Hg13  1  0.932367  0.494282  0.750000  1
  Hg  Hg14  1  0.494282  0.932367  0.750000  1
  Hg  Hg15  1  0.067633  0.505718  0.250000  1
