# generated using pymatgen
data_La6TcPdI6
_symmetry_space_group_name_H-M   'P 1'
_cell_length_a   11.03864546
_cell_length_b   11.03864596
_cell_length_c   11.06605488
_cell_angle_alpha   109.95688502
_cell_angle_beta   109.95688977
_cell_angle_gamma   108.40180782
_symmetry_Int_Tables_number   1
_chemical_formula_structural   La6TcPdI6
_chemical_formula_sum   'La12 Tc2 Pd2 I12'
_cell_volume   1039.07623151
_cell_formula_units_Z   2
loop_
 _symmetry_equiv_pos_site_id
 _symmetry_equiv_pos_as_xyz
  1  'x, y, z'
loop_
 _atom_site_type_symbol
 _atom_site_label
 _atom_site_symmetry_multiplicity
 _atom_site_fract_x
 _atom_site_fract_y
 _atom_site_fract_z
 _atom_site_occupancy
  La  La0  1  0.458954  0.476793  0.232509  1
  La  La1  1  0.744284  0.226446  0.267491  1
  La  La2  1  0.730322  0.010551  0.467334  1
  La  La3  1  0.237013  0.456782  0.467334  1
  La  La4  1  0.273554  0.755716  0.232509  1
  La  La5  1  0.043218  0.262987  0.032666  1
  La  La6  1  0.023207  0.041046  0.267491  1
  La  La7  1  0.489449  0.769678  0.032666  1
  La  La8  1  0.478499  0.228499  0.456998  1
  La  La9  1  0.020769  0.479231  0.750000  1
  La  La10  1  0.271501  0.021501  0.043002  1
  La  La11  1  0.229231  0.270769  0.750000  1
  Tc  Tc12  1  0.240603  0.259397  0.250000  1
  Tc  Tc13  1  0.509397  0.990603  0.250000  1
  Pd  Pd14  1  0.001405  0.251405  0.502809  1
  Pd  Pd15  1  0.248595  0.498595  0.997191  1
  I  I16  1  0.248286  0.757454  0.743154  1
  I  I17  1  0.514301  0.505131  0.756846  1
  I  I18  1  0.983281  0.742350  0.989743  1
  I  I19  1  0.742546  0.251714  0.756846  1
  I  I20  1  0.994869  0.985699  0.743154  1
  I  I21  1  0.252607  0.993537  0.510257  1
  I  I22  1  0.757650  0.516719  0.510257  1
  I  I23  1  0.506463  0.247393  0.989743  1
  I  I24  1  0.758635  0.741365  0.250000  1
  I  I25  1  0.739907  0.989907  0.979813  1
  I  I26  1  0.991365  0.508635  0.250000  1
  I  I27  1  0.510093  0.760093  0.520187  1
