# generated using pymatgen
data_Tb5Ho5Tl4(InPd)4
_symmetry_space_group_name_H-M   'P 1'
_cell_length_a   3.62940500
_cell_length_b   8.20865922
_cell_length_c   18.35827003
_cell_angle_alpha   89.95481320
_cell_angle_beta   90.00000000
_cell_angle_gamma   90.00000000
_symmetry_Int_Tables_number   1
_chemical_formula_structural   Tb5Ho5Tl4(InPd)4
_chemical_formula_sum   'Tb5 Ho5 Tl4 In4 Pd4'
_cell_volume   546.93948602
_cell_formula_units_Z   1
loop_
 _symmetry_equiv_pos_site_id
 _symmetry_equiv_pos_as_xyz
  1  'x, y, z'
loop_
 _atom_site_type_symbol
 _atom_site_label
 _atom_site_symmetry_multiplicity
 _atom_site_fract_x
 _atom_site_fract_y
 _atom_site_fract_z
 _atom_site_occupancy
  Tb  Tb0  1  0.000000  0.500141  0.499707  1
  Tb  Tb1  1  0.000000  0.999768  0.000043  1
  Tb  Tb2  1  0.000000  0.740345  0.281426  1
  Tb  Tb3  1  0.000000  0.259794  0.718472  1
  Tb  Tb4  1  0.000000  0.759771  0.781580  1
  Ho  Ho5  1  0.000000  0.240533  0.218748  1
  Ho  Ho6  1  0.000000  0.616663  0.085392  1
  Ho  Ho7  1  0.000000  0.382843  0.915244  1
  Ho  Ho8  1  0.000000  0.882995  0.584834  1
  Ho  Ho9  1  0.000000  0.117189  0.414737  1
  Tl  Tl10  1  0.500000  0.706903  0.933941  1
  Tl  Tl11  1  0.500000  0.292249  0.066820  1
  Tl  Tl12  1  0.500000  0.793359  0.433513  1
  Tl  Tl13  1  0.500000  0.207202  0.566179  1
  In  In14  1  0.500000  0.583908  0.650627  1
  In  In15  1  0.500000  0.415445  0.348886  1
  In  In16  1  0.500000  0.917454  0.150853  1
  In  In17  1  0.500000  0.083866  0.849354  1
  Pd  Pd18  1  0.500000  0.525608  0.197166  1
  Pd  Pd19  1  0.500000  0.472109  0.803186  1
  Pd  Pd20  1  0.500000  0.972249  0.696836  1
  Pd  Pd21  1  0.500000  0.029605  0.302455  1
