# generated using pymatgen
data_Tb3Dy3IrI10
_symmetry_space_group_name_H-M   'P 1'
_cell_length_a   7.76007635
_cell_length_b   9.73324803
_cell_length_c   9.78068793
_cell_angle_alpha   107.05483013
_cell_angle_beta   104.64841917
_cell_angle_gamma   96.86655548
_symmetry_Int_Tables_number   1
_chemical_formula_structural   Tb3Dy3IrI10
_chemical_formula_sum   'Tb3 Dy3 Ir1 I10'
_cell_volume   668.14459020
_cell_formula_units_Z   1
loop_
 _symmetry_equiv_pos_site_id
 _symmetry_equiv_pos_as_xyz
  1  'x, y, z'
loop_
 _atom_site_type_symbol
 _atom_site_label
 _atom_site_symmetry_multiplicity
 _atom_site_fract_x
 _atom_site_fract_y
 _atom_site_fract_z
 _atom_site_occupancy
  Tb  Tb0  1  0.970609  0.086758  0.288265  1
  Tb  Tb1  1  0.114246  0.763202  0.042271  1
  Tb  Tb2  1  0.885511  0.236640  0.957853  1
  Dy  Dy3  1  0.651774  0.833119  0.874945  1
  Dy  Dy4  1  0.348143  0.166711  0.124377  1
  Dy  Dy5  1  0.029200  0.913588  0.713402  1
  Ir  Ir6  1  0.999952  0.999991  0.000202  1
  I  I7  1  0.646571  0.727913  0.548362  1
  I  I8  1  0.355554  0.272755  0.451457  1
  I  I9  1  0.221355  0.654871  0.743214  1
  I  I10  1  0.777660  0.346009  0.255698  1
  I  I11  1  0.455027  0.091601  0.818202  1
  I  I12  1  0.544178  0.907691  0.180995  1
  I  I13  1  0.256114  0.460431  0.086643  1
  I  I14  1  0.743669  0.539612  0.913001  1
  I  I15  1  0.086214  0.820211  0.373145  1
  I  I16  1  0.914223  0.178897  0.627968  1
