# generated using pymatgen
data_Hf5ZrBi2Rh
_symmetry_space_group_name_H-M   'P 1'
_cell_length_a   3.66248600
_cell_length_b   7.96164871
_cell_length_c   7.94789534
_cell_angle_alpha   120.05725231
_cell_angle_beta   90.00000000
_cell_angle_gamma   90.00000000
_symmetry_Int_Tables_number   1
_chemical_formula_structural   Hf5ZrBi2Rh
_chemical_formula_sum   'Hf5 Zr1 Bi2 Rh1'
_cell_volume   200.59075666
_cell_formula_units_Z   1
loop_
 _symmetry_equiv_pos_site_id
 _symmetry_equiv_pos_as_xyz
  1  'x, y, z'
loop_
 _atom_site_type_symbol
 _atom_site_label
 _atom_site_symmetry_multiplicity
 _atom_site_fract_x
 _atom_site_fract_y
 _atom_site_fract_z
 _atom_site_occupancy
  Hf  Hf0  1  0.500000  0.757478  0.756644  1
  Hf  Hf1  1  0.500000  0.000836  0.243356  1
  Hf  Hf2  1  0.500000  0.243734  0.000000  1
  Hf  Hf3  1  0.000000  0.391474  0.391095  1
  Hf  Hf4  1  0.000000  0.000378  0.608905  1
  Zr  Zr5  1  0.000000  0.604004  0.000000  1
  Bi  Bi6  1  0.500000  0.667335  0.334473  1
  Bi  Bi7  1  0.500000  0.332861  0.665527  1
  Rh  Rh8  1  0.000000  0.001901  0.000000  1
