# generated using pymatgen
data_Ce12Mn2Al6Os3Ru
_symmetry_space_group_name_H-M   'P 1'
_cell_length_a   7.82424874
_cell_length_b   7.82424937
_cell_length_c   9.63619271
_cell_angle_alpha   89.69094437
_cell_angle_beta   89.69094741
_cell_angle_gamma   119.71765174
_symmetry_Int_Tables_number   1
_chemical_formula_structural   Ce12Mn2Al6Os3Ru
_chemical_formula_sum   'Ce12 Mn2 Al6 Os3 Ru1'
_cell_volume   512.30074519
_cell_formula_units_Z   1
loop_
 _symmetry_equiv_pos_site_id
 _symmetry_equiv_pos_as_xyz
  1  'x, y, z'
loop_
 _atom_site_type_symbol
 _atom_site_label
 _atom_site_symmetry_multiplicity
 _atom_site_fract_x
 _atom_site_fract_y
 _atom_site_fract_z
 _atom_site_occupancy
  Ce  Ce0  1  0.999202  0.593382  0.506464  1
  Ce  Ce1  1  0.593382  0.999202  0.506464  1
  Ce  Ce2  1  0.406012  0.406012  0.506687  1
  Ce  Ce3  1  0.997187  0.440349  0.993173  1
  Ce  Ce4  1  0.440349  0.997187  0.993173  1
  Ce  Ce5  1  0.588675  0.588675  0.001496  1
  Ce  Ce6  1  0.000141  0.733821  0.175088  1
  Ce  Ce7  1  0.733821  0.000141  0.175088  1
  Ce  Ce8  1  0.270786  0.270786  0.172144  1
  Ce  Ce9  1  0.992682  0.257579  0.676980  1
  Ce  Ce10  1  0.257579  0.992682  0.676980  1
  Ce  Ce11  1  0.742698  0.742698  0.680223  1
  Mn  Mn12  1  0.998177  0.644738  0.841842  1
  Mn  Mn13  1  0.644738  0.998177  0.841842  1
  Al  Al14  1  0.667605  0.333886  0.275807  1
  Al  Al15  1  0.333886  0.667605  0.275807  1
  Al  Al16  1  0.332182  0.663281  0.766902  1
  Al  Al17  1  0.663281  0.332182  0.766902  1
  Al  Al18  1  0.000803  0.000803  0.422180  1
  Al  Al19  1  0.997789  0.997789  0.923551  1
  Os  Os20  1  0.000583  0.335393  0.335727  1
  Os  Os21  1  0.335393  0.000583  0.335727  1
  Os  Os22  1  0.663772  0.663772  0.340040  1
  Ru  Ru23  1  0.339275  0.339275  0.838965  1
