# generated using pymatgen
data_Zr6Nb4CuSn6Sb
_symmetry_space_group_name_H-M   'P 1'
_cell_length_a   8.62766200
_cell_length_b   8.62766246
_cell_length_c   5.79650500
_cell_angle_alpha   90.00000000
_cell_angle_beta   90.00000000
_cell_angle_gamma   119.99999823
_symmetry_Int_Tables_number   1
_chemical_formula_structural   Zr6Nb4CuSn6Sb
_chemical_formula_sum   'Zr6 Nb4 Cu1 Sn6 Sb1'
_cell_volume   373.66560409
_cell_formula_units_Z   1
loop_
 _symmetry_equiv_pos_site_id
 _symmetry_equiv_pos_as_xyz
  1  'x, y, z'
loop_
 _atom_site_type_symbol
 _atom_site_label
 _atom_site_symmetry_multiplicity
 _atom_site_fract_x
 _atom_site_fract_y
 _atom_site_fract_z
 _atom_site_occupancy
  Zr  Zr0  1  0.725132  0.725132  0.237539  1
  Zr  Zr1  1  0.274868  0.000000  0.237539  1
  Zr  Zr2  1  0.000000  0.274868  0.237539  1
  Zr  Zr3  1  0.274868  0.274868  0.762461  1
  Zr  Zr4  1  0.725132  0.000000  0.762461  1
  Zr  Zr5  1  0.000000  0.725132  0.762461  1
  Nb  Nb6  1  0.666667  0.333333  0.500000  1
  Nb  Nb7  1  0.333333  0.666667  0.500000  1
  Nb  Nb8  1  0.333333  0.666667  0.000000  1
  Nb  Nb9  1  0.666667  0.333333  0.000000  1
  Cu  Cu10  1  0.000000  0.000000  0.000000  1
  Sn  Sn11  1  0.388872  0.388872  0.253731  1
  Sn  Sn12  1  0.611128  0.000000  0.253731  1
  Sn  Sn13  1  0.000000  0.611128  0.253731  1
  Sn  Sn14  1  0.611128  0.611128  0.746269  1
  Sn  Sn15  1  0.388872  0.000000  0.746269  1
  Sn  Sn16  1  0.000000  0.388872  0.746269  1
  Sb  Sb17  1  0.000000  0.000000  0.500000  1
