# generated using pymatgen
data_Zr3In2OF12
_symmetry_space_group_name_H-M   'P 1'
_cell_length_a   11.04255487
_cell_length_b   11.04255515
_cell_length_c   11.04255476
_cell_angle_alpha   41.66105571
_cell_angle_beta   41.66105623
_cell_angle_gamma   41.66105304
_symmetry_Int_Tables_number   1
_chemical_formula_structural   Zr3In2OF12
_chemical_formula_sum   'Zr6 In4 O2 F24'
_cell_volume   537.82170546
_cell_formula_units_Z   2
loop_
 _symmetry_equiv_pos_site_id
 _symmetry_equiv_pos_as_xyz
  1  'x, y, z'
loop_
 _atom_site_type_symbol
 _atom_site_label
 _atom_site_symmetry_multiplicity
 _atom_site_fract_x
 _atom_site_fract_y
 _atom_site_fract_z
 _atom_site_occupancy
  Zr  Zr0  1  0.576228  0.576228  0.029498  1
  Zr  Zr1  1  0.029498  0.576228  0.576228  1
  Zr  Zr2  1  0.576228  0.029498  0.576228  1
  Zr  Zr3  1  0.423772  0.970502  0.423772  1
  Zr  Zr4  1  0.970502  0.423772  0.423772  1
  Zr  Zr5  1  0.423772  0.423772  0.970502  1
  In  In6  1  0.000000  0.000000  0.000000  1
  In  In7  1  0.500000  0.500000  0.500000  1
  In  In8  1  0.140585  0.140585  0.140585  1
  In  In9  1  0.859415  0.859415  0.859415  1
  O  O10  1  0.712967  0.712967  0.712967  1
  O  O11  1  0.287033  0.287033  0.287033  1
  F  F12  1  0.706380  0.706380  0.371265  1
  F  F13  1  0.371265  0.706380  0.706380  1
  F  F14  1  0.706380  0.371265  0.706380  1
  F  F15  1  0.293620  0.628735  0.293620  1
  F  F16  1  0.293620  0.293620  0.628735  1
  F  F17  1  0.628735  0.293620  0.293620  1
  F  F18  1  0.910131  0.910131  0.405169  1
  F  F19  1  0.405169  0.910131  0.910131  1
  F  F20  1  0.648124  0.351876  0.000000  1
  F  F21  1  0.351876  0.000000  0.648124  1
  F  F22  1  0.000000  0.648124  0.351876  1
  F  F23  1  0.351876  0.648124  0.000000  1
  F  F24  1  0.648124  0.000000  0.351876  1
  F  F25  1  0.000000  0.351876  0.648124  1
  F  F26  1  0.917707  0.349366  0.349366  1
  F  F27  1  0.349366  0.349366  0.917707  1
  F  F28  1  0.349366  0.917707  0.349366  1
  F  F29  1  0.650634  0.082293  0.650634  1
  F  F30  1  0.082293  0.650634  0.650634  1
  F  F31  1  0.650634  0.650634  0.082293  1
  F  F32  1  0.594831  0.089869  0.089869  1
  F  F33  1  0.089869  0.089869  0.594831  1
  F  F34  1  0.089869  0.594831  0.089869  1
  F  F35  1  0.910131  0.405169  0.910131  1
