# generated using pymatgen
data_RbErTlF7
_symmetry_space_group_name_H-M   'P 1'
_cell_length_a   6.71590900
_cell_length_b   6.71590970
_cell_length_c   4.37287900
_cell_angle_alpha   90.00000000
_cell_angle_beta   90.00000000
_cell_angle_gamma   116.81475044
_symmetry_Int_Tables_number   1
_chemical_formula_structural   RbErTlF7
_chemical_formula_sum   'Rb1 Er1 Tl1 F7'
_cell_volume   176.02347801
_cell_formula_units_Z   1
loop_
 _symmetry_equiv_pos_site_id
 _symmetry_equiv_pos_as_xyz
  1  'x, y, z'
loop_
 _atom_site_type_symbol
 _atom_site_label
 _atom_site_symmetry_multiplicity
 _atom_site_fract_x
 _atom_site_fract_y
 _atom_site_fract_z
 _atom_site_occupancy
  Rb  Rb0  1  0.998604  0.001396  0.000000  1
  Er  Er1  1  0.307134  0.692866  0.500000  1
  Tl  Tl2  1  0.692091  0.307909  0.500000  1
  F  F3  1  0.705472  0.294528  0.000000  1
  F  F4  1  0.297369  0.702631  0.000000  1
  F  F5  1  0.331972  0.040302  0.500000  1
  F  F6  1  0.045895  0.336464  0.500000  1
  F  F7  1  0.498228  0.501772  0.500000  1
  F  F8  1  0.959698  0.668028  0.500000  1
  F  F9  1  0.663536  0.954105  0.500000  1
