# generated using pymatgen
data_AcCo3Si2
_symmetry_space_group_name_H-M   'P 1'
_cell_length_a   6.48158003
_cell_length_b   6.48157947
_cell_length_c   6.48157973
_cell_angle_alpha   130.17289613
_cell_angle_beta   116.02076759
_cell_angle_gamma   85.19336965
_symmetry_Int_Tables_number   1
_chemical_formula_structural   AcCo3Si2
_chemical_formula_sum   'Ac2 Co6 Si4'
_cell_volume   178.93067079
_cell_formula_units_Z   2
loop_
 _symmetry_equiv_pos_site_id
 _symmetry_equiv_pos_as_xyz
  1  'x, y, z'
loop_
 _atom_site_type_symbol
 _atom_site_label
 _atom_site_symmetry_multiplicity
 _atom_site_fract_x
 _atom_site_fract_y
 _atom_site_fract_z
 _atom_site_occupancy
  Ac  Ac0  1  0.250000  0.537976  0.287976  1
  Ac  Ac1  1  0.750000  0.462024  0.712024  1
  Co  Co2  1  0.000000  0.000000  0.500000  1
  Co  Co3  1  0.500000  0.000000  0.000000  1
  Co  Co4  1  0.720098  0.000000  0.720098  1
  Co  Co5  1  0.220098  0.500000  0.720098  1
  Co  Co6  1  0.279902  0.000000  0.279902  1
  Co  Co7  1  0.779902  0.500000  0.279902  1
  Si  Si8  1  0.078578  0.875856  0.797279  1
  Si  Si9  1  0.921422  0.124144  0.202721  1
  Si  Si10  1  0.578578  0.781300  0.202721  1
  Si  Si11  1  0.421422  0.218700  0.797279  1
