# generated using pymatgen
data_Y20CoHg6Pd
_symmetry_space_group_name_H-M   'P 1'
_cell_length_a   9.71011100
_cell_length_b   9.71010350
_cell_length_c   9.59986800
_cell_angle_alpha   90.00000000
_cell_angle_beta   90.00000000
_cell_angle_gamma   120.00001535
_symmetry_Int_Tables_number   1
_chemical_formula_structural   Y20CoHg6Pd
_chemical_formula_sum   'Y20 Co1 Hg6 Pd1'
_cell_volume   783.86970360
_cell_formula_units_Z   1
loop_
 _symmetry_equiv_pos_site_id
 _symmetry_equiv_pos_as_xyz
  1  'x, y, z'
loop_
 _atom_site_type_symbol
 _atom_site_label
 _atom_site_symmetry_multiplicity
 _atom_site_fract_x
 _atom_site_fract_y
 _atom_site_fract_z
 _atom_site_occupancy
  Y  Y0  1  0.211338  0.788662  0.935373  1
  Y  Y1  1  0.211337  0.422675  0.935372  1
  Y  Y2  1  0.577325  0.788663  0.935372  1
  Y  Y3  1  0.793239  0.206760  0.058152  1
  Y  Y4  1  0.793239  0.586478  0.058152  1
  Y  Y5  1  0.413522  0.206761  0.058153  1
  Y  Y6  1  0.793239  0.206760  0.441848  1
  Y  Y7  1  0.793239  0.586478  0.441848  1
  Y  Y8  1  0.413522  0.206761  0.441847  1
  Y  Y9  1  0.211338  0.788662  0.564627  1
  Y  Y10  1  0.211337  0.422675  0.564628  1
  Y  Y11  1  0.577325  0.788663  0.564628  1
  Y  Y12  1  0.541823  0.458176  0.750000  1
  Y  Y13  1  0.541824  0.083648  0.750000  1
  Y  Y14  1  0.916353  0.458177  0.750000  1
  Y  Y15  1  0.456778  0.543221  0.250000  1
  Y  Y16  1  0.456779  0.913556  0.250000  1
  Y  Y17  1  0.086443  0.543221  0.250000  1
  Y  Y18  1  0.000000  0.999999  0.000229  1
  Y  Y19  1  0.000000  0.999999  0.499771  1
  Co  Co20  1  0.333334  0.666667  0.750000  1
  Hg  Hg21  1  0.880254  0.119745  0.750000  1
  Hg  Hg22  1  0.880254  0.760508  0.750000  1
  Hg  Hg23  1  0.239492  0.119746  0.750000  1
  Hg  Hg24  1  0.119411  0.880590  0.250000  1
  Hg  Hg25  1  0.119411  0.238821  0.250000  1
  Hg  Hg26  1  0.761179  0.880589  0.250000  1
  Pd  Pd27  1  0.666667  0.333334  0.250000  1
