# generated using pymatgen
data_Ho3(GaRu)2
_symmetry_space_group_name_H-M   'P 1'
_cell_length_a   5.55264700
_cell_length_b   7.67771500
_cell_length_c   13.74614600
_cell_angle_alpha   90.00000000
_cell_angle_beta   90.00000000
_cell_angle_gamma   90.00000000
_symmetry_Int_Tables_number   1
_chemical_formula_structural   Ho3(GaRu)2
_chemical_formula_sum   'Ho12 Ga8 Ru8'
_cell_volume   586.02076363
_cell_formula_units_Z   4
loop_
 _symmetry_equiv_pos_site_id
 _symmetry_equiv_pos_as_xyz
  1  'x, y, z'
loop_
 _atom_site_type_symbol
 _atom_site_label
 _atom_site_symmetry_multiplicity
 _atom_site_fract_x
 _atom_site_fract_y
 _atom_site_fract_z
 _atom_site_occupancy
  Ho  Ho0  1  0.154485  0.402955  0.595741  1
  Ho  Ho1  1  0.845515  0.597045  0.095741  1
  Ho  Ho2  1  0.154485  0.097045  0.404259  1
  Ho  Ho3  1  0.845515  0.902955  0.904259  1
  Ho  Ho4  1  0.845515  0.597045  0.404259  1
  Ho  Ho5  1  0.154485  0.402955  0.904259  1
  Ho  Ho6  1  0.845515  0.902955  0.595741  1
  Ho  Ho7  1  0.154485  0.097045  0.095741  1
  Ho  Ho8  1  0.623237  0.264016  0.750000  1
  Ho  Ho9  1  0.376763  0.735984  0.250000  1
  Ho  Ho10  1  0.623237  0.235984  0.250000  1
  Ho  Ho11  1  0.376763  0.764016  0.750000  1
  Ga  Ga12  1  0.124974  0.108579  0.750000  1
  Ga  Ga13  1  0.875026  0.891421  0.250000  1
  Ga  Ga14  1  0.124974  0.391421  0.250000  1
  Ga  Ga15  1  0.875026  0.608579  0.750000  1
  Ga  Ga16  1  0.632516  0.250000  0.500000  1
  Ga  Ga17  1  0.367484  0.750000  0.000000  1
  Ga  Ga18  1  0.367484  0.750000  0.500000  1
  Ga  Ga19  1  0.632516  0.250000  0.000000  1
  Ru  Ru20  1  0.350487  0.034973  0.594212  1
  Ru  Ru21  1  0.649513  0.965027  0.094212  1
  Ru  Ru22  1  0.350487  0.465027  0.405788  1
  Ru  Ru23  1  0.649513  0.534973  0.905788  1
  Ru  Ru24  1  0.649513  0.965027  0.405788  1
  Ru  Ru25  1  0.350487  0.034973  0.905788  1
  Ru  Ru26  1  0.649513  0.534973  0.594212  1
  Ru  Ru27  1  0.350487  0.465027  0.094212  1
