# generated using pymatgen
data_Yb3(PS4)2
_symmetry_space_group_name_H-M   'P 1'
_cell_length_a   10.17774883
_cell_length_b   10.17774869
_cell_length_c   10.17775027
_cell_angle_alpha   52.09768568
_cell_angle_beta   52.09768914
_cell_angle_gamma   52.09767957
_symmetry_Int_Tables_number   1
_chemical_formula_structural   Yb3(PS4)2
_chemical_formula_sum   'Yb6 P4 S16'
_cell_volume   607.02284558
_cell_formula_units_Z   2
loop_
 _symmetry_equiv_pos_site_id
 _symmetry_equiv_pos_as_xyz
  1  'x, y, z'
loop_
 _atom_site_type_symbol
 _atom_site_label
 _atom_site_symmetry_multiplicity
 _atom_site_fract_x
 _atom_site_fract_y
 _atom_site_fract_z
 _atom_site_occupancy
  Yb  Yb0  1  0.250000  0.570293  0.929707  1
  Yb  Yb1  1  0.429707  0.070293  0.750000  1
  Yb  Yb2  1  0.750000  0.429707  0.070293  1
  Yb  Yb3  1  0.929707  0.250000  0.570293  1
  Yb  Yb4  1  0.570293  0.929707  0.250000  1
  Yb  Yb5  1  0.070293  0.750000  0.429707  1
  P  P6  1  0.841505  0.841505  0.841505  1
  P  P7  1  0.658495  0.658495  0.658495  1
  P  P8  1  0.341505  0.341505  0.341505  1
  P  P9  1  0.158495  0.158495  0.158495  1
  S  S10  1  0.224607  0.948537  0.377233  1
  S  S11  1  0.724607  0.877233  0.448537  1
  S  S12  1  0.420102  0.420102  0.420101  1
  S  S13  1  0.275393  0.122767  0.551463  1
  S  S14  1  0.920101  0.920102  0.920102  1
  S  S15  1  0.051463  0.622767  0.775393  1
  S  S16  1  0.579899  0.579899  0.579898  1
  S  S17  1  0.122767  0.551463  0.275393  1
  S  S18  1  0.448537  0.724607  0.877233  1
  S  S19  1  0.775393  0.051463  0.622767  1
  S  S20  1  0.622767  0.775393  0.051463  1
  S  S21  1  0.079899  0.079899  0.079899  1
  S  S22  1  0.877233  0.448537  0.724607  1
  S  S23  1  0.377233  0.224607  0.948537  1
  S  S24  1  0.551463  0.275393  0.122767  1
  S  S25  1  0.948537  0.377233  0.224607  1
