# generated using pymatgen
data_Ce2Zn3Co2Hg
_symmetry_space_group_name_H-M   'P 1'
_cell_length_a   5.06355675
_cell_length_b   5.06355592
_cell_length_c   7.76551400
_cell_angle_alpha   89.86171528
_cell_angle_beta   90.13828470
_cell_angle_gamma   130.38865763
_symmetry_Int_Tables_number   1
_chemical_formula_structural   Ce2Zn3Co2Hg
_chemical_formula_sum   'Ce2 Zn3 Co2 Hg1'
_cell_volume   151.65085848
_cell_formula_units_Z   1
loop_
 _symmetry_equiv_pos_site_id
 _symmetry_equiv_pos_as_xyz
  1  'x, y, z'
loop_
 _atom_site_type_symbol
 _atom_site_label
 _atom_site_symmetry_multiplicity
 _atom_site_fract_x
 _atom_site_fract_y
 _atom_site_fract_z
 _atom_site_occupancy
  Ce  Ce0  1  0.547767  0.452232  0.260084  1
  Ce  Ce1  1  0.450863  0.549136  0.741303  1
  Zn  Zn2  1  0.842989  0.157010  0.460125  1
  Zn  Zn3  1  0.156447  0.843552  0.544509  1
  Zn  Zn4  1  0.155639  0.844360  0.950115  1
  Co  Co5  1  0.312217  0.687782  0.266852  1
  Co  Co6  1  0.684113  0.315886  0.738903  1
  Hg  Hg7  1  0.849960  0.150039  0.038107  1
