# generated using pymatgen
data_NdHf2NpF14
_symmetry_space_group_name_H-M   'P 1'
_cell_length_a   5.88395930
_cell_length_b   6.26919758
_cell_length_c   8.47596540
_cell_angle_alpha   102.14313733
_cell_angle_beta   90.02747338
_cell_angle_gamma   89.88292585
_symmetry_Int_Tables_number   1
_chemical_formula_structural   NdHf2NpF14
_chemical_formula_sum   'Nd1 Hf2 Np1 F14'
_cell_volume   305.66256028
_cell_formula_units_Z   1
loop_
 _symmetry_equiv_pos_site_id
 _symmetry_equiv_pos_as_xyz
  1  'x, y, z'
loop_
 _atom_site_type_symbol
 _atom_site_label
 _atom_site_symmetry_multiplicity
 _atom_site_fract_x
 _atom_site_fract_y
 _atom_site_fract_z
 _atom_site_occupancy
  Nd  Nd0  1  0.200762  0.339121  0.309922  1
  Hf  Hf1  1  0.709107  0.810142  0.223066  1
  Hf  Hf2  1  0.208612  0.188370  0.776740  1
  Np  Np3  1  0.700407  0.654583  0.685897  1
  F  F4  1  0.886927  0.442246  0.473206  1
  F  F5  1  0.385037  0.552798  0.522734  1
  F  F6  1  0.427017  0.941198  0.769484  1
  F  F7  1  0.933151  0.054098  0.229303  1
  F  F8  1  0.952641  0.973048  0.761264  1
  F  F9  1  0.461697  0.038363  0.241644  1
  F  F10  1  0.002882  0.448236  0.791073  1
  F  F11  1  0.491736  0.559893  0.212540  1
  F  F12  1  0.698475  0.759593  0.982945  1
  F  F13  1  0.202215  0.240710  0.018680  1
  F  F14  1  0.712089  0.859134  0.465124  1
  F  F15  1  0.213034  0.144993  0.534785  1
  F  F16  1  0.485534  0.381838  0.787560  1
  F  F17  1  0.981396  0.611636  0.214035  1
