# generated using pymatgen
data_ThU6Nb12Si16Sn
_symmetry_space_group_name_H-M   'P 1'
_cell_length_a   7.07353558
_cell_length_b   7.07876956
_cell_length_c   13.04055990
_cell_angle_alpha   90.08599040
_cell_angle_beta   90.14817157
_cell_angle_gamma   89.87623898
_symmetry_Int_Tables_number   1
_chemical_formula_structural   ThU6Nb12Si16Sn
_chemical_formula_sum   'Th1 U6 Nb12 Si16 Sn1'
_cell_volume   652.96154507
_cell_formula_units_Z   1
loop_
 _symmetry_equiv_pos_site_id
 _symmetry_equiv_pos_as_xyz
  1  'x, y, z'
loop_
 _atom_site_type_symbol
 _atom_site_label
 _atom_site_symmetry_multiplicity
 _atom_site_fract_x
 _atom_site_fract_y
 _atom_site_fract_z
 _atom_site_occupancy
  Th  Th0  1  0.004411  0.666927  0.717807  1
  U  U1  1  0.167448  0.492268  0.464286  1
  U  U2  1  0.508121  0.833446  0.029952  1
  U  U3  1  0.831596  0.505604  0.971785  1
  U  U4  1  0.491500  0.168338  0.528232  1
  U  U5  1  0.336562  0.000193  0.780967  1
  U  U6  1  0.667323  0.002709  0.281360  1
  Nb  Nb7  1  0.170067  0.170829  0.002609  1
  Nb  Nb8  1  0.828322  0.831299  0.497059  1
  Nb  Nb9  1  0.331947  0.668900  0.248782  1
  Nb  Nb10  1  0.667162  0.331478  0.750579  1
  Nb  Nb11  1  0.157008  0.000894  0.372749  1
  Nb  Nb12  1  0.840462  0.999889  0.876108  1
  Nb  Nb13  1  0.500715  0.656673  0.623806  1
  Nb  Nb14  1  0.343650  0.497458  0.878399  1
  Nb  Nb15  1  0.500176  0.346014  0.122393  1
  Nb  Nb16  1  0.655510  0.499757  0.374422  1
  Nb  Nb17  1  0.000769  0.156530  0.626300  1
  Nb  Nb18  1  0.001258  0.850091  0.124647  1
  Si  Si19  1  0.304964  0.035588  0.183108  1
  Si  Si20  1  0.700225  0.964628  0.683513  1
  Si  Si21  1  0.458707  0.795053  0.432867  1
  Si  Si22  1  0.200538  0.542583  0.068063  1
  Si  Si23  1  0.541190  0.204051  0.934521  1
  Si  Si24  1  0.791829  0.455796  0.562277  1
  Si  Si25  1  0.040548  0.290749  0.818201  1
  Si  Si26  1  0.958910  0.706205  0.312919  1
  Si  Si27  1  0.377086  0.289072  0.314784  1
  Si  Si28  1  0.623189  0.707624  0.817859  1
  Si  Si29  1  0.208430  0.872427  0.561868  1
  Si  Si30  1  0.131140  0.797098  0.935334  1
  Si  Si31  1  0.793619  0.134049  0.065627  1
  Si  Si32  1  0.865996  0.200272  0.439454  1
  Si  Si33  1  0.298454  0.367943  0.683935  1
  Si  Si34  1  0.703438  0.635162  0.183089  1
  Sn  Sn35  1  0.997731  0.322402  0.230343  1
