# generated using pymatgen
data_Ta11NbAl6(IrN2)2
_symmetry_space_group_name_H-M   'P 1'
_cell_length_a   7.03207293
_cell_length_b   7.01520022
_cell_length_c   7.05317007
_cell_angle_alpha   90.06705576
_cell_angle_beta   89.94266667
_cell_angle_gamma   90.54418949
_symmetry_Int_Tables_number   1
_chemical_formula_structural   Ta11NbAl6(IrN2)2
_chemical_formula_sum   'Ta11 Nb1 Al6 Ir2 N4'
_cell_volume   347.92664849
_cell_formula_units_Z   1
loop_
 _symmetry_equiv_pos_site_id
 _symmetry_equiv_pos_as_xyz
  1  'x, y, z'
loop_
 _atom_site_type_symbol
 _atom_site_label
 _atom_site_symmetry_multiplicity
 _atom_site_fract_x
 _atom_site_fract_y
 _atom_site_fract_z
 _atom_site_occupancy
  Ta  Ta0  1  0.793006  0.956105  0.374920  1
  Ta  Ta1  1  0.707135  0.043970  0.874571  1
  Ta  Ta2  1  0.205543  0.455002  0.125328  1
  Ta  Ta3  1  0.293892  0.544608  0.626205  1
  Ta  Ta4  1  0.956649  0.381159  0.790058  1
  Ta  Ta5  1  0.046247  0.872509  0.707515  1
  Ta  Ta6  1  0.454549  0.127270  0.207329  1
  Ta  Ta7  1  0.542899  0.618683  0.290317  1
  Ta  Ta8  1  0.378344  0.792464  0.956379  1
  Ta  Ta9  1  0.873763  0.707308  0.045562  1
  Ta  Ta10  1  0.121645  0.207446  0.456121  1
  Nb  Nb11  1  0.627048  0.292996  0.544775  1
  Al  Al12  1  0.822279  0.321344  0.176189  1
  Al  Al13  1  0.677880  0.679024  0.676628  1
  Al  Al14  1  0.561957  0.423883  0.927725  1
  Al  Al15  1  0.422004  0.932035  0.569910  1
  Al  Al16  1  0.937999  0.576394  0.427545  1
  Al  Al17  1  0.077808  0.068044  0.070056  1
  Ir  Ir18  1  0.181739  0.825040  0.318498  1
  Ir  Ir19  1  0.317439  0.174911  0.819776  1
  N  N20  1  0.879541  0.120247  0.629169  1
  N  N21  1  0.623005  0.878267  0.127673  1
  N  N22  1  0.128964  0.626812  0.879477  1
  N  N23  1  0.368664  0.374477  0.378277  1
