# generated using pymatgen
data_Tb10Bi3P2Pb3
_symmetry_space_group_name_H-M   'P 1'
_cell_length_a   9.24024700
_cell_length_b   9.24024633
_cell_length_c   6.78541100
_cell_angle_alpha   90.00000000
_cell_angle_beta   90.00000000
_cell_angle_gamma   120.00001314
_symmetry_Int_Tables_number   1
_chemical_formula_structural   Tb10Bi3P2Pb3
_chemical_formula_sum   'Tb10 Bi3 P2 Pb3'
_cell_volume   501.73438142
_cell_formula_units_Z   1
loop_
 _symmetry_equiv_pos_site_id
 _symmetry_equiv_pos_as_xyz
  1  'x, y, z'
loop_
 _atom_site_type_symbol
 _atom_site_label
 _atom_site_symmetry_multiplicity
 _atom_site_fract_x
 _atom_site_fract_y
 _atom_site_fract_z
 _atom_site_occupancy
  Tb  Tb0  1  0.763265  0.763265  0.750000  1
  Tb  Tb1  1  0.236735  0.000000  0.750000  1
  Tb  Tb2  1  0.000000  0.236735  0.750000  1
  Tb  Tb3  1  0.237194  0.237194  0.250000  1
  Tb  Tb4  1  0.762806  0.000000  0.250000  1
  Tb  Tb5  1  0.000000  0.762806  0.250000  1
  Tb  Tb6  1  0.666667  0.333333  0.002843  1
  Tb  Tb7  1  0.333333  0.666667  0.002843  1
  Tb  Tb8  1  0.333333  0.666667  0.497157  1
  Tb  Tb9  1  0.666667  0.333333  0.497157  1
  Bi  Bi10  1  0.399781  0.399781  0.750000  1
  Bi  Bi11  1  0.600219  0.000000  0.750000  1
  Bi  Bi12  1  0.000000  0.600219  0.750000  1
  P  P13  1  0.000000  0.000000  0.999208  1
  P  P14  1  0.000000  0.000000  0.500792  1
  Pb  Pb15  1  0.601278  0.601278  0.250000  1
  Pb  Pb16  1  0.398722  0.000000  0.250000  1
  Pb  Pb17  1  0.000000  0.398722  0.250000  1
