# generated using pymatgen
data_Tb2Yb2MnB16Ru3
_symmetry_space_group_name_H-M   'P 1'
_cell_length_a   3.51957600
_cell_length_b   5.95628369
_cell_length_c   11.52256576
_cell_angle_alpha   89.81477730
_cell_angle_beta   90.00000000
_cell_angle_gamma   90.00000000
_symmetry_Int_Tables_number   1
_chemical_formula_structural   Tb2Yb2MnB16Ru3
_chemical_formula_sum   'Tb2 Yb2 Mn1 B16 Ru3'
_cell_volume   241.55311823
_cell_formula_units_Z   1
loop_
 _symmetry_equiv_pos_site_id
 _symmetry_equiv_pos_as_xyz
  1  'x, y, z'
loop_
 _atom_site_type_symbol
 _atom_site_label
 _atom_site_symmetry_multiplicity
 _atom_site_fract_x
 _atom_site_fract_y
 _atom_site_fract_z
 _atom_site_occupancy
  Tb  Tb0  1  0.500000  0.628665  0.348422  1
  Tb  Tb1  1  0.500000  0.372003  0.651538  1
  Yb  Yb2  1  0.500000  0.129017  0.149201  1
  Yb  Yb3  1  0.500000  0.871209  0.850957  1
  Mn  Mn4  1  0.500000  0.134149  0.411561  1
  B  B5  1  0.000000  0.474075  0.191285  1
  B  B6  1  0.000000  0.525394  0.809006  1
  B  B7  1  0.000000  0.978112  0.308570  1
  B  B8  1  0.000000  0.022980  0.692147  1
  B  B9  1  0.000000  0.283947  0.315645  1
  B  B10  1  0.000000  0.714900  0.685223  1
  B  B11  1  0.000000  0.787418  0.184655  1
  B  B12  1  0.000000  0.212344  0.815458  1
  B  B13  1  0.000000  0.362256  0.468301  1
  B  B14  1  0.000000  0.636305  0.531113  1
  B  B15  1  0.000000  0.864612  0.030681  1
  B  B16  1  0.000000  0.135313  0.969521  1
  B  B17  1  0.000000  0.386468  0.046877  1
  B  B18  1  0.000000  0.613174  0.953554  1
  B  B19  1  0.000000  0.888165  0.452833  1
  B  B20  1  0.000000  0.111737  0.546833  1
  Ru  Ru21  1  0.500000  0.867865  0.586766  1
  Ru  Ru22  1  0.500000  0.637608  0.089378  1
  Ru  Ru23  1  0.500000  0.362286  0.910475  1
