# generated using pymatgen
data_Tc5Te8Mo
_symmetry_space_group_name_H-M   'P 1'
_cell_length_a   7.13648290
_cell_length_b   7.08379141
_cell_length_c   7.12021188
_cell_angle_alpha   93.97225721
_cell_angle_beta   93.29558432
_cell_angle_gamma   93.41903888
_symmetry_Int_Tables_number   1
_chemical_formula_structural   Tc5Te8Mo
_chemical_formula_sum   'Tc5 Te8 Mo1'
_cell_volume   357.75989155
_cell_formula_units_Z   1
loop_
 _symmetry_equiv_pos_site_id
 _symmetry_equiv_pos_as_xyz
  1  'x, y, z'
loop_
 _atom_site_type_symbol
 _atom_site_label
 _atom_site_symmetry_multiplicity
 _atom_site_fract_x
 _atom_site_fract_y
 _atom_site_fract_z
 _atom_site_occupancy
  Tc  Tc0  1  0.913388  0.046227  0.745631  1
  Tc  Tc1  1  0.745273  0.913768  0.047655  1
  Tc  Tc2  1  0.045547  0.746426  0.914289  1
  Tc  Tc3  1  0.086376  0.954264  0.254916  1
  Tc  Tc4  1  0.253225  0.086083  0.953151  1
  Te  Te5  1  0.713326  0.711220  0.713361  1
  Te  Te6  1  0.292107  0.287846  0.288995  1
  Te  Te7  1  0.769884  0.121854  0.383432  1
  Te  Te8  1  0.379586  0.772979  0.120309  1
  Te  Te9  1  0.124239  0.379922  0.765750  1
  Te  Te10  1  0.227129  0.877255  0.619361  1
  Te  Te11  1  0.617064  0.226856  0.878867  1
  Te  Te12  1  0.878132  0.623036  0.228317  1
  Mo  Mo13  1  0.954725  0.252263  0.085965  1
