# generated using pymatgen
data_Y6Er(TmSn2)3
_symmetry_space_group_name_H-M   'P 1'
_cell_length_a   6.50811000
_cell_length_b   8.94584180
_cell_length_c   8.94639500
_cell_angle_alpha   119.99895914
_cell_angle_beta   90.00065469
_cell_angle_gamma   89.99949090
_symmetry_Int_Tables_number   1
_chemical_formula_structural   Y6Er(TmSn2)3
_chemical_formula_sum   'Y6 Er1 Tm3 Sn6'
_cell_volume   451.08600597
_cell_formula_units_Z   1
loop_
 _symmetry_equiv_pos_site_id
 _symmetry_equiv_pos_as_xyz
  1  'x, y, z'
loop_
 _atom_site_type_symbol
 _atom_site_label
 _atom_site_symmetry_multiplicity
 _atom_site_fract_x
 _atom_site_fract_y
 _atom_site_fract_z
 _atom_site_occupancy
  Y  Y0  1  0.750153  0.239770  0.000068  1
  Y  Y1  1  0.750139  0.760212  0.760194  1
  Y  Y2  1  0.750144  0.999887  0.239742  1
  Y  Y3  1  0.249852  0.760298  0.000067  1
  Y  Y4  1  0.249852  0.239854  0.239738  1
  Y  Y5  1  0.249852  0.999984  0.760196  1
  Er  Er6  1  0.500000  0.333338  0.666674  1
  Tm  Tm7  1  0.500002  0.666641  0.333295  1
  Tm  Tm8  1  0.000001  0.666654  0.333292  1
  Tm  Tm9  1  0.000004  0.333358  0.666707  1
  Sn  Sn10  1  0.750478  0.604852  0.000491  1
  Sn  Sn11  1  0.750490  0.395558  0.395071  1
  Sn  Sn12  1  0.750486  0.999517  0.604454  1
  Sn  Sn13  1  0.249516  0.395638  0.000491  1
  Sn  Sn14  1  0.249517  0.604936  0.604452  1
  Sn  Sn15  1  0.249515  0.999506  0.395068  1
