# generated using pymatgen
data_Fe4Si2W6C
_symmetry_space_group_name_H-M   'P 1'
_cell_length_a   7.76594418
_cell_length_b   7.76594343
_cell_length_c   7.76594300
_cell_angle_alpha   59.99999757
_cell_angle_beta   60.00000078
_cell_angle_gamma   59.99999731
_symmetry_Int_Tables_number   1
_chemical_formula_structural   Fe4Si2W6C
_chemical_formula_sum   'Fe8 Si4 W12 C2'
_cell_volume   331.18272402
_cell_formula_units_Z   2
loop_
 _symmetry_equiv_pos_site_id
 _symmetry_equiv_pos_as_xyz
  1  'x, y, z'
loop_
 _atom_site_type_symbol
 _atom_site_label
 _atom_site_symmetry_multiplicity
 _atom_site_fract_x
 _atom_site_fract_y
 _atom_site_fract_z
 _atom_site_occupancy
  Fe  Fe0  1  0.918318  0.245047  0.918318  1
  Fe  Fe1  1  0.331682  0.004953  0.331682  1
  Fe  Fe2  1  0.331682  0.331682  0.331682  1
  Fe  Fe3  1  0.004953  0.331682  0.331682  1
  Fe  Fe4  1  0.918318  0.918318  0.245047  1
  Fe  Fe5  1  0.245047  0.918318  0.918318  1
  Fe  Fe6  1  0.331682  0.331682  0.004953  1
  Fe  Fe7  1  0.918318  0.918318  0.918318  1
  Si  Si8  1  0.125000  0.125000  0.625000  1
  Si  Si9  1  0.125000  0.625000  0.125000  1
  Si  Si10  1  0.125000  0.125000  0.125000  1
  Si  Si11  1  0.625000  0.125000  0.125000  1
  W  W12  1  0.303821  0.696179  0.696179  1
  W  W13  1  0.303821  0.303821  0.696179  1
  W  W14  1  0.553821  0.946179  0.553821  1
  W  W15  1  0.946179  0.553821  0.553821  1
  W  W16  1  0.553821  0.946179  0.946179  1
  W  W17  1  0.696179  0.303821  0.303821  1
  W  W18  1  0.946179  0.553821  0.946179  1
  W  W19  1  0.303821  0.696179  0.303821  1
  W  W20  1  0.553821  0.553821  0.946179  1
  W  W21  1  0.696179  0.303821  0.696179  1
  W  W22  1  0.696179  0.696179  0.303821  1
  W  W23  1  0.946179  0.946179  0.553821  1
  C  C24  1  0.750000  0.750000  0.750000  1
  C  C25  1  0.500000  0.500000  0.500000  1
