# generated using pymatgen
data_PrSn4IrRh
_symmetry_space_group_name_H-M   'P 1'
_cell_length_a   4.54329000
_cell_length_b   7.24587300
_cell_length_c   18.69402600
_cell_angle_alpha   90.00000000
_cell_angle_beta   90.00000000
_cell_angle_gamma   90.00000000
_symmetry_Int_Tables_number   1
_chemical_formula_structural   PrSn4IrRh
_chemical_formula_sum   'Pr4 Sn16 Ir4 Rh4'
_cell_volume   615.40924911
_cell_formula_units_Z   4
loop_
 _symmetry_equiv_pos_site_id
 _symmetry_equiv_pos_as_xyz
  1  'x, y, z'
loop_
 _atom_site_type_symbol
 _atom_site_label
 _atom_site_symmetry_multiplicity
 _atom_site_fract_x
 _atom_site_fract_y
 _atom_site_fract_z
 _atom_site_occupancy
  Pr  Pr0  1  0.250000  0.998951  0.858397  1
  Pr  Pr1  1  0.250000  0.501049  0.358397  1
  Pr  Pr2  1  0.750000  0.001049  0.141603  1
  Pr  Pr3  1  0.750000  0.498951  0.641603  1
  Sn  Sn4  1  0.250000  0.302594  0.182103  1
  Sn  Sn5  1  0.250000  0.197406  0.682103  1
  Sn  Sn6  1  0.750000  0.697406  0.817897  1
  Sn  Sn7  1  0.750000  0.802594  0.317897  1
  Sn  Sn8  1  0.250000  0.722019  0.194770  1
  Sn  Sn9  1  0.250000  0.777981  0.694770  1
  Sn  Sn10  1  0.750000  0.277981  0.805230  1
  Sn  Sn11  1  0.750000  0.222019  0.305230  1
  Sn  Sn12  1  0.250000  0.864909  0.031803  1
  Sn  Sn13  1  0.250000  0.635091  0.531803  1
  Sn  Sn14  1  0.750000  0.135091  0.968197  1
  Sn  Sn15  1  0.750000  0.364909  0.468197  1
  Sn  Sn16  1  0.250000  0.518825  0.931717  1
  Sn  Sn17  1  0.250000  0.981175  0.431717  1
  Sn  Sn18  1  0.750000  0.481175  0.068283  1
  Sn  Sn19  1  0.750000  0.018825  0.568283  1
  Ir  Ir20  1  0.250000  0.250579  0.034809  1
  Ir  Ir21  1  0.250000  0.249421  0.534809  1
  Ir  Ir22  1  0.750000  0.749421  0.965191  1
  Ir  Ir23  1  0.750000  0.750579  0.465191  1
  Rh  Rh24  1  0.250000  0.017615  0.286885  1
  Rh  Rh25  1  0.250000  0.482385  0.786885  1
  Rh  Rh26  1  0.750000  0.982385  0.713115  1
  Rh  Rh27  1  0.750000  0.517615  0.213115  1
