# generated using pymatgen
data_CeDy12Re12Mo7N48
_symmetry_space_group_name_H-M   'P 1'
_cell_length_a   11.08294391
_cell_length_b   11.08294524
_cell_length_c   11.08294418
_cell_angle_alpha   109.28655039
_cell_angle_beta   109.28655502
_cell_angle_gamma   109.28654834
_symmetry_Int_Tables_number   1
_chemical_formula_structural   CeDy12Re12Mo7N48
_chemical_formula_sum   'Ce1 Dy12 Re12 Mo7 N48'
_cell_volume   1055.06154246
_cell_formula_units_Z   1
loop_
 _symmetry_equiv_pos_site_id
 _symmetry_equiv_pos_as_xyz
  1  'x, y, z'
loop_
 _atom_site_type_symbol
 _atom_site_label
 _atom_site_symmetry_multiplicity
 _atom_site_fract_x
 _atom_site_fract_y
 _atom_site_fract_z
 _atom_site_occupancy
  Ce  Ce0  1  0.000000  0.000000  0.000000  1
  Dy  Dy1  1  0.258530  0.383039  0.128484  1
  Dy  Dy2  1  0.374687  0.751282  0.126215  1
  Dy  Dy3  1  0.383039  0.128484  0.258530  1
  Dy  Dy4  1  0.873785  0.625313  0.248718  1
  Dy  Dy5  1  0.751282  0.126215  0.374687  1
  Dy  Dy6  1  0.128484  0.258530  0.383039  1
  Dy  Dy7  1  0.871516  0.741470  0.616961  1
  Dy  Dy8  1  0.248718  0.873785  0.625313  1
  Dy  Dy9  1  0.126215  0.374687  0.751282  1
  Dy  Dy10  1  0.616961  0.871516  0.741470  1
  Dy  Dy11  1  0.625313  0.248718  0.873785  1
  Dy  Dy12  1  0.741470  0.616961  0.871516  1
  Re  Re13  1  0.875338  0.253767  0.128325  1
  Re  Re14  1  0.746233  0.871675  0.124662  1
  Re  Re15  1  0.626466  0.374413  0.250049  1
  Re  Re16  1  0.128325  0.875338  0.253767  1
  Re  Re17  1  0.250049  0.626466  0.374413  1
  Re  Re18  1  0.625587  0.749951  0.373534  1
  Re  Re19  1  0.374413  0.250049  0.626466  1
  Re  Re20  1  0.749951  0.373534  0.625587  1
  Re  Re21  1  0.871675  0.124662  0.746233  1
  Re  Re22  1  0.373534  0.625587  0.749951  1
  Re  Re23  1  0.253767  0.128325  0.875338  1
  Re  Re24  1  0.124662  0.746233  0.871675  1
  Mo  Mo25  1  0.500000  0.000000  0.000000  1
  Mo  Mo26  1  0.000000  0.500000  0.000000  1
  Mo  Mo27  1  0.500000  0.500000  0.000000  1
  Mo  Mo28  1  0.000000  0.000000  0.500000  1
  Mo  Mo29  1  0.500000  0.000000  0.500000  1
  Mo  Mo30  1  0.000000  0.500000  0.500000  1
  Mo  Mo31  1  0.500000  0.500000  0.500000  1
  N  N32  1  0.313655  0.900310  0.017999  1
  N  N33  1  0.229015  0.134500  0.033122  1
  N  N34  1  0.704108  0.683824  0.089004  1
  N  N35  1  0.879699  0.401921  0.085333  1
  N  N36  1  0.616729  0.415010  0.099163  1
  N  N37  1  0.982001  0.686344  0.099690  1
  N  N38  1  0.598079  0.914667  0.120300  1
  N  N39  1  0.033122  0.229015  0.134500  1
  N  N40  1  0.201894  0.584441  0.182981  1
  N  N41  1  0.481324  0.600340  0.183458  1
  N  N42  1  0.134500  0.033122  0.229015  1
  N  N43  1  0.584441  0.182981  0.201894  1
  N  N44  1  0.487110  0.385471  0.301669  1
  N  N45  1  0.316175  0.910996  0.295892  1
  N  N46  1  0.900310  0.017999  0.313655  1
  N  N47  1  0.910996  0.295892  0.316175  1
  N  N48  1  0.301669  0.487110  0.385471  1
  N  N49  1  0.584990  0.900837  0.383270  1
  N  N50  1  0.816542  0.518675  0.399660  1
  N  N51  1  0.085333  0.879699  0.401921  1
  N  N52  1  0.099163  0.616729  0.415010  1
  N  N53  1  0.817019  0.798105  0.415559  1
  N  N54  1  0.600340  0.183458  0.481324  1
  N  N55  1  0.385471  0.301669  0.487110  1
  N  N56  1  0.614528  0.698331  0.512889  1
  N  N57  1  0.399660  0.816542  0.518675  1
  N  N58  1  0.182981  0.201894  0.584441  1
  N  N59  1  0.900837  0.383270  0.584990  1
  N  N60  1  0.914667  0.120300  0.598079  1
  N  N61  1  0.183458  0.481324  0.600340  1
  N  N62  1  0.415010  0.099163  0.616729  1
  N  N63  1  0.698331  0.512889  0.614528  1
  N  N64  1  0.089004  0.704108  0.683824  1
  N  N65  1  0.099690  0.982001  0.686344  1
  N  N66  1  0.683824  0.089004  0.704108  1
  N  N67  1  0.512889  0.614528  0.698331  1
  N  N68  1  0.415559  0.817019  0.798105  1
  N  N69  1  0.865499  0.966878  0.770984  1
  N  N70  1  0.518675  0.399660  0.816542  1
  N  N71  1  0.798105  0.415559  0.817019  1
  N  N72  1  0.401921  0.085333  0.879699  1
  N  N73  1  0.966878  0.770984  0.865499  1
  N  N74  1  0.017999  0.313655  0.900310  1
  N  N75  1  0.383270  0.584990  0.900837  1
  N  N76  1  0.120300  0.598079  0.914667  1
  N  N77  1  0.295892  0.316175  0.910996  1
  N  N78  1  0.686344  0.099690  0.982001  1
  N  N79  1  0.770984  0.865499  0.966878  1
