# generated using pymatgen
data_Yb3(GaPd)2
_symmetry_space_group_name_H-M   'P 1'
_cell_length_a   5.72653800
_cell_length_b   7.86999900
_cell_length_c   13.82338100
_cell_angle_alpha   90.00000000
_cell_angle_beta   90.00000000
_cell_angle_gamma   90.00000000
_symmetry_Int_Tables_number   1
_chemical_formula_structural   Yb3(GaPd)2
_chemical_formula_sum   'Yb12 Ga8 Pd8'
_cell_volume   622.99003836
_cell_formula_units_Z   4
loop_
 _symmetry_equiv_pos_site_id
 _symmetry_equiv_pos_as_xyz
  1  'x, y, z'
loop_
 _atom_site_type_symbol
 _atom_site_label
 _atom_site_symmetry_multiplicity
 _atom_site_fract_x
 _atom_site_fract_y
 _atom_site_fract_z
 _atom_site_occupancy
  Yb  Yb0  1  0.145336  0.604952  0.096413  1
  Yb  Yb1  1  0.145336  0.895048  0.903587  1
  Yb  Yb2  1  0.854664  0.104952  0.403587  1
  Yb  Yb3  1  0.854664  0.395048  0.596413  1
  Yb  Yb4  1  0.854664  0.395048  0.903587  1
  Yb  Yb5  1  0.854664  0.104952  0.096413  1
  Yb  Yb6  1  0.145336  0.895048  0.596413  1
  Yb  Yb7  1  0.145336  0.604952  0.403587  1
  Yb  Yb8  1  0.367555  0.251460  0.250000  1
  Yb  Yb9  1  0.367555  0.248540  0.750000  1
  Yb  Yb10  1  0.632445  0.751460  0.250000  1
  Yb  Yb11  1  0.632445  0.748540  0.750000  1
  Ga  Ga12  1  0.361635  0.250000  0.000000  1
  Ga  Ga13  1  0.638365  0.750000  0.500000  1
  Ga  Ga14  1  0.638365  0.750000  0.000000  1
  Ga  Ga15  1  0.361635  0.250000  0.500000  1
  Ga  Ga16  1  0.864664  0.400881  0.250000  1
  Ga  Ga17  1  0.864664  0.099119  0.750000  1
  Ga  Ga18  1  0.135336  0.900881  0.250000  1
  Ga  Ga19  1  0.135336  0.599119  0.750000  1
  Pd  Pd20  1  0.634669  0.465820  0.093608  1
  Pd  Pd21  1  0.634669  0.034180  0.906392  1
  Pd  Pd22  1  0.365331  0.965820  0.406392  1
  Pd  Pd23  1  0.365331  0.534180  0.593608  1
  Pd  Pd24  1  0.365331  0.534180  0.906392  1
  Pd  Pd25  1  0.365331  0.965820  0.093608  1
  Pd  Pd26  1  0.634669  0.034180  0.593608  1
  Pd  Pd27  1  0.634669  0.465820  0.406392  1
