# generated using pymatgen
data_NbMo(Ir2Rh)2
_symmetry_space_group_name_H-M   'P 1'
_cell_length_a   5.55742100
_cell_length_b   5.56797644
_cell_length_c   4.43253100
_cell_angle_alpha   90.00000000
_cell_angle_beta   90.00000000
_cell_angle_gamma   119.93731513
_symmetry_Int_Tables_number   1
_chemical_formula_structural   NbMo(Ir2Rh)2
_chemical_formula_sum   'Nb1 Mo1 Ir4 Rh2'
_cell_volume   118.85763310
_cell_formula_units_Z   1
loop_
 _symmetry_equiv_pos_site_id
 _symmetry_equiv_pos_as_xyz
  1  'x, y, z'
loop_
 _atom_site_type_symbol
 _atom_site_label
 _atom_site_symmetry_multiplicity
 _atom_site_fract_x
 _atom_site_fract_y
 _atom_site_fract_z
 _atom_site_occupancy
  Nb  Nb0  1  0.333265  0.666530  0.250000  1
  Mo  Mo1  1  0.667482  0.334963  0.750000  1
  Ir  Ir2  1  0.833391  0.666784  0.250000  1
  Ir  Ir3  1  0.332614  0.166204  0.250000  1
  Ir  Ir4  1  0.833588  0.166204  0.250000  1
  Ir  Ir5  1  0.163712  0.327423  0.750000  1
  Rh  Rh6  1  0.164364  0.835946  0.750000  1
  Rh  Rh7  1  0.671583  0.835946  0.750000  1
