# generated using pymatgen
data_Tb4Ti4Fe13(CoP4)3
_symmetry_space_group_name_H-M   'P 1'
_cell_length_a   3.67285900
_cell_length_b   10.41643491
_cell_length_c   12.29129660
_cell_angle_alpha   89.88962916
_cell_angle_beta   90.00000000
_cell_angle_gamma   90.00000000
_symmetry_Int_Tables_number   1
_chemical_formula_structural   Tb4Ti4Fe13(CoP4)3
_chemical_formula_sum   'Tb4 Ti4 Fe13 Co3 P12'
_cell_volume   470.24074187
_cell_formula_units_Z   1
loop_
 _symmetry_equiv_pos_site_id
 _symmetry_equiv_pos_as_xyz
  1  'x, y, z'
loop_
 _atom_site_type_symbol
 _atom_site_label
 _atom_site_symmetry_multiplicity
 _atom_site_fract_x
 _atom_site_fract_y
 _atom_site_fract_z
 _atom_site_occupancy
  Tb  Tb0  1  0.250000  0.582966  0.711996  1
  Tb  Tb1  1  0.250000  0.917095  0.212061  1
  Tb  Tb2  1  0.750000  0.417495  0.288065  1
  Tb  Tb3  1  0.750000  0.083307  0.787978  1
  Ti  Ti4  1  0.250000  0.701429  0.991174  1
  Ti  Ti5  1  0.250000  0.796459  0.491900  1
  Ti  Ti6  1  0.750000  0.297785  0.007623  1
  Ti  Ti7  1  0.750000  0.203507  0.508285  1
  Fe  Fe8  1  0.250000  0.416320  0.491694  1
  Fe  Fe9  1  0.250000  0.083098  0.991788  1
  Fe  Fe10  1  0.750000  0.584111  0.508031  1
  Fe  Fe11  1  0.750000  0.916538  0.008534  1
  Fe  Fe12  1  0.250000  0.216286  0.172783  1
  Fe  Fe13  1  0.250000  0.284426  0.671564  1
  Fe  Fe14  1  0.750000  0.783775  0.828021  1
  Fe  Fe15  1  0.750000  0.716268  0.327868  1
  Fe  Fe16  1  0.250000  0.879893  0.695520  1
  Fe  Fe17  1  0.250000  0.620910  0.195968  1
  Fe  Fe18  1  0.750000  0.119894  0.305184  1
  Fe  Fe19  1  0.750000  0.378185  0.802648  1
  Fe  Fe20  1  0.250000  0.464885  0.934939  1
  Co  Co21  1  0.250000  0.034751  0.435413  1
  Co  Co22  1  0.750000  0.535592  0.066621  1
  Co  Co23  1  0.750000  0.965125  0.564863  1
  P  P24  1  0.250000  0.422423  0.112331  1
  P  P25  1  0.250000  0.078366  0.613277  1
  P  P26  1  0.750000  0.575560  0.887254  1
  P  P27  1  0.750000  0.921120  0.386794  1
  P  P28  1  0.250000  0.273524  0.858354  1
  P  P29  1  0.250000  0.226972  0.357979  1
  P  P30  1  0.750000  0.727215  0.141913  1
  P  P31  1  0.750000  0.772940  0.641952  1
  P  P32  1  0.250000  0.600821  0.376801  1
  P  P33  1  0.250000  0.899388  0.877255  1
  P  P34  1  0.750000  0.400229  0.622160  1
  P  P35  1  0.750000  0.101341  0.123409  1
