# generated using pymatgen
data_Lu3Hf(Al3Rh)6
_symmetry_space_group_name_H-M   'P 1'
_cell_length_a   7.50822691
_cell_length_b   7.49735849
_cell_length_c   9.35752000
_cell_angle_alpha   90.00000000
_cell_angle_beta   90.00000000
_cell_angle_gamma   119.51106847
_symmetry_Int_Tables_number   1
_chemical_formula_structural   Lu3Hf(Al3Rh)6
_chemical_formula_sum   'Lu3 Hf1 Al18 Rh6'
_cell_volume   458.41173687
_cell_formula_units_Z   1
loop_
 _symmetry_equiv_pos_site_id
 _symmetry_equiv_pos_as_xyz
  1  'x, y, z'
loop_
 _atom_site_type_symbol
 _atom_site_label
 _atom_site_symmetry_multiplicity
 _atom_site_fract_x
 _atom_site_fract_y
 _atom_site_fract_z
 _atom_site_occupancy
  Lu  Lu0  1  0.006128  0.327966  0.750000  1
  Lu  Lu1  1  0.672067  0.995897  0.250000  1
  Lu  Lu2  1  0.328778  0.006220  0.750000  1
  Hf  Hf3  1  0.996075  0.671621  0.250000  1
  Al  Al4  1  0.124288  0.122036  0.250000  1
  Al  Al5  1  0.872651  0.871980  0.750000  1
  Al  Al6  1  0.999455  0.337616  0.079872  1
  Al  Al7  1  0.000262  0.664758  0.926205  1
  Al  Al8  1  0.000262  0.664758  0.573795  1
  Al  Al9  1  0.333067  0.997679  0.420034  1
  Al  Al10  1  0.999455  0.337616  0.420128  1
  Al  Al11  1  0.664570  0.999551  0.576078  1
  Al  Al12  1  0.664570  0.999551  0.923922  1
  Al  Al13  1  0.333067  0.997679  0.079966  1
  Al  Al14  1  0.332922  0.332879  0.552166  1
  Al  Al15  1  0.669173  0.667505  0.442604  1
  Al  Al16  1  0.669173  0.667505  0.057396  1
  Al  Al17  1  0.332922  0.332879  0.947834  1
  Al  Al18  1  0.336322  0.551484  0.250000  1
  Al  Al19  1  0.661183  0.450257  0.750000  1
  Al  Al20  1  0.555973  0.343593  0.250000  1
  Al  Al21  1  0.448756  0.659879  0.750000  1
  Rh  Rh22  1  0.673055  0.327904  0.000943  1
  Rh  Rh23  1  0.327142  0.672742  0.001555  1
  Rh  Rh24  1  0.327142  0.672742  0.498445  1
  Rh  Rh25  1  0.673055  0.327904  0.499057  1
  Rh  Rh26  1  0.999243  0.998898  0.001119  1
  Rh  Rh27  1  0.999243  0.998898  0.498881  1
