# generated using pymatgen
data_LiHo16In3RuRh3
_symmetry_space_group_name_H-M   'P 1'
_cell_length_a   9.62545247
_cell_length_b   9.64761612
_cell_length_c   9.62545177
_cell_angle_alpha   59.70005520
_cell_angle_beta   59.51797999
_cell_angle_gamma   59.70005827
_symmetry_Int_Tables_number   1
_chemical_formula_structural   LiHo16In3RuRh3
_chemical_formula_sum   'Li1 Ho16 In3 Ru1 Rh3'
_cell_volume   626.86020299
_cell_formula_units_Z   1
loop_
 _symmetry_equiv_pos_site_id
 _symmetry_equiv_pos_as_xyz
  1  'x, y, z'
loop_
 _atom_site_type_symbol
 _atom_site_label
 _atom_site_symmetry_multiplicity
 _atom_site_fract_x
 _atom_site_fract_y
 _atom_site_fract_z
 _atom_site_occupancy
  Li  Li0  1  0.821208  0.821734  0.821208  1
  Ho  Ho1  1  0.187958  0.188130  0.812410  1
  Ho  Ho2  1  0.598254  0.599665  0.205385  1
  Ho  Ho3  1  0.441510  0.056672  0.441510  1
  Ho  Ho4  1  0.441574  0.442598  0.058156  1
  Ho  Ho5  1  0.812558  0.188217  0.812558  1
  Ho  Ho6  1  0.188987  0.813243  0.188987  1
  Ho  Ho7  1  0.436508  0.060364  0.064013  1
  Ho  Ho8  1  0.187996  0.813783  0.808935  1
  Ho  Ho9  1  0.061707  0.437379  0.061707  1
  Ho  Ho10  1  0.808935  0.813783  0.187996  1
  Ho  Ho11  1  0.205385  0.599665  0.598254  1
  Ho  Ho12  1  0.058156  0.442598  0.441574  1
  Ho  Ho13  1  0.064013  0.060364  0.436508  1
  Ho  Ho14  1  0.812410  0.188130  0.187958  1
  Ho  Ho15  1  0.599716  0.203321  0.599716  1
  Ho  Ho16  1  0.599417  0.600978  0.599417  1
  In  In17  1  0.832441  0.833083  0.503248  1
  In  In18  1  0.503248  0.833083  0.832441  1
  In  In19  1  0.832560  0.503631  0.832560  1
  Ru  Ru20  1  0.393749  0.825537  0.393749  1
  Rh  Rh21  1  0.392934  0.390640  0.392934  1
  Rh  Rh22  1  0.825605  0.391703  0.393173  1
  Rh  Rh23  1  0.393173  0.391703  0.825605  1
