# generated using pymatgen
data_CeSm3Lu4(B6Ru)4
_symmetry_space_group_name_H-M   'P 1'
_cell_length_a   3.66427400
_cell_length_b   9.12365530
_cell_length_c   11.51905038
_cell_angle_alpha   90.02936178
_cell_angle_beta   90.00000000
_cell_angle_gamma   90.00000000
_symmetry_Int_Tables_number   1
_chemical_formula_structural   CeSm3Lu4(B6Ru)4
_chemical_formula_sum   'Ce1 Sm3 Lu4 B24 Ru4'
_cell_volume   385.09992188
_cell_formula_units_Z   1
loop_
 _symmetry_equiv_pos_site_id
 _symmetry_equiv_pos_as_xyz
  1  'x, y, z'
loop_
 _atom_site_type_symbol
 _atom_site_label
 _atom_site_symmetry_multiplicity
 _atom_site_fract_x
 _atom_site_fract_y
 _atom_site_fract_z
 _atom_site_occupancy
  Ce  Ce0  1  0.000000  0.322381  0.414370  1
  Sm  Sm1  1  0.000000  0.679015  0.586008  1
  Sm  Sm2  1  0.000000  0.821527  0.085221  1
  Sm  Sm3  1  0.000000  0.178161  0.914221  1
  Lu  Lu4  1  0.000000  0.944082  0.372863  1
  Lu  Lu5  1  0.000000  0.055026  0.627357  1
  Lu  Lu6  1  0.000000  0.444342  0.127064  1
  Lu  Lu7  1  0.000000  0.556112  0.872949  1
  B  B8  1  0.500000  0.555343  0.431052  1
  B  B9  1  0.500000  0.444154  0.568566  1
  B  B10  1  0.500000  0.055780  0.068858  1
  B  B11  1  0.500000  0.944151  0.931305  1
  B  B12  1  0.500000  0.751264  0.418027  1
  B  B13  1  0.500000  0.249246  0.581710  1
  B  B14  1  0.500000  0.250999  0.081763  1
  B  B15  1  0.500000  0.749103  0.918081  1
  B  B16  1  0.500000  0.791784  0.265939  1
  B  B17  1  0.500000  0.208151  0.734386  1
  B  B18  1  0.500000  0.291934  0.234170  1
  B  B19  1  0.500000  0.708261  0.766034  1
  B  B20  1  0.500000  0.630318  0.183990  1
  B  B21  1  0.500000  0.369693  0.815926  1
  B  B22  1  0.500000  0.130622  0.315936  1
  B  B23  1  0.500000  0.869695  0.684194  1
  B  B24  1  0.500000  0.983966  0.214050  1
  B  B25  1  0.500000  0.015813  0.785714  1
  B  B26  1  0.500000  0.484174  0.285892  1
  B  B27  1  0.500000  0.515668  0.714520  1
  B  B28  1  0.500000  0.602351  0.027829  1
  B  B29  1  0.500000  0.397563  0.972147  1
  B  B30  1  0.500000  0.102421  0.472160  1
  B  B31  1  0.500000  0.897230  0.527765  1
  Ru  Ru32  1  0.000000  0.638874  0.319459  1
  Ru  Ru33  1  0.000000  0.360217  0.679601  1
  Ru  Ru34  1  0.000000  0.140116  0.181801  1
  Ru  Ru35  1  0.000000  0.860463  0.819074  1
