# generated using pymatgen
data_Tb9Th3Ru4
_symmetry_space_group_name_H-M   'P 1'
_cell_length_a   6.37809634
_cell_length_b   7.23796098
_cell_length_c   9.57990700
_cell_angle_alpha   90.00000000
_cell_angle_beta   90.00000000
_cell_angle_gamma   90.67024758
_symmetry_Int_Tables_number   1
_chemical_formula_structural   Tb9Th3Ru4
_chemical_formula_sum   'Tb9 Th3 Ru4'
_cell_volume   442.22051858
_cell_formula_units_Z   1
loop_
 _symmetry_equiv_pos_site_id
 _symmetry_equiv_pos_as_xyz
  1  'x, y, z'
loop_
 _atom_site_type_symbol
 _atom_site_label
 _atom_site_symmetry_multiplicity
 _atom_site_fract_x
 _atom_site_fract_y
 _atom_site_fract_z
 _atom_site_occupancy
  Tb  Tb0  1  0.333732  0.677071  0.064552  1
  Tb  Tb1  1  0.165002  0.175971  0.434452  1
  Tb  Tb2  1  0.669832  0.323783  0.566763  1
  Tb  Tb3  1  0.829480  0.823312  0.931264  1
  Tb  Tb4  1  0.669832  0.323783  0.933237  1
  Tb  Tb5  1  0.829480  0.823312  0.568736  1
  Tb  Tb6  1  0.333732  0.677071  0.435448  1
  Tb  Tb7  1  0.165002  0.175971  0.065548  1
  Tb  Tb8  1  0.360843  0.962027  0.750000  1
  Th  Th9  1  0.847182  0.548458  0.250000  1
  Th  Th10  1  0.650215  0.046739  0.250000  1
  Th  Th11  1  0.152969  0.451616  0.750000  1
  Ru  Ru12  1  0.030848  0.871862  0.250000  1
  Ru  Ru13  1  0.470189  0.370086  0.250000  1
  Ru  Ru14  1  0.962305  0.133239  0.750000  1
  Ru  Ru15  1  0.529356  0.615696  0.750000  1
