# generated using pymatgen
data_Sc12Si12NiAu3
_symmetry_space_group_name_H-M   'P 1'
_cell_length_a   4.04992600
_cell_length_b   10.35851217
_cell_length_c   11.77552343
_cell_angle_alpha   90.24545006
_cell_angle_beta   90.00000000
_cell_angle_gamma   90.00000000
_symmetry_Int_Tables_number   1
_chemical_formula_structural   Sc12Si12NiAu3
_chemical_formula_sum   'Sc12 Si12 Ni1 Au3'
_cell_volume   493.99289705
_cell_formula_units_Z   1
loop_
 _symmetry_equiv_pos_site_id
 _symmetry_equiv_pos_as_xyz
  1  'x, y, z'
loop_
 _atom_site_type_symbol
 _atom_site_label
 _atom_site_symmetry_multiplicity
 _atom_site_fract_x
 _atom_site_fract_y
 _atom_site_fract_z
 _atom_site_occupancy
  Sc  Sc0  1  0.250000  0.872994  0.021545  1
  Sc  Sc1  1  0.250000  0.628663  0.524711  1
  Sc  Sc2  1  0.750000  0.120570  0.974488  1
  Sc  Sc3  1  0.750000  0.373564  0.479302  1
  Sc  Sc4  1  0.250000  0.921729  0.599166  1
  Sc  Sc5  1  0.250000  0.579337  0.095372  1
  Sc  Sc6  1  0.750000  0.079125  0.401500  1
  Sc  Sc7  1  0.750000  0.420196  0.899358  1
  Sc  Sc8  1  0.250000  0.668874  0.800539  1
  Sc  Sc9  1  0.250000  0.839712  0.302259  1
  Sc  Sc10  1  0.750000  0.340051  0.197909  1
  Sc  Sc11  1  0.750000  0.150736  0.700544  1
  Si  Si12  1  0.250000  0.006274  0.825886  1
  Si  Si13  1  0.250000  0.476463  0.327669  1
  Si  Si14  1  0.750000  0.975580  0.173441  1
  Si  Si15  1  0.750000  0.528528  0.672264  1
  Si  Si16  1  0.250000  0.239336  0.847432  1
  Si  Si17  1  0.250000  0.252220  0.349223  1
  Si  Si18  1  0.750000  0.751432  0.150169  1
  Si  Si19  1  0.750000  0.758156  0.661038  1
  Si  Si20  1  0.250000  0.180701  0.541828  1
  Si  Si21  1  0.250000  0.319608  0.038295  1
  Si  Si22  1  0.750000  0.820422  0.462630  1
  Si  Si23  1  0.750000  0.692421  0.952636  1
  Ni  Ni24  1  0.750000  0.888242  0.821205  1
  Au  Au25  1  0.250000  0.385336  0.680167  1
  Au  Au26  1  0.250000  0.114723  0.176755  1
  Au  Au27  1  0.750000  0.615008  0.322667  1
