# generated using pymatgen
data_Li2(HfPt)3
_symmetry_space_group_name_H-M   'P 1'
_cell_length_a   7.92416101
_cell_length_b   7.92416188
_cell_length_c   5.16229500
_cell_angle_alpha   90.00000000
_cell_angle_beta   90.00000000
_cell_angle_gamma   119.99519145
_symmetry_Int_Tables_number   1
_chemical_formula_structural   Li2(HfPt)3
_chemical_formula_sum   'Li4 Hf6 Pt6'
_cell_volume   280.73794833
_cell_formula_units_Z   2
loop_
 _symmetry_equiv_pos_site_id
 _symmetry_equiv_pos_as_xyz
  1  'x, y, z'
loop_
 _atom_site_type_symbol
 _atom_site_label
 _atom_site_symmetry_multiplicity
 _atom_site_fract_x
 _atom_site_fract_y
 _atom_site_fract_z
 _atom_site_occupancy
  Li  Li0  1  0.666678  0.333331  0.000001  1
  Li  Li1  1  0.333331  0.666678  0.000001  1
  Li  Li2  1  0.666669  0.333322  0.500000  1
  Li  Li3  1  0.333322  0.666669  0.500000  1
  Hf  Hf4  1  0.248680  0.000004  0.249998  1
  Hf  Hf5  1  0.000004  0.248680  0.249998  1
  Hf  Hf6  1  0.751305  0.751305  0.249998  1
  Hf  Hf7  1  0.751320  0.999996  0.749999  1
  Hf  Hf8  1  0.999996  0.751320  0.749999  1
  Hf  Hf9  1  0.248695  0.248695  0.749998  1
  Pt  Pt10  1  0.392859  0.392859  0.249998  1
  Pt  Pt11  1  0.607131  0.999999  0.250001  1
  Pt  Pt12  1  0.999999  0.607131  0.250001  1
  Pt  Pt13  1  0.607141  0.607141  0.749999  1
  Pt  Pt14  1  0.392872  0.000001  0.750003  1
  Pt  Pt15  1  0.000001  0.392872  0.750003  1
