# generated using pymatgen
data_La9Tb9B6(C6I5)2
_symmetry_space_group_name_H-M   'P 1'
_cell_length_a   3.86705000
_cell_length_b   8.09795433
_cell_length_c   33.28374273
_cell_angle_alpha   90.55242934
_cell_angle_beta   90.00160460
_cell_angle_gamma   89.99903766
_symmetry_Int_Tables_number   1
_chemical_formula_structural   La9Tb9B6(C6I5)2
_chemical_formula_sum   'La9 Tb9 B6 C12 I10'
_cell_volume   1042.23842331
_cell_formula_units_Z   1
loop_
 _symmetry_equiv_pos_site_id
 _symmetry_equiv_pos_as_xyz
  1  'x, y, z'
loop_
 _atom_site_type_symbol
 _atom_site_label
 _atom_site_symmetry_multiplicity
 _atom_site_fract_x
 _atom_site_fract_y
 _atom_site_fract_z
 _atom_site_occupancy
  La  La0  1  0.250130  0.564060  0.248931  1
  La  La1  1  0.249963  0.952920  0.192841  1
  La  La2  1  0.250003  0.334999  0.635163  1
  La  La3  1  0.250110  0.923911  0.904957  1
  La  La4  1  0.249924  0.186628  0.511136  1
  La  La5  1  0.749766  0.431436  0.751336  1
  La  La6  1  0.749967  0.661341  0.364635  1
  La  La7  1  0.750103  0.811786  0.490788  1
  La  La8  1  0.749854  0.082198  0.403512  1
  Tb  Tb9  1  0.749930  0.060079  0.092517  1
  Tb  Tb10  1  0.750105  0.830705  0.007312  1
  Tb  Tb11  1  0.249928  0.177660  0.991612  1
  Tb  Tb12  1  0.250157  0.929888  0.595568  1
  Tb  Tb13  1  0.250067  0.327508  0.864667  1
  Tb  Tb14  1  0.750075  0.060855  0.694601  1
  Tb  Tb15  1  0.249932  0.936038  0.305720  1
  Tb  Tb16  1  0.749938  0.671282  0.135253  1
  Tb  Tb17  1  0.750053  0.065332  0.807487  1
  B  B18  1  0.249727  0.211904  0.751689  1
  B  B19  1  0.750054  0.141352  0.920786  1
  B  B20  1  0.750152  0.784899  0.248462  1
  B  B21  1  0.249879  0.868274  0.418763  1
  B  B22  1  0.249973  0.862549  0.077423  1
  B  B23  1  0.750109  0.129054  0.582068  1
  C  C24  1  0.750005  0.120885  0.626645  1
  C  C25  1  0.749987  0.037857  0.957690  1
  C  C26  1  0.250036  0.971760  0.455963  1
  C  C27  1  0.749976  0.742243  0.292012  1
  C  C28  1  0.250063  0.258417  0.795116  1
  C  C29  1  0.250028  0.970165  0.041555  1
  C  C30  1  0.749968  0.734465  0.205227  1
  C  C31  1  0.749979  0.019814  0.545632  1
  C  C32  1  0.249928  0.858128  0.121858  1
  C  C33  1  0.750069  0.139704  0.875978  1
  C  C34  1  0.249983  0.871825  0.374085  1
  C  C35  1  0.250069  0.254928  0.708208  1
  I  I36  1  0.249953  0.573510  0.954487  1
  I  I37  1  0.749978  0.685868  0.653106  1
  I  I38  1  0.250044  0.334177  0.149397  1
  I  I39  1  0.249988  0.325920  0.344935  1
  I  I40  1  0.750044  0.430376  0.451752  1
  I  I41  1  0.250010  0.815099  0.751343  1
  I  I42  1  0.749966  0.655259  0.846800  1
  I  I43  1  0.750022  0.198661  0.251564  1
  I  I44  1  0.249966  0.579658  0.551466  1
  I  I45  1  0.750039  0.414625  0.047954  1
