# generated using pymatgen
data_Ca4Th4GePd24
_symmetry_space_group_name_H-M   'P 1'
_cell_length_a   8.39173036
_cell_length_b   8.41412638
_cell_length_c   8.41412600
_cell_angle_alpha   90.00071499
_cell_angle_beta   89.93521926
_cell_angle_gamma   89.93521550
_symmetry_Int_Tables_number   1
_chemical_formula_structural   Ca4Th4GePd24
_chemical_formula_sum   'Ca4 Th4 Ge1 Pd24'
_cell_volume   594.11293480
_cell_formula_units_Z   1
loop_
 _symmetry_equiv_pos_site_id
 _symmetry_equiv_pos_as_xyz
  1  'x, y, z'
loop_
 _atom_site_type_symbol
 _atom_site_label
 _atom_site_symmetry_multiplicity
 _atom_site_fract_x
 _atom_site_fract_y
 _atom_site_fract_z
 _atom_site_occupancy
  Ca  Ca0  1  0.251343  0.252018  0.748256  1
  Ca  Ca1  1  0.251343  0.748256  0.252018  1
  Ca  Ca2  1  0.251186  0.747994  0.747994  1
  Ca  Ca3  1  0.748798  0.250923  0.250923  1
  Th  Th4  1  0.254793  0.256080  0.256080  1
  Th  Th5  1  0.745011  0.745785  0.745785  1
  Th  Th6  1  0.744865  0.745916  0.254056  1
  Th  Th7  1  0.744865  0.254056  0.745916  1
  Ge  Ge8  1  0.004352  0.999717  0.999717  1
  Pd  Pd9  1  0.259984  0.497849  0.002977  1
  Pd  Pd10  1  0.741001  0.500567  0.999383  1
  Pd  Pd11  1  0.998985  0.259176  0.500183  1
  Pd  Pd12  1  0.500410  0.259523  0.999939  1
  Pd  Pd13  1  0.996379  0.740424  0.499691  1
  Pd  Pd14  1  0.502197  0.740552  0.000164  1
  Pd  Pd15  1  0.500410  0.999939  0.259523  1
  Pd  Pd16  1  0.259984  0.002977  0.497849  1
  Pd  Pd17  1  0.502197  0.000164  0.740552  1
  Pd  Pd18  1  0.741001  0.999383  0.500567  1
  Pd  Pd19  1  0.998985  0.500183  0.259176  1
  Pd  Pd20  1  0.996379  0.499691  0.740424  1
  Pd  Pd21  1  0.252091  0.498952  0.498952  1
  Pd  Pd22  1  0.746143  0.499329  0.499329  1
  Pd  Pd23  1  0.500950  0.253088  0.500324  1
  Pd  Pd24  1  0.500382  0.747195  0.500028  1
  Pd  Pd25  1  0.500950  0.500324  0.253088  1
  Pd  Pd26  1  0.500382  0.500028  0.747195  1
  Pd  Pd27  1  0.291311  0.000768  0.000768  1
  Pd  Pd28  1  0.711874  0.000164  0.000164  1
  Pd  Pd29  1  0.000426  0.288977  0.999706  1
  Pd  Pd30  1  0.000300  0.710414  0.999883  1
  Pd  Pd31  1  0.000426  0.999706  0.288977  1
  Pd  Pd32  1  0.000300  0.999883  0.710414  1
