# generated using pymatgen
data_MnCr20(WC3)2
_symmetry_space_group_name_H-M   'P 1'
_cell_length_a   7.53206060
_cell_length_b   7.53205997
_cell_length_c   7.53206000
_cell_angle_alpha   59.99999987
_cell_angle_beta   60.00000265
_cell_angle_gamma   59.99999645
_symmetry_Int_Tables_number   1
_chemical_formula_structural   MnCr20(WC3)2
_chemical_formula_sum   'Mn1 Cr20 W2 C6'
_cell_volume   302.15260621
_cell_formula_units_Z   1
loop_
 _symmetry_equiv_pos_site_id
 _symmetry_equiv_pos_as_xyz
  1  'x, y, z'
loop_
 _atom_site_type_symbol
 _atom_site_label
 _atom_site_symmetry_multiplicity
 _atom_site_fract_x
 _atom_site_fract_y
 _atom_site_fract_z
 _atom_site_occupancy
  Mn  Mn0  1  0.000000  0.000000  0.000000  1
  Cr  Cr1  1  0.615579  0.615579  0.153262  1
  Cr  Cr2  1  0.615579  0.153262  0.615579  1
  Cr  Cr3  1  0.153262  0.615579  0.615579  1
  Cr  Cr4  1  0.615579  0.615579  0.615579  1
  Cr  Cr5  1  0.384421  0.384421  0.846738  1
  Cr  Cr6  1  0.384421  0.846738  0.384421  1
  Cr  Cr7  1  0.846738  0.384421  0.384421  1
  Cr  Cr8  1  0.384421  0.384421  0.384421  1
  Cr  Cr9  1  0.000000  0.000000  0.335378  1
  Cr  Cr10  1  0.664622  0.000000  0.335378  1
  Cr  Cr11  1  0.000000  0.664622  0.335378  1
  Cr  Cr12  1  0.664622  0.335378  0.000000  1
  Cr  Cr13  1  0.000000  0.335378  0.000000  1
  Cr  Cr14  1  0.000000  0.335378  0.664622  1
  Cr  Cr15  1  0.335378  0.664622  0.000000  1
  Cr  Cr16  1  0.335378  0.000000  0.664622  1
  Cr  Cr17  1  0.335378  0.000000  0.000000  1
  Cr  Cr18  1  0.000000  0.000000  0.664622  1
  Cr  Cr19  1  0.000000  0.664622  0.000000  1
  Cr  Cr20  1  0.664622  0.000000  0.000000  1
  W  W21  1  0.750000  0.750000  0.750000  1
  W  W22  1  0.250000  0.250000  0.250000  1
  C  C23  1  0.724250  0.724250  0.275750  1
  C  C24  1  0.275750  0.724250  0.275750  1
  C  C25  1  0.724250  0.275750  0.275750  1
  C  C26  1  0.275750  0.275750  0.724250  1
  C  C27  1  0.724250  0.275750  0.724250  1
  C  C28  1  0.275750  0.724250  0.724250  1
