# generated using pymatgen
data_LaPr6Nd3(Al2Os3)2
_symmetry_space_group_name_H-M   'P 1'
_cell_length_a   8.64741019
_cell_length_b   8.59105336
_cell_length_c   8.59102882
_cell_angle_alpha   109.10011590
_cell_angle_beta   109.65007206
_cell_angle_gamma   109.39813248
_symmetry_Int_Tables_number   1
_chemical_formula_structural   LaPr6Nd3(Al2Os3)2
_chemical_formula_sum   'La1 Pr6 Nd3 Al4 Os6'
_cell_volume   492.90395001
_cell_formula_units_Z   1
loop_
 _symmetry_equiv_pos_site_id
 _symmetry_equiv_pos_as_xyz
  1  'x, y, z'
loop_
 _atom_site_type_symbol
 _atom_site_label
 _atom_site_symmetry_multiplicity
 _atom_site_fract_x
 _atom_site_fract_y
 _atom_site_fract_z
 _atom_site_occupancy
  La  La0  1  0.249789  0.687159  0.437097  1
  Pr  Pr1  1  0.066799  0.750378  0.819890  1
  Pr  Pr2  1  0.819025  0.068293  0.751039  1
  Pr  Pr3  1  0.213680  0.212756  0.215395  1
  Pr  Pr4  1  0.503110  0.001557  0.288149  1
  Pr  Pr5  1  0.287182  0.501565  0.999323  1
  Pr  Pr6  1  0.996972  0.284861  0.497975  1
  Nd  Nd7  1  0.749804  0.817033  0.067470  1
  Nd  Nd8  1  0.432655  0.253321  0.683290  1
  Nd  Nd9  1  0.680012  0.431089  0.248649  1
  Al  Al10  1  0.591186  0.590170  0.588063  1
  Al  Al11  1  0.499715  0.001065  0.911735  1
  Al  Al12  1  0.907798  0.497177  0.999564  1
  Al  Al13  1  0.001051  0.912316  0.501236  1
  Os  Os14  1  0.251119  0.117338  0.866982  1
  Os  Os15  1  0.749131  0.383161  0.633332  1
  Os  Os16  1  0.862409  0.245082  0.114905  1
  Os  Os17  1  0.118659  0.861192  0.252159  1
  Os  Os18  1  0.638045  0.751329  0.381784  1
  Os  Os19  1  0.381854  0.633156  0.741963  1
