# generated using pymatgen
data_Ce2Th3CoSb3
_symmetry_space_group_name_H-M   'P 1'
_cell_length_a   6.34711400
_cell_length_b   9.48990801
_cell_length_c   9.48990900
_cell_angle_alpha   119.99999298
_cell_angle_beta   90.00000000
_cell_angle_gamma   90.00000000
_symmetry_Int_Tables_number   1
_chemical_formula_structural   Ce2Th3CoSb3
_chemical_formula_sum   'Ce4 Th6 Co2 Sb6'
_cell_volume   495.02942189
_cell_formula_units_Z   2
loop_
 _symmetry_equiv_pos_site_id
 _symmetry_equiv_pos_as_xyz
  1  'x, y, z'
loop_
 _atom_site_type_symbol
 _atom_site_label
 _atom_site_symmetry_multiplicity
 _atom_site_fract_x
 _atom_site_fract_y
 _atom_site_fract_z
 _atom_site_occupancy
  Ce  Ce0  1  0.000000  0.666667  0.333333  1
  Ce  Ce1  1  0.000000  0.333333  0.666667  1
  Ce  Ce2  1  0.500000  0.333333  0.666667  1
  Ce  Ce3  1  0.500000  0.666667  0.333333  1
  Th  Th4  1  0.750000  0.758793  0.758793  1
  Th  Th5  1  0.250000  0.241207  0.241207  1
  Th  Th6  1  0.750000  0.000000  0.241207  1
  Th  Th7  1  0.250000  0.000000  0.758793  1
  Th  Th8  1  0.750000  0.241207  0.000000  1
  Th  Th9  1  0.250000  0.758793  0.000000  1
  Co  Co10  1  0.000000  0.000000  0.000000  1
  Co  Co11  1  0.500000  0.000000  0.000000  1
  Sb  Sb12  1  0.750000  0.394286  0.394286  1
  Sb  Sb13  1  0.250000  0.605714  0.605714  1
  Sb  Sb14  1  0.750000  0.000000  0.605714  1
  Sb  Sb15  1  0.250000  0.000000  0.394286  1
  Sb  Sb16  1  0.750000  0.605714  0.000000  1
  Sb  Sb17  1  0.250000  0.394286  0.000000  1
