# generated using pymatgen
data_HoTh2Al9Si3Os4
_symmetry_space_group_name_H-M   'P 1'
_cell_length_a   8.84462129
_cell_length_b   8.81618973
_cell_length_c   9.50080300
_cell_angle_alpha   90.00000000
_cell_angle_beta   90.00000000
_cell_angle_gamma   120.13177507
_symmetry_Int_Tables_number   1
_chemical_formula_structural   HoTh2Al9Si3Os4
_chemical_formula_sum   'Ho2 Th4 Al18 Si6 Os8'
_cell_volume   640.72681817
_cell_formula_units_Z   2
loop_
 _symmetry_equiv_pos_site_id
 _symmetry_equiv_pos_as_xyz
  1  'x, y, z'
loop_
 _atom_site_type_symbol
 _atom_site_label
 _atom_site_symmetry_multiplicity
 _atom_site_fract_x
 _atom_site_fract_y
 _atom_site_fract_z
 _atom_site_occupancy
  Ho  Ho0  1  0.199460  0.804527  0.250000  1
  Ho  Ho1  1  0.800540  0.195473  0.750000  1
  Th  Th2  1  0.190987  0.382347  0.250000  1
  Th  Th3  1  0.809013  0.617653  0.750000  1
  Th  Th4  1  0.615008  0.809288  0.250000  1
  Th  Th5  1  0.384992  0.190712  0.750000  1
  Al  Al6  1  0.161526  0.327769  0.579935  1
  Al  Al7  1  0.838474  0.672231  0.420065  1
  Al  Al8  1  0.672951  0.838205  0.577910  1
  Al  Al9  1  0.838474  0.672231  0.079935  1
  Al  Al10  1  0.327049  0.161795  0.422090  1
  Al  Al11  1  0.161526  0.327769  0.920065  1
  Al  Al12  1  0.163003  0.834957  0.573347  1
  Al  Al13  1  0.327049  0.161795  0.077910  1
  Al  Al14  1  0.836997  0.165043  0.426653  1
  Al  Al15  1  0.672951  0.838205  0.922090  1
  Al  Al16  1  0.836997  0.165043  0.073347  1
  Al  Al17  1  0.163003  0.834957  0.926653  1
  Al  Al18  1  0.870628  0.432768  0.250000  1
  Al  Al19  1  0.129372  0.567232  0.750000  1
  Al  Al20  1  0.563665  0.429753  0.250000  1
  Al  Al21  1  0.436335  0.570247  0.750000  1
  Al  Al22  1  0.005235  0.992060  0.250000  1
  Al  Al23  1  0.994765  0.007940  0.750000  1
  Si  Si24  1  0.329805  0.665964  0.031449  1
  Si  Si25  1  0.670195  0.334036  0.968551  1
  Si  Si26  1  0.670195  0.334036  0.531449  1
  Si  Si27  1  0.329805  0.665964  0.468551  1
  Si  Si28  1  0.561283  0.126104  0.250000  1
  Si  Si29  1  0.438717  0.873896  0.750000  1
  Os  Os30  1  0.500000  0.000000  0.000000  1
  Os  Os31  1  0.000000  0.500000  0.000000  1
  Os  Os32  1  0.500000  0.000000  0.500000  1
  Os  Os33  1  0.500000  0.500000  0.000000  1
  Os  Os34  1  0.000000  0.500000  0.500000  1
  Os  Os35  1  0.500000  0.500000  0.500000  1
  Os  Os36  1  0.000000  0.000000  0.000000  1
  Os  Os37  1  0.000000  0.000000  0.500000  1
