# generated using pymatgen
data_Pa4TaGa12
_symmetry_space_group_name_H-M   'P 1'
_cell_length_a   7.51782165
_cell_length_b   7.55077791
_cell_length_c   7.54472363
_cell_angle_alpha   109.55436595
_cell_angle_beta   109.32669037
_cell_angle_gamma   109.38408803
_symmetry_Int_Tables_number   1
_chemical_formula_structural   Pa4TaGa12
_chemical_formula_sum   'Pa4 Ta1 Ga12'
_cell_volume   330.29138259
_cell_formula_units_Z   1
loop_
 _symmetry_equiv_pos_site_id
 _symmetry_equiv_pos_as_xyz
  1  'x, y, z'
loop_
 _atom_site_type_symbol
 _atom_site_label
 _atom_site_symmetry_multiplicity
 _atom_site_fract_x
 _atom_site_fract_y
 _atom_site_fract_z
 _atom_site_occupancy
  Pa  Pa0  1  0.000000  0.000000  0.500000  1
  Pa  Pa1  1  0.000000  0.500000  0.000000  1
  Pa  Pa2  1  0.500000  0.000000  0.000000  1
  Pa  Pa3  1  0.500000  0.500000  0.500000  1
  Ta  Ta4  1  0.000000  0.000000  0.000000  1
  Ga  Ga5  1  0.750041  0.250029  0.500073  1
  Ga  Ga6  1  0.750045  0.500100  0.250054  1
  Ga  Ga7  1  0.499978  0.250029  0.749947  1
  Ga  Ga8  1  0.249955  0.499900  0.749946  1
  Ga  Ga9  1  0.249959  0.749971  0.499927  1
  Ga  Ga10  1  0.500022  0.749971  0.250053  1
  Ga  Ga11  1  0.699304  0.699263  0.000023  1
  Ga  Ga12  1  0.300692  0.000001  0.300760  1
  Ga  Ga13  1  0.000043  0.300738  0.300762  1
  Ga  Ga14  1  0.300696  0.300737  0.999977  1
  Ga  Ga15  1  0.699308  0.999999  0.699240  1
  Ga  Ga16  1  0.999957  0.699262  0.699238  1
