# generated using pymatgen
data_Tb6Cd22AgGe
_symmetry_space_group_name_H-M   'P 1'
_cell_length_a   10.01356863
_cell_length_b   10.01356823
_cell_length_c   10.01356800
_cell_angle_alpha   60.00000077
_cell_angle_beta   60.00000209
_cell_angle_gamma   59.99999626
_symmetry_Int_Tables_number   1
_chemical_formula_structural   Tb6Cd22AgGe
_chemical_formula_sum   'Tb6 Cd22 Ag1 Ge1'
_cell_volume   709.98895224
_cell_formula_units_Z   1
loop_
 _symmetry_equiv_pos_site_id
 _symmetry_equiv_pos_as_xyz
  1  'x, y, z'
loop_
 _atom_site_type_symbol
 _atom_site_label
 _atom_site_symmetry_multiplicity
 _atom_site_fract_x
 _atom_site_fract_y
 _atom_site_fract_z
 _atom_site_occupancy
  Tb  Tb0  1  0.704225  0.295775  0.295775  1
  Tb  Tb1  1  0.295775  0.704225  0.704225  1
  Tb  Tb2  1  0.295775  0.704225  0.295775  1
  Tb  Tb3  1  0.704225  0.295775  0.704225  1
  Tb  Tb4  1  0.295775  0.295775  0.704225  1
  Tb  Tb5  1  0.704225  0.704225  0.295775  1
  Cd  Cd6  1  0.119739  0.119739  0.119739  1
  Cd  Cd7  1  0.880261  0.880261  0.880261  1
  Cd  Cd8  1  0.119739  0.119739  0.640782  1
  Cd  Cd9  1  0.119739  0.640782  0.119739  1
  Cd  Cd10  1  0.880261  0.880261  0.359218  1
  Cd  Cd11  1  0.880261  0.359218  0.880261  1
  Cd  Cd12  1  0.640782  0.119739  0.119739  1
  Cd  Cd13  1  0.359218  0.880261  0.880261  1
  Cd  Cd14  1  0.500000  0.000000  0.000000  1
  Cd  Cd15  1  0.000000  0.500000  0.500000  1
  Cd  Cd16  1  0.000000  0.500000  0.000000  1
  Cd  Cd17  1  0.500000  0.000000  0.500000  1
  Cd  Cd18  1  0.000000  0.000000  0.500000  1
  Cd  Cd19  1  0.500000  0.500000  0.000000  1
  Cd  Cd20  1  0.337521  0.337521  0.337521  1
  Cd  Cd21  1  0.662479  0.662479  0.662479  1
  Cd  Cd22  1  0.337521  0.337521  0.987439  1
  Cd  Cd23  1  0.337521  0.987439  0.337521  1
  Cd  Cd24  1  0.662479  0.662479  0.012561  1
  Cd  Cd25  1  0.662479  0.012561  0.662479  1
  Cd  Cd26  1  0.987439  0.337521  0.337521  1
  Cd  Cd27  1  0.012561  0.662479  0.662479  1
  Ag  Ag28  1  0.000000  0.000000  0.000000  1
  Ge  Ge29  1  0.500000  0.500000  0.500000  1
