# generated using pymatgen
data_AcCrNi(Sb6Os)2
_symmetry_space_group_name_H-M   'P 1'
_cell_length_a   8.12681556
_cell_length_b   8.14574421
_cell_length_c   8.18877001
_cell_angle_alpha   109.56960873
_cell_angle_beta   109.61957833
_cell_angle_gamma   109.32030212
_symmetry_Int_Tables_number   1
_chemical_formula_structural   AcCrNi(Sb6Os)2
_chemical_formula_sum   'Ac1 Cr1 Ni1 Sb12 Os2'
_cell_volume   416.80289732
_cell_formula_units_Z   1
loop_
 _symmetry_equiv_pos_site_id
 _symmetry_equiv_pos_as_xyz
  1  'x, y, z'
loop_
 _atom_site_type_symbol
 _atom_site_label
 _atom_site_symmetry_multiplicity
 _atom_site_fract_x
 _atom_site_fract_y
 _atom_site_fract_z
 _atom_site_occupancy
  Ac  Ac0  1  0.000000  0.000000  0.000000  1
  Cr  Cr1  1  0.500000  0.000000  0.000000  1
  Ni  Ni2  1  0.000000  0.000000  0.500000  1
  Sb  Sb3  1  0.844758  0.661756  0.501760  1
  Sb  Sb4  1  0.155242  0.338244  0.498240  1
  Sb  Sb5  1  0.161200  0.662183  0.821244  1
  Sb  Sb6  1  0.838800  0.337817  0.178756  1
  Sb  Sb7  1  0.657895  0.500525  0.840666  1
  Sb  Sb8  1  0.342105  0.499475  0.159334  1
  Sb  Sb9  1  0.661776  0.819006  0.159566  1
  Sb  Sb10  1  0.338224  0.180994  0.840434  1
  Sb  Sb11  1  0.500710  0.841690  0.662692  1
  Sb  Sb12  1  0.499290  0.158310  0.337308  1
  Sb  Sb13  1  0.182406  0.843642  0.342156  1
  Sb  Sb14  1  0.817594  0.156358  0.657844  1
  Os  Os15  1  0.500000  0.500000  0.500000  1
  Os  Os16  1  0.000000  0.500000  0.000000  1
