# generated using pymatgen
data_Tm3Sc2Pa3(Co4P3)4
_symmetry_space_group_name_H-M   'P 1'
_cell_length_a   3.75852200
_cell_length_b   10.66616508
_cell_length_c   12.33032664
_cell_angle_alpha   90.04098153
_cell_angle_beta   90.00000000
_cell_angle_gamma   90.00000000
_symmetry_Int_Tables_number   1
_chemical_formula_structural   Tm3Sc2Pa3(Co4P3)4
_chemical_formula_sum   'Tm3 Sc2 Pa3 Co16 P12'
_cell_volume   494.31053683
_cell_formula_units_Z   1
loop_
 _symmetry_equiv_pos_site_id
 _symmetry_equiv_pos_as_xyz
  1  'x, y, z'
loop_
 _atom_site_type_symbol
 _atom_site_label
 _atom_site_symmetry_multiplicity
 _atom_site_fract_x
 _atom_site_fract_y
 _atom_site_fract_z
 _atom_site_occupancy
  Tm  Tm0  1  0.500000  0.180575  0.204949  1
  Tm  Tm1  1  0.000000  0.680178  0.797895  1
  Tm  Tm2  1  0.000000  0.320105  0.794375  1
  Sc  Sc3  1  0.500000  0.499897  0.155038  1
  Sc  Sc4  1  0.000000  0.999924  0.845825  1
  Pa  Pa5  1  0.000000  0.499299  0.535112  1
  Pa  Pa6  1  0.500000  0.001514  0.467746  1
  Pa  Pa7  1  0.500000  0.824085  0.206740  1
  Co  Co8  1  0.500000  0.498204  0.696654  1
  Co  Co9  1  0.000000  0.995342  0.299758  1
  Co  Co10  1  0.000000  0.498781  0.985766  1
  Co  Co11  1  0.500000  0.000408  0.013095  1
  Co  Co12  1  0.500000  0.332817  0.992729  1
  Co  Co13  1  0.500000  0.667917  0.993260  1
  Co  Co14  1  0.000000  0.169812  0.005504  1
  Co  Co15  1  0.000000  0.832980  0.007892  1
  Co  Co16  1  0.500000  0.296762  0.434612  1
  Co  Co17  1  0.500000  0.701084  0.435284  1
  Co  Co18  1  0.000000  0.199915  0.564260  1
  Co  Co19  1  0.000000  0.798712  0.566901  1
  Co  Co20  1  0.500000  0.877192  0.704306  1
  Co  Co21  1  0.500000  0.121338  0.702813  1
  Co  Co22  1  0.000000  0.626683  0.293623  1
  Co  Co23  1  0.000000  0.379482  0.297954  1
  P  P24  1  0.500000  0.499964  0.878865  1
  P  P25  1  0.000000  0.004258  0.116179  1
  P  P26  1  0.500000  0.498174  0.360752  1
  P  P27  1  0.000000  0.999595  0.641586  1
  P  P28  1  0.500000  0.306514  0.617567  1
  P  P29  1  0.500000  0.691162  0.619787  1
  P  P30  1  0.000000  0.190984  0.381074  1
  P  P31  1  0.000000  0.807069  0.387506  1
  P  P32  1  0.500000  0.838755  0.892621  1
  P  P33  1  0.500000  0.161419  0.892054  1
  P  P34  1  0.000000  0.659417  0.103175  1
  P  P35  1  0.000000  0.339683  0.106745  1
