# generated using pymatgen
data_SmMnCo3NiP3
_symmetry_space_group_name_H-M   'P 1'
_cell_length_a   3.70193900
_cell_length_b   10.40167300
_cell_length_c   11.89600700
_cell_angle_alpha   90.00000000
_cell_angle_beta   90.00000000
_cell_angle_gamma   90.00000000
_symmetry_Int_Tables_number   1
_chemical_formula_structural   SmMnCo3NiP3
_chemical_formula_sum   'Sm4 Mn4 Co12 Ni4 P12'
_cell_volume   458.07191554
_cell_formula_units_Z   4
loop_
 _symmetry_equiv_pos_site_id
 _symmetry_equiv_pos_as_xyz
  1  'x, y, z'
loop_
 _atom_site_type_symbol
 _atom_site_label
 _atom_site_symmetry_multiplicity
 _atom_site_fract_x
 _atom_site_fract_y
 _atom_site_fract_z
 _atom_site_occupancy
  Sm  Sm0  1  0.250000  0.582682  0.704325  1
  Sm  Sm1  1  0.250000  0.917318  0.204325  1
  Sm  Sm2  1  0.750000  0.417318  0.295675  1
  Sm  Sm3  1  0.750000  0.082682  0.795675  1
  Mn  Mn4  1  0.250000  0.707922  0.987761  1
  Mn  Mn5  1  0.250000  0.792078  0.487761  1
  Mn  Mn6  1  0.750000  0.292078  0.012239  1
  Mn  Mn7  1  0.750000  0.207922  0.512239  1
  Co  Co8  1  0.250000  0.221044  0.176037  1
  Co  Co9  1  0.250000  0.278956  0.676037  1
  Co  Co10  1  0.750000  0.778956  0.823963  1
  Co  Co11  1  0.750000  0.721044  0.323963  1
  Co  Co12  1  0.250000  0.883522  0.697264  1
  Co  Co13  1  0.250000  0.616478  0.197264  1
  Co  Co14  1  0.750000  0.116478  0.302736  1
  Co  Co15  1  0.750000  0.383522  0.802736  1
  Co  Co16  1  0.250000  0.467406  0.933043  1
  Co  Co17  1  0.250000  0.032594  0.433043  1
  Co  Co18  1  0.750000  0.532594  0.066957  1
  Co  Co19  1  0.750000  0.967406  0.566957  1
  Ni  Ni20  1  0.250000  0.406546  0.488492  1
  Ni  Ni21  1  0.250000  0.093454  0.988492  1
  Ni  Ni22  1  0.750000  0.593454  0.511508  1
  Ni  Ni23  1  0.750000  0.906546  0.011508  1
  P  P24  1  0.250000  0.418727  0.111358  1
  P  P25  1  0.250000  0.081273  0.611358  1
  P  P26  1  0.750000  0.581273  0.888642  1
  P  P27  1  0.750000  0.918727  0.388642  1
  P  P28  1  0.250000  0.274798  0.865730  1
  P  P29  1  0.250000  0.225202  0.365730  1
  P  P30  1  0.750000  0.725202  0.134270  1
  P  P31  1  0.750000  0.774798  0.634270  1
  P  P32  1  0.250000  0.605716  0.388845  1
  P  P33  1  0.250000  0.894284  0.888845  1
  P  P34  1  0.750000  0.394284  0.611155  1
  P  P35  1  0.750000  0.105716  0.111155  1
