# generated using pymatgen
data_YHo7Sc12(GaSi3)4
_symmetry_space_group_name_H-M   'P 1'
_cell_length_a   7.12144533
_cell_length_b   7.39903663
_cell_length_c   14.12117213
_cell_angle_alpha   90.00594997
_cell_angle_beta   89.85897136
_cell_angle_gamma   90.15026301
_symmetry_Int_Tables_number   1
_chemical_formula_structural   YHo7Sc12(GaSi3)4
_chemical_formula_sum   'Y1 Ho7 Sc12 Ga4 Si12'
_cell_volume   744.06565332
_cell_formula_units_Z   1
loop_
 _symmetry_equiv_pos_site_id
 _symmetry_equiv_pos_as_xyz
  1  'x, y, z'
loop_
 _atom_site_type_symbol
 _atom_site_label
 _atom_site_symmetry_multiplicity
 _atom_site_fract_x
 _atom_site_fract_y
 _atom_site_fract_z
 _atom_site_occupancy
  Y  Y0  1  0.013451  0.174458  0.096931  1
  Ho  Ho1  1  0.987864  0.824853  0.901620  1
  Ho  Ho2  1  0.486988  0.676859  0.901415  1
  Ho  Ho3  1  0.987607  0.827571  0.600275  1
  Ho  Ho4  1  0.510922  0.321555  0.097329  1
  Ho  Ho5  1  0.009909  0.174626  0.400610  1
  Ho  Ho6  1  0.511213  0.324531  0.400555  1
  Ho  Ho7  1  0.490192  0.675893  0.600629  1
  Sc  Sc8  1  0.162581  0.501085  0.751329  1
  Sc  Sc9  1  0.836711  0.498272  0.250157  1
  Sc  Sc10  1  0.336621  0.002093  0.248545  1
  Sc  Sc11  1  0.663161  0.998306  0.749990  1
  Sc  Sc12  1  0.333233  0.174836  0.627632  1
  Sc  Sc13  1  0.669270  0.825982  0.373821  1
  Sc  Sc14  1  0.170206  0.674059  0.373145  1
  Sc  Sc15  1  0.668655  0.825723  0.125456  1
  Sc  Sc16  1  0.828891  0.324448  0.626648  1
  Sc  Sc17  1  0.330456  0.175777  0.874628  1
  Sc  Sc18  1  0.829062  0.323333  0.874231  1
  Sc  Sc19  1  0.173115  0.675604  0.124471  1
  Ga  Ga20  1  0.161680  0.461573  0.539786  1
  Ga  Ga21  1  0.839257  0.537934  0.461302  1
  Ga  Ga22  1  0.339508  0.961938  0.461433  1
  Ga  Ga23  1  0.839643  0.538323  0.038668  1
  Si  Si24  1  0.033036  0.116368  0.751166  1
  Si  Si25  1  0.966912  0.883683  0.249399  1
  Si  Si26  1  0.467296  0.614588  0.248512  1
  Si  Si27  1  0.532979  0.385161  0.751130  1
  Si  Si28  1  0.285874  0.871730  0.751076  1
  Si  Si29  1  0.714738  0.127750  0.248845  1
  Si  Si30  1  0.214453  0.372337  0.249018  1
  Si  Si31  1  0.786704  0.628812  0.751432  1
  Si  Si32  1  0.658171  0.036199  0.539337  1
  Si  Si33  1  0.158283  0.464028  0.960580  1
  Si  Si34  1  0.656689  0.035771  0.961130  1
  Si  Si35  1  0.344669  0.963941  0.037772  1
