# generated using pymatgen
data_TbTlP2S7
_symmetry_space_group_name_H-M   'P 1'
_cell_length_a   8.96538200
_cell_length_b   9.52519674
_cell_length_c   12.31400500
_cell_angle_alpha   90.00000000
_cell_angle_beta   90.00000000
_cell_angle_gamma   90.43279035
_symmetry_Int_Tables_number   1
_chemical_formula_structural   TbTlP2S7
_chemical_formula_sum   'Tb4 Tl4 P8 S28'
_cell_volume   1051.54942235
_cell_formula_units_Z   4
loop_
 _symmetry_equiv_pos_site_id
 _symmetry_equiv_pos_as_xyz
  1  'x, y, z'
loop_
 _atom_site_type_symbol
 _atom_site_label
 _atom_site_symmetry_multiplicity
 _atom_site_fract_x
 _atom_site_fract_y
 _atom_site_fract_z
 _atom_site_occupancy
  Tb  Tb0  1  0.888720  0.644459  0.642496  1
  Tb  Tb1  1  0.111280  0.355541  0.357504  1
  Tb  Tb2  1  0.388720  0.644459  0.857504  1
  Tb  Tb3  1  0.611280  0.355541  0.142496  1
  Tl  Tl4  1  0.121632  0.114345  0.687805  1
  Tl  Tl5  1  0.378368  0.885655  0.187805  1
  Tl  Tl6  1  0.878368  0.885655  0.312195  1
  Tl  Tl7  1  0.621632  0.114345  0.812195  1
  P  P8  1  0.478182  0.221289  0.394797  1
  P  P9  1  0.021818  0.778711  0.894797  1
  P  P10  1  0.301358  0.319767  0.964765  1
  P  P11  1  0.198642  0.680233  0.464765  1
  P  P12  1  0.521818  0.778711  0.605203  1
  P  P13  1  0.801358  0.319767  0.535235  1
  P  P14  1  0.698642  0.680233  0.035235  1
  P  P15  1  0.978182  0.221289  0.105203  1
  S  S16  1  0.425761  0.408266  0.324262  1
  S  S17  1  0.352611  0.354721  0.806017  1
  S  S18  1  0.931569  0.167649  0.471308  1
  S  S19  1  0.212354  0.872994  0.943164  1
  S  S20  1  0.431569  0.167649  0.028692  1
  S  S21  1  0.115522  0.123368  0.211255  1
  S  S22  1  0.787646  0.127006  0.056836  1
  S  S23  1  0.068431  0.832351  0.528692  1
  S  S24  1  0.423406  0.749334  0.448917  1
  S  S25  1  0.178948  0.504668  0.557616  1
  S  S26  1  0.076594  0.250666  0.948917  1
  S  S27  1  0.147389  0.645279  0.306017  1
  S  S28  1  0.678948  0.504668  0.942384  1
  S  S29  1  0.852611  0.354721  0.693983  1
  S  S30  1  0.615522  0.123368  0.288745  1
  S  S31  1  0.925761  0.408266  0.175738  1
  S  S32  1  0.384478  0.876632  0.711255  1
  S  S33  1  0.923406  0.749334  0.051083  1
  S  S34  1  0.647389  0.645279  0.193983  1
  S  S35  1  0.884478  0.876632  0.788745  1
  S  S36  1  0.574239  0.591734  0.675738  1
  S  S37  1  0.576594  0.250666  0.551083  1
  S  S38  1  0.568431  0.832351  0.971308  1
  S  S39  1  0.821052  0.495332  0.442384  1
  S  S40  1  0.287646  0.127006  0.443164  1
  S  S41  1  0.712354  0.872994  0.556836  1
  S  S42  1  0.321052  0.495332  0.057616  1
  S  S43  1  0.074239  0.591734  0.824262  1
