# generated using pymatgen
data_CeTh3(InPt2)2
_symmetry_space_group_name_H-M   'P 1'
_cell_length_a   7.95511463
_cell_length_b   7.95511463
_cell_length_c   3.81025300
_cell_angle_alpha   90.00000000
_cell_angle_beta   90.00000000
_cell_angle_gamma   89.75874881
_symmetry_Int_Tables_number   1
_chemical_formula_structural   CeTh3(InPt2)2
_chemical_formula_sum   'Ce1 Th3 In2 Pt4'
_cell_volume   241.12533713
_cell_formula_units_Z   1
loop_
 _symmetry_equiv_pos_site_id
 _symmetry_equiv_pos_as_xyz
  1  'x, y, z'
loop_
 _atom_site_type_symbol
 _atom_site_label
 _atom_site_symmetry_multiplicity
 _atom_site_fract_x
 _atom_site_fract_y
 _atom_site_fract_z
 _atom_site_occupancy
  Ce  Ce0  1  0.173208  0.673208  0.500000  1
  Th  Th1  1  0.671862  0.827031  0.500000  1
  Th  Th2  1  0.828759  0.328759  0.500000  1
  Th  Th3  1  0.327031  0.171862  0.500000  1
  In  In4  1  0.496925  0.501006  0.000000  1
  In  In5  1  0.001006  0.996925  0.000000  1
  Pt  Pt6  1  0.631255  0.131255  0.000000  1
  Pt  Pt7  1  0.869893  0.630831  0.000000  1
  Pt  Pt8  1  0.130831  0.369893  0.000000  1
  Pt  Pt9  1  0.369228  0.869228  0.000000  1
