# generated using pymatgen
data_PrNd2Cu4(SnGe)2
_symmetry_space_group_name_H-M   'P 1'
_cell_length_a   8.44726230
_cell_length_b   8.44726344
_cell_length_c   8.44726283
_cell_angle_alpha   149.16829362
_cell_angle_beta   132.36498273
_cell_angle_gamma   57.82362425
_symmetry_Int_Tables_number   1
_chemical_formula_structural   PrNd2Cu4(SnGe)2
_chemical_formula_sum   'Pr1 Nd2 Cu4 Sn2 Ge2'
_cell_volume   226.55963185
_cell_formula_units_Z   1
loop_
 _symmetry_equiv_pos_site_id
 _symmetry_equiv_pos_as_xyz
  1  'x, y, z'
loop_
 _atom_site_type_symbol
 _atom_site_label
 _atom_site_symmetry_multiplicity
 _atom_site_fract_x
 _atom_site_fract_y
 _atom_site_fract_z
 _atom_site_occupancy
  Pr  Pr0  1  0.500000  0.000000  0.500000  1
  Nd  Nd1  1  0.127589  0.127589  0.000000  1
  Nd  Nd2  1  0.872411  0.872411  0.000000  1
  Cu  Cu3  1  0.844337  0.658398  0.185939  1
  Cu  Cu4  1  0.472459  0.658398  0.814061  1
  Cu  Cu5  1  0.527541  0.341602  0.185939  1
  Cu  Cu6  1  0.155663  0.341602  0.814061  1
  Sn  Sn7  1  0.718106  0.218106  0.500000  1
  Sn  Sn8  1  0.281894  0.781894  0.500000  1
  Ge  Ge9  1  0.813138  0.500000  0.313138  1
  Ge  Ge10  1  0.186862  0.500000  0.686862  1
