# generated using pymatgen
data_Nb2Fe2Ag(PO4)6
_symmetry_space_group_name_H-M   'P 1'
_cell_length_a   8.71739500
_cell_length_b   8.98430383
_cell_length_c   12.52467796
_cell_angle_alpha   87.93696106
_cell_angle_beta   90.00000000
_cell_angle_gamma   90.00000000
_symmetry_Int_Tables_number   1
_chemical_formula_structural   Nb2Fe2Ag(PO4)6
_chemical_formula_sum   'Nb4 Fe4 Ag2 P12 O48'
_cell_volume   980.29352314
_cell_formula_units_Z   2
loop_
 _symmetry_equiv_pos_site_id
 _symmetry_equiv_pos_as_xyz
  1  'x, y, z'
loop_
 _atom_site_type_symbol
 _atom_site_label
 _atom_site_symmetry_multiplicity
 _atom_site_fract_x
 _atom_site_fract_y
 _atom_site_fract_z
 _atom_site_occupancy
  Nb  Nb0  1  0.499523  0.219873  0.853436  1
  Nb  Nb1  1  0.999523  0.280127  0.146564  1
  Nb  Nb2  1  0.500477  0.780127  0.146564  1
  Nb  Nb3  1  0.000477  0.719873  0.853436  1
  Fe  Fe4  1  0.502194  0.794061  0.642377  1
  Fe  Fe5  1  0.002194  0.705939  0.357623  1
  Fe  Fe6  1  0.497806  0.205939  0.357623  1
  Fe  Fe7  1  0.997806  0.294061  0.642377  1
  Ag  Ag8  1  0.000000  0.000000  0.500000  1
  Ag  Ag9  1  0.500000  0.500000  0.500000  1
  P  P10  1  0.352052  0.859184  0.397262  1
  P  P11  1  0.285079  0.500634  0.736309  1
  P  P12  1  0.147948  0.359184  0.397262  1
  P  P13  1  0.863244  0.355443  0.890048  1
  P  P14  1  0.363244  0.144557  0.109952  1
  P  P15  1  0.785079  0.999366  0.263691  1
  P  P16  1  0.214921  0.000634  0.736309  1
  P  P17  1  0.636756  0.855443  0.890048  1
  P  P18  1  0.136756  0.644557  0.109952  1
  P  P19  1  0.852052  0.640816  0.602738  1
  P  P20  1  0.714921  0.499366  0.263691  1
  P  P21  1  0.647948  0.140816  0.602738  1
  O  O22  1  0.311213  0.899465  0.669005  1
  O  O23  1  0.176698  0.838004  0.403985  1
  O  O24  1  0.437222  0.769193  0.486059  1
  O  O25  1  0.412695  0.792953  0.290828  1
  O  O26  1  0.393746  0.590954  0.662046  1
  O  O27  1  0.117668  0.526184  0.398189  1
  O  O28  1  0.188787  0.399465  0.669005  1
  O  O29  1  0.385570  0.403595  0.816589  1
  O  O30  1  0.107186  0.475103  0.109286  1
  O  O31  1  0.813921  0.397167  0.193913  1
  O  O32  1  0.323302  0.338004  0.403985  1
  O  O33  1  0.062778  0.269193  0.486059  1
  O  O34  1  0.087305  0.292953  0.290828  1
  O  O35  1  0.686016  0.332350  0.892791  1
  O  O36  1  0.924305  0.283843  0.996853  1
  O  O37  1  0.937420  0.282384  0.796234  1
  O  O38  1  0.437420  0.217616  0.203766  1
  O  O39  1  0.424305  0.216157  0.003147  1
  O  O40  1  0.186016  0.167650  0.107209  1
  O  O41  1  0.885570  0.096405  0.183411  1
  O  O42  1  0.382332  0.026184  0.398189  1
  O  O43  1  0.106254  0.090954  0.662046  1
  O  O44  1  0.313921  0.102833  0.806087  1
  O  O45  1  0.607186  0.024897  0.890714  1
  O  O46  1  0.392814  0.975103  0.109286  1
  O  O47  1  0.686079  0.897167  0.193913  1
  O  O48  1  0.893746  0.909046  0.337954  1
  O  O49  1  0.617668  0.973816  0.601811  1
  O  O50  1  0.114430  0.903595  0.816589  1
  O  O51  1  0.813984  0.832350  0.892791  1
  O  O52  1  0.575695  0.783843  0.996853  1
  O  O53  1  0.562580  0.782384  0.796234  1
  O  O54  1  0.062580  0.717616  0.203766  1
  O  O55  1  0.075695  0.716157  0.003147  1
  O  O56  1  0.313984  0.667650  0.107209  1
  O  O57  1  0.912695  0.707047  0.709172  1
  O  O58  1  0.937222  0.730807  0.513941  1
  O  O59  1  0.676698  0.661996  0.596015  1
  O  O60  1  0.186079  0.602833  0.806087  1
  O  O61  1  0.892814  0.524897  0.890714  1
  O  O62  1  0.614430  0.596405  0.183411  1
  O  O63  1  0.811213  0.600535  0.330995  1
  O  O64  1  0.882332  0.473816  0.601811  1
  O  O65  1  0.606254  0.409046  0.337954  1
  O  O66  1  0.587305  0.207047  0.709172  1
  O  O67  1  0.562778  0.230807  0.513941  1
  O  O68  1  0.823302  0.161996  0.596015  1
  O  O69  1  0.688787  0.100535  0.330995  1
