# generated using pymatgen
data_Ce3Al10Si2Os3Rh
_symmetry_space_group_name_H-M   'P 1'
_cell_length_a   8.80253300
_cell_length_b   8.80253308
_cell_length_c   9.57859100
_cell_angle_alpha   90.00000000
_cell_angle_beta   90.00000000
_cell_angle_gamma   120.00000346
_symmetry_Int_Tables_number   1
_chemical_formula_structural   Ce3Al10Si2Os3Rh
_chemical_formula_sum   'Ce6 Al20 Si4 Os6 Rh2'
_cell_volume   642.75812302
_cell_formula_units_Z   2
loop_
 _symmetry_equiv_pos_site_id
 _symmetry_equiv_pos_as_xyz
  1  'x, y, z'
loop_
 _atom_site_type_symbol
 _atom_site_label
 _atom_site_symmetry_multiplicity
 _atom_site_fract_x
 _atom_site_fract_y
 _atom_site_fract_z
 _atom_site_occupancy
  Ce  Ce0  1  0.195316  0.390631  0.250000  1
  Ce  Ce1  1  0.804684  0.609369  0.750000  1
  Ce  Ce2  1  0.609369  0.804684  0.250000  1
  Ce  Ce3  1  0.390631  0.195316  0.750000  1
  Ce  Ce4  1  0.195316  0.804684  0.250000  1
  Ce  Ce5  1  0.804684  0.195316  0.750000  1
  Al  Al6  1  0.164134  0.328269  0.577475  1
  Al  Al7  1  0.835866  0.671731  0.422525  1
  Al  Al8  1  0.671731  0.835866  0.577475  1
  Al  Al9  1  0.835866  0.671731  0.077475  1
  Al  Al10  1  0.328269  0.164134  0.422525  1
  Al  Al11  1  0.164134  0.328269  0.922525  1
  Al  Al12  1  0.164134  0.835866  0.577475  1
  Al  Al13  1  0.328269  0.164134  0.077475  1
  Al  Al14  1  0.835866  0.164134  0.422525  1
  Al  Al15  1  0.671731  0.835866  0.922525  1
  Al  Al16  1  0.835866  0.164134  0.077475  1
  Al  Al17  1  0.164134  0.835866  0.922525  1
  Al  Al18  1  0.564125  0.128249  0.250000  1
  Al  Al19  1  0.435875  0.871751  0.750000  1
  Al  Al20  1  0.871751  0.435875  0.250000  1
  Al  Al21  1  0.128249  0.564125  0.750000  1
  Al  Al22  1  0.564125  0.435875  0.250000  1
  Al  Al23  1  0.435875  0.564125  0.750000  1
  Al  Al24  1  0.000000  0.000000  0.250000  1
  Al  Al25  1  0.000000  0.000000  0.750000  1
  Si  Si26  1  0.333333  0.666667  0.032291  1
  Si  Si27  1  0.666667  0.333333  0.967709  1
  Si  Si28  1  0.666667  0.333333  0.532291  1
  Si  Si29  1  0.333333  0.666667  0.467709  1
  Os  Os30  1  0.500000  0.000000  0.000000  1
  Os  Os31  1  0.000000  0.500000  0.000000  1
  Os  Os32  1  0.500000  0.000000  0.500000  1
  Os  Os33  1  0.500000  0.500000  0.000000  1
  Os  Os34  1  0.000000  0.500000  0.500000  1
  Os  Os35  1  0.500000  0.500000  0.500000  1
  Rh  Rh36  1  0.000000  0.000000  0.000000  1
  Rh  Rh37  1  0.000000  0.000000  0.500000  1
