# generated using pymatgen
data_Dy3Hf2Sn3O
_symmetry_space_group_name_H-M   'P 1'
_cell_length_a   8.73928200
_cell_length_b   8.73928354
_cell_length_c   6.00053700
_cell_angle_alpha   90.00000000
_cell_angle_beta   90.00000000
_cell_angle_gamma   119.99999417
_symmetry_Int_Tables_number   1
_chemical_formula_structural   Dy3Hf2Sn3O
_chemical_formula_sum   'Dy6 Hf4 Sn6 O2'
_cell_volume   396.89201229
_cell_formula_units_Z   2
loop_
 _symmetry_equiv_pos_site_id
 _symmetry_equiv_pos_as_xyz
  1  'x, y, z'
loop_
 _atom_site_type_symbol
 _atom_site_label
 _atom_site_symmetry_multiplicity
 _atom_site_fract_x
 _atom_site_fract_y
 _atom_site_fract_z
 _atom_site_occupancy
  Dy  Dy0  1  0.772363  0.772363  0.750000  1
  Dy  Dy1  1  0.227637  0.000000  0.750000  1
  Dy  Dy2  1  0.000000  0.227637  0.750000  1
  Dy  Dy3  1  0.227637  0.227637  0.250000  1
  Dy  Dy4  1  0.772363  0.000000  0.250000  1
  Dy  Dy5  1  0.000000  0.772363  0.250000  1
  Hf  Hf6  1  0.666667  0.333333  0.000000  1
  Hf  Hf7  1  0.333333  0.666667  0.000000  1
  Hf  Hf8  1  0.333333  0.666667  0.500000  1
  Hf  Hf9  1  0.666667  0.333333  0.500000  1
  Sn  Sn10  1  0.406369  0.406369  0.750000  1
  Sn  Sn11  1  0.593631  0.000000  0.750000  1
  Sn  Sn12  1  0.000000  0.593631  0.750000  1
  Sn  Sn13  1  0.593631  0.593631  0.250000  1
  Sn  Sn14  1  0.406369  0.000000  0.250000  1
  Sn  Sn15  1  0.000000  0.406369  0.250000  1
  O  O16  1  0.000000  0.000000  0.000000  1
  O  O17  1  0.000000  0.000000  0.500000  1
