# generated using pymatgen
data_Zr2H6OsRu
_symmetry_space_group_name_H-M   'P 1'
_cell_length_a   5.69090821
_cell_length_b   5.69090793
_cell_length_c   4.52933300
_cell_angle_alpha   90.00000000
_cell_angle_beta   90.00000000
_cell_angle_gamma   141.93206904
_symmetry_Int_Tables_number   1
_chemical_formula_structural   Zr2H6OsRu
_chemical_formula_sum   'Zr2 H6 Os1 Ru1'
_cell_volume   90.44771874
_cell_formula_units_Z   1
loop_
 _symmetry_equiv_pos_site_id
 _symmetry_equiv_pos_as_xyz
  1  'x, y, z'
loop_
 _atom_site_type_symbol
 _atom_site_label
 _atom_site_symmetry_multiplicity
 _atom_site_fract_x
 _atom_site_fract_y
 _atom_site_fract_z
 _atom_site_occupancy
  Zr  Zr0  1  0.624978  0.375020  0.250000  1
  Zr  Zr1  1  0.372864  0.627134  0.750000  1
  H  H2  1  0.195391  0.804607  0.019485  1
  H  H3  1  0.412966  0.587032  0.250000  1
  H  H4  1  0.195391  0.804607  0.480515  1
  H  H5  1  0.805275  0.194723  0.517262  1
  H  H6  1  0.585331  0.414667  0.750000  1
  H  H7  1  0.805275  0.194723  0.982737  1
  Os  Os8  1  0.917323  0.082675  0.250000  1
  Ru  Ru9  1  0.085197  0.914801  0.750000  1
