# generated using pymatgen
data_Tb3Nd6DySn6
_symmetry_space_group_name_H-M   'P 1'
_cell_length_a   9.19588700
_cell_length_b   9.19588833
_cell_length_c   6.71905600
_cell_angle_alpha   90.00000000
_cell_angle_beta   90.00000000
_cell_angle_gamma   119.99999881
_symmetry_Int_Tables_number   1
_chemical_formula_structural   Tb3Nd6DySn6
_chemical_formula_sum   'Tb3 Nd6 Dy1 Sn6'
_cell_volume   492.06923428
_cell_formula_units_Z   1
loop_
 _symmetry_equiv_pos_site_id
 _symmetry_equiv_pos_as_xyz
  1  'x, y, z'
loop_
 _atom_site_type_symbol
 _atom_site_label
 _atom_site_symmetry_multiplicity
 _atom_site_fract_x
 _atom_site_fract_y
 _atom_site_fract_z
 _atom_site_occupancy
  Tb  Tb0  1  0.333333  0.666667  0.000000  1
  Tb  Tb1  1  0.666667  0.333333  0.500000  1
  Tb  Tb2  1  0.666667  0.333333  0.000000  1
  Nd  Nd3  1  0.241435  0.999986  0.250015  1
  Nd  Nd4  1  0.241435  0.241449  0.749985  1
  Nd  Nd5  1  0.000014  0.758565  0.749985  1
  Nd  Nd6  1  0.000014  0.241449  0.250015  1
  Nd  Nd7  1  0.758551  0.758565  0.250015  1
  Nd  Nd8  1  0.758551  0.999986  0.749985  1
  Dy  Dy9  1  0.333333  0.666667  0.500000  1
  Sn  Sn10  1  0.602196  0.999949  0.250044  1
  Sn  Sn11  1  0.602196  0.602247  0.749956  1
  Sn  Sn12  1  0.000051  0.397804  0.749956  1
  Sn  Sn13  1  0.000051  0.602247  0.250044  1
  Sn  Sn14  1  0.397753  0.397804  0.250044  1
  Sn  Sn15  1  0.397753  0.999949  0.749956  1
