# generated using pymatgen
data_Ca2Th(CdPd)3
_symmetry_space_group_name_H-M   'P 1'
_cell_length_a   7.68122513
_cell_length_b   7.68122556
_cell_length_c   4.05374200
_cell_angle_alpha   90.00000000
_cell_angle_beta   90.00000000
_cell_angle_gamma   118.96727370
_symmetry_Int_Tables_number   1
_chemical_formula_structural   Ca2Th(CdPd)3
_chemical_formula_sum   'Ca2 Th1 Cd3 Pd3'
_cell_volume   209.25400824
_cell_formula_units_Z   1
loop_
 _symmetry_equiv_pos_site_id
 _symmetry_equiv_pos_as_xyz
  1  'x, y, z'
loop_
 _atom_site_type_symbol
 _atom_site_label
 _atom_site_symmetry_multiplicity
 _atom_site_fract_x
 _atom_site_fract_y
 _atom_site_fract_z
 _atom_site_occupancy
  Ca  Ca0  1  0.594139  0.997911  0.000000  1
  Ca  Ca1  1  0.997911  0.594139  0.000000  1
  Th  Th2  1  0.410234  0.410234  0.000000  1
  Cd  Cd3  1  0.255181  0.986912  0.500000  1
  Cd  Cd4  1  0.986912  0.255181  0.500000  1
  Cd  Cd5  1  0.761237  0.761237  0.500000  1
  Pd  Pd6  1  0.335135  0.643098  0.500000  1
  Pd  Pd7  1  0.643098  0.335135  0.500000  1
  Pd  Pd8  1  0.016155  0.016155  0.000000  1
