# generated using pymatgen
data_LiCaNdZnSi3
_symmetry_space_group_name_H-M   'P 1'
_cell_length_a   9.40202892
_cell_length_b   9.40202894
_cell_length_c   6.83437200
_cell_angle_alpha   90.00000000
_cell_angle_beta   90.00000000
_cell_angle_gamma   153.29024850
_symmetry_Int_Tables_number   1
_chemical_formula_structural   LiCaNdZnSi3
_chemical_formula_sum   'Li2 Ca2 Nd2 Zn2 Si6'
_cell_volume   271.54605354
_cell_formula_units_Z   2
loop_
 _symmetry_equiv_pos_site_id
 _symmetry_equiv_pos_as_xyz
  1  'x, y, z'
loop_
 _atom_site_type_symbol
 _atom_site_label
 _atom_site_symmetry_multiplicity
 _atom_site_fract_x
 _atom_site_fract_y
 _atom_site_fract_z
 _atom_site_occupancy
  Li  Li0  1  0.811835  0.188165  0.938414  1
  Li  Li1  1  0.188165  0.811835  0.438414  1
  Ca  Ca2  1  0.655897  0.344103  0.744542  1
  Ca  Ca3  1  0.344103  0.655897  0.244542  1
  Nd  Nd4  1  0.448668  0.551332  0.755189  1
  Nd  Nd5  1  0.551332  0.448668  0.255189  1
  Zn  Zn6  1  0.193099  0.806901  0.055764  1
  Zn  Zn7  1  0.806901  0.193099  0.555764  1
  Si  Si8  1  0.279235  0.720765  0.748103  1
  Si  Si9  1  0.720765  0.279235  0.248103  1
  Si  Si10  1  0.939948  0.060052  0.427980  1
  Si  Si11  1  0.056168  0.943832  0.580010  1
  Si  Si12  1  0.943832  0.056168  0.080010  1
  Si  Si13  1  0.060052  0.939948  0.927980  1
