# generated using pymatgen
data_Tb16Cd2Hg2PdRu3
_symmetry_space_group_name_H-M   'P 1'
_cell_length_a   9.64518429
_cell_length_b   9.68549985
_cell_length_c   9.73041200
_cell_angle_alpha   59.84648868
_cell_angle_beta   59.70726463
_cell_angle_gamma   59.62630700
_symmetry_Int_Tables_number   1
_chemical_formula_structural   Tb16Cd2Hg2PdRu3
_chemical_formula_sum   'Tb16 Cd2 Hg2 Pd1 Ru3'
_cell_volume   638.76529018
_cell_formula_units_Z   1
loop_
 _symmetry_equiv_pos_site_id
 _symmetry_equiv_pos_as_xyz
  1  'x, y, z'
loop_
 _atom_site_type_symbol
 _atom_site_label
 _atom_site_symmetry_multiplicity
 _atom_site_fract_x
 _atom_site_fract_y
 _atom_site_fract_z
 _atom_site_occupancy
  Tb  Tb0  1  0.345272  0.352555  0.350363  1
  Tb  Tb1  1  0.345272  0.352555  0.951811  1
  Tb  Tb2  1  0.346488  0.950705  0.351404  1
  Tb  Tb3  1  0.962020  0.346234  0.345874  1
  Tb  Tb4  1  0.815234  0.189187  0.191200  1
  Tb  Tb5  1  0.186258  0.810694  0.811636  1
  Tb  Tb6  1  0.186258  0.810694  0.191411  1
  Tb  Tb7  1  0.815234  0.189187  0.804378  1
  Tb  Tb8  1  0.187029  0.188661  0.812155  1
  Tb  Tb9  1  0.814638  0.802323  0.191519  1
  Tb  Tb10  1  0.935416  0.561721  0.562767  1
  Tb  Tb11  1  0.557083  0.936917  0.939226  1
  Tb  Tb12  1  0.557083  0.936917  0.566774  1
  Tb  Tb13  1  0.935416  0.561721  0.940098  1
  Tb  Tb14  1  0.557351  0.566977  0.937836  1
  Tb  Tb15  1  0.936661  0.938759  0.562290  1
  Cd  Cd16  1  0.580165  0.259286  0.580274  1
  Cd  Cd17  1  0.256729  0.579697  0.581787  1
  Hg  Hg18  1  0.584553  0.583449  0.586421  1
  Hg  Hg19  1  0.584553  0.583449  0.245577  1
  Pd  Pd20  1  0.574287  0.143002  0.141356  1
  Ru  Ru21  1  0.145471  0.138914  0.137384  1
  Ru  Ru22  1  0.145471  0.138914  0.578231  1
  Ru  Ru23  1  0.146057  0.577485  0.138229  1
