# generated using pymatgen
data_Hg3BiRuPt3O14
_symmetry_space_group_name_H-M   'P 1'
_cell_length_a   7.39112521
_cell_length_b   7.29012547
_cell_length_c   7.29012500
_cell_angle_alpha   60.00000666
_cell_angle_beta   60.45102097
_cell_angle_gamma   60.45102214
_symmetry_Int_Tables_number   1
_chemical_formula_structural   Hg3BiRuPt3O14
_chemical_formula_sum   'Hg3 Bi1 Ru1 Pt3 O14'
_cell_volume   279.63583950
_cell_formula_units_Z   1
loop_
 _symmetry_equiv_pos_site_id
 _symmetry_equiv_pos_as_xyz
  1  'x, y, z'
loop_
 _atom_site_type_symbol
 _atom_site_label
 _atom_site_symmetry_multiplicity
 _atom_site_fract_x
 _atom_site_fract_y
 _atom_site_fract_z
 _atom_site_occupancy
  Hg  Hg0  1  0.125000  0.125000  0.625000  1
  Hg  Hg1  1  0.125000  0.625000  0.125000  1
  Hg  Hg2  1  0.125000  0.125000  0.125000  1
  Bi  Bi3  1  0.625000  0.125000  0.125000  1
  Ru  Ru4  1  0.125000  0.625000  0.625000  1
  Pt  Pt5  1  0.625000  0.625000  0.125000  1
  Pt  Pt6  1  0.625000  0.125000  0.625000  1
  Pt  Pt7  1  0.625000  0.625000  0.625000  1
  O  O8  1  0.244056  0.251981  0.251981  1
  O  O9  1  0.005944  0.998019  0.998019  1
  O  O10  1  0.544330  0.958814  0.538042  1
  O  O11  1  0.301134  0.695299  0.308268  1
  O  O12  1  0.544330  0.538042  0.958814  1
  O  O13  1  0.948866  0.554701  0.554701  1
  O  O14  1  0.544330  0.958814  0.958814  1
  O  O15  1  0.948866  0.941732  0.554701  1
  O  O16  1  0.948866  0.554701  0.941732  1
  O  O17  1  0.705670  0.291186  0.291186  1
  O  O18  1  0.301134  0.695299  0.695299  1
  O  O19  1  0.705670  0.291186  0.711958  1
  O  O20  1  0.301134  0.308268  0.695299  1
  O  O21  1  0.705670  0.711958  0.291186  1
