# generated using pymatgen
data_Eu4Dy3Lu(WO6)4
_symmetry_space_group_name_H-M   'P 1'
_cell_length_a   5.43889608
_cell_length_b   7.76154354
_cell_length_c   11.52516100
_cell_angle_alpha   75.92556275
_cell_angle_beta   90.00274729
_cell_angle_gamma   89.98210030
_symmetry_Int_Tables_number   1
_chemical_formula_structural   Eu4Dy3Lu(WO6)4
_chemical_formula_sum   'Eu4 Dy3 Lu1 W4 O24'
_cell_volume   471.92054813
_cell_formula_units_Z   1
loop_
 _symmetry_equiv_pos_site_id
 _symmetry_equiv_pos_as_xyz
  1  'x, y, z'
loop_
 _atom_site_type_symbol
 _atom_site_label
 _atom_site_symmetry_multiplicity
 _atom_site_fract_x
 _atom_site_fract_y
 _atom_site_fract_z
 _atom_site_occupancy
  Eu  Eu0  1  0.738472  0.999470  0.750252  1
  Eu  Eu1  1  0.260545  0.999652  0.250282  1
  Eu  Eu2  1  0.190548  0.798662  0.578219  1
  Eu  Eu3  1  0.808662  0.800206  0.077125  1
  Dy  Dy4  1  0.318048  0.498631  0.251172  1
  Dy  Dy5  1  0.186260  0.208627  0.920610  1
  Dy  Dy6  1  0.812989  0.207274  0.421762  1
  Lu  Lu7  1  0.680206  0.498824  0.751389  1
  W  W8  1  0.253059  0.716578  0.887187  1
  W  W9  1  0.746782  0.717729  0.388880  1
  W  W10  1  0.254848  0.281626  0.613785  1
  W  W11  1  0.745004  0.280641  0.112051  1
  O  O12  1  0.049675  0.938085  0.895583  1
  O  O13  1  0.519238  0.851174  0.929443  1
  O  O14  1  0.951050  0.937557  0.397248  1
  O  O15  1  0.463343  0.774672  0.732272  1
  O  O16  1  0.478980  0.851039  0.430182  1
  O  O17  1  0.978678  0.701721  0.776823  1
  O  O18  1  0.539198  0.777438  0.232763  1
  O  O19  1  0.843076  0.630491  0.550338  1
  O  O20  1  0.368403  0.486538  0.885084  1
  O  O21  1  0.018287  0.705837  0.276391  1
  O  O22  1  0.374151  0.508848  0.613510  1
  O  O23  1  0.847835  0.367508  0.949403  1
  O  O24  1  0.155370  0.629529  0.047886  1
  O  O25  1  0.637721  0.486365  0.387243  1
  O  O26  1  0.983214  0.298579  0.727128  1
  O  O27  1  0.631955  0.509188  0.111362  1
  O  O28  1  0.150402  0.368163  0.451897  1
  O  O29  1  0.458405  0.218308  0.769940  1
  O  O30  1  0.013485  0.294140  0.227767  1
  O  O31  1  0.520950  0.150322  0.566880  1
  O  O32  1  0.543114  0.216376  0.269451  1
  O  O33  1  0.038287  0.069503  0.601925  1
  O  O34  1  0.477330  0.150556  0.066445  1
  O  O35  1  0.962427  0.070138  0.100326  1
