# generated using pymatgen
data_Tb17Tm(LuPb8)2
_symmetry_space_group_name_H-M   'P 1'
_cell_length_a   8.20346800
_cell_length_b   8.30123980
_cell_length_c   15.69292300
_cell_angle_alpha   90.00000000
_cell_angle_beta   90.00000000
_cell_angle_gamma   89.94516301
_symmetry_Int_Tables_number   1
_chemical_formula_structural   Tb17Tm(LuPb8)2
_chemical_formula_sum   'Tb17 Tm1 Lu2 Pb16'
_cell_volume   1068.67116893
_cell_formula_units_Z   1
loop_
 _symmetry_equiv_pos_site_id
 _symmetry_equiv_pos_as_xyz
  1  'x, y, z'
loop_
 _atom_site_type_symbol
 _atom_site_label
 _atom_site_symmetry_multiplicity
 _atom_site_fract_x
 _atom_site_fract_y
 _atom_site_fract_z
 _atom_site_occupancy
  Tb  Tb0  1  0.376930  0.841474  0.879127  1
  Tb  Tb1  1  0.876467  0.658693  0.620508  1
  Tb  Tb2  1  0.623918  0.159116  0.379813  1
  Tb  Tb3  1  0.122776  0.341609  0.120283  1
  Tb  Tb4  1  0.623918  0.159116  0.120187  1
  Tb  Tb5  1  0.122776  0.341609  0.379717  1
  Tb  Tb6  1  0.376930  0.841474  0.620873  1
  Tb  Tb7  1  0.876467  0.658693  0.879492  1
  Tb  Tb8  1  0.534007  0.323158  0.900029  1
  Tb  Tb9  1  0.033886  0.176590  0.600263  1
  Tb  Tb10  1  0.466439  0.676234  0.400126  1
  Tb  Tb11  1  0.965797  0.822881  0.099794  1
  Tb  Tb12  1  0.466439  0.676234  0.099874  1
  Tb  Tb13  1  0.965797  0.822881  0.400206  1
  Tb  Tb14  1  0.534007  0.323158  0.599971  1
  Tb  Tb15  1  0.033886  0.176590  0.899737  1
  Tb  Tb16  1  0.291467  0.003581  0.250000  1
  Tm  Tm17  1  0.208613  0.503796  0.750000  1
  Lu  Lu18  1  0.708694  0.995819  0.750000  1
  Lu  Lu19  1  0.791082  0.495822  0.250000  1
  Pb  Pb20  1  0.281426  0.033569  0.042607  1
  Pb  Pb21  1  0.781479  0.467010  0.456463  1
  Pb  Pb22  1  0.718489  0.967124  0.544223  1
  Pb  Pb23  1  0.218729  0.533267  0.955982  1
  Pb  Pb24  1  0.718489  0.967124  0.955777  1
  Pb  Pb25  1  0.218729  0.533267  0.544018  1
  Pb  Pb26  1  0.281426  0.033569  0.457393  1
  Pb  Pb27  1  0.781479  0.467010  0.043537  1
  Pb  Pb28  1  0.571783  0.626488  0.750000  1
  Pb  Pb29  1  0.071341  0.873476  0.750000  1
  Pb  Pb30  1  0.428738  0.374726  0.250000  1
  Pb  Pb31  1  0.926567  0.127159  0.250000  1
  Pb  Pb32  1  0.346213  0.154118  0.750000  1
  Pb  Pb33  1  0.845882  0.346003  0.750000  1
  Pb  Pb34  1  0.655033  0.845683  0.250000  1
  Pb  Pb35  1  0.153903  0.651878  0.250000  1
