# generated using pymatgen
data_Dy2Tc2IrRu
_symmetry_space_group_name_H-M   'P 1'
_cell_length_a   5.18250754
_cell_length_b   5.38129856
_cell_length_c   9.20046200
_cell_angle_alpha   90.00000000
_cell_angle_beta   90.00000000
_cell_angle_gamma   121.27717875
_symmetry_Int_Tables_number   1
_chemical_formula_structural   Dy2Tc2IrRu
_chemical_formula_sum   'Dy4 Tc4 Ir2 Ru2'
_cell_volume   219.29712413
_cell_formula_units_Z   2
loop_
 _symmetry_equiv_pos_site_id
 _symmetry_equiv_pos_as_xyz
  1  'x, y, z'
loop_
 _atom_site_type_symbol
 _atom_site_label
 _atom_site_symmetry_multiplicity
 _atom_site_fract_x
 _atom_site_fract_y
 _atom_site_fract_z
 _atom_site_occupancy
  Dy  Dy0  1  0.335340  0.667670  0.431508  1
  Dy  Dy1  1  0.665114  0.332557  0.563731  1
  Dy  Dy2  1  0.665114  0.332557  0.936269  1
  Dy  Dy3  1  0.335340  0.667670  0.068492  1
  Tc  Tc4  1  0.337672  0.168836  0.250000  1
  Tc  Tc5  1  0.170078  0.830880  0.750000  1
  Tc  Tc6  1  0.170078  0.339197  0.750000  1
  Tc  Tc7  1  0.657184  0.828591  0.750000  1
  Ir  Ir8  1  0.006783  0.003391  0.498168  1
  Ir  Ir9  1  0.006783  0.003391  0.001832  1
  Ru  Ru10  1  0.825258  0.165938  0.250000  1
  Ru  Ru11  1  0.825258  0.659320  0.250000  1
