# generated using pymatgen
data_Rb10CrFe5S14
_symmetry_space_group_name_H-M   'P 1'
_cell_length_a   10.31263472
_cell_length_b   10.31263519
_cell_length_c   8.70268400
_cell_angle_alpha   78.70836872
_cell_angle_beta   78.70837386
_cell_angle_gamma   75.50160869
_symmetry_Int_Tables_number   1
_chemical_formula_structural   Rb10CrFe5S14
_chemical_formula_sum   'Rb10 Cr1 Fe5 S14'
_cell_volume   868.15034320
_cell_formula_units_Z   1
loop_
 _symmetry_equiv_pos_site_id
 _symmetry_equiv_pos_as_xyz
  1  'x, y, z'
loop_
 _atom_site_type_symbol
 _atom_site_label
 _atom_site_symmetry_multiplicity
 _atom_site_fract_x
 _atom_site_fract_y
 _atom_site_fract_z
 _atom_site_occupancy
  Rb  Rb0  1  0.036051  0.431165  0.725451  1
  Rb  Rb1  1  0.431165  0.036051  0.725451  1
  Rb  Rb2  1  0.961133  0.574518  0.275520  1
  Rb  Rb3  1  0.574518  0.961133  0.275520  1
  Rb  Rb4  1  0.294225  0.706893  0.000969  1
  Rb  Rb5  1  0.706893  0.294225  0.000969  1
  Rb  Rb6  1  0.845321  0.153292  0.500877  1
  Rb  Rb7  1  0.153292  0.845321  0.500877  1
  Rb  Rb8  1  0.433051  0.433051  0.685952  1
  Rb  Rb9  1  0.568257  0.568257  0.313969  1
  Cr  Cr10  1  0.204832  0.204832  0.183787  1
  Fe  Fe11  1  0.792419  0.792419  0.812636  1
  Fe  Fe12  1  0.067918  0.067918  0.059575  1
  Fe  Fe13  1  0.930582  0.930582  0.941819  1
  Fe  Fe14  1  0.337919  0.337919  0.327996  1
  Fe  Fe15  1  0.664820  0.664820  0.672594  1
  S  S16  1  0.000873  0.278962  0.119815  1
  S  S17  1  0.278962  0.000873  0.119815  1
  S  S18  1  0.995608  0.729205  0.881356  1
  S  S19  1  0.729205  0.995608  0.881356  1
  S  S20  1  0.196481  0.196481  0.436246  1
  S  S21  1  0.804978  0.804978  0.554152  1
  S  S22  1  0.059796  0.059796  0.809572  1
  S  S23  1  0.933026  0.933026  0.186731  1
  S  S24  1  0.340392  0.340392  0.065341  1
  S  S25  1  0.655281  0.655281  0.935874  1
  S  S26  1  0.248729  0.544926  0.394990  1
  S  S27  1  0.544926  0.248729  0.394990  1
  S  S28  1  0.752236  0.457113  0.607899  1
  S  S29  1  0.457113  0.752236  0.607899  1
