# generated using pymatgen
data_Ca3Nd17(BiPb3)4
_symmetry_space_group_name_H-M   'P 1'
_cell_length_a   8.45632422
_cell_length_b   8.49566803
_cell_length_c   16.20035800
_cell_angle_alpha   89.90885996
_cell_angle_beta   90.07990343
_cell_angle_gamma   89.98548564
_symmetry_Int_Tables_number   1
_chemical_formula_structural   Ca3Nd17(BiPb3)4
_chemical_formula_sum   'Ca3 Nd17 Bi4 Pb12'
_cell_volume   1163.86547498
_cell_formula_units_Z   1
loop_
 _symmetry_equiv_pos_site_id
 _symmetry_equiv_pos_as_xyz
  1  'x, y, z'
loop_
 _atom_site_type_symbol
 _atom_site_label
 _atom_site_symmetry_multiplicity
 _atom_site_fract_x
 _atom_site_fract_y
 _atom_site_fract_z
 _atom_site_occupancy
  Ca  Ca0  1  0.718975  0.997633  0.751035  1
  Ca  Ca1  1  0.781827  0.497816  0.249047  1
  Ca  Ca2  1  0.281704  0.002369  0.251000  1
  Nd  Nd3  1  0.390764  0.842201  0.882375  1
  Nd  Nd4  1  0.887294  0.662686  0.618454  1
  Nd  Nd5  1  0.609164  0.160330  0.382393  1
  Nd  Nd6  1  0.108467  0.338017  0.118420  1
  Nd  Nd7  1  0.614637  0.162376  0.117511  1
  Nd  Nd8  1  0.115500  0.336928  0.381894  1
  Nd  Nd9  1  0.384817  0.840688  0.617719  1
  Nd  Nd10  1  0.881933  0.663535  0.881951  1
  Nd  Nd11  1  0.550129  0.325529  0.895024  1
  Nd  Nd12  1  0.047116  0.172385  0.604656  1
  Nd  Nd13  1  0.453170  0.674958  0.394802  1
  Nd  Nd14  1  0.952403  0.825288  0.105301  1
  Nd  Nd15  1  0.464175  0.675966  0.103301  1
  Nd  Nd16  1  0.963820  0.823826  0.396689  1
  Nd  Nd17  1  0.538232  0.324532  0.603059  1
  Nd  Nd18  1  0.036911  0.174953  0.897167  1
  Nd  Nd19  1  0.215883  0.500319  0.747827  1
  Bi  Bi20  1  0.271029  0.024954  0.044727  1
  Bi  Bi21  1  0.772314  0.475189  0.455915  1
  Bi  Bi22  1  0.728913  0.975039  0.544234  1
  Bi  Bi23  1  0.229288  0.524329  0.954823  1
  Pb  Pb24  1  0.726646  0.972275  0.957121  1
  Pb  Pb25  1  0.226390  0.527503  0.543904  1
  Pb  Pb26  1  0.273989  0.027721  0.456459  1
  Pb  Pb27  1  0.774144  0.472204  0.042907  1
  Pb  Pb28  1  0.583252  0.620400  0.748766  1
  Pb  Pb29  1  0.086348  0.873072  0.751392  1
  Pb  Pb30  1  0.414420  0.379027  0.248505  1
  Pb  Pb31  1  0.912216  0.122563  0.251500  1
  Pb  Pb32  1  0.345744  0.145585  0.751057  1
  Pb  Pb33  1  0.852676  0.357410  0.748855  1
  Pb  Pb34  1  0.653161  0.855992  0.251384  1
  Pb  Pb35  1  0.152553  0.644399  0.248825  1
