# generated using pymatgen
data_Mg3Zr(B6Os)2
_symmetry_space_group_name_H-M   'P 1'
_cell_length_a   8.88144530
_cell_length_b   11.12874445
_cell_length_c   3.49903000
_cell_angle_alpha   90.00000000
_cell_angle_beta   90.00000000
_cell_angle_gamma   90.11308194
_symmetry_Int_Tables_number   1
_chemical_formula_structural   Mg3Zr(B6Os)2
_chemical_formula_sum   'Mg6 Zr2 B24 Os4'
_cell_volume   345.84112507
_cell_formula_units_Z   2
loop_
 _symmetry_equiv_pos_site_id
 _symmetry_equiv_pos_as_xyz
  1  'x, y, z'
loop_
 _atom_site_type_symbol
 _atom_site_label
 _atom_site_symmetry_multiplicity
 _atom_site_fract_x
 _atom_site_fract_y
 _atom_site_fract_z
 _atom_site_occupancy
  Mg  Mg0  1  0.319694  0.091776  0.000000  1
  Mg  Mg1  1  0.946696  0.130749  0.000000  1
  Mg  Mg2  1  0.443307  0.371857  0.000000  1
  Mg  Mg3  1  0.828394  0.409452  0.000000  1
  Mg  Mg4  1  0.174336  0.581742  0.000000  1
  Mg  Mg5  1  0.554244  0.622910  0.000000  1
  Zr  Zr6  1  0.056024  0.872114  0.000000  1
  Zr  Zr7  1  0.677524  0.918394  0.000000  1
  B  B8  1  0.099117  0.029730  0.500000  1
  B  B9  1  0.554447  0.065709  0.500000  1
  B  B10  1  0.753689  0.081565  0.500000  1
  B  B11  1  0.130394  0.184474  0.500000  1
  B  B12  1  0.477829  0.212176  0.500000  1
  B  B13  1  0.795808  0.237872  0.500000  1
  B  B14  1  0.294906  0.262338  0.500000  1
  B  B15  1  0.980019  0.288139  0.500000  1
  B  B16  1  0.629548  0.317613  0.500000  1
  B  B17  1  0.256789  0.420628  0.500000  1
  B  B18  1  0.053703  0.435825  0.500000  1
  B  B19  1  0.593304  0.472990  0.500000  1
  B  B20  1  0.408998  0.524018  0.500000  1
  B  B21  1  0.944429  0.563974  0.500000  1
  B  B22  1  0.744203  0.577016  0.500000  1
  B  B23  1  0.372142  0.678615  0.500000  1
  B  B24  1  0.018718  0.710370  0.500000  1
  B  B25  1  0.702919  0.736356  0.500000  1
  B  B26  1  0.207990  0.762022  0.500000  1
  B  B27  1  0.520156  0.787350  0.500000  1
  B  B28  1  0.867172  0.817712  0.500000  1
  B  B29  1  0.249240  0.922133  0.500000  1
  B  B30  1  0.446640  0.935566  0.500000  1
  B  B31  1  0.899535  0.974811  0.500000  1
  Os  Os32  1  0.639283  0.179182  0.000000  1
  Os  Os33  1  0.139595  0.325283  0.000000  1
  Os  Os34  1  0.855523  0.679737  0.000000  1
  Os  Os35  1  0.363690  0.817800  0.000000  1
