# generated using pymatgen
data_Sm2Tm18Si15Pt
_symmetry_space_group_name_H-M   'P 1'
_cell_length_a   7.33425777
_cell_length_b   7.67415943
_cell_length_c   14.47124700
_cell_angle_alpha   89.59662753
_cell_angle_beta   89.92214483
_cell_angle_gamma   89.94676390
_symmetry_Int_Tables_number   1
_chemical_formula_structural   Sm2Tm18Si15Pt
_chemical_formula_sum   'Sm2 Tm18 Si15 Pt1'
_cell_volume   814.48219660
_cell_formula_units_Z   1
loop_
 _symmetry_equiv_pos_site_id
 _symmetry_equiv_pos_as_xyz
  1  'x, y, z'
loop_
 _atom_site_type_symbol
 _atom_site_label
 _atom_site_symmetry_multiplicity
 _atom_site_fract_x
 _atom_site_fract_y
 _atom_site_fract_z
 _atom_site_occupancy
  Sm  Sm0  1  0.520203  0.570040  0.342387  1
  Sm  Sm1  1  0.022200  0.427659  0.656445  1
  Tm  Tm2  1  0.811571  0.576530  0.876143  1
  Tm  Tm3  1  0.321733  0.428210  0.124174  1
  Tm  Tm4  1  0.181021  0.926204  0.374209  1
  Tm  Tm5  1  0.679713  0.069481  0.626516  1
  Tm  Tm6  1  0.181784  0.925632  0.627114  1
  Tm  Tm7  1  0.679950  0.071326  0.372065  1
  Tm  Tm8  1  0.814759  0.573042  0.126042  1
  Tm  Tm9  1  0.325627  0.432824  0.874210  1
  Tm  Tm10  1  0.647623  0.234616  0.998990  1
  Tm  Tm11  1  0.157138  0.761580  0.001181  1
  Tm  Tm12  1  0.348146  0.260975  0.499357  1
  Tm  Tm13  1  0.848404  0.736920  0.500070  1
  Tm  Tm14  1  0.479368  0.928670  0.846231  1
  Tm  Tm15  1  0.977764  0.069703  0.154265  1
  Tm  Tm16  1  0.476960  0.931719  0.153388  1
  Tm  Tm17  1  0.975936  0.069021  0.846779  1
  Tm  Tm18  1  0.526194  0.564679  0.651510  1
  Tm  Tm19  1  0.025966  0.433492  0.348034  1
  Si  Si20  1  0.021121  0.353114  0.000152  1
  Si  Si21  1  0.478043  0.859076  0.500325  1
  Si  Si22  1  0.977136  0.138701  0.499657  1
  Si  Si23  1  0.654371  0.277840  0.789907  1
  Si  Si24  1  0.152602  0.720910  0.210026  1
  Si  Si25  1  0.345546  0.216569  0.287431  1
  Si  Si26  1  0.848172  0.781792  0.712400  1
  Si  Si27  1  0.354594  0.217686  0.711433  1
  Si  Si28  1  0.856264  0.780802  0.288977  1
  Si  Si29  1  0.648581  0.271432  0.206745  1
  Si  Si30  1  0.145946  0.726197  0.793009  1
  Si  Si31  1  0.777349  0.883639  0.001448  1
  Si  Si32  1  0.263297  0.125582  0.999247  1
  Si  Si33  1  0.228082  0.620698  0.501129  1
  Si  Si34  1  0.728074  0.376862  0.498651  1
  Pt  Pt35  1  0.518761  0.656774  0.000352  1
