# generated using pymatgen
data_Lu3ScTi2(B2Ir5)2
_symmetry_space_group_name_H-M   'P 1'
_cell_length_a   9.47705636
_cell_length_b   9.47705636
_cell_length_c   3.19054700
_cell_angle_alpha   90.00000000
_cell_angle_beta   90.00000000
_cell_angle_gamma   89.68256219
_symmetry_Int_Tables_number   1
_chemical_formula_structural   Lu3ScTi2(B2Ir5)2
_chemical_formula_sum   'Lu3 Sc1 Ti2 B4 Ir10'
_cell_volume   286.55329600
_cell_formula_units_Z   1
loop_
 _symmetry_equiv_pos_site_id
 _symmetry_equiv_pos_as_xyz
  1  'x, y, z'
loop_
 _atom_site_type_symbol
 _atom_site_label
 _atom_site_symmetry_multiplicity
 _atom_site_fract_x
 _atom_site_fract_y
 _atom_site_fract_z
 _atom_site_occupancy
  Lu  Lu0  1  0.676718  0.176014  0.000000  1
  Lu  Lu1  1  0.323986  0.823282  0.000000  1
  Lu  Lu2  1  0.175206  0.324794  0.000000  1
  Sc  Sc3  1  0.823831  0.676169  0.000000  1
  Ti  Ti4  1  0.999595  0.999349  0.000000  1
  Ti  Ti5  1  0.500651  0.500405  0.000000  1
  B  B6  1  0.118990  0.621725  0.000000  1
  B  B7  1  0.878275  0.381010  0.000000  1
  B  B8  1  0.623345  0.876655  0.000000  1
  B  B9  1  0.379390  0.120610  0.000000  1
  Ir  Ir10  1  0.218649  0.069550  0.500000  1
  Ir  Ir11  1  0.783328  0.926214  0.500000  1
  Ir  Ir12  1  0.066800  0.781424  0.500000  1
  Ir  Ir13  1  0.718576  0.433200  0.500000  1
  Ir  Ir14  1  0.930156  0.219538  0.500000  1
  Ir  Ir15  1  0.280462  0.569844  0.500000  1
  Ir  Ir16  1  0.573786  0.716672  0.500000  1
  Ir  Ir17  1  0.430450  0.281351  0.500000  1
  Ir  Ir18  1  0.501132  0.998868  0.500000  1
  Ir  Ir19  1  0.996674  0.503326  0.500000  1
