# generated using pymatgen
data_Nb8V11Si16W
_symmetry_space_group_name_H-M   'P 1'
_cell_length_a   6.36665472
_cell_length_b   6.46484008
_cell_length_c   12.48874100
_cell_angle_alpha   90.00000000
_cell_angle_beta   90.00000000
_cell_angle_gamma   90.00592377
_symmetry_Int_Tables_number   1
_chemical_formula_structural   Nb8V11Si16W
_chemical_formula_sum   'Nb8 V11 Si16 W1'
_cell_volume   514.02914092
_cell_formula_units_Z   1
loop_
 _symmetry_equiv_pos_site_id
 _symmetry_equiv_pos_as_xyz
  1  'x, y, z'
loop_
 _atom_site_type_symbol
 _atom_site_label
 _atom_site_symmetry_multiplicity
 _atom_site_fract_x
 _atom_site_fract_y
 _atom_site_fract_z
 _atom_site_occupancy
  Nb  Nb0  1  0.492357  0.670775  0.591130  1
  Nb  Nb1  1  0.992816  0.828781  0.908704  1
  Nb  Nb2  1  0.507411  0.329799  0.088296  1
  Nb  Nb3  1  0.009331  0.171199  0.411717  1
  Nb  Nb4  1  0.507411  0.329799  0.411704  1
  Nb  Nb5  1  0.009331  0.171199  0.088283  1
  Nb  Nb6  1  0.492357  0.670775  0.908870  1
  Nb  Nb7  1  0.992816  0.828781  0.591296  1
  V  V8  1  0.662293  0.164763  0.625438  1
  V  V9  1  0.162914  0.335198  0.874483  1
  V  V10  1  0.335099  0.835890  0.124439  1
  V  V11  1  0.836952  0.662526  0.375326  1
  V  V12  1  0.335099  0.835890  0.375561  1
  V  V13  1  0.836952  0.662526  0.124674  1
  V  V14  1  0.662293  0.164763  0.874562  1
  V  V15  1  0.162914  0.335198  0.625517  1
  V  V16  1  0.834428  0.495455  0.750000  1
  V  V17  1  0.334086  0.005013  0.750000  1
  V  V18  1  0.165551  0.504800  0.250000  1
  Si  Si19  1  0.672202  0.956276  0.460987  1
  Si  Si20  1  0.171418  0.542828  0.039829  1
  Si  Si21  1  0.328370  0.042332  0.958927  1
  Si  Si22  1  0.828370  0.457345  0.541247  1
  Si  Si23  1  0.328370  0.042332  0.541073  1
  Si  Si24  1  0.828370  0.457345  0.958753  1
  Si  Si25  1  0.672202  0.956276  0.039013  1
  Si  Si26  1  0.171418  0.542828  0.460171  1
  Si  Si27  1  0.463297  0.380830  0.750000  1
  Si  Si28  1  0.962630  0.118984  0.750000  1
  Si  Si29  1  0.534644  0.615596  0.250000  1
  Si  Si30  1  0.040601  0.878555  0.250000  1
  Si  Si31  1  0.695482  0.854848  0.750000  1
  Si  Si32  1  0.196104  0.645166  0.750000  1
  Si  Si33  1  0.300004  0.149624  0.250000  1
  Si  Si34  1  0.807898  0.358011  0.250000  1
  W  W35  1  0.666207  0.997694  0.250000  1
