# generated using pymatgen
data_Sc2TaB4Ru10W3
_symmetry_space_group_name_H-M   'P 1'
_cell_length_a   9.45659051
_cell_length_b   9.45659078
_cell_length_c   3.00405600
_cell_angle_alpha   90.00000000
_cell_angle_beta   90.00000000
_cell_angle_gamma   89.80549967
_symmetry_Int_Tables_number   1
_chemical_formula_structural   Sc2TaB4Ru10W3
_chemical_formula_sum   'Sc2 Ta1 B4 Ru10 W3'
_cell_volume   268.64248836
_cell_formula_units_Z   1
loop_
 _symmetry_equiv_pos_site_id
 _symmetry_equiv_pos_as_xyz
  1  'x, y, z'
loop_
 _atom_site_type_symbol
 _atom_site_label
 _atom_site_symmetry_multiplicity
 _atom_site_fract_x
 _atom_site_fract_y
 _atom_site_fract_z
 _atom_site_occupancy
  Sc  Sc0  1  0.824821  0.674621  0.000000  1
  Sc  Sc1  1  0.174621  0.324821  0.000000  1
  Ta  Ta2  1  0.676773  0.176773  0.000000  1
  B  B3  1  0.623122  0.878166  0.000000  1
  B  B4  1  0.378166  0.123122  0.000000  1
  B  B5  1  0.119031  0.619031  0.000000  1
  B  B6  1  0.880344  0.380344  0.000000  1
  Ru  Ru7  1  0.563076  0.719167  0.500000  1
  Ru  Ru8  1  0.432232  0.280681  0.500000  1
  Ru  Ru9  1  0.080074  0.786647  0.500000  1
  Ru  Ru10  1  0.925198  0.214963  0.500000  1
  Ru  Ru11  1  0.286647  0.580074  0.500000  1
  Ru  Ru12  1  0.714963  0.425198  0.500000  1
  Ru  Ru13  1  0.219167  0.063076  0.500000  1
  Ru  Ru14  1  0.780681  0.932232  0.500000  1
  Ru  Ru15  1  0.496945  0.996945  0.500000  1
  Ru  Ru16  1  0.000673  0.500673  0.500000  1
  W  W17  1  0.323625  0.823625  0.000000  1
  W  W18  1  0.500816  0.499026  0.000000  1
  W  W19  1  0.999026  0.000816  0.000000  1
