# generated using pymatgen
data_Zr6Sc8Al8Pt2Rh5
_symmetry_space_group_name_H-M   'P 1'
_cell_length_a   9.13998594
_cell_length_b   9.10761775
_cell_length_c   9.10761722
_cell_angle_alpha   59.92989444
_cell_angle_beta   59.88236490
_cell_angle_gamma   59.88237315
_symmetry_Int_Tables_number   1
_chemical_formula_structural   Zr6Sc8Al8Pt2Rh5
_chemical_formula_sum   'Zr6 Sc8 Al8 Pt2 Rh5'
_cell_volume   534.85470891
_cell_formula_units_Z   1
loop_
 _symmetry_equiv_pos_site_id
 _symmetry_equiv_pos_as_xyz
  1  'x, y, z'
loop_
 _atom_site_type_symbol
 _atom_site_label
 _atom_site_symmetry_multiplicity
 _atom_site_fract_x
 _atom_site_fract_y
 _atom_site_fract_z
 _atom_site_occupancy
  Zr  Zr0  1  0.680784  0.679884  0.320116  1
  Zr  Zr1  1  0.319216  0.679884  0.320116  1
  Zr  Zr2  1  0.676647  0.323353  0.323353  1
  Zr  Zr3  1  0.319216  0.320116  0.679884  1
  Zr  Zr4  1  0.680784  0.320116  0.679884  1
  Zr  Zr5  1  0.323353  0.676647  0.676647  1
  Sc  Sc6  1  0.877367  0.875888  0.369376  1
  Sc  Sc7  1  0.877367  0.369376  0.875888  1
  Sc  Sc8  1  0.366546  0.875609  0.875609  1
  Sc  Sc9  1  0.882235  0.875609  0.875609  1
  Sc  Sc10  1  0.122633  0.124112  0.630624  1
  Sc  Sc11  1  0.122633  0.630624  0.124112  1
  Sc  Sc12  1  0.633454  0.124391  0.124391  1
  Sc  Sc13  1  0.117765  0.124391  0.124391  1
  Al  Al14  1  0.661846  0.661688  0.014618  1
  Al  Al15  1  0.661846  0.014618  0.661688  1
  Al  Al16  1  0.014756  0.661689  0.661689  1
  Al  Al17  1  0.661865  0.661689  0.661689  1
  Al  Al18  1  0.338154  0.338312  0.985382  1
  Al  Al19  1  0.338154  0.985382  0.338312  1
  Al  Al20  1  0.985244  0.338311  0.338311  1
  Al  Al21  1  0.338135  0.338311  0.338311  1
  Pt  Pt22  1  0.000000  0.000000  0.000000  1
  Pt  Pt23  1  0.500000  0.000000  0.000000  1
  Rh  Rh24  1  0.000000  0.000000  0.500000  1
  Rh  Rh25  1  0.500000  0.000000  0.500000  1
  Rh  Rh26  1  0.000000  0.500000  0.500000  1
  Rh  Rh27  1  0.500000  0.500000  0.000000  1
  Rh  Rh28  1  0.000000  0.500000  0.000000  1
