# generated using pymatgen
data_Er4Al5GaPt8
_symmetry_space_group_name_H-M   'P 1'
_cell_length_a   8.09989832
_cell_length_b   8.09989769
_cell_length_c   7.62372559
_cell_angle_alpha   89.98456787
_cell_angle_beta   89.98456824
_cell_angle_gamma   140.00270981
_symmetry_Int_Tables_number   1
_chemical_formula_structural   Er4Al5GaPt8
_chemical_formula_sum   'Er4 Al5 Ga1 Pt8'
_cell_volume   321.49131035
_cell_formula_units_Z   1
loop_
 _symmetry_equiv_pos_site_id
 _symmetry_equiv_pos_as_xyz
  1  'x, y, z'
loop_
 _atom_site_type_symbol
 _atom_site_label
 _atom_site_symmetry_multiplicity
 _atom_site_fract_x
 _atom_site_fract_y
 _atom_site_fract_z
 _atom_site_occupancy
  Er  Er0  1  0.106606  0.893884  0.407653  1
  Er  Er1  1  0.893843  0.106446  0.592718  1
  Er  Er2  1  0.393554  0.606157  0.907282  1
  Er  Er3  1  0.606116  0.393394  0.092347  1
  Al  Al4  1  0.999591  0.999569  0.999613  1
  Al  Al5  1  0.500431  0.500409  0.500387  1
  Al  Al6  1  0.477554  0.022446  0.750000  1
  Al  Al7  1  0.977187  0.522813  0.750000  1
  Al  Al8  1  0.523155  0.976845  0.250000  1
  Ga  Ga9  1  0.021138  0.478862  0.250000  1
  Pt  Pt10  1  0.193276  0.306724  0.250000  1
  Pt  Pt11  1  0.308637  0.191363  0.750000  1
  Pt  Pt12  1  0.808536  0.691464  0.750000  1
  Pt  Pt13  1  0.691567  0.808433  0.250000  1
  Pt  Pt14  1  0.188496  0.822994  0.026041  1
  Pt  Pt15  1  0.814224  0.180917  0.969229  1
  Pt  Pt16  1  0.319083  0.685776  0.530771  1
  Pt  Pt17  1  0.677006  0.311504  0.473959  1
