# generated using pymatgen
data_Er5Ti3(P3Ir4)4
_symmetry_space_group_name_H-M   'P 1'
_cell_length_a   12.74334700
_cell_length_b   12.74334792
_cell_length_c   3.94466900
_cell_angle_alpha   90.00000000
_cell_angle_beta   90.00000000
_cell_angle_gamma   120.00000022
_symmetry_Int_Tables_number   1
_chemical_formula_structural   Er5Ti3(P3Ir4)4
_chemical_formula_sum   'Er5 Ti3 P12 Ir16'
_cell_volume   554.76396973
_cell_formula_units_Z   1
loop_
 _symmetry_equiv_pos_site_id
 _symmetry_equiv_pos_as_xyz
  1  'x, y, z'
loop_
 _atom_site_type_symbol
 _atom_site_label
 _atom_site_symmetry_multiplicity
 _atom_site_fract_x
 _atom_site_fract_y
 _atom_site_fract_z
 _atom_site_occupancy
  Er  Er0  1  0.333333  0.666667  0.500000  1
  Er  Er1  1  0.666667  0.333333  0.500000  1
  Er  Er2  1  0.000000  0.812344  0.000000  1
  Er  Er3  1  0.187656  0.187656  0.000000  1
  Er  Er4  1  0.812344  0.000000  0.000000  1
  Ti  Ti5  1  0.000000  0.448049  0.500000  1
  Ti  Ti6  1  0.551951  0.551951  0.500000  1
  Ti  Ti7  1  0.448049  0.000000  0.500000  1
  P  P8  1  0.000000  0.640732  0.500000  1
  P  P9  1  0.359268  0.359268  0.500000  1
  P  P10  1  0.640732  0.000000  0.500000  1
  P  P11  1  0.516627  0.684255  0.000000  1
  P  P12  1  0.315745  0.832373  0.000000  1
  P  P13  1  0.167627  0.483373  0.000000  1
  P  P14  1  0.483373  0.167627  0.000000  1
  P  P15  1  0.684255  0.516627  0.000000  1
  P  P16  1  0.832373  0.315745  0.000000  1
  P  P17  1  0.000000  0.176365  0.500000  1
  P  P18  1  0.823635  0.823635  0.500000  1
  P  P19  1  0.176365  0.000000  0.500000  1
  Ir  Ir20  1  0.508761  0.866099  0.000000  1
  Ir  Ir21  1  0.133901  0.642663  0.000000  1
  Ir  Ir22  1  0.357337  0.491239  0.000000  1
  Ir  Ir23  1  0.491239  0.357337  0.000000  1
  Ir  Ir24  1  0.866099  0.508761  0.000000  1
  Ir  Ir25  1  0.642663  0.133901  0.000000  1
  Ir  Ir26  1  0.000000  0.282678  0.000000  1
  Ir  Ir27  1  0.717322  0.717322  0.000000  1
  Ir  Ir28  1  0.282678  0.000000  0.000000  1
  Ir  Ir29  1  0.627033  0.805561  0.500000  1
  Ir  Ir30  1  0.194439  0.821473  0.500000  1
  Ir  Ir31  1  0.178527  0.372967  0.500000  1
  Ir  Ir32  1  0.372967  0.178527  0.500000  1
  Ir  Ir33  1  0.805561  0.627033  0.500000  1
  Ir  Ir34  1  0.821473  0.194439  0.500000  1
  Ir  Ir35  1  0.000000  0.000000  0.500000  1
