# generated using pymatgen
data_Tm12Fe2Sn2Ru
_symmetry_space_group_name_H-M   'P 1'
_cell_length_a   8.28429681
_cell_length_b   8.28424668
_cell_length_c   8.28429681
_cell_angle_alpha   108.70560594
_cell_angle_beta   108.70564204
_cell_angle_gamma   111.01375586
_symmetry_Int_Tables_number   1
_chemical_formula_structural   Tm12Fe2Sn2Ru
_chemical_formula_sum   'Tm12 Fe2 Sn2 Ru1'
_cell_volume   437.42568629
_cell_formula_units_Z   1
loop_
 _symmetry_equiv_pos_site_id
 _symmetry_equiv_pos_as_xyz
  1  'x, y, z'
loop_
 _atom_site_type_symbol
 _atom_site_label
 _atom_site_symmetry_multiplicity
 _atom_site_fract_x
 _atom_site_fract_y
 _atom_site_fract_z
 _atom_site_occupancy
  Tm  Tm0  1  0.193037  0.429693  0.236656  1
  Tm  Tm1  1  0.806963  0.570307  0.763344  1
  Tm  Tm2  1  0.193038  0.956380  0.763342  1
  Tm  Tm3  1  0.956382  0.193037  0.763345  1
  Tm  Tm4  1  0.806962  0.043620  0.236658  1
  Tm  Tm5  1  0.043618  0.806963  0.236655  1
  Tm  Tm6  1  0.429693  0.193037  0.236655  1
  Tm  Tm7  1  0.570307  0.806963  0.763345  1
  Tm  Tm8  1  0.308030  0.308030  0.616061  1
  Tm  Tm9  1  0.691970  0.691970  0.383939  1
  Tm  Tm10  1  0.691969  0.308030  0.000000  1
  Tm  Tm11  1  0.308031  0.691970  0.000000  1
  Fe  Fe12  1  0.384509  0.384508  0.999999  1
  Fe  Fe13  1  0.615491  0.615492  0.000001  1
  Sn  Sn14  1  0.000000  0.500000  0.500000  1
  Sn  Sn15  1  0.500000  0.000000  0.500000  1
  Ru  Ru16  1  0.000000  0.000000  0.000000  1
