# generated using pymatgen
data_Sr2Cd3Pt2Pb
_symmetry_space_group_name_H-M   'P 1'
_cell_length_a   5.85561456
_cell_length_b   5.85561579
_cell_length_c   8.54494562
_cell_angle_alpha   89.79557332
_cell_angle_beta   90.20442418
_cell_angle_gamma   135.86678620
_symmetry_Int_Tables_number   1
_chemical_formula_structural   Sr2Cd3Pt2Pb
_chemical_formula_sum   'Sr2 Cd3 Pt2 Pb1'
_cell_volume   204.01664623
_cell_formula_units_Z   1
loop_
 _symmetry_equiv_pos_site_id
 _symmetry_equiv_pos_as_xyz
  1  'x, y, z'
loop_
 _atom_site_type_symbol
 _atom_site_label
 _atom_site_symmetry_multiplicity
 _atom_site_fract_x
 _atom_site_fract_y
 _atom_site_fract_z
 _atom_site_occupancy
  Sr  Sr0  1  0.934757  0.065243  0.242642  1
  Sr  Sr1  1  0.062978  0.937022  0.757193  1
  Cd  Cd2  1  0.353193  0.646807  0.559883  1
  Cd  Cd3  1  0.652732  0.347268  0.046691  1
  Cd  Cd4  1  0.349483  0.650517  0.946627  1
  Pt  Pt5  1  0.222162  0.777838  0.250777  1
  Pt  Pt6  1  0.776868  0.223132  0.749683  1
  Pb  Pb7  1  0.647827  0.352173  0.446502  1
