# generated using pymatgen
data_ThTaP7Ru12
_symmetry_space_group_name_H-M   'P 1'
_cell_length_a   9.43682600
_cell_length_b   9.43682459
_cell_length_c   3.90648100
_cell_angle_alpha   90.00000000
_cell_angle_beta   90.00000000
_cell_angle_gamma   120.00000399
_symmetry_Int_Tables_number   1
_chemical_formula_structural   ThTaP7Ru12
_chemical_formula_sum   'Th1 Ta1 P7 Ru12'
_cell_volume   301.27851407
_cell_formula_units_Z   1
loop_
 _symmetry_equiv_pos_site_id
 _symmetry_equiv_pos_as_xyz
  1  'x, y, z'
loop_
 _atom_site_type_symbol
 _atom_site_label
 _atom_site_symmetry_multiplicity
 _atom_site_fract_x
 _atom_site_fract_y
 _atom_site_fract_z
 _atom_site_occupancy
  Th  Th0  1  0.333333  0.666667  0.000000  1
  Ta  Ta1  1  0.666667  0.333333  0.500000  1
  P  P2  1  0.603831  0.718756  0.500000  1
  P  P3  1  0.000000  0.000000  0.000000  1
  P  P4  1  0.281244  0.885076  0.500000  1
  P  P5  1  0.114924  0.396169  0.500000  1
  P  P6  1  0.886847  0.573929  0.000000  1
  P  P7  1  0.426071  0.312919  0.000000  1
  P  P8  1  0.687081  0.113153  0.000000  1
  Ru  Ru9  1  0.559608  0.958204  0.500000  1
  Ru  Ru10  1  0.398597  0.440392  0.500000  1
  Ru  Ru11  1  0.911535  0.122285  0.500000  1
  Ru  Ru12  1  0.210749  0.088465  0.500000  1
  Ru  Ru13  1  0.877715  0.789251  0.500000  1
  Ru  Ru14  1  0.724269  0.886413  0.000000  1
  Ru  Ru15  1  0.113587  0.837856  0.000000  1
  Ru  Ru16  1  0.162144  0.275731  0.000000  1
  Ru  Ru17  1  0.433153  0.081527  0.000000  1
  Ru  Ru18  1  0.918473  0.351627  0.000000  1
  Ru  Ru19  1  0.648373  0.566847  0.000000  1
  Ru  Ru20  1  0.041796  0.601403  0.500000  1
