# generated using pymatgen
data_Ce2Np5UH24
_symmetry_space_group_name_H-M   'P 1'
_cell_length_a   6.72379100
_cell_length_b   6.69661000
_cell_length_c   6.68372500
_cell_angle_alpha   90.00000000
_cell_angle_beta   90.00000000
_cell_angle_gamma   90.00000000
_symmetry_Int_Tables_number   1
_chemical_formula_structural   Ce2Np5UH24
_chemical_formula_sum   'Ce2 Np5 U1 H24'
_cell_volume   300.94545251
_cell_formula_units_Z   1
loop_
 _symmetry_equiv_pos_site_id
 _symmetry_equiv_pos_as_xyz
  1  'x, y, z'
loop_
 _atom_site_type_symbol
 _atom_site_label
 _atom_site_symmetry_multiplicity
 _atom_site_fract_x
 _atom_site_fract_y
 _atom_site_fract_z
 _atom_site_occupancy
  Ce  Ce0  1  0.249419  0.000000  0.500000  1
  Ce  Ce1  1  0.750581  0.000000  0.500000  1
  Np  Np2  1  0.000000  0.000000  0.000000  1
  Np  Np3  1  0.000000  0.500000  0.249397  1
  Np  Np4  1  0.000000  0.500000  0.750603  1
  Np  Np5  1  0.500000  0.750960  0.000000  1
  Np  Np6  1  0.500000  0.249040  0.000000  1
  U  U7  1  0.500000  0.500000  0.500000  1
  H  H8  1  0.000000  0.158891  0.295845  1
  H  H9  1  0.500000  0.203981  0.657653  1
  H  H10  1  0.500000  0.796019  0.342347  1
  H  H11  1  0.805929  0.649575  0.500000  1
  H  H12  1  0.194071  0.649575  0.500000  1
  H  H13  1  0.344945  0.500000  0.802828  1
  H  H14  1  0.655055  0.500000  0.802828  1
  H  H15  1  0.306708  0.000000  0.148830  1
  H  H16  1  0.155139  0.302622  0.000000  1
  H  H17  1  0.844861  0.697378  0.000000  1
  H  H18  1  0.306708  0.000000  0.851170  1
  H  H19  1  0.844861  0.302622  0.000000  1
  H  H20  1  0.693292  0.000000  0.148830  1
  H  H21  1  0.693292  0.000000  0.851170  1
  H  H22  1  0.155139  0.697378  0.000000  1
  H  H23  1  0.000000  0.841109  0.704155  1
  H  H24  1  0.000000  0.158891  0.704155  1
  H  H25  1  0.000000  0.841109  0.295845  1
  H  H26  1  0.655055  0.500000  0.197172  1
  H  H27  1  0.344945  0.500000  0.197172  1
  H  H28  1  0.805929  0.350425  0.500000  1
  H  H29  1  0.194071  0.350425  0.500000  1
  H  H30  1  0.500000  0.796019  0.657653  1
  H  H31  1  0.500000  0.203981  0.342347  1
