# generated using pymatgen
data_ErTh(Si2Ni9)2
_symmetry_space_group_name_H-M   'P 1'
_cell_length_a   7.57610276
_cell_length_b   7.56781036
_cell_length_c   7.57610352
_cell_angle_alpha   99.66039452
_cell_angle_beta   99.52766449
_cell_angle_gamma   131.88076613
_symmetry_Int_Tables_number   1
_chemical_formula_structural   ErTh(Si2Ni9)2
_chemical_formula_sum   'Er1 Th1 Si4 Ni18'
_cell_volume   295.14619670
_cell_formula_units_Z   1
loop_
 _symmetry_equiv_pos_site_id
 _symmetry_equiv_pos_as_xyz
  1  'x, y, z'
loop_
 _atom_site_type_symbol
 _atom_site_label
 _atom_site_symmetry_multiplicity
 _atom_site_fract_x
 _atom_site_fract_y
 _atom_site_fract_z
 _atom_site_occupancy
  Er  Er0  1  0.750020  0.250357  0.500337  1
  Th  Th1  1  0.500055  0.499978  0.999923  1
  Si  Si2  1  0.624778  0.876368  0.748414  1
  Si  Si3  1  0.123645  0.375199  0.251555  1
  Si  Si4  1  0.123660  0.872127  0.748468  1
  Si  Si5  1  0.127954  0.876368  0.251590  1
  Ni  Ni6  1  0.249982  0.749927  0.499945  1
  Ni  Ni7  1  0.999994  0.000089  0.000096  1
  Ni  Ni8  1  0.686718  0.013869  0.078939  1
  Ni  Ni9  1  0.686931  0.607951  0.672729  1
  Ni  Ni10  1  0.263582  0.437653  0.578886  1
  Ni  Ni11  1  0.263276  0.684534  0.825755  1
  Ni  Ni12  1  0.934931  0.013869  0.327150  1
  Ni  Ni13  1  0.935222  0.607951  0.921019  1
  Ni  Ni14  1  0.858768  0.437653  0.174072  1
  Ni  Ni15  1  0.858779  0.684534  0.421257  1
  Ni  Ni16  1  0.562601  0.736651  0.421349  1
  Ni  Ni17  1  0.562269  0.141005  0.826042  1
  Ni  Ni18  1  0.986123  0.313148  0.920916  1
  Ni  Ni19  1  0.986027  0.064983  0.672791  1
  Ni  Ni20  1  0.315300  0.736651  0.174050  1
  Ni  Ni21  1  0.314962  0.141005  0.578737  1
  Ni  Ni22  1  0.392231  0.313148  0.327025  1
  Ni  Ni23  1  0.392191  0.064983  0.078957  1
