# generated using pymatgen
data_Zr10In3Bi5
_symmetry_space_group_name_H-M   'P 1'
_cell_length_a   8.98432587
_cell_length_b   8.93952692
_cell_length_c   6.03297900
_cell_angle_alpha   90.00000000
_cell_angle_beta   90.00000000
_cell_angle_gamma   119.83514943
_symmetry_Int_Tables_number   1
_chemical_formula_structural   Zr10In3Bi5
_chemical_formula_sum   'Zr10 In3 Bi5'
_cell_volume   420.32140716
_cell_formula_units_Z   1
loop_
 _symmetry_equiv_pos_site_id
 _symmetry_equiv_pos_as_xyz
  1  'x, y, z'
loop_
 _atom_site_type_symbol
 _atom_site_label
 _atom_site_symmetry_multiplicity
 _atom_site_fract_x
 _atom_site_fract_y
 _atom_site_fract_z
 _atom_site_occupancy
  Zr  Zr0  1  0.668374  0.333867  0.001824  1
  Zr  Zr1  1  0.331626  0.665493  0.001825  1
  Zr  Zr2  1  0.331626  0.665493  0.498175  1
  Zr  Zr3  1  0.668374  0.333867  0.498176  1
  Zr  Zr4  1  0.720698  0.721030  0.750000  1
  Zr  Zr5  1  0.279301  0.000332  0.750000  1
  Zr  Zr6  1  0.999999  0.281020  0.750000  1
  Zr  Zr7  1  0.279315  0.281254  0.250000  1
  Zr  Zr8  1  0.720685  0.001938  0.250000  1
  Zr  Zr9  1  0.000001  0.716129  0.250000  1
  In  In10  1  0.000001  0.001395  0.002079  1
  In  In11  1  0.000001  0.001395  0.497921  1
  In  In12  1  0.000000  0.380084  0.250000  1
  Bi  Bi13  1  0.383112  0.383648  0.750000  1
  Bi  Bi14  1  0.616887  0.000536  0.750000  1
  Bi  Bi15  1  0.000000  0.614360  0.750000  1
  Bi  Bi16  1  0.616863  0.617511  0.250000  1
  Bi  Bi17  1  0.383137  0.000646  0.250000  1
