# generated using pymatgen
data_La6Dy2HoRh6
_symmetry_space_group_name_H-M   'P 1'
_cell_length_a   7.64415794
_cell_length_b   7.64415779
_cell_length_c   7.64415767
_cell_angle_alpha   70.80275684
_cell_angle_beta   70.80276501
_cell_angle_gamma   70.80275576
_symmetry_Int_Tables_number   1
_chemical_formula_structural   La6Dy2HoRh6
_chemical_formula_sum   'La6 Dy2 Ho1 Rh6'
_cell_volume   385.98692822
_cell_formula_units_Z   1
loop_
 _symmetry_equiv_pos_site_id
 _symmetry_equiv_pos_as_xyz
  1  'x, y, z'
loop_
 _atom_site_type_symbol
 _atom_site_label
 _atom_site_symmetry_multiplicity
 _atom_site_fract_x
 _atom_site_fract_y
 _atom_site_fract_z
 _atom_site_occupancy
  La  La0  1  0.160000  0.389191  0.671048  1
  La  La1  1  0.671048  0.160000  0.389191  1
  La  La2  1  0.389191  0.671048  0.160000  1
  La  La3  1  0.840000  0.610809  0.328952  1
  La  La4  1  0.328952  0.840000  0.610809  1
  La  La5  1  0.610809  0.328952  0.840000  1
  Dy  Dy6  1  0.802380  0.802380  0.802380  1
  Dy  Dy7  1  0.197620  0.197620  0.197620  1
  Ho  Ho8  1  0.000000  0.000000  0.000000  1
  Rh  Rh9  1  0.958496  0.160145  0.593115  1
  Rh  Rh10  1  0.593115  0.958496  0.160145  1
  Rh  Rh11  1  0.160145  0.593115  0.958496  1
  Rh  Rh12  1  0.041504  0.839855  0.406885  1
  Rh  Rh13  1  0.406885  0.041504  0.839855  1
  Rh  Rh14  1  0.839855  0.406885  0.041504  1
