# generated using pymatgen
data_DyNi2HgPt2
_symmetry_space_group_name_H-M   'P 1'
_cell_length_a   5.08210160
_cell_length_b   5.18130719
_cell_length_c   5.18130730
_cell_angle_alpha   62.93061541
_cell_angle_beta   60.63135434
_cell_angle_gamma   60.63137502
_symmetry_Int_Tables_number   1
_chemical_formula_structural   DyNi2HgPt2
_chemical_formula_sum   'Dy1 Ni2 Hg1 Pt2'
_cell_volume   99.39840524
_cell_formula_units_Z   1
loop_
 _symmetry_equiv_pos_site_id
 _symmetry_equiv_pos_as_xyz
  1  'x, y, z'
loop_
 _atom_site_type_symbol
 _atom_site_label
 _atom_site_symmetry_multiplicity
 _atom_site_fract_x
 _atom_site_fract_y
 _atom_site_fract_z
 _atom_site_occupancy
  Dy  Dy0  1  0.248761  0.251239  0.251239  1
  Ni  Ni1  1  0.121793  0.627643  0.627643  1
  Ni  Ni2  1  0.622922  0.627643  0.627643  1
  Hg  Hg3  1  0.007619  0.992381  0.992381  1
  Pt  Pt4  1  0.624454  0.625542  0.125552  1
  Pt  Pt5  1  0.624454  0.125552  0.625542  1
