# generated using pymatgen
data_Sr15Pr(NdPt4)4
_symmetry_space_group_name_H-M   'P 1'
_cell_length_a   7.92992827
_cell_length_b   8.08842640
_cell_length_c   15.57629013
_cell_angle_alpha   90.08852338
_cell_angle_beta   90.08795885
_cell_angle_gamma   90.05806607
_symmetry_Int_Tables_number   1
_chemical_formula_structural   Sr15Pr(NdPt4)4
_chemical_formula_sum   'Sr15 Pr1 Nd4 Pt16'
_cell_volume   999.07035076
_cell_formula_units_Z   1
loop_
 _symmetry_equiv_pos_site_id
 _symmetry_equiv_pos_as_xyz
  1  'x, y, z'
loop_
 _atom_site_type_symbol
 _atom_site_label
 _atom_site_symmetry_multiplicity
 _atom_site_fract_x
 _atom_site_fract_y
 _atom_site_fract_z
 _atom_site_occupancy
  Sr  Sr0  1  0.164179  0.328404  0.379773  1
  Sr  Sr1  1  0.337249  0.828085  0.619447  1
  Sr  Sr2  1  0.838063  0.671602  0.882099  1
  Sr  Sr3  1  0.492331  0.323294  0.903986  1
  Sr  Sr4  1  0.990855  0.178575  0.597499  1
  Sr  Sr5  1  0.508505  0.679709  0.402194  1
  Sr  Sr6  1  0.008726  0.821108  0.095979  1
  Sr  Sr7  1  0.505211  0.678683  0.095202  1
  Sr  Sr8  1  0.005240  0.819596  0.407147  1
  Sr  Sr9  1  0.495382  0.319749  0.593821  1
  Sr  Sr10  1  0.994253  0.180108  0.905792  1
  Sr  Sr11  1  0.174916  0.487293  0.749873  1
  Sr  Sr12  1  0.676004  0.013723  0.751212  1
  Sr  Sr13  1  0.827395  0.516192  0.249883  1
  Sr  Sr14  1  0.321075  0.985339  0.250379  1
  Pr  Pr15  1  0.336489  0.832634  0.878120  1
  Nd  Nd16  1  0.834669  0.670436  0.624087  1
  Nd  Nd17  1  0.664689  0.170175  0.374933  1
  Nd  Nd18  1  0.163395  0.329182  0.122271  1
  Nd  Nd19  1  0.661970  0.170825  0.121357  1
  Pt  Pt20  1  0.329604  0.043643  0.039350  1
  Pt  Pt21  1  0.818663  0.459111  0.463744  1
  Pt  Pt22  1  0.681228  0.958422  0.534757  1
  Pt  Pt23  1  0.176350  0.542017  0.965288  1
  Pt  Pt24  1  0.651328  0.973950  0.961636  1
  Pt  Pt25  1  0.139227  0.531539  0.543765  1
  Pt  Pt26  1  0.359345  0.031632  0.455102  1
  Pt  Pt27  1  0.845657  0.453318  0.044705  1
  Pt  Pt28  1  0.544460  0.625740  0.754173  1
  Pt  Pt29  1  0.045229  0.876872  0.748989  1
  Pt  Pt30  1  0.460876  0.370385  0.244815  1
  Pt  Pt31  1  0.949947  0.126605  0.243355  1
  Pt  Pt32  1  0.288158  0.120170  0.756151  1
  Pt  Pt33  1  0.785752  0.381801  0.744577  1
  Pt  Pt34  1  0.706840  0.884658  0.249816  1
  Pt  Pt35  1  0.216740  0.615425  0.244722  1
