# generated using pymatgen
data_HfZr2AlFe8
_symmetry_space_group_name_H-M   'P 1'
_cell_length_a   8.49069344
_cell_length_b   8.49069330
_cell_length_c   8.49069387
_cell_angle_alpha   33.47788135
_cell_angle_beta   33.47788134
_cell_angle_gamma   33.47788058
_symmetry_Int_Tables_number   1
_chemical_formula_structural   HfZr2AlFe8
_chemical_formula_sum   'Hf1 Zr2 Al1 Fe8'
_cell_volume   165.87767355
_cell_formula_units_Z   1
loop_
 _symmetry_equiv_pos_site_id
 _symmetry_equiv_pos_as_xyz
  1  'x, y, z'
loop_
 _atom_site_type_symbol
 _atom_site_label
 _atom_site_symmetry_multiplicity
 _atom_site_fract_x
 _atom_site_fract_y
 _atom_site_fract_z
 _atom_site_occupancy
  Hf  Hf0  1  0.624455  0.624455  0.624455  1
  Zr  Zr1  1  0.003381  0.003381  0.003381  1
  Zr  Zr2  1  0.497233  0.497233  0.497233  1
  Al  Al3  1  0.126216  0.126216  0.126216  1
  Fe  Fe4  1  0.563731  0.061909  0.563731  1
  Fe  Fe5  1  0.062400  0.560241  0.062400  1
  Fe  Fe6  1  0.061909  0.563731  0.563731  1
  Fe  Fe7  1  0.560241  0.062400  0.062400  1
  Fe  Fe8  1  0.812207  0.812207  0.812207  1
  Fe  Fe9  1  0.312097  0.312097  0.312097  1
  Fe  Fe10  1  0.563731  0.563731  0.061909  1
  Fe  Fe11  1  0.062400  0.062400  0.560241  1
