# generated using pymatgen
data_Zr6Nb2Al15Ir7
_symmetry_space_group_name_H-M   'P 1'
_cell_length_a   8.84100524
_cell_length_b   8.84100456
_cell_length_c   8.84100500
_cell_angle_alpha   120.21442318
_cell_angle_beta   119.76141608
_cell_angle_gamma   90.02137480
_symmetry_Int_Tables_number   1
_chemical_formula_structural   Zr6Nb2Al15Ir7
_chemical_formula_sum   'Zr6 Nb2 Al15 Ir7'
_cell_volume   488.72063041
_cell_formula_units_Z   1
loop_
 _symmetry_equiv_pos_site_id
 _symmetry_equiv_pos_as_xyz
  1  'x, y, z'
loop_
 _atom_site_type_symbol
 _atom_site_label
 _atom_site_symmetry_multiplicity
 _atom_site_fract_x
 _atom_site_fract_y
 _atom_site_fract_z
 _atom_site_occupancy
  Zr  Zr0  1  0.796552  0.292476  0.080327  1
  Zr  Zr1  1  0.212149  0.292476  0.495924  1
  Zr  Zr2  1  0.204792  0.704792  0.500000  1
  Zr  Zr3  1  0.212149  0.716225  0.919673  1
  Zr  Zr4  1  0.796552  0.716225  0.504076  1
  Zr  Zr5  1  0.784897  0.284897  0.500000  1
  Nb  Nb6  1  0.379584  0.124084  0.744500  1
  Nb  Nb7  1  0.379584  0.635084  0.255500  1
  Al  Al8  1  0.994561  0.494561  0.500000  1
  Al  Al9  1  0.160112  0.335889  0.175775  1
  Al  Al10  1  0.160112  0.984338  0.824225  1
  Al  Al11  1  0.152315  0.340747  0.811565  1
  Al  Al12  1  0.529181  0.340747  0.188435  1
  Al  Al13  1  0.838999  0.658453  0.819454  1
  Al  Al14  1  0.838999  0.019543  0.180546  1
  Al  Al15  1  0.837421  0.660478  0.176943  1
  Al  Al16  1  0.483535  0.660478  0.823057  1
  Al  Al17  1  0.379932  0.121740  0.258192  1
  Al  Al18  1  0.863548  0.121740  0.741808  1
  Al  Al19  1  0.622169  0.878395  0.256226  1
  Al  Al20  1  0.622169  0.365943  0.743774  1
  Al  Al21  1  0.622964  0.877997  0.744967  1
  Al  Al22  1  0.133030  0.877997  0.255033  1
  Ir  Ir23  1  0.001853  0.998964  0.501178  1
  Ir  Ir24  1  0.497786  0.998964  0.997110  1
  Ir  Ir25  1  0.496906  0.496906  0.000000  1
  Ir  Ir26  1  0.497786  0.500676  0.498822  1
  Ir  Ir27  1  0.001853  0.500676  0.002890  1
  Ir  Ir28  1  0.000044  0.000044  0.000000  1
  Ir  Ir29  1  0.498458  0.998458  0.500000  1
