# generated using pymatgen
data_Ho8Cd3Ni8Sn
_symmetry_space_group_name_H-M   'P 1'
_cell_length_a   7.34198300
_cell_length_b   7.34198300
_cell_length_c   7.28751800
_cell_angle_alpha   90.00000000
_cell_angle_beta   90.00000000
_cell_angle_gamma   90.00000000
_symmetry_Int_Tables_number   1
_chemical_formula_structural   Ho8Cd3Ni8Sn
_chemical_formula_sum   'Ho8 Cd3 Ni8 Sn1'
_cell_volume   392.83157627
_cell_formula_units_Z   1
loop_
 _symmetry_equiv_pos_site_id
 _symmetry_equiv_pos_as_xyz
  1  'x, y, z'
loop_
 _atom_site_type_symbol
 _atom_site_label
 _atom_site_symmetry_multiplicity
 _atom_site_fract_x
 _atom_site_fract_y
 _atom_site_fract_z
 _atom_site_occupancy
  Ho  Ho0  1  0.826232  0.174621  0.498275  1
  Ho  Ho1  1  0.173768  0.825379  0.498275  1
  Ho  Ho2  1  0.325379  0.326232  0.001725  1
  Ho  Ho3  1  0.674621  0.673768  0.001725  1
  Ho  Ho4  1  0.675322  0.674498  0.498399  1
  Ho  Ho5  1  0.324678  0.325502  0.498399  1
  Ho  Ho6  1  0.174498  0.824678  0.001601  1
  Ho  Ho7  1  0.825502  0.175322  0.001601  1
  Cd  Cd8  1  0.500000  0.000000  0.250000  1
  Cd  Cd9  1  0.000000  0.500000  0.750000  1
  Cd  Cd10  1  0.500000  0.000000  0.750000  1
  Ni  Ni11  1  0.622507  0.383690  0.251283  1
  Ni  Ni12  1  0.377493  0.616310  0.251283  1
  Ni  Ni13  1  0.119433  0.117337  0.750366  1
  Ni  Ni14  1  0.880567  0.882663  0.750366  1
  Ni  Ni15  1  0.382663  0.619433  0.749634  1
  Ni  Ni16  1  0.617337  0.380567  0.749634  1
  Ni  Ni17  1  0.883690  0.877493  0.248717  1
  Ni  Ni18  1  0.116310  0.122507  0.248717  1
  Sn  Sn19  1  0.000000  0.500000  0.250000  1
