# generated using pymatgen
data_Sr3TiSiS7
_symmetry_space_group_name_H-M   'P 1'
_cell_length_a   10.66093000
_cell_length_b   10.66148620
_cell_length_c   6.07003300
_cell_angle_alpha   90.00000000
_cell_angle_beta   90.00000000
_cell_angle_gamma   119.99991822
_symmetry_Int_Tables_number   1
_chemical_formula_structural   Sr3TiSiS7
_chemical_formula_sum   'Sr6 Ti2 Si2 S14'
_cell_volume   597.49583534
_cell_formula_units_Z   2
loop_
 _symmetry_equiv_pos_site_id
 _symmetry_equiv_pos_as_xyz
  1  'x, y, z'
loop_
 _atom_site_type_symbol
 _atom_site_label
 _atom_site_symmetry_multiplicity
 _atom_site_fract_x
 _atom_site_fract_y
 _atom_site_fract_z
 _atom_site_occupancy
  Sr  Sr0  1  0.129427  0.387841  0.233252  1
  Sr  Sr1  1  0.258412  0.870565  0.233249  1
  Sr  Sr2  1  0.612136  0.741586  0.233245  1
  Sr  Sr3  1  0.870574  0.612159  0.733251  1
  Sr  Sr4  1  0.741588  0.129435  0.733248  1
  Sr  Sr5  1  0.387863  0.258413  0.733246  1
  Ti  Ti6  1  0.999976  0.999966  0.067673  1
  Ti  Ti7  1  0.000024  0.000034  0.567674  1
  Si  Si8  1  0.666671  0.333335  0.155283  1
  Si  Si9  1  0.333329  0.666665  0.655282  1
  S  S10  1  0.333332  0.666662  0.004089  1
  S  S11  1  0.519124  0.123201  0.026276  1
  S  S12  1  0.604089  0.480883  0.026265  1
  S  S13  1  0.876794  0.395915  0.026270  1
  S  S14  1  0.207984  0.140187  0.275467  1
  S  S15  1  0.859805  0.067799  0.275467  1
  S  S16  1  0.932189  0.791989  0.275466  1
  S  S17  1  0.666669  0.333337  0.504088  1
  S  S18  1  0.480876  0.876798  0.526275  1
  S  S19  1  0.395911  0.519118  0.526264  1
  S  S20  1  0.123205  0.604084  0.526271  1
  S  S21  1  0.792016  0.859814  0.775468  1
  S  S22  1  0.067811  0.208012  0.775465  1
  S  S23  1  0.140195  0.932202  0.775466  1
