# generated using pymatgen
data_Y5Ho3Pd4
_symmetry_space_group_name_H-M   'P 1'
_cell_length_a   4.87928700
_cell_length_b   7.16241133
_cell_length_c   8.75017605
_cell_angle_alpha   89.81571576
_cell_angle_beta   90.00000000
_cell_angle_gamma   90.00000000
_symmetry_Int_Tables_number   1
_chemical_formula_structural   Y5Ho3Pd4
_chemical_formula_sum   'Y5 Ho3 Pd4'
_cell_volume   305.79484979
_cell_formula_units_Z   1
loop_
 _symmetry_equiv_pos_site_id
 _symmetry_equiv_pos_as_xyz
  1  'x, y, z'
loop_
 _atom_site_type_symbol
 _atom_site_label
 _atom_site_symmetry_multiplicity
 _atom_site_fract_x
 _atom_site_fract_y
 _atom_site_fract_z
 _atom_site_occupancy
  Y  Y0  1  0.750000  0.645014  0.419446  1
  Y  Y1  1  0.250000  0.986184  0.329153  1
  Y  Y2  1  0.250000  0.485043  0.170223  1
  Y  Y3  1  0.750000  0.015019  0.672481  1
  Y  Y4  1  0.750000  0.514776  0.828528  1
  Ho  Ho5  1  0.250000  0.856389  0.920110  1
  Ho  Ho6  1  0.250000  0.355594  0.580301  1
  Ho  Ho7  1  0.750000  0.143838  0.080119  1
  Pd  Pd8  1  0.250000  0.254808  0.905681  1
  Pd  Pd9  1  0.250000  0.755855  0.596020  1
  Pd  Pd10  1  0.750000  0.745429  0.092171  1
  Pd  Pd11  1  0.750000  0.242052  0.405768  1
