# generated using pymatgen
data_Ho7TmSe12
_symmetry_space_group_name_H-M   'P 1'
_cell_length_a   7.05019143
_cell_length_b   7.04470579
_cell_length_c   12.84859516
_cell_angle_alpha   100.66052583
_cell_angle_beta   100.67737358
_cell_angle_gamma   108.95817221
_symmetry_Int_Tables_number   1
_chemical_formula_structural   Ho7TmSe12
_chemical_formula_sum   'Ho7 Tm1 Se12'
_cell_volume   572.06955380
_cell_formula_units_Z   1
loop_
 _symmetry_equiv_pos_site_id
 _symmetry_equiv_pos_as_xyz
  1  'x, y, z'
loop_
 _atom_site_type_symbol
 _atom_site_label
 _atom_site_symmetry_multiplicity
 _atom_site_fract_x
 _atom_site_fract_y
 _atom_site_fract_z
 _atom_site_occupancy
  Ho  Ho0  1  0.622322  0.872313  0.244637  1
  Ho  Ho1  1  0.127538  0.377533  0.255083  1
  Ho  Ho2  1  0.208784  0.958780  0.417587  1
  Ho  Ho3  1  0.791180  0.041181  0.582349  1
  Ho  Ho4  1  0.872500  0.622508  0.745000  1
  Ho  Ho5  1  0.377703  0.127712  0.755431  1
  Ho  Ho6  1  0.958887  0.208890  0.917800  1
  Tm  Tm7  1  0.041284  0.791297  0.082571  1
  Se  Se8  1  0.804748  0.047449  0.087482  1
  Se  Se9  1  0.282879  0.540015  0.087484  1
  Se  Se10  1  0.366616  0.116680  0.249233  1
  Se  Se11  1  0.882594  0.632611  0.249200  1
  Se  Se12  1  0.951179  0.196351  0.412434  1
  Se  Se13  1  0.461201  0.715977  0.412414  1
  Se  Se14  1  0.538748  0.283963  0.587589  1
  Se  Se15  1  0.048869  0.803705  0.587567  1
  Se  Se16  1  0.117969  0.367866  0.750000  1
  Se  Se17  1  0.632042  0.882090  0.749965  1
  Se  Se18  1  0.717120  0.462466  0.913072  1
  Se  Se19  1  0.195838  0.950613  0.913099  1
