# generated using pymatgen
data_BeNi4P3Pd4
_symmetry_space_group_name_H-M   'P 1'
_cell_length_a   3.55153000
_cell_length_b   6.11788103
_cell_length_c   6.81021503
_cell_angle_alpha   88.92362220
_cell_angle_beta   90.00000000
_cell_angle_gamma   90.00000000
_symmetry_Int_Tables_number   1
_chemical_formula_structural   BeNi4P3Pd4
_chemical_formula_sum   'Be1 Ni4 P3 Pd4'
_cell_volume   147.94513839
_cell_formula_units_Z   1
loop_
 _symmetry_equiv_pos_site_id
 _symmetry_equiv_pos_as_xyz
  1  'x, y, z'
loop_
 _atom_site_type_symbol
 _atom_site_label
 _atom_site_symmetry_multiplicity
 _atom_site_fract_x
 _atom_site_fract_y
 _atom_site_fract_z
 _atom_site_occupancy
  Be  Be0  1  0.250000  0.769805  0.372444  1
  Ni  Ni1  1  0.250000  0.139910  0.430715  1
  Ni  Ni2  1  0.250000  0.628564  0.055974  1
  Ni  Ni3  1  0.750000  0.871508  0.574467  1
  Ni  Ni4  1  0.750000  0.358556  0.931745  1
  P  P5  1  0.250000  0.269068  0.130533  1
  P  P6  1  0.750000  0.232127  0.620009  1
  P  P7  1  0.750000  0.727288  0.870835  1
  Pd  Pd8  1  0.250000  0.035818  0.843534  1
  Pd  Pd9  1  0.250000  0.536208  0.658772  1
  Pd  Pd10  1  0.750000  0.945787  0.173754  1
  Pd  Pd11  1  0.750000  0.485362  0.337217  1
