# generated using pymatgen
data_Nd10PPb6
_symmetry_space_group_name_H-M   'P 1'
_cell_length_a   6.86212300
_cell_length_b   9.44955750
_cell_length_c   9.44965600
_cell_angle_alpha   119.99965867
_cell_angle_beta   89.99951572
_cell_angle_gamma   90.00098792
_symmetry_Int_Tables_number   1
_chemical_formula_structural   Nd10PPb6
_chemical_formula_sum   'Nd10 P1 Pb6'
_cell_volume   530.66212881
_cell_formula_units_Z   1
loop_
 _symmetry_equiv_pos_site_id
 _symmetry_equiv_pos_as_xyz
  1  'x, y, z'
loop_
 _atom_site_type_symbol
 _atom_site_label
 _atom_site_symmetry_multiplicity
 _atom_site_fract_x
 _atom_site_fract_y
 _atom_site_fract_z
 _atom_site_occupancy
  Nd  Nd0  1  0.500001  0.333339  0.666679  1
  Nd  Nd1  1  0.500001  0.666660  0.333321  1
  Nd  Nd2  1  0.000001  0.666666  0.333334  1
  Nd  Nd3  1  0.000001  0.333332  0.666666  1
  Nd  Nd4  1  0.743517  0.244473  0.000000  1
  Nd  Nd5  1  0.743512  0.755527  0.755529  1
  Nd  Nd6  1  0.743512  0.999998  0.244471  1
  Nd  Nd7  1  0.256489  0.755530  0.000000  1
  Nd  Nd8  1  0.256495  0.244473  0.244473  1
  Nd  Nd9  1  0.256495  0.000001  0.755527  1
  P  P10  1  0.500003  0.000001  0.000000  1
  Pb  Pb11  1  0.750157  0.606085  0.000000  1
  Pb  Pb12  1  0.750132  0.393936  0.393934  1
  Pb  Pb13  1  0.750132  0.000003  0.606066  1
  Pb  Pb14  1  0.249846  0.393920  0.000000  1
  Pb  Pb15  1  0.249854  0.606065  0.606066  1
  Pb  Pb16  1  0.249854  0.000000  0.393934  1
