# generated using pymatgen
data_La4(NdNi)3
_symmetry_space_group_name_H-M   'P 1'
_cell_length_a   6.42721900
_cell_length_b   9.94540568
_cell_length_c   9.94540500
_cell_angle_alpha   120.00343884
_cell_angle_beta   90.00000000
_cell_angle_gamma   90.00000000
_symmetry_Int_Tables_number   1
_chemical_formula_structural   La4(NdNi)3
_chemical_formula_sum   'La8 Nd6 Ni6'
_cell_volume   550.53337968
_cell_formula_units_Z   2
loop_
 _symmetry_equiv_pos_site_id
 _symmetry_equiv_pos_as_xyz
  1  'x, y, z'
loop_
 _atom_site_type_symbol
 _atom_site_label
 _atom_site_symmetry_multiplicity
 _atom_site_fract_x
 _atom_site_fract_y
 _atom_site_fract_z
 _atom_site_occupancy
  La  La0  1  0.466809  0.333346  0.666654  1
  La  La1  1  0.966809  0.666654  0.333346  1
  La  La2  1  0.246509  0.127061  0.872939  1
  La  La3  1  0.246538  0.745882  0.872933  1
  La  La4  1  0.246538  0.127067  0.254118  1
  La  La5  1  0.746509  0.872939  0.127061  1
  La  La6  1  0.746538  0.254118  0.127067  1
  La  La7  1  0.746538  0.872933  0.745882  1
  Nd  Nd8  1  0.436670  0.539232  0.460768  1
  Nd  Nd9  1  0.436688  0.921565  0.460812  1
  Nd  Nd10  1  0.436688  0.539188  0.078435  1
  Nd  Nd11  1  0.936670  0.460768  0.539232  1
  Nd  Nd12  1  0.936688  0.078435  0.539188  1
  Nd  Nd13  1  0.936688  0.460812  0.921565  1
  Ni  Ni14  1  0.192458  0.812339  0.187661  1
  Ni  Ni15  1  0.192050  0.375179  0.187608  1
  Ni  Ni16  1  0.192050  0.812392  0.624821  1
  Ni  Ni17  1  0.692458  0.187661  0.812339  1
  Ni  Ni18  1  0.692050  0.624821  0.812392  1
  Ni  Ni19  1  0.692050  0.187608  0.375179  1
