# generated using pymatgen
data_Dy4SnB4Ir9
_symmetry_space_group_name_H-M   'P 1'
_cell_length_a   10.92004075
_cell_length_b   10.92004030
_cell_length_c   10.92004118
_cell_angle_alpha   29.48146427
_cell_angle_beta   29.48146942
_cell_angle_gamma   29.48147650
_symmetry_Int_Tables_number   1
_chemical_formula_structural   Dy4SnB4Ir9
_chemical_formula_sum   'Dy4 Sn1 B4 Ir9'
_cell_volume   279.15758830
_cell_formula_units_Z   1
loop_
 _symmetry_equiv_pos_site_id
 _symmetry_equiv_pos_as_xyz
  1  'x, y, z'
loop_
 _atom_site_type_symbol
 _atom_site_label
 _atom_site_symmetry_multiplicity
 _atom_site_fract_x
 _atom_site_fract_y
 _atom_site_fract_z
 _atom_site_occupancy
  Dy  Dy0  1  0.148984  0.148984  0.148984  1
  Dy  Dy1  1  0.950930  0.950930  0.950930  1
  Dy  Dy2  1  0.851016  0.851016  0.851016  1
  Dy  Dy3  1  0.049070  0.049070  0.049070  1
  Sn  Sn4  1  0.500000  0.500000  0.500000  1
  B  B5  1  0.616547  0.616547  0.616547  1
  B  B6  1  0.716675  0.716675  0.716675  1
  B  B7  1  0.383453  0.383453  0.383453  1
  B  B8  1  0.283325  0.283325  0.283325  1
  Ir  Ir9  1  0.403466  0.906310  0.403466  1
  Ir  Ir10  1  0.906310  0.403466  0.403466  1
  Ir  Ir11  1  0.500000  0.500000  0.000000  1
  Ir  Ir12  1  0.500000  0.000000  0.500000  1
  Ir  Ir13  1  0.000000  0.500000  0.500000  1
  Ir  Ir14  1  0.596534  0.093690  0.596534  1
  Ir  Ir15  1  0.596534  0.596534  0.093690  1
  Ir  Ir16  1  0.093690  0.596534  0.596534  1
  Ir  Ir17  1  0.403466  0.403466  0.906310  1
