# generated using pymatgen
data_Tm8V11Si16Pt
_symmetry_space_group_name_H-M   'P 1'
_cell_length_a   6.78529129
_cell_length_b   6.78529105
_cell_length_c   12.54307935
_cell_angle_alpha   90.10180772
_cell_angle_beta   89.89819012
_cell_angle_gamma   89.55991515
_symmetry_Int_Tables_number   1
_chemical_formula_structural   Tm8V11Si16Pt
_chemical_formula_sum   'Tm8 V11 Si16 Pt1'
_cell_volume   577.46671174
_cell_formula_units_Z   1
loop_
 _symmetry_equiv_pos_site_id
 _symmetry_equiv_pos_as_xyz
  1  'x, y, z'
loop_
 _atom_site_type_symbol
 _atom_site_label
 _atom_site_symmetry_multiplicity
 _atom_site_fract_x
 _atom_site_fract_y
 _atom_site_fract_z
 _atom_site_occupancy
  Tm  Tm0  1  0.000100  0.662093  0.029606  1
  Tm  Tm1  1  0.836273  0.499050  0.280394  1
  Tm  Tm2  1  0.162530  0.499578  0.780318  1
  Tm  Tm3  1  0.499050  0.836273  0.719606  1
  Tm  Tm4  1  0.499578  0.162530  0.219682  1
  Tm  Tm5  1  0.000067  0.337444  0.530254  1
  Tm  Tm6  1  0.662093  0.000100  0.970394  1
  Tm  Tm7  1  0.337444  0.000067  0.469746  1
  V  V8  1  0.170249  0.832052  0.248901  1
  V  V9  1  0.832052  0.170249  0.751099  1
  V  V10  1  0.668775  0.668775  0.500000  1
  V  V11  1  0.001717  0.155946  0.126139  1
  V  V12  1  0.342966  0.506781  0.375121  1
  V  V13  1  0.665823  0.494025  0.874885  1
  V  V14  1  0.506781  0.342966  0.624879  1
  V  V15  1  0.494025  0.665823  0.125115  1
  V  V16  1  0.991361  0.841770  0.626036  1
  V  V17  1  0.155946  0.001717  0.873861  1
  V  V18  1  0.841770  0.991361  0.373964  1
  Si  Si19  1  0.283813  0.954336  0.064126  1
  Si  Si20  1  0.539251  0.789484  0.314767  1
  Si  Si21  1  0.462136  0.210400  0.811718  1
  Si  Si22  1  0.789484  0.539251  0.685233  1
  Si  Si23  1  0.210400  0.462136  0.188282  1
  Si  Si24  1  0.711137  0.040564  0.564411  1
  Si  Si25  1  0.954336  0.283813  0.935874  1
  Si  Si26  1  0.040564  0.711137  0.435589  1
  Si  Si27  1  0.706124  0.379038  0.067745  1
  Si  Si28  1  0.126199  0.199955  0.315821  1
  Si  Si29  1  0.873787  0.798818  0.815202  1
  Si  Si30  1  0.199955  0.126199  0.684179  1
  Si  Si31  1  0.798818  0.873787  0.184798  1
  Si  Si32  1  0.298118  0.625840  0.566220  1
  Si  Si33  1  0.379038  0.706124  0.932255  1
  Si  Si34  1  0.625840  0.298118  0.433780  1
  Pt  Pt35  1  0.332404  0.332404  0.000000  1
