# generated using pymatgen
data_Ho12GaNi4Sn
_symmetry_space_group_name_H-M   'P 1'
_cell_length_a   8.31659178
_cell_length_b   8.31659186
_cell_length_c   8.31659130
_cell_angle_alpha   112.71420834
_cell_angle_beta   109.82141903
_cell_angle_gamma   105.94864862
_symmetry_Int_Tables_number   1
_chemical_formula_structural   Ho12GaNi4Sn
_chemical_formula_sum   'Ho12 Ga1 Ni4 Sn1'
_cell_volume   441.26053793
_cell_formula_units_Z   1
loop_
 _symmetry_equiv_pos_site_id
 _symmetry_equiv_pos_as_xyz
  1  'x, y, z'
loop_
 _atom_site_type_symbol
 _atom_site_label
 _atom_site_symmetry_multiplicity
 _atom_site_fract_x
 _atom_site_fract_y
 _atom_site_fract_z
 _atom_site_occupancy
  Ho  Ho0  1  0.427887  0.229793  0.198093  1
  Ho  Ho1  1  0.572113  0.770207  0.801907  1
  Ho  Ho2  1  0.031700  0.229793  0.801907  1
  Ho  Ho3  1  0.968300  0.770207  0.198093  1
  Ho  Ho4  1  0.180775  0.286257  0.467032  1
  Ho  Ho5  1  0.819225  0.713743  0.532968  1
  Ho  Ho6  1  0.180775  0.713743  0.894519  1
  Ho  Ho7  1  0.819225  0.286257  0.105481  1
  Ho  Ho8  1  0.322745  0.631264  0.308519  1
  Ho  Ho9  1  0.677255  0.368736  0.691481  1
  Ho  Ho10  1  0.322745  0.014226  0.691481  1
  Ho  Ho11  1  0.677255  0.985774  0.308519  1
  Ga  Ga12  1  0.000000  0.000000  0.000000  1
  Ni  Ni13  1  0.351747  0.000000  0.351747  1
  Ni  Ni14  1  0.648253  0.000000  0.648253  1
  Ni  Ni15  1  0.121920  0.621920  0.500000  1
  Ni  Ni16  1  0.878080  0.378080  0.500000  1
  Sn  Sn17  1  0.500000  0.500000  0.000000  1
