# generated using pymatgen
data_Y8Lu12Si15Rh
_symmetry_space_group_name_H-M   'P 1'
_cell_length_a   7.25269100
_cell_length_b   7.65549333
_cell_length_c   14.33084800
_cell_angle_alpha   90.00000000
_cell_angle_beta   90.00000000
_cell_angle_gamma   90.01691445
_symmetry_Int_Tables_number   1
_chemical_formula_structural   Y8Lu12Si15Rh
_chemical_formula_sum   'Y8 Lu12 Si15 Rh1'
_cell_volume   795.69060129
_cell_formula_units_Z   1
loop_
 _symmetry_equiv_pos_site_id
 _symmetry_equiv_pos_as_xyz
  1  'x, y, z'
loop_
 _atom_site_type_symbol
 _atom_site_label
 _atom_site_symmetry_multiplicity
 _atom_site_fract_x
 _atom_site_fract_y
 _atom_site_fract_z
 _atom_site_occupancy
  Y  Y0  1  0.016217  0.181815  0.096552  1
  Y  Y1  1  0.986561  0.823680  0.905546  1
  Y  Y2  1  0.485535  0.677703  0.905282  1
  Y  Y3  1  0.986561  0.823680  0.594454  1
  Y  Y4  1  0.515499  0.321526  0.096124  1
  Y  Y5  1  0.016217  0.181815  0.403448  1
  Y  Y6  1  0.515499  0.321526  0.403876  1
  Y  Y7  1  0.485535  0.677703  0.594718  1
  Lu  Lu8  1  0.156855  0.513922  0.750000  1
  Lu  Lu9  1  0.840951  0.490664  0.250000  1
  Lu  Lu10  1  0.342379  0.011780  0.250000  1
  Lu  Lu11  1  0.666207  0.990400  0.750000  1
  Lu  Lu12  1  0.313439  0.172676  0.626801  1
  Lu  Lu13  1  0.675991  0.824912  0.374622  1
  Lu  Lu14  1  0.175032  0.679269  0.374939  1
  Lu  Lu15  1  0.675991  0.824912  0.125378  1
  Lu  Lu16  1  0.832835  0.317468  0.626164  1
  Lu  Lu17  1  0.313439  0.172676  0.873199  1
  Lu  Lu18  1  0.832835  0.317468  0.873836  1
  Lu  Lu19  1  0.175032  0.679269  0.125061  1
  Si  Si20  1  0.972984  0.892644  0.250000  1
  Si  Si21  1  0.472710  0.609471  0.250000  1
  Si  Si22  1  0.527457  0.392812  0.750000  1
  Si  Si23  1  0.281966  0.866489  0.750000  1
  Si  Si24  1  0.719182  0.132520  0.250000  1
  Si  Si25  1  0.219098  0.370509  0.250000  1
  Si  Si26  1  0.771860  0.624382  0.750000  1
  Si  Si27  1  0.157973  0.470922  0.537630  1
  Si  Si28  1  0.844401  0.533283  0.461882  1
  Si  Si29  1  0.345895  0.968830  0.460656  1
  Si  Si30  1  0.844401  0.533283  0.038118  1
  Si  Si31  1  0.652830  0.032214  0.538451  1
  Si  Si32  1  0.157973  0.470922  0.962370  1
  Si  Si33  1  0.652830  0.032214  0.961549  1
  Si  Si34  1  0.345895  0.968830  0.039344  1
  Rh  Rh35  1  0.023931  0.095808  0.750000  1
