# generated using pymatgen
data_Ho20Ir5Ru4Rh3
_symmetry_space_group_name_H-M   'P 1'
_cell_length_a   10.79822913
_cell_length_b   10.79822913
_cell_length_c   6.40697315
_cell_angle_alpha   90.01778030
_cell_angle_beta   90.01778030
_cell_angle_gamma   90.00009413
_symmetry_Int_Tables_number   1
_chemical_formula_structural   Ho20Ir5Ru4Rh3
_chemical_formula_sum   'Ho20 Ir5 Ru4 Rh3'
_cell_volume   747.06422506
_cell_formula_units_Z   1
loop_
 _symmetry_equiv_pos_site_id
 _symmetry_equiv_pos_as_xyz
  1  'x, y, z'
loop_
 _atom_site_type_symbol
 _atom_site_label
 _atom_site_symmetry_multiplicity
 _atom_site_fract_x
 _atom_site_fract_y
 _atom_site_fract_z
 _atom_site_occupancy
  Ho  Ho0  1  0.293754  0.086016  0.376468  1
  Ho  Ho1  1  0.293627  0.912195  0.877857  1
  Ho  Ho2  1  0.705632  0.087241  0.876992  1
  Ho  Ho3  1  0.705497  0.912648  0.376746  1
  Ho  Ho4  1  0.585806  0.793266  0.878114  1
  Ho  Ho5  1  0.585860  0.206713  0.377667  1
  Ho  Ho6  1  0.413213  0.793224  0.377425  1
  Ho  Ho7  1  0.414343  0.206726  0.877611  1
  Ho  Ho8  1  0.206734  0.414194  0.621886  1
  Ho  Ho9  1  0.206776  0.586787  0.122575  1
  Ho  Ho10  1  0.793287  0.414140  0.122333  1
  Ho  Ho11  1  0.793274  0.585657  0.622389  1
  Ho  Ho12  1  0.913984  0.706246  0.123532  1
  Ho  Ho13  1  0.912759  0.294368  0.623008  1
  Ho  Ho14  1  0.087805  0.706373  0.622143  1
  Ho  Ho15  1  0.087352  0.294503  0.123254  1
  Ho  Ho16  1  0.000223  0.999874  0.499704  1
  Ho  Ho17  1  0.000126  0.999777  0.000296  1
  Ho  Ho18  1  0.500104  0.500014  0.000009  1
  Ho  Ho19  1  0.499986  0.499896  0.499991  1
  Ir  Ir20  1  0.151876  0.848124  0.250000  1
  Ir  Ir21  1  0.652706  0.347294  0.750000  1
  Ir  Ir22  1  0.652628  0.652628  0.250141  1
  Ir  Ir23  1  0.347372  0.347372  0.249859  1
  Ir  Ir24  1  0.347509  0.652491  0.750000  1
  Ru  Ru25  1  0.500376  0.000394  0.122093  1
  Ru  Ru26  1  0.500394  0.000294  0.622457  1
  Ru  Ru27  1  0.999706  0.499606  0.877543  1
  Ru  Ru28  1  0.999606  0.499624  0.377907  1
  Rh  Rh29  1  0.848115  0.151885  0.250000  1
  Rh  Rh30  1  0.847641  0.848073  0.749850  1
  Rh  Rh31  1  0.151927  0.152359  0.750150  1
