# generated using pymatgen
data_Y12Re(Si4Ir)3
_symmetry_space_group_name_H-M   'P 1'
_cell_length_a   4.22845900
_cell_length_b   10.71253235
_cell_length_c   12.33625422
_cell_angle_alpha   90.08619164
_cell_angle_beta   90.00000000
_cell_angle_gamma   90.00000000
_symmetry_Int_Tables_number   1
_chemical_formula_structural   Y12Re(Si4Ir)3
_chemical_formula_sum   'Y12 Re1 Si12 Ir3'
_cell_volume   558.80089045
_cell_formula_units_Z   1
loop_
 _symmetry_equiv_pos_site_id
 _symmetry_equiv_pos_as_xyz
  1  'x, y, z'
loop_
 _atom_site_type_symbol
 _atom_site_label
 _atom_site_symmetry_multiplicity
 _atom_site_fract_x
 _atom_site_fract_y
 _atom_site_fract_z
 _atom_site_occupancy
  Y  Y0  1  0.250000  0.879005  0.020907  1
  Y  Y1  1  0.250000  0.620152  0.521796  1
  Y  Y2  1  0.750000  0.118786  0.979554  1
  Y  Y3  1  0.750000  0.379353  0.479555  1
  Y  Y4  1  0.250000  0.921277  0.603417  1
  Y  Y5  1  0.250000  0.580273  0.105489  1
  Y  Y6  1  0.750000  0.080011  0.394711  1
  Y  Y7  1  0.750000  0.420205  0.896126  1
  Y  Y8  1  0.250000  0.663770  0.799121  1
  Y  Y9  1  0.250000  0.839924  0.300546  1
  Y  Y10  1  0.750000  0.340514  0.198228  1
  Y  Y11  1  0.750000  0.158358  0.699662  1
  Re  Re12  1  0.250000  0.390595  0.680593  1
  Si  Si13  1  0.250000  0.009202  0.821724  1
  Si  Si14  1  0.250000  0.489363  0.322151  1
  Si  Si15  1  0.750000  0.989990  0.178399  1
  Si  Si16  1  0.750000  0.508456  0.680236  1
  Si  Si17  1  0.250000  0.247588  0.841289  1
  Si  Si18  1  0.250000  0.252449  0.340357  1
  Si  Si19  1  0.750000  0.752811  0.159152  1
  Si  Si20  1  0.750000  0.750436  0.657893  1
  Si  Si21  1  0.250000  0.202692  0.543371  1
  Si  Si22  1  0.250000  0.296137  0.043603  1
  Si  Si23  1  0.750000  0.798574  0.456124  1
  Si  Si24  1  0.750000  0.700194  0.956585  1
  Ir  Ir25  1  0.250000  0.109833  0.180755  1
  Ir  Ir26  1  0.750000  0.611140  0.318972  1
  Ir  Ir27  1  0.750000  0.888910  0.819685  1
