# generated using pymatgen
data_Tm2AlB2Ir4Ru
_symmetry_space_group_name_H-M   'P 1'
_cell_length_a   9.59245100
_cell_length_b   9.59245100
_cell_length_c   3.06556900
_cell_angle_alpha   90.00000000
_cell_angle_beta   90.00000000
_cell_angle_gamma   90.00000000
_symmetry_Int_Tables_number   1
_chemical_formula_structural   Tm2AlB2Ir4Ru
_chemical_formula_sum   'Tm4 Al2 B4 Ir8 Ru2'
_cell_volume   282.07868772
_cell_formula_units_Z   2
loop_
 _symmetry_equiv_pos_site_id
 _symmetry_equiv_pos_as_xyz
  1  'x, y, z'
loop_
 _atom_site_type_symbol
 _atom_site_label
 _atom_site_symmetry_multiplicity
 _atom_site_fract_x
 _atom_site_fract_y
 _atom_site_fract_z
 _atom_site_occupancy
  Tm  Tm0  1  0.174815  0.674815  0.000000  1
  Tm  Tm1  1  0.325185  0.174815  0.000000  1
  Tm  Tm2  1  0.674815  0.825185  0.000000  1
  Tm  Tm3  1  0.825185  0.325185  0.000000  1
  Al  Al4  1  0.000000  0.000000  0.000000  1
  Al  Al5  1  0.500000  0.500000  0.000000  1
  B  B6  1  0.121419  0.378581  0.000000  1
  B  B7  1  0.378581  0.878581  0.000000  1
  B  B8  1  0.621419  0.121419  0.000000  1
  B  B9  1  0.878581  0.621419  0.000000  1
  Ir  Ir10  1  0.069327  0.216848  0.500000  1
  Ir  Ir11  1  0.216848  0.930673  0.500000  1
  Ir  Ir12  1  0.283152  0.430673  0.500000  1
  Ir  Ir13  1  0.430673  0.716848  0.500000  1
  Ir  Ir14  1  0.569327  0.283152  0.500000  1
  Ir  Ir15  1  0.716848  0.569327  0.500000  1
  Ir  Ir16  1  0.783152  0.069327  0.500000  1
  Ir  Ir17  1  0.930673  0.783152  0.500000  1
  Ru  Ru18  1  0.000000  0.500000  0.500000  1
  Ru  Ru19  1  0.500000  0.000000  0.500000  1
