# generated using pymatgen
data_YSb5(ClO4)2
_symmetry_space_group_name_H-M   'P 1'
_cell_length_a   5.66089100
_cell_length_b   5.65005009
_cell_length_c   8.99823200
_cell_angle_alpha   87.29444486
_cell_angle_beta   90.00000000
_cell_angle_gamma   90.00000000
_symmetry_Int_Tables_number   1
_chemical_formula_structural   YSb5(ClO4)2
_chemical_formula_sum   'Y1 Sb5 Cl2 O8'
_cell_volume   287.48149889
_cell_formula_units_Z   1
loop_
 _symmetry_equiv_pos_site_id
 _symmetry_equiv_pos_as_xyz
  1  'x, y, z'
loop_
 _atom_site_type_symbol
 _atom_site_label
 _atom_site_symmetry_multiplicity
 _atom_site_fract_x
 _atom_site_fract_y
 _atom_site_fract_z
 _atom_site_occupancy
  Y  Y0  1  0.772056  0.750000  0.500000  1
  Sb  Sb1  1  0.691479  0.298965  0.789317  1
  Sb  Sb2  1  0.166299  0.250000  0.500000  1
  Sb  Sb3  1  0.691479  0.201035  0.210683  1
  Sb  Sb4  1  0.308445  0.694524  0.212029  1
  Sb  Sb5  1  0.308445  0.805476  0.787971  1
  Cl  Cl6  1  0.756494  0.750000  0.000000  1
  Cl  Cl7  1  0.255834  0.250000  0.000000  1
  O  O8  1  0.073256  0.914240  0.633525  1
  O  O9  1  0.073256  0.585760  0.366475  1
  O  O10  1  0.914838  0.092759  0.374502  1
  O  O11  1  0.914838  0.407241  0.625498  1
  O  O12  1  0.486130  0.551317  0.674548  1
  O  O13  1  0.550511  0.474794  0.320037  1
  O  O14  1  0.486130  0.948683  0.325452  1
  O  O15  1  0.550511  0.025206  0.679963  1
