# generated using pymatgen
data_Y2Lu3Sc3Au4
_symmetry_space_group_name_H-M   'P 1'
_cell_length_a   4.76742800
_cell_length_b   7.01025158
_cell_length_c   8.60400954
_cell_angle_alpha   90.01391395
_cell_angle_beta   90.00000000
_cell_angle_gamma   90.00000000
_symmetry_Int_Tables_number   1
_chemical_formula_structural   Y2Lu3Sc3Au4
_chemical_formula_sum   'Y2 Lu3 Sc3 Au4'
_cell_volume   287.55347310
_cell_formula_units_Z   1
loop_
 _symmetry_equiv_pos_site_id
 _symmetry_equiv_pos_as_xyz
  1  'x, y, z'
loop_
 _atom_site_type_symbol
 _atom_site_label
 _atom_site_symmetry_multiplicity
 _atom_site_fract_x
 _atom_site_fract_y
 _atom_site_fract_z
 _atom_site_occupancy
  Y  Y0  1  0.250000  0.478122  0.174047  1
  Y  Y1  1  0.250000  0.986830  0.321176  1
  Lu  Lu2  1  0.750000  0.646918  0.424167  1
  Lu  Lu3  1  0.750000  0.518162  0.822270  1
  Lu  Lu4  1  0.750000  0.021755  0.683680  1
  Sc  Sc5  1  0.250000  0.854310  0.923889  1
  Sc  Sc6  1  0.250000  0.354363  0.579766  1
  Sc  Sc7  1  0.750000  0.145952  0.073333  1
  Au  Au8  1  0.250000  0.243581  0.891723  1
  Au  Au9  1  0.250000  0.748536  0.610434  1
  Au  Au10  1  0.750000  0.753948  0.096267  1
  Au  Au11  1  0.750000  0.247525  0.399249  1
