# generated using pymatgen
data_TmTh2In2GaRh3
_symmetry_space_group_name_H-M   'P 1'
_cell_length_a   7.56295425
_cell_length_b   7.64438300
_cell_length_c   3.86658900
_cell_angle_alpha   90.00000000
_cell_angle_beta   90.00000000
_cell_angle_gamma   119.62288661
_symmetry_Int_Tables_number   1
_chemical_formula_structural   TmTh2In2GaRh3
_chemical_formula_sum   'Tm1 Th2 In2 Ga1 Rh3'
_cell_volume   194.32576285
_cell_formula_units_Z   1
loop_
 _symmetry_equiv_pos_site_id
 _symmetry_equiv_pos_as_xyz
  1  'x, y, z'
loop_
 _atom_site_type_symbol
 _atom_site_label
 _atom_site_symmetry_multiplicity
 _atom_site_fract_x
 _atom_site_fract_y
 _atom_site_fract_z
 _atom_site_occupancy
  Tm  Tm0  1  0.406023  0.012133  0.500000  1
  Th  Th1  1  0.007987  0.410918  0.500000  1
  Th  Th2  1  0.573206  0.568207  0.500000  1
  In  In3  1  0.010424  0.760537  0.000000  1
  In  In4  1  0.730967  0.994644  0.000000  1
  Ga  Ga5  1  0.251947  0.238733  0.000000  1
  Rh  Rh6  1  0.331489  0.643753  0.000000  1
  Rh  Rh7  1  0.016889  0.026401  0.500000  1
  Rh  Rh8  1  0.671068  0.344674  0.000000  1
