# generated using pymatgen
data_MoSeF34
_symmetry_space_group_name_H-M   'P 1'
_cell_length_a   8.76735067
_cell_length_b   8.54441152
_cell_length_c   10.08735381
_cell_angle_alpha   80.67771114
_cell_angle_beta   87.08111508
_cell_angle_gamma   66.53030136
_symmetry_Int_Tables_number   1
_chemical_formula_structural   MoSeF34
_chemical_formula_sum   'Mo1 Se1 F34'
_cell_volume   683.91536983
_cell_formula_units_Z   1
loop_
 _symmetry_equiv_pos_site_id
 _symmetry_equiv_pos_as_xyz
  1  'x, y, z'
loop_
 _atom_site_type_symbol
 _atom_site_label
 _atom_site_symmetry_multiplicity
 _atom_site_fract_x
 _atom_site_fract_y
 _atom_site_fract_z
 _atom_site_occupancy
  Mo  Mo0  1  0.131267  0.749373  0.242977  1
  Se  Se1  1  0.864810  0.248722  0.759991  1
  F  F2  1  0.619626  0.203172  0.473741  1
  F  F3  1  0.393540  0.783678  0.531331  1
  F  F4  1  0.826035  0.705406  0.716388  1
  F  F5  1  0.176485  0.293362  0.277618  1
  F  F6  1  0.094808  0.744543  0.862390  1
  F  F7  1  0.906764  0.252551  0.136072  1
  F  F8  1  0.561455  0.141126  0.371814  1
  F  F9  1  0.437243  0.863981  0.628501  1
  F  F10  1  0.661260  0.324219  0.700657  1
  F  F11  1  0.349052  0.670319  0.308681  1
  F  F12  1  0.923474  0.082096  0.665296  1
  F  F13  1  0.058556  0.924434  0.349220  1
  F  F14  1  0.909843  0.377327  0.625752  1
  F  F15  1  0.084021  0.607190  0.384986  1
  F  F16  1  0.855132  0.815978  0.605582  1
  F  F17  1  0.155954  0.181889  0.391983  1
  F  F18  1  0.807045  0.416060  0.854499  1
  F  F19  1  0.196085  0.570451  0.140060  1
  F  F20  1  0.218607  0.686633  0.764254  1
  F  F21  1  0.784914  0.314511  0.234769  1
  F  F22  1  0.917197  0.828568  0.170286  1
  F  F23  1  0.067105  0.173394  0.821322  1
  F  F24  1  0.818407  0.119431  0.893701  1
  F  F25  1  0.183210  0.893219  0.104581  1
  F  F26  1  0.494581  0.590131  0.990134  1
  F  F27  1  0.508104  0.416050  0.008238  1
  F  F28  1  0.445389  0.097216  0.865282  1
  F  F29  1  0.547560  0.911919  0.131778  1
  F  F30  1  0.287895  0.269810  0.599516  1
  F  F31  1  0.713150  0.732053  0.396401  1
  F  F32  1  0.260659  0.405027  0.676165  1
  F  F33  1  0.745105  0.594950  0.320751  1
  F  F34  1  0.556377  0.934994  0.831159  1
  F  F35  1  0.439282  0.076220  0.164129  1
