# generated using pymatgen
data_Tb8Y11TmSn16
_symmetry_space_group_name_H-M   'P 1'
_cell_length_a   8.04983903
_cell_length_b   8.19891465
_cell_length_c   15.50223400
_cell_angle_alpha   90.00000000
_cell_angle_beta   90.00000000
_cell_angle_gamma   89.95858848
_symmetry_Int_Tables_number   1
_chemical_formula_structural   Tb8Y11TmSn16
_chemical_formula_sum   'Tb8 Y11 Tm1 Sn16'
_cell_volume   1023.14629496
_cell_formula_units_Z   1
loop_
 _symmetry_equiv_pos_site_id
 _symmetry_equiv_pos_as_xyz
  1  'x, y, z'
loop_
 _atom_site_type_symbol
 _atom_site_label
 _atom_site_symmetry_multiplicity
 _atom_site_fract_x
 _atom_site_fract_y
 _atom_site_fract_z
 _atom_site_occupancy
  Tb  Tb0  1  0.519903  0.320668  0.901992  1
  Tb  Tb1  1  0.020364  0.179970  0.598018  1
  Tb  Tb2  1  0.479971  0.679713  0.402458  1
  Tb  Tb3  1  0.979875  0.820204  0.097731  1
  Tb  Tb4  1  0.479971  0.679713  0.097542  1
  Tb  Tb5  1  0.979875  0.820204  0.402269  1
  Tb  Tb6  1  0.519903  0.320668  0.598008  1
  Tb  Tb7  1  0.020364  0.179970  0.901982  1
  Y  Y8  1  0.367067  0.836137  0.877856  1
  Y  Y9  1  0.867830  0.663308  0.622105  1
  Y  Y10  1  0.632619  0.163704  0.378260  1
  Y  Y11  1  0.132645  0.336322  0.121406  1
  Y  Y12  1  0.632619  0.163704  0.121740  1
  Y  Y13  1  0.132645  0.336322  0.378594  1
  Y  Y14  1  0.367067  0.836137  0.622144  1
  Y  Y15  1  0.867830  0.663308  0.877895  1
  Y  Y16  1  0.698642  0.998014  0.750000  1
  Y  Y17  1  0.801041  0.497680  0.250000  1
  Y  Y18  1  0.301012  0.002234  0.250000  1
  Tm  Tm19  1  0.199250  0.502594  0.750000  1
  Sn  Sn20  1  0.292641  0.035296  0.041666  1
  Sn  Sn21  1  0.792442  0.464320  0.458357  1
  Sn  Sn22  1  0.707368  0.964455  0.542059  1
  Sn  Sn23  1  0.207444  0.535268  0.957284  1
  Sn  Sn24  1  0.707368  0.964455  0.957941  1
  Sn  Sn25  1  0.207444  0.535268  0.542716  1
  Sn  Sn26  1  0.292641  0.035296  0.458334  1
  Sn  Sn27  1  0.792442  0.464320  0.041643  1
  Sn  Sn28  1  0.564200  0.618273  0.750000  1
  Sn  Sn29  1  0.065536  0.880506  0.750000  1
  Sn  Sn30  1  0.434517  0.381367  0.250000  1
  Sn  Sn31  1  0.934700  0.118733  0.250000  1
  Sn  Sn32  1  0.328039  0.148206  0.750000  1
  Sn  Sn33  1  0.829421  0.354083  0.750000  1
  Sn  Sn34  1  0.671521  0.853852  0.250000  1
  Sn  Sn35  1  0.171783  0.645729  0.250000  1
