# generated using pymatgen
data_RbEr2TmSe5
_symmetry_space_group_name_H-M   'P 1'
_cell_length_a   4.09659100
_cell_length_b   12.49970100
_cell_length_c   21.80659700
_cell_angle_alpha   90.00000000
_cell_angle_beta   90.00000000
_cell_angle_gamma   90.00000000
_symmetry_Int_Tables_number   1
_chemical_formula_structural   RbEr2TmSe5
_chemical_formula_sum   'Rb4 Er8 Tm4 Se20'
_cell_volume   1116.63215216
_cell_formula_units_Z   4
loop_
 _symmetry_equiv_pos_site_id
 _symmetry_equiv_pos_as_xyz
  1  'x, y, z'
loop_
 _atom_site_type_symbol
 _atom_site_label
 _atom_site_symmetry_multiplicity
 _atom_site_fract_x
 _atom_site_fract_y
 _atom_site_fract_z
 _atom_site_occupancy
  Rb  Rb0  1  0.250000  0.845262  0.096267  1
  Rb  Rb1  1  0.750000  0.154738  0.903733  1
  Rb  Rb2  1  0.750000  0.345262  0.403733  1
  Rb  Rb3  1  0.250000  0.654738  0.596267  1
  Er  Er4  1  0.750000  0.800045  0.828680  1
  Er  Er5  1  0.250000  0.199955  0.171320  1
  Er  Er6  1  0.250000  0.300045  0.671320  1
  Er  Er7  1  0.750000  0.699955  0.328680  1
  Er  Er8  1  0.250000  0.960016  0.699804  1
  Er  Er9  1  0.750000  0.039984  0.300196  1
  Er  Er10  1  0.750000  0.460016  0.800196  1
  Er  Er11  1  0.250000  0.539984  0.199804  1
  Tm  Tm12  1  0.750000  0.392486  0.053200  1
  Tm  Tm13  1  0.250000  0.607514  0.946800  1
  Tm  Tm14  1  0.250000  0.892486  0.446800  1
  Tm  Tm15  1  0.750000  0.107514  0.553200  1
  Se  Se16  1  0.250000  0.949508  0.570026  1
  Se  Se17  1  0.750000  0.050492  0.429974  1
  Se  Se18  1  0.750000  0.449508  0.929974  1
  Se  Se19  1  0.250000  0.550492  0.070026  1
  Se  Se20  1  0.750000  0.761653  0.956623  1
  Se  Se21  1  0.250000  0.238347  0.043377  1
  Se  Se22  1  0.250000  0.261653  0.543377  1
  Se  Se23  1  0.750000  0.738347  0.456623  1
  Se  Se24  1  0.250000  0.953008  0.829754  1
  Se  Se25  1  0.750000  0.046992  0.170246  1
  Se  Se26  1  0.750000  0.453008  0.670246  1
  Se  Se27  1  0.250000  0.546992  0.329754  1
  Se  Se28  1  0.750000  0.128937  0.684586  1
  Se  Se29  1  0.250000  0.871063  0.315414  1
  Se  Se30  1  0.250000  0.628937  0.815414  1
  Se  Se31  1  0.750000  0.371063  0.184586  1
  Se  Se32  1  0.750000  0.691101  0.199132  1
  Se  Se33  1  0.250000  0.308899  0.800868  1
  Se  Se34  1  0.250000  0.191101  0.300868  1
  Se  Se35  1  0.750000  0.808899  0.699132  1
