# generated using pymatgen
data_Ho4Ga3SiPd8
_symmetry_space_group_name_H-M   'P 1'
_cell_length_a   5.58851131
_cell_length_b   7.15376100
_cell_length_c   7.31737776
_cell_angle_alpha   90.00000000
_cell_angle_beta   90.40043831
_cell_angle_gamma   90.00000000
_symmetry_Int_Tables_number   1
_chemical_formula_structural   Ho4Ga3SiPd8
_chemical_formula_sum   'Ho4 Ga3 Si1 Pd8'
_cell_volume   292.53338047
_cell_formula_units_Z   1
loop_
 _symmetry_equiv_pos_site_id
 _symmetry_equiv_pos_as_xyz
  1  'x, y, z'
loop_
 _atom_site_type_symbol
 _atom_site_label
 _atom_site_symmetry_multiplicity
 _atom_site_fract_x
 _atom_site_fract_y
 _atom_site_fract_z
 _atom_site_occupancy
  Ho  Ho0  1  0.357916  0.750000  0.027300  1
  Ho  Ho1  1  0.146925  0.750000  0.528211  1
  Ho  Ho2  1  0.639490  0.250000  0.972715  1
  Ho  Ho3  1  0.851849  0.250000  0.470964  1
  Ga  Ga4  1  0.641831  0.750000  0.381380  1
  Ga  Ga5  1  0.859710  0.750000  0.883698  1
  Ga  Ga6  1  0.356489  0.250000  0.614215  1
  Si  Si7  1  0.136674  0.250000  0.119195  1
  Pd  Pd8  1  0.915202  0.547948  0.183853  1
  Pd  Pd9  1  0.590174  0.949813  0.681589  1
  Pd  Pd10  1  0.095092  0.053986  0.824969  1
  Pd  Pd11  1  0.404090  0.446175  0.310750  1
  Pd  Pd12  1  0.095092  0.446014  0.824969  1
  Pd  Pd13  1  0.404090  0.053825  0.310750  1
  Pd  Pd14  1  0.915202  0.952052  0.183853  1
  Pd  Pd15  1  0.590174  0.550187  0.681589  1
