# generated using pymatgen
data_Dy11Er5(AlCo)4
_symmetry_space_group_name_H-M   'P 1'
_cell_length_a   9.37530114
_cell_length_b   9.37530070
_cell_length_c   9.37761500
_cell_angle_alpha   59.99183743
_cell_angle_beta   59.99183898
_cell_angle_gamma   59.97505855
_symmetry_Int_Tables_number   1
_chemical_formula_structural   Dy11Er5(AlCo)4
_chemical_formula_sum   'Dy11 Er5 Al4 Co4'
_cell_volume   582.65615175
_cell_formula_units_Z   1
loop_
 _symmetry_equiv_pos_site_id
 _symmetry_equiv_pos_as_xyz
  1  'x, y, z'
loop_
 _atom_site_type_symbol
 _atom_site_label
 _atom_site_symmetry_multiplicity
 _atom_site_fract_x
 _atom_site_fract_y
 _atom_site_fract_z
 _atom_site_occupancy
  Dy  Dy0  1  0.808605  0.808605  0.191395  1
  Dy  Dy1  1  0.938307  0.561599  0.562186  1
  Dy  Dy2  1  0.561599  0.938307  0.937908  1
  Dy  Dy3  1  0.561599  0.938307  0.562186  1
  Dy  Dy4  1  0.938307  0.561599  0.937908  1
  Dy  Dy5  1  0.561741  0.561741  0.938259  1
  Dy  Dy6  1  0.937879  0.937879  0.562121  1
  Dy  Dy7  1  0.349388  0.349388  0.349566  1
  Dy  Dy8  1  0.349388  0.349388  0.951658  1
  Dy  Dy9  1  0.348838  0.951969  0.349596  1
  Dy  Dy10  1  0.951969  0.348838  0.349596  1
  Er  Er11  1  0.808524  0.192096  0.191430  1
  Er  Er12  1  0.192096  0.808524  0.807950  1
  Er  Er13  1  0.192096  0.808524  0.191430  1
  Er  Er14  1  0.808524  0.192096  0.807950  1
  Er  Er15  1  0.191610  0.191610  0.808390  1
  Al  Al16  1  0.576942  0.576942  0.577344  1
  Al  Al17  1  0.576942  0.576942  0.268770  1
  Al  Al18  1  0.577049  0.268706  0.577122  1
  Al  Al19  1  0.268706  0.577049  0.577122  1
  Co  Co20  1  0.140141  0.140141  0.140305  1
  Co  Co21  1  0.140141  0.140141  0.579412  1
  Co  Co22  1  0.140532  0.579073  0.140197  1
  Co  Co23  1  0.579073  0.140532  0.140197  1
