# generated using pymatgen
data_CaTcBr6
_symmetry_space_group_name_H-M   'P 1'
_cell_length_a   7.03891502
_cell_length_b   7.05209856
_cell_length_c   7.78494097
_cell_angle_alpha   89.97895511
_cell_angle_beta   116.19753953
_cell_angle_gamma   119.87178287
_symmetry_Int_Tables_number   1
_chemical_formula_structural   CaTcBr6
_chemical_formula_sum   'Ca1 Tc1 Br6'
_cell_volume   288.46048617
_cell_formula_units_Z   1
loop_
 _symmetry_equiv_pos_site_id
 _symmetry_equiv_pos_as_xyz
  1  'x, y, z'
loop_
 _atom_site_type_symbol
 _atom_site_label
 _atom_site_symmetry_multiplicity
 _atom_site_fract_x
 _atom_site_fract_y
 _atom_site_fract_z
 _atom_site_occupancy
  Ca  Ca0  1  0.239413  0.620959  0.859479  1
  Tc  Tc1  1  0.579956  0.289994  0.870007  1
  Br  Br2  1  0.442232  0.065996  0.094908  1
  Br  Br3  1  0.139212  0.211646  0.647342  1
  Br  Br4  1  0.720768  0.509369  0.643784  1
  Br  Br5  1  0.440525  0.928502  0.646398  1
  Br  Br6  1  0.713652  0.648174  0.092421  1
  Br  Br7  1  0.023244  0.374861  0.094161  1
