# generated using pymatgen
data_LuAsI18
_symmetry_space_group_name_H-M   'P 1'
_cell_length_a   10.26959835
_cell_length_b   10.28861301
_cell_length_c   10.27711228
_cell_angle_alpha   89.02186322
_cell_angle_beta   89.13066816
_cell_angle_gamma   88.98653456
_symmetry_Int_Tables_number   1
_chemical_formula_structural   LuAsI18
_chemical_formula_sum   'Lu1 As1 I18'
_cell_volume   1085.43071903
_cell_formula_units_Z   1
loop_
 _symmetry_equiv_pos_site_id
 _symmetry_equiv_pos_as_xyz
  1  'x, y, z'
loop_
 _atom_site_type_symbol
 _atom_site_label
 _atom_site_symmetry_multiplicity
 _atom_site_fract_x
 _atom_site_fract_y
 _atom_site_fract_z
 _atom_site_occupancy
  Lu  Lu0  1  0.000000  0.000000  0.000000  1
  As  As1  1  0.500000  0.500000  0.500000  1
  I  I2  1  0.781232  0.466107  0.504072  1
  I  I3  1  0.502930  0.780623  0.465698  1
  I  I4  1  0.466092  0.503788  0.781005  1
  I  I5  1  0.218768  0.533893  0.495928  1
  I  I6  1  0.497070  0.219377  0.534302  1
  I  I7  1  0.533908  0.496212  0.218995  1
  I  I8  1  0.893295  0.375831  0.749399  1
  I  I9  1  0.748017  0.892093  0.375621  1
  I  I10  1  0.375891  0.748536  0.893250  1
  I  I11  1  0.106705  0.624169  0.250601  1
  I  I12  1  0.251983  0.107907  0.624379  1
  I  I13  1  0.624109  0.251464  0.106750  1
  I  I14  1  0.012049  0.973439  0.710144  1
  I  I15  1  0.710118  0.012178  0.971631  1
  I  I16  1  0.971960  0.710698  0.010645  1
  I  I17  1  0.987951  0.026561  0.289856  1
  I  I18  1  0.289882  0.987822  0.028369  1
  I  I19  1  0.028040  0.289302  0.989355  1
