# generated using pymatgen
data_SrYb3Sb2
_symmetry_space_group_name_H-M   'P 1'
_cell_length_a   4.81427925
_cell_length_b   4.81427965
_cell_length_c   9.16501120
_cell_angle_alpha   105.22703570
_cell_angle_beta   105.22704020
_cell_angle_gamma   90.00000091
_symmetry_Int_Tables_number   1
_chemical_formula_structural   SrYb3Sb2
_chemical_formula_sum   'Sr1 Yb3 Sb2'
_cell_volume   197.22329692
_cell_formula_units_Z   1
loop_
 _symmetry_equiv_pos_site_id
 _symmetry_equiv_pos_as_xyz
  1  'x, y, z'
loop_
 _atom_site_type_symbol
 _atom_site_label
 _atom_site_symmetry_multiplicity
 _atom_site_fract_x
 _atom_site_fract_y
 _atom_site_fract_z
 _atom_site_occupancy
  Sr  Sr0  1  0.323956  0.323956  0.647912  1
  Yb  Yb1  1  0.502101  0.002102  0.004203  1
  Yb  Yb2  1  0.002102  0.502101  0.004203  1
  Yb  Yb3  1  0.673259  0.673259  0.346518  1
  Sb  Sb4  1  0.132092  0.132092  0.264184  1
  Sb  Sb5  1  0.866488  0.866488  0.732979  1
