# generated using pymatgen
data_Sr4CuH12Rh
_symmetry_space_group_name_H-M   'P 1'
_cell_length_a   7.59078483
_cell_length_b   7.59078349
_cell_length_c   5.49982408
_cell_angle_alpha   90.08676725
_cell_angle_beta   90.08677584
_cell_angle_gamma   137.54688876
_symmetry_Int_Tables_number   1
_chemical_formula_structural   Sr4CuH12Rh
_chemical_formula_sum   'Sr4 Cu1 H12 Rh1'
_cell_volume   213.90131227
_cell_formula_units_Z   1
loop_
 _symmetry_equiv_pos_site_id
 _symmetry_equiv_pos_as_xyz
  1  'x, y, z'
loop_
 _atom_site_type_symbol
 _atom_site_label
 _atom_site_symmetry_multiplicity
 _atom_site_fract_x
 _atom_site_fract_y
 _atom_site_fract_z
 _atom_site_occupancy
  Sr  Sr0  1  0.147246  0.852754  0.500000  1
  Sr  Sr1  1  0.646527  0.353473  0.000000  1
  Sr  Sr2  1  0.852754  0.147246  0.500000  1
  Sr  Sr3  1  0.353473  0.646527  0.000000  1
  Cu  Cu4  1  0.000000  0.000000  0.000000  1
  H  H5  1  0.999592  0.500343  0.751819  1
  H  H6  1  0.499657  0.000408  0.248181  1
  H  H7  1  0.000408  0.499657  0.248181  1
  H  H8  1  0.500343  0.999592  0.751819  1
  H  H9  1  0.381378  0.618622  0.500000  1
  H  H10  1  0.888342  0.111658  0.000000  1
  H  H11  1  0.618622  0.381378  0.500000  1
  H  H12  1  0.111658  0.888342  0.000000  1
  H  H13  1  0.280144  0.280144  0.719804  1
  H  H14  1  0.719856  0.719856  0.280196  1
  H  H15  1  0.278514  0.278514  0.278966  1
  H  H16  1  0.721486  0.721486  0.721034  1
  Rh  Rh17  1  0.500000  0.500000  0.500000  1
