# generated using pymatgen
data_TbTh3(ZnRu)4
_symmetry_space_group_name_H-M   'P 1'
_cell_length_a   4.00938300
_cell_length_b   7.03851486
_cell_length_c   8.43559010
_cell_angle_alpha   90.49763119
_cell_angle_beta   90.00000000
_cell_angle_gamma   90.00000000
_symmetry_Int_Tables_number   1
_chemical_formula_structural   TbTh3(ZnRu)4
_chemical_formula_sum   'Tb1 Th3 Zn4 Ru4'
_cell_volume   238.04423293
_cell_formula_units_Z   1
loop_
 _symmetry_equiv_pos_site_id
 _symmetry_equiv_pos_as_xyz
  1  'x, y, z'
loop_
 _atom_site_type_symbol
 _atom_site_label
 _atom_site_symmetry_multiplicity
 _atom_site_fract_x
 _atom_site_fract_y
 _atom_site_fract_z
 _atom_site_occupancy
  Tb  Tb0  1  0.750000  0.959365  0.685386  1
  Th  Th1  1  0.250000  0.535809  0.184258  1
  Th  Th2  1  0.750000  0.459053  0.812453  1
  Th  Th3  1  0.250000  0.040886  0.320876  1
  Zn  Zn4  1  0.250000  0.118488  0.938243  1
  Zn  Zn5  1  0.750000  0.872047  0.051009  1
  Zn  Zn6  1  0.250000  0.641105  0.555245  1
  Zn  Zn7  1  0.750000  0.373940  0.446434  1
  Ru  Ru8  1  0.750000  0.758851  0.363523  1
  Ru  Ru9  1  0.250000  0.258333  0.635021  1
  Ru  Ru10  1  0.750000  0.252091  0.133701  1
  Ru  Ru11  1  0.250000  0.730031  0.873852  1
