# generated using pymatgen
data_Cs2PrBr5
_symmetry_space_group_name_H-M   'P 1'
_cell_length_a   9.22686300
_cell_length_b   9.55877900
_cell_length_c   14.74220900
_cell_angle_alpha   90.00000000
_cell_angle_beta   90.00000000
_cell_angle_gamma   90.00000000
_symmetry_Int_Tables_number   1
_chemical_formula_structural   Cs2PrBr5
_chemical_formula_sum   'Cs8 Pr4 Br20'
_cell_volume   1300.22663107
_cell_formula_units_Z   4
loop_
 _symmetry_equiv_pos_site_id
 _symmetry_equiv_pos_as_xyz
  1  'x, y, z'
loop_
 _atom_site_type_symbol
 _atom_site_label
 _atom_site_symmetry_multiplicity
 _atom_site_fract_x
 _atom_site_fract_y
 _atom_site_fract_z
 _atom_site_occupancy
  Cs  Cs0  1  0.945465  0.004117  0.828054  1
  Cs  Cs1  1  0.054535  0.995883  0.171946  1
  Cs  Cs2  1  0.445465  0.995883  0.671946  1
  Cs  Cs3  1  0.054535  0.504117  0.171946  1
  Cs  Cs4  1  0.554535  0.004117  0.328054  1
  Cs  Cs5  1  0.945465  0.495883  0.828054  1
  Cs  Cs6  1  0.554535  0.495883  0.328054  1
  Cs  Cs7  1  0.445465  0.504117  0.671946  1
  Pr  Pr8  1  0.930818  0.750000  0.503500  1
  Pr  Pr9  1  0.069182  0.250000  0.496500  1
  Pr  Pr10  1  0.430818  0.250000  0.996500  1
  Pr  Pr11  1  0.569182  0.750000  0.003500  1
  Br  Br12  1  0.113512  0.750000  0.668828  1
  Br  Br13  1  0.886488  0.250000  0.331172  1
  Br  Br14  1  0.613512  0.250000  0.831172  1
  Br  Br15  1  0.386488  0.750000  0.168828  1
  Br  Br16  1  0.843386  0.042921  0.569611  1
  Br  Br17  1  0.156614  0.957079  0.430389  1
  Br  Br18  1  0.343386  0.957079  0.930389  1
  Br  Br19  1  0.156614  0.542921  0.430389  1
  Br  Br20  1  0.656614  0.042921  0.069611  1
  Br  Br21  1  0.843386  0.457079  0.569611  1
  Br  Br22  1  0.656614  0.457079  0.069611  1
  Br  Br23  1  0.343386  0.542921  0.930389  1
  Br  Br24  1  0.606054  0.750000  0.512949  1
  Br  Br25  1  0.393946  0.250000  0.487051  1
  Br  Br26  1  0.106054  0.250000  0.987051  1
  Br  Br27  1  0.893946  0.750000  0.012949  1
  Br  Br28  1  0.649927  0.750000  0.809392  1
  Br  Br29  1  0.350073  0.250000  0.190608  1
  Br  Br30  1  0.149927  0.250000  0.690608  1
  Br  Br31  1  0.850073  0.750000  0.309392  1
