# generated using pymatgen
data_Nd3Ho3Nb2(Co4P3)4
_symmetry_space_group_name_H-M   'P 1'
_cell_length_a   3.74094000
_cell_length_b   10.69586560
_cell_length_c   12.41793068
_cell_angle_alpha   89.96186741
_cell_angle_beta   90.00000000
_cell_angle_gamma   90.00000000
_symmetry_Int_Tables_number   1
_chemical_formula_structural   Nd3Ho3Nb2(Co4P3)4
_chemical_formula_sum   'Nd3 Ho3 Nb2 Co16 P12'
_cell_volume   496.87347695
_cell_formula_units_Z   1
loop_
 _symmetry_equiv_pos_site_id
 _symmetry_equiv_pos_as_xyz
  1  'x, y, z'
loop_
 _atom_site_type_symbol
 _atom_site_label
 _atom_site_symmetry_multiplicity
 _atom_site_fract_x
 _atom_site_fract_y
 _atom_site_fract_z
 _atom_site_occupancy
  Nd  Nd0  1  0.000000  0.500516  0.526556  1
  Nd  Nd1  1  0.500000  0.999846  0.472690  1
  Nd  Nd2  1  0.000000  0.320255  0.794459  1
  Ho  Ho3  1  0.500000  0.820008  0.204942  1
  Ho  Ho4  1  0.500000  0.179669  0.203343  1
  Ho  Ho5  1  0.000000  0.681079  0.796089  1
  Nb  Nb6  1  0.500000  0.500390  0.155111  1
  Nb  Nb7  1  0.000000  0.999003  0.845734  1
  Co  Co8  1  0.500000  0.504184  0.705046  1
  Co  Co9  1  0.000000  0.999142  0.294258  1
  Co  Co10  1  0.000000  0.501830  0.987535  1
  Co  Co11  1  0.500000  0.998485  0.015532  1
  Co  Co12  1  0.500000  0.332374  0.993779  1
  Co  Co13  1  0.500000  0.669370  0.993028  1
  Co  Co14  1  0.000000  0.166582  0.010256  1
  Co  Co15  1  0.000000  0.832001  0.009455  1
  Co  Co16  1  0.500000  0.294626  0.428642  1
  Co  Co17  1  0.500000  0.705441  0.431170  1
  Co  Co18  1  0.000000  0.204413  0.565560  1
  Co  Co19  1  0.000000  0.795387  0.568902  1
  Co  Co20  1  0.500000  0.877202  0.707613  1
  Co  Co21  1  0.500000  0.119508  0.704262  1
  Co  Co22  1  0.000000  0.622210  0.293235  1
  Co  Co23  1  0.000000  0.377374  0.291710  1
  P  P24  1  0.500000  0.503279  0.885251  1
  P  P25  1  0.000000  0.999045  0.117624  1
  P  P26  1  0.500000  0.499896  0.351269  1
  P  P27  1  0.000000  0.000168  0.648423  1
  P  P28  1  0.500000  0.306272  0.612376  1
  P  P29  1  0.500000  0.693174  0.617248  1
  P  P30  1  0.000000  0.191470  0.380722  1
  P  P31  1  0.000000  0.807618  0.382965  1
  P  P32  1  0.500000  0.841198  0.894270  1
  P  P33  1  0.500000  0.156159  0.897065  1
  P  P34  1  0.000000  0.659325  0.107652  1
  P  P35  1  0.000000  0.341503  0.106225  1
