# generated using pymatgen
data_Ho4MnCo(Si5Ir2)2
_symmetry_space_group_name_H-M   'P 1'
_cell_length_a   8.01363231
_cell_length_b   8.00489553
_cell_length_c   8.17783706
_cell_angle_alpha   138.87533849
_cell_angle_beta   106.93296309
_cell_angle_gamma   86.08637713
_symmetry_Int_Tables_number   1
_chemical_formula_structural   Ho4MnCo(Si5Ir2)2
_chemical_formula_sum   'Ho4 Mn1 Co1 Si10 Ir4'
_cell_volume   320.40244062
_cell_formula_units_Z   1
loop_
 _symmetry_equiv_pos_site_id
 _symmetry_equiv_pos_as_xyz
  1  'x, y, z'
loop_
 _atom_site_type_symbol
 _atom_site_label
 _atom_site_symmetry_multiplicity
 _atom_site_fract_x
 _atom_site_fract_y
 _atom_site_fract_z
 _atom_site_occupancy
  Ho  Ho0  1  0.600794  0.872370  0.743987  1
  Ho  Ho1  1  0.132086  0.356398  0.758529  1
  Ho  Ho2  1  0.868857  0.643098  0.242792  1
  Ho  Ho3  1  0.400239  0.124614  0.256718  1
  Mn  Mn4  1  0.003716  0.255450  0.248200  1
  Co  Co5  1  0.740266  0.171845  0.631220  1
  Si  Si6  1  0.776187  0.034229  0.264840  1
  Si  Si7  1  0.221804  0.975114  0.749891  1
  Si  Si8  1  0.790531  0.520442  0.735708  1
  Si  Si9  1  0.932064  0.112627  0.843062  1
  Si  Si10  1  0.059326  0.916036  0.172088  1
  Si  Si11  1  0.492753  0.229789  0.743042  1
  Si  Si12  1  0.524057  0.782660  0.270566  1
  Si  Si13  1  0.741357  0.387004  0.325833  1
  Si  Si14  1  0.258037  0.586352  0.647887  1
  Si  Si15  1  0.203103  0.451014  0.244777  1
  Ir  Ir16  1  0.994311  0.747460  0.748930  1
  Ir  Ir17  1  0.256672  0.827505  0.366635  1
  Ir  Ir18  1  0.543149  0.615496  0.874797  1
  Ir  Ir19  1  0.460687  0.390499  0.130497  1
