# generated using pymatgen
data_Na2Li4Mg(PN3)2
_symmetry_space_group_name_H-M   'P 1'
_cell_length_a   5.62702538
_cell_length_b   5.62702582
_cell_length_c   5.65075377
_cell_angle_alpha   87.72873631
_cell_angle_beta   87.72872940
_cell_angle_gamma   119.86659431
_symmetry_Int_Tables_number   1
_chemical_formula_structural   Na2Li4Mg(PN3)2
_chemical_formula_sum   'Na2 Li4 Mg1 P2 N6'
_cell_volume   154.67283940
_cell_formula_units_Z   1
loop_
 _symmetry_equiv_pos_site_id
 _symmetry_equiv_pos_as_xyz
  1  'x, y, z'
loop_
 _atom_site_type_symbol
 _atom_site_label
 _atom_site_symmetry_multiplicity
 _atom_site_fract_x
 _atom_site_fract_y
 _atom_site_fract_z
 _atom_site_occupancy
  Na  Na0  1  0.320688  0.679312  0.000000  1
  Na  Na1  1  0.679312  0.320688  0.000000  1
  Li  Li2  1  0.988777  0.338723  0.361907  1
  Li  Li3  1  0.338723  0.988777  0.361907  1
  Li  Li4  1  0.011223  0.661277  0.638093  1
  Li  Li5  1  0.661277  0.011223  0.638093  1
  Mg  Mg6  1  0.000000  0.000000  0.000000  1
  P  P7  1  0.319618  0.319618  0.635169  1
  P  P8  1  0.680382  0.680382  0.364831  1
  N  N9  1  0.622446  0.622446  0.672218  1
  N  N10  1  0.377554  0.377554  0.327782  1
  N  N11  1  0.043035  0.318591  0.735606  1
  N  N12  1  0.318591  0.043035  0.735606  1
  N  N13  1  0.956965  0.681409  0.264394  1
  N  N14  1  0.681409  0.956965  0.264394  1
