# generated using pymatgen
data_Yb4Pr7Eu9Si16
_symmetry_space_group_name_H-M   'P 1'
_cell_length_a   7.71451448
_cell_length_b   8.05640542
_cell_length_c   15.31905000
_cell_angle_alpha   89.86157522
_cell_angle_beta   89.85565590
_cell_angle_gamma   90.02683971
_symmetry_Int_Tables_number   1
_chemical_formula_structural   Yb4Pr7Eu9Si16
_chemical_formula_sum   'Yb4 Pr7 Eu9 Si16'
_cell_volume   952.09229519
_cell_formula_units_Z   1
loop_
 _symmetry_equiv_pos_site_id
 _symmetry_equiv_pos_as_xyz
  1  'x, y, z'
loop_
 _atom_site_type_symbol
 _atom_site_label
 _atom_site_symmetry_multiplicity
 _atom_site_fract_x
 _atom_site_fract_y
 _atom_site_fract_z
 _atom_site_occupancy
  Yb  Yb0  1  0.359667  0.002465  0.750281  1
  Yb  Yb1  1  0.859244  0.498078  0.750208  1
  Yb  Yb2  1  0.139181  0.505030  0.251285  1
  Yb  Yb3  1  0.643479  0.995275  0.250657  1
  Pr  Pr4  1  0.463922  0.689553  0.100754  1
  Pr  Pr5  1  0.535628  0.311673  0.599833  1
  Pr  Pr6  1  0.035022  0.188563  0.900181  1
  Pr  Pr7  1  0.036062  0.189160  0.600750  1
  Pr  Pr8  1  0.535094  0.311104  0.900311  1
  Pr  Pr9  1  0.464550  0.689672  0.399233  1
  Pr  Pr10  1  0.964436  0.810452  0.099456  1
  Eu  Eu11  1  0.317651  0.183695  0.122378  1
  Eu  Eu12  1  0.816187  0.318005  0.377357  1
  Eu  Eu13  1  0.183254  0.683564  0.876994  1
  Eu  Eu14  1  0.684038  0.817093  0.622571  1
  Eu  Eu15  1  0.315485  0.181360  0.375927  1
  Eu  Eu16  1  0.816727  0.316254  0.122838  1
  Eu  Eu17  1  0.183027  0.683273  0.622714  1
  Eu  Eu18  1  0.682773  0.816243  0.877037  1
  Eu  Eu19  1  0.965247  0.814379  0.400927  1
  Si  Si20  1  0.863438  0.521291  0.540744  1
  Si  Si21  1  0.362652  0.974971  0.960845  1
  Si  Si22  1  0.635131  0.026773  0.461351  1
  Si  Si23  1  0.137739  0.474482  0.038568  1
  Si  Si24  1  0.139074  0.470880  0.462174  1
  Si  Si25  1  0.637794  0.024776  0.038102  1
  Si  Si26  1  0.362978  0.976767  0.539873  1
  Si  Si27  1  0.862728  0.524572  0.960818  1
  Si  Si28  1  0.975620  0.915365  0.750716  1
  Si  Si29  1  0.475338  0.585326  0.750507  1
  Si  Si30  1  0.522490  0.414302  0.249650  1
  Si  Si31  1  0.025102  0.085126  0.247551  1
  Si  Si32  1  0.250747  0.374446  0.751120  1
  Si  Si33  1  0.750735  0.126366  0.750773  1
  Si  Si34  1  0.251211  0.874984  0.247581  1
  Si  Si35  1  0.746548  0.624677  0.247933  1
