# generated using pymatgen
data_Er2Fe3Ni7P6
_symmetry_space_group_name_H-M   'P 1'
_cell_length_a   3.69843200
_cell_length_b   10.26921000
_cell_length_c   11.86636700
_cell_angle_alpha   90.00000000
_cell_angle_beta   90.00000000
_cell_angle_gamma   90.00000000
_symmetry_Int_Tables_number   1
_chemical_formula_structural   Er2Fe3Ni7P6
_chemical_formula_sum   'Er4 Fe6 Ni14 P12'
_cell_volume   450.68432056
_cell_formula_units_Z   2
loop_
 _symmetry_equiv_pos_site_id
 _symmetry_equiv_pos_as_xyz
  1  'x, y, z'
loop_
 _atom_site_type_symbol
 _atom_site_label
 _atom_site_symmetry_multiplicity
 _atom_site_fract_x
 _atom_site_fract_y
 _atom_site_fract_z
 _atom_site_occupancy
  Er  Er0  1  0.250000  0.574809  0.704592  1
  Er  Er1  1  0.250000  0.925191  0.204592  1
  Er  Er2  1  0.750000  0.419278  0.294698  1
  Er  Er3  1  0.750000  0.080722  0.794698  1
  Fe  Fe4  1  0.750000  0.125697  0.298757  1
  Fe  Fe5  1  0.750000  0.374303  0.798757  1
  Fe  Fe6  1  0.250000  0.465357  0.932099  1
  Fe  Fe7  1  0.250000  0.034643  0.432099  1
  Fe  Fe8  1  0.750000  0.540399  0.069113  1
  Fe  Fe9  1  0.750000  0.959601  0.569113  1
  Ni  Ni10  1  0.250000  0.718532  0.998835  1
  Ni  Ni11  1  0.250000  0.781468  0.498835  1
  Ni  Ni12  1  0.750000  0.289632  0.008930  1
  Ni  Ni13  1  0.750000  0.210368  0.508930  1
  Ni  Ni14  1  0.250000  0.405954  0.484251  1
  Ni  Ni15  1  0.250000  0.094046  0.984251  1
  Ni  Ni16  1  0.750000  0.589035  0.512232  1
  Ni  Ni17  1  0.750000  0.910965  0.012232  1
  Ni  Ni18  1  0.250000  0.227131  0.171813  1
  Ni  Ni19  1  0.250000  0.272869  0.671813  1
  Ni  Ni20  1  0.750000  0.772158  0.823827  1
  Ni  Ni21  1  0.750000  0.727842  0.323827  1
  Ni  Ni22  1  0.250000  0.874687  0.703613  1
  Ni  Ni23  1  0.250000  0.625313  0.203613  1
  P  P24  1  0.250000  0.429987  0.111722  1
  P  P25  1  0.250000  0.070013  0.611722  1
  P  P26  1  0.750000  0.569073  0.886336  1
  P  P27  1  0.750000  0.930927  0.386336  1
  P  P28  1  0.250000  0.271819  0.864015  1
  P  P29  1  0.250000  0.228181  0.364015  1
  P  P30  1  0.750000  0.735972  0.131870  1
  P  P31  1  0.750000  0.764028  0.631870  1
  P  P32  1  0.250000  0.602909  0.392721  1
  P  P33  1  0.250000  0.897091  0.892721  1
  P  P34  1  0.750000  0.393310  0.610578  1
  P  P35  1  0.750000  0.106690  0.110578  1
