# generated using pymatgen
data_Rb(AcGa6)2
_symmetry_space_group_name_H-M   'P 1'
_cell_length_a   8.94463035
_cell_length_b   8.94462955
_cell_length_c   8.94463057
_cell_angle_alpha   149.65754357
_cell_angle_beta   107.28638916
_cell_angle_gamma   80.78325690
_symmetry_Int_Tables_number   1
_chemical_formula_structural   Rb(AcGa6)2
_chemical_formula_sum   'Rb1 Ac2 Ga12'
_cell_volume   338.23699562
_cell_formula_units_Z   1
loop_
 _symmetry_equiv_pos_site_id
 _symmetry_equiv_pos_as_xyz
  1  'x, y, z'
loop_
 _atom_site_type_symbol
 _atom_site_label
 _atom_site_symmetry_multiplicity
 _atom_site_fract_x
 _atom_site_fract_y
 _atom_site_fract_z
 _atom_site_occupancy
  Rb  Rb0  1  0.000392  0.000000  0.000392  1
  Ac  Ac1  1  0.334991  0.334048  0.000943  1
  Ac  Ac2  1  0.666895  0.665952  0.000943  1
  Ga  Ga3  1  0.621565  0.000000  0.621565  1
  Ga  Ga4  1  0.380474  0.000000  0.380474  1
  Ga  Ga5  1  0.253122  0.500000  0.753122  1
  Ga  Ga6  1  0.748686  0.500000  0.248686  1
  Ga  Ga7  1  0.582562  0.831785  0.750777  1
  Ga  Ga8  1  0.918992  0.168215  0.750777  1
  Ga  Ga9  1  0.289467  0.666517  0.622951  1
  Ga  Ga10  1  0.956433  0.333483  0.622951  1
  Ga  Ga11  1  0.045053  0.666873  0.378180  1
  Ga  Ga12  1  0.711305  0.333127  0.378180  1
  Ga  Ga13  1  0.082859  0.832327  0.250532  1
  Ga  Ga14  1  0.418204  0.167673  0.250532  1
