# generated using pymatgen
data_Tb7Dy3CuRhPb6
_symmetry_space_group_name_H-M   'P 1'
_cell_length_a   9.24228614
_cell_length_b   9.23845678
_cell_length_c   6.78547252
_cell_angle_alpha   90.08404534
_cell_angle_beta   90.04701258
_cell_angle_gamma   119.91593561
_symmetry_Int_Tables_number   1
_chemical_formula_structural   Tb7Dy3CuRhPb6
_chemical_formula_sum   'Tb7 Dy3 Cu1 Rh1 Pb6'
_cell_volume   502.17567121
_cell_formula_units_Z   1
loop_
 _symmetry_equiv_pos_site_id
 _symmetry_equiv_pos_as_xyz
  1  'x, y, z'
loop_
 _atom_site_type_symbol
 _atom_site_label
 _atom_site_symmetry_multiplicity
 _atom_site_fract_x
 _atom_site_fract_y
 _atom_site_fract_z
 _atom_site_occupancy
  Tb  Tb0  1  0.000445  0.755682  0.761574  1
  Tb  Tb1  1  0.754639  0.754571  0.238280  1
  Tb  Tb2  1  0.245364  0.244929  0.762114  1
  Tb  Tb3  1  0.333347  0.666198  0.999992  1
  Tb  Tb4  1  0.666729  0.333343  0.999987  1
  Tb  Tb5  1  0.666613  0.333272  0.499941  1
  Tb  Tb6  1  0.333533  0.666330  0.499952  1
  Dy  Dy7  1  0.244976  0.999325  0.238194  1
  Dy  Dy8  1  0.754965  0.999847  0.762126  1
  Dy  Dy9  1  0.999540  0.245619  0.237621  1
  Cu  Cu10  1  0.999971  0.001856  0.497501  1
  Rh  Rh11  1  0.999976  0.000884  0.001393  1
  Pb  Pb12  1  0.603650  0.000174  0.252965  1
  Pb  Pb13  1  0.396787  0.999821  0.747617  1
  Pb  Pb14  1  0.000181  0.603621  0.253018  1
  Pb  Pb15  1  0.999832  0.395884  0.746888  1
  Pb  Pb16  1  0.395217  0.394806  0.253131  1
  Pb  Pb17  1  0.604234  0.603837  0.747707  1
