# generated using pymatgen
data_Hf18CoRe8Se
_symmetry_space_group_name_H-M   'P 1'
_cell_length_a   8.60537600
_cell_length_b   8.60537531
_cell_length_c   8.60868900
_cell_angle_alpha   90.00000000
_cell_angle_beta   90.00000000
_cell_angle_gamma   119.99999498
_symmetry_Int_Tables_number   1
_chemical_formula_structural   Hf18CoRe8Se
_chemical_formula_sum   'Hf18 Co1 Re8 Se1'
_cell_volume   552.08676896
_cell_formula_units_Z   1
loop_
 _symmetry_equiv_pos_site_id
 _symmetry_equiv_pos_as_xyz
  1  'x, y, z'
loop_
 _atom_site_type_symbol
 _atom_site_label
 _atom_site_symmetry_multiplicity
 _atom_site_fract_x
 _atom_site_fract_y
 _atom_site_fract_z
 _atom_site_occupancy
  Hf  Hf0  1  0.191390  0.808610  0.451951  1
  Hf  Hf1  1  0.191390  0.382781  0.451951  1
  Hf  Hf2  1  0.617219  0.808610  0.451951  1
  Hf  Hf3  1  0.800623  0.199377  0.559223  1
  Hf  Hf4  1  0.800623  0.601245  0.559223  1
  Hf  Hf5  1  0.398755  0.199377  0.559223  1
  Hf  Hf6  1  0.800623  0.199377  0.940777  1
  Hf  Hf7  1  0.800623  0.601245  0.940777  1
  Hf  Hf8  1  0.398755  0.199377  0.940777  1
  Hf  Hf9  1  0.191390  0.808610  0.048049  1
  Hf  Hf10  1  0.191390  0.382781  0.048049  1
  Hf  Hf11  1  0.617219  0.808610  0.048049  1
  Hf  Hf12  1  0.544542  0.455458  0.250000  1
  Hf  Hf13  1  0.544542  0.089084  0.250000  1
  Hf  Hf14  1  0.910916  0.455458  0.250000  1
  Hf  Hf15  1  0.458546  0.541454  0.750000  1
  Hf  Hf16  1  0.458546  0.917091  0.750000  1
  Hf  Hf17  1  0.082909  0.541454  0.750000  1
  Co  Co18  1  0.666667  0.333333  0.750000  1
  Re  Re19  1  0.889175  0.110825  0.250000  1
  Re  Re20  1  0.889175  0.778351  0.250000  1
  Re  Re21  1  0.221649  0.110825  0.250000  1
  Re  Re22  1  0.110524  0.889476  0.750000  1
  Re  Re23  1  0.110524  0.221047  0.750000  1
  Re  Re24  1  0.778953  0.889476  0.750000  1
  Re  Re25  1  0.000000  0.000000  0.500996  1
  Re  Re26  1  0.000000  0.000000  0.999004  1
  Se  Se27  1  0.333333  0.666667  0.250000  1
