# generated using pymatgen
data_Dy4YErNi2
_symmetry_space_group_name_H-M   'P 1'
_cell_length_a   6.32919979
_cell_length_b   6.82744900
_cell_length_c   9.52584727
_cell_angle_alpha   90.00000000
_cell_angle_beta   89.85876169
_cell_angle_gamma   90.00000000
_symmetry_Int_Tables_number   1
_chemical_formula_structural   Dy4YErNi2
_chemical_formula_sum   'Dy8 Y2 Er2 Ni4'
_cell_volume   411.63241207
_cell_formula_units_Z   2
loop_
 _symmetry_equiv_pos_site_id
 _symmetry_equiv_pos_as_xyz
  1  'x, y, z'
loop_
 _atom_site_type_symbol
 _atom_site_label
 _atom_site_symmetry_multiplicity
 _atom_site_fract_x
 _atom_site_fract_y
 _atom_site_fract_z
 _atom_site_occupancy
  Dy  Dy0  1  0.678316  0.321562  0.564130  1
  Dy  Dy1  1  0.821684  0.821562  0.935870  1
  Dy  Dy2  1  0.677461  0.321858  0.935677  1
  Dy  Dy3  1  0.822539  0.821858  0.564323  1
  Dy  Dy4  1  0.321990  0.677709  0.433142  1
  Dy  Dy5  1  0.178010  0.177709  0.066858  1
  Dy  Dy6  1  0.860305  0.534814  0.249598  1
  Dy  Dy7  1  0.639695  0.034814  0.250402  1
  Y  Y8  1  0.139753  0.467782  0.750143  1
  Y  Y9  1  0.360247  0.967782  0.749857  1
  Er  Er10  1  0.322573  0.677890  0.066761  1
  Er  Er11  1  0.177427  0.177890  0.433239  1
  Ni  Ni12  1  0.054915  0.890628  0.250036  1
  Ni  Ni13  1  0.445085  0.390628  0.249964  1
  Ni  Ni14  1  0.940214  0.107759  0.749872  1
  Ni  Ni15  1  0.559786  0.607759  0.750128  1
