# generated using pymatgen
data_DyErPa2(Al3Ir)6
_symmetry_space_group_name_H-M   'P 1'
_cell_length_a   7.59385607
_cell_length_b   7.59973771
_cell_length_c   9.36513400
_cell_angle_alpha   90.00000000
_cell_angle_beta   90.00000000
_cell_angle_gamma   119.70853385
_symmetry_Int_Tables_number   1
_chemical_formula_structural   DyErPa2(Al3Ir)6
_chemical_formula_sum   'Dy1 Er1 Pa2 Al18 Ir6'
_cell_volume   469.43302661
_cell_formula_units_Z   1
loop_
 _symmetry_equiv_pos_site_id
 _symmetry_equiv_pos_as_xyz
  1  'x, y, z'
loop_
 _atom_site_type_symbol
 _atom_site_label
 _atom_site_symmetry_multiplicity
 _atom_site_fract_x
 _atom_site_fract_y
 _atom_site_fract_z
 _atom_site_occupancy
  Dy  Dy0  1  0.330560  0.006370  0.250000  1
  Er  Er1  1  0.669522  0.993656  0.750000  1
  Pa  Pa2  1  0.997583  0.670961  0.750000  1
  Pa  Pa3  1  0.002452  0.329129  0.250000  1
  Al  Al4  1  0.129963  0.127156  0.750000  1
  Al  Al5  1  0.869647  0.872689  0.250000  1
  Al  Al6  1  0.000092  0.331142  0.577769  1
  Al  Al7  1  0.999480  0.668440  0.422471  1
  Al  Al8  1  0.999480  0.668440  0.077529  1
  Al  Al9  1  0.338388  0.003175  0.925300  1
  Al  Al10  1  0.000092  0.331142  0.922231  1
  Al  Al11  1  0.662016  0.996839  0.074104  1
  Al  Al12  1  0.662016  0.996839  0.425896  1
  Al  Al13  1  0.338388  0.003175  0.574700  1
  Al  Al14  1  0.335245  0.333327  0.053642  1
  Al  Al15  1  0.664766  0.667005  0.946081  1
  Al  Al16  1  0.664766  0.667005  0.553919  1
  Al  Al17  1  0.335245  0.333327  0.446358  1
  Al  Al18  1  0.340991  0.548190  0.750000  1
  Al  Al19  1  0.659338  0.452282  0.250000  1
  Al  Al20  1  0.548438  0.340580  0.750000  1
  Al  Al21  1  0.451705  0.659241  0.250000  1
  Ir  Ir22  1  0.676046  0.329561  0.499889  1
  Ir  Ir23  1  0.324153  0.670395  0.500431  1
  Ir  Ir24  1  0.324153  0.670395  0.999569  1
  Ir  Ir25  1  0.676046  0.329561  0.000111  1
  Ir  Ir26  1  0.999714  0.999988  0.500204  1
  Ir  Ir27  1  0.999714  0.999988  0.999796  1
