# generated using pymatgen
data_Tb3SiP2Ru3
_symmetry_space_group_name_H-M   'P 1'
_cell_length_a   6.93909800
_cell_length_b   6.93909787
_cell_length_c   3.77101700
_cell_angle_alpha   90.00000000
_cell_angle_beta   90.00000000
_cell_angle_gamma   120.00000061
_symmetry_Int_Tables_number   1
_chemical_formula_structural   Tb3SiP2Ru3
_chemical_formula_sum   'Tb3 Si1 P2 Ru3'
_cell_volume   157.25162909
_cell_formula_units_Z   1
loop_
 _symmetry_equiv_pos_site_id
 _symmetry_equiv_pos_as_xyz
  1  'x, y, z'
loop_
 _atom_site_type_symbol
 _atom_site_label
 _atom_site_symmetry_multiplicity
 _atom_site_fract_x
 _atom_site_fract_y
 _atom_site_fract_z
 _atom_site_occupancy
  Tb  Tb0  1  0.412427  0.412427  0.500000  1
  Tb  Tb1  1  0.587573  0.000000  0.500000  1
  Tb  Tb2  1  0.000000  0.587573  0.500000  1
  Si  Si3  1  0.000000  0.000000  0.500000  1
  P  P4  1  0.666667  0.333333  0.000000  1
  P  P5  1  0.333333  0.666667  0.000000  1
  Ru  Ru6  1  0.000000  0.239062  0.000000  1
  Ru  Ru7  1  0.239062  0.000000  0.000000  1
  Ru  Ru8  1  0.760938  0.760938  0.000000  1
