# generated using pymatgen
data_DyTmCo12SiP6
_symmetry_space_group_name_H-M   'P 1'
_cell_length_a   9.01462200
_cell_length_b   9.01462143
_cell_length_c   3.57903400
_cell_angle_alpha   90.00000000
_cell_angle_beta   90.00000000
_cell_angle_gamma   120.00000209
_symmetry_Int_Tables_number   1
_chemical_formula_structural   DyTmCo12SiP6
_chemical_formula_sum   'Dy1 Tm1 Co12 Si1 P6'
_cell_volume   251.87871009
_cell_formula_units_Z   1
loop_
 _symmetry_equiv_pos_site_id
 _symmetry_equiv_pos_as_xyz
  1  'x, y, z'
loop_
 _atom_site_type_symbol
 _atom_site_label
 _atom_site_symmetry_multiplicity
 _atom_site_fract_x
 _atom_site_fract_y
 _atom_site_fract_z
 _atom_site_occupancy
  Dy  Dy0  1  0.666667  0.333333  0.000000  1
  Tm  Tm1  1  0.000000  0.000000  0.500000  1
  Co  Co2  1  0.768096  0.727977  0.000000  1
  Co  Co3  1  0.272023  0.040118  0.000000  1
  Co  Co4  1  0.959882  0.231904  0.000000  1
  Co  Co5  1  0.719425  0.102318  0.500000  1
  Co  Co6  1  0.897682  0.617106  0.500000  1
  Co  Co7  1  0.382894  0.280575  0.500000  1
  Co  Co8  1  0.492164  0.947562  0.000000  1
  Co  Co9  1  0.052438  0.544602  0.000000  1
  Co  Co10  1  0.455398  0.507836  0.000000  1
  Co  Co11  1  0.565635  0.768429  0.500000  1
  Co  Co12  1  0.231571  0.797206  0.500000  1
  Co  Co13  1  0.202794  0.434365  0.500000  1
  Si  Si14  1  0.333333  0.666667  0.000000  1
  P  P15  1  0.445112  0.068621  0.500000  1
  P  P16  1  0.931379  0.376491  0.500000  1
  P  P17  1  0.623509  0.554888  0.500000  1
  P  P18  1  0.740793  0.960410  0.000000  1
  P  P19  1  0.039590  0.780381  0.000000  1
  P  P20  1  0.219619  0.259207  0.000000  1
