# generated using pymatgen
data_ZnCd2B2Rh5
_symmetry_space_group_name_H-M   'P 1'
_cell_length_a   9.67879300
_cell_length_b   9.67879300
_cell_length_c   2.92335100
_cell_angle_alpha   90.00000000
_cell_angle_beta   90.00000000
_cell_angle_gamma   90.00000000
_symmetry_Int_Tables_number   1
_chemical_formula_structural   ZnCd2B2Rh5
_chemical_formula_sum   'Zn2 Cd4 B4 Rh10'
_cell_volume   273.85669754
_cell_formula_units_Z   2
loop_
 _symmetry_equiv_pos_site_id
 _symmetry_equiv_pos_as_xyz
  1  'x, y, z'
loop_
 _atom_site_type_symbol
 _atom_site_label
 _atom_site_symmetry_multiplicity
 _atom_site_fract_x
 _atom_site_fract_y
 _atom_site_fract_z
 _atom_site_occupancy
  Zn  Zn0  1  0.000000  0.000000  0.000000  1
  Zn  Zn1  1  0.500000  0.500000  0.000000  1
  Cd  Cd2  1  0.823515  0.323515  0.000000  1
  Cd  Cd3  1  0.323515  0.176485  0.000000  1
  Cd  Cd4  1  0.676485  0.823515  0.000000  1
  Cd  Cd5  1  0.176485  0.676485  0.000000  1
  B  B6  1  0.626742  0.126742  0.000000  1
  B  B7  1  0.126742  0.373258  0.000000  1
  B  B8  1  0.873258  0.626742  0.000000  1
  B  B9  1  0.373258  0.873258  0.000000  1
  Rh  Rh10  1  0.070004  0.219206  0.500000  1
  Rh  Rh11  1  0.219206  0.929996  0.500000  1
  Rh  Rh12  1  0.780794  0.070004  0.500000  1
  Rh  Rh13  1  0.929996  0.780794  0.500000  1
  Rh  Rh14  1  0.429996  0.719206  0.500000  1
  Rh  Rh15  1  0.570004  0.280794  0.500000  1
  Rh  Rh16  1  0.719206  0.570004  0.500000  1
  Rh  Rh17  1  0.280794  0.429996  0.500000  1
  Rh  Rh18  1  0.500000  0.000000  0.500000  1
  Rh  Rh19  1  0.000000  0.500000  0.500000  1
