# generated using pymatgen
data_Li11Pr12Cd(WO6)8
_symmetry_space_group_name_H-M   'P 1'
_cell_length_a   11.07848482
_cell_length_b   11.10996829
_cell_length_c   11.10994800
_cell_angle_alpha   108.86676151
_cell_angle_beta   109.83844407
_cell_angle_gamma   109.82734745
_symmetry_Int_Tables_number   1
_chemical_formula_structural   Li11Pr12Cd(WO6)8
_chemical_formula_sum   'Li11 Pr12 Cd1 W8 O48'
_cell_volume   1051.02651688
_cell_formula_units_Z   1
loop_
 _symmetry_equiv_pos_site_id
 _symmetry_equiv_pos_as_xyz
  1  'x, y, z'
loop_
 _atom_site_type_symbol
 _atom_site_label
 _atom_site_symmetry_multiplicity
 _atom_site_fract_x
 _atom_site_fract_y
 _atom_site_fract_z
 _atom_site_occupancy
  Li  Li0  1  0.375308  0.250424  0.126090  1
  Li  Li1  1  0.124095  0.373083  0.251824  1
  Li  Li2  1  0.624781  0.874493  0.249004  1
  Li  Li3  1  0.124149  0.751268  0.375339  1
  Li  Li4  1  0.749177  0.624842  0.374693  1
  Li  Li5  1  0.250745  0.375583  0.625297  1
  Li  Li6  1  0.876642  0.248501  0.623879  1
  Li  Li7  1  0.374987  0.126635  0.751402  1
  Li  Li8  1  0.875255  0.627411  0.748781  1
  Li  Li9  1  0.624382  0.747972  0.872440  1
  Li  Li10  1  0.754623  0.125524  0.875496  1
  Pr  Pr11  1  0.749895  0.376967  0.126994  1
  Pr  Pr12  1  0.873604  0.753357  0.128939  1
  Pr  Pr13  1  0.376688  0.622065  0.249229  1
  Pr  Pr14  1  0.878003  0.126138  0.252756  1
  Pr  Pr15  1  0.247053  0.133254  0.380196  1
  Pr  Pr16  1  0.626695  0.253993  0.378221  1
  Pr  Pr17  1  0.754336  0.874653  0.627878  1
  Pr  Pr18  1  0.373259  0.748239  0.621942  1
  Pr  Pr19  1  0.120256  0.872304  0.746241  1
  Pr  Pr20  1  0.624846  0.378078  0.750556  1
  Pr  Pr21  1  0.249665  0.616691  0.866941  1
  Pr  Pr22  1  0.121454  0.244306  0.875178  1
  Cd  Cd23  1  0.248598  0.875268  0.124079  1
  W  W24  1  0.994528  0.002472  0.999384  1
  W  W25  1  0.506169  0.001614  0.995035  1
  W  W26  1  0.500211  0.498825  0.999688  1
  W  W27  1  0.994299  0.489984  0.996010  1
  W  W28  1  0.999899  0.000000  0.501811  1
  W  W29  1  0.506570  0.005059  0.510365  1
  W  W30  1  0.998531  0.499182  0.498307  1
  W  W31  1  0.500560  0.501899  0.499935  1
  O  O32  1  0.823559  0.907003  0.019811  1
  O  O33  1  0.696828  0.117564  0.021751  1
  O  O34  1  0.200393  0.655866  0.074262  1
  O  O35  1  0.384338  0.407022  0.077251  1
  O  O36  1  0.480653  0.669332  0.090916  1
  O  O37  1  0.112187  0.418242  0.093619  1
  O  O38  1  0.521877  0.188744  0.113480  1
  O  O39  1  0.081415  0.922660  0.132628  1
  O  O40  1  0.978864  0.592537  0.167152  1
  O  O41  1  0.693472  0.576310  0.171419  1
  O  O42  1  0.076602  0.173860  0.204675  1
  O  O43  1  0.608601  0.014793  0.184823  1
  O  O44  1  0.830059  0.922373  0.306876  1
  O  O45  1  0.974926  0.386722  0.306327  1
  O  O46  1  0.418734  0.044854  0.344764  1
  O  O47  1  0.421851  0.311224  0.330772  1
  O  O48  1  0.079982  0.910085  0.392064  1
  O  O49  1  0.804754  0.477003  0.383705  1
  O  O50  1  0.329467  0.525112  0.407584  1
  O  O51  1  0.572944  0.887583  0.404831  1
  O  O52  1  0.592512  0.614992  0.421024  1
  O  O53  1  0.329051  0.814020  0.423932  1
  O  O54  1  0.093472  0.172991  0.482587  1
  O  O55  1  0.883296  0.305427  0.475295  1
  O  O56  1  0.113685  0.692013  0.521236  1
  O  O57  1  0.905164  0.827771  0.519848  1
  O  O58  1  0.408814  0.388999  0.580627  1
  O  O59  1  0.676099  0.195998  0.583656  1
  O  O60  1  0.670729  0.478064  0.592556  1
  O  O61  1  0.428359  0.119174  0.599897  1
  O  O62  1  0.193100  0.521122  0.612307  1
  O  O63  1  0.920169  0.090242  0.612508  1
  O  O64  1  0.577888  0.693108  0.668772  1
  O  O65  1  0.595010  0.977636  0.673421  1
  O  O66  1  0.169456  0.077778  0.696661  1
  O  O67  1  0.020312  0.609134  0.689336  1
  O  O68  1  0.388989  0.980404  0.805271  1
  O  O69  1  0.920651  0.829107  0.797175  1
  O  O70  1  0.308401  0.421508  0.827717  1
  O  O71  1  0.020754  0.401893  0.829273  1
  O  O72  1  0.479082  0.807723  0.880536  1
  O  O73  1  0.906954  0.082020  0.874765  1
  O  O74  1  0.523775  0.330409  0.909442  1
  O  O75  1  0.890224  0.575251  0.904533  1
  O  O76  1  0.617096  0.591541  0.922188  1
  O  O77  1  0.803312  0.326201  0.921304  1
  O  O78  1  0.300315  0.873782  0.955639  1
  O  O79  1  0.172560  0.092724  0.985861  1
