# generated using pymatgen
data_PuZn10Pt
_symmetry_space_group_name_H-M   'P 1'
_cell_length_a   8.32852302
_cell_length_b   8.32852268
_cell_length_c   8.30895300
_cell_angle_alpha   99.79786599
_cell_angle_beta   99.79787257
_cell_angle_gamma   131.28041050
_symmetry_Int_Tables_number   1
_chemical_formula_structural   PuZn10Pt
_chemical_formula_sum   'Pu2 Zn20 Pt2'
_cell_volume   394.53660349
_cell_formula_units_Z   2
loop_
 _symmetry_equiv_pos_site_id
 _symmetry_equiv_pos_as_xyz
  1  'x, y, z'
loop_
 _atom_site_type_symbol
 _atom_site_label
 _atom_site_symmetry_multiplicity
 _atom_site_fract_x
 _atom_site_fract_y
 _atom_site_fract_z
 _atom_site_occupancy
  Pu  Pu0  1  0.495382  0.504618  0.000000  1
  Pu  Pu1  1  0.754618  0.245382  0.500000  1
  Zn  Zn2  1  0.844717  0.430874  0.171836  1
  Zn  Zn3  1  0.328357  0.155354  0.585107  1
  Zn  Zn4  1  0.259826  0.432929  0.584347  1
  Zn  Zn5  1  0.326605  0.743146  0.175312  1
  Zn  Zn6  1  0.990174  0.317071  0.915653  1
  Zn  Zn7  1  0.256854  0.673395  0.824688  1
  Zn  Zn8  1  0.244542  0.755458  0.500000  1
  Zn  Zn9  1  0.993146  0.076605  0.675312  1
  Zn  Zn10  1  0.005458  0.994542  0.000000  1
  Zn  Zn11  1  0.682929  0.009826  0.084347  1
  Zn  Zn12  1  0.625000  0.875000  0.750000  1
  Zn  Zn13  1  0.405283  0.319126  0.328164  1
  Zn  Zn14  1  0.923395  0.006854  0.324688  1
  Zn  Zn15  1  0.844646  0.671643  0.414893  1
  Zn  Zn16  1  0.567071  0.740174  0.415653  1
  Zn  Zn17  1  0.680874  0.594717  0.671836  1
  Zn  Zn18  1  0.405354  0.078357  0.085107  1
  Zn  Zn19  1  0.921643  0.594646  0.914893  1
  Zn  Zn20  1  0.569126  0.155283  0.828164  1
  Zn  Zn21  1  0.125000  0.375000  0.250000  1
  Pt  Pt22  1  0.125000  0.875000  0.750000  1
  Pt  Pt23  1  0.125000  0.875000  0.250000  1
