# generated using pymatgen
data_SmPa2(GaNi)3
_symmetry_space_group_name_H-M   'P 1'
_cell_length_a   6.78981300
_cell_length_b   6.86002080
_cell_length_c   3.99820300
_cell_angle_alpha   90.00000000
_cell_angle_beta   90.00000000
_cell_angle_gamma   119.66201944
_symmetry_Int_Tables_number   1
_chemical_formula_structural   SmPa2(GaNi)3
_chemical_formula_sum   'Sm1 Pa2 Ga3 Ni3'
_cell_volume   161.82579532
_cell_formula_units_Z   1
loop_
 _symmetry_equiv_pos_site_id
 _symmetry_equiv_pos_as_xyz
  1  'x, y, z'
loop_
 _atom_site_type_symbol
 _atom_site_label
 _atom_site_symmetry_multiplicity
 _atom_site_fract_x
 _atom_site_fract_y
 _atom_site_fract_z
 _atom_site_occupancy
  Sm  Sm0  1  0.580708  0.000000  0.500000  1
  Pa  Pa1  1  0.998767  0.577567  0.500000  1
  Pa  Pa2  1  0.421200  0.422433  0.500000  1
  Ga  Ga3  1  0.242957  0.000000  0.000000  1
  Ga  Ga4  1  0.759700  0.763752  0.000000  1
  Ga  Ga5  1  0.995947  0.236248  0.000000  1
  Ni  Ni6  1  0.669978  0.354887  0.000000  1
  Ni  Ni7  1  0.315090  0.645113  0.000000  1
  Ni  Ni8  1  0.015654  0.000000  0.500000  1
