# generated using pymatgen
data_Y10Hg2Ru3Rh
_symmetry_space_group_name_H-M   'P 1'
_cell_length_a   8.72961593
_cell_length_b   8.72961690
_cell_length_c   8.70774800
_cell_angle_alpha   127.06790808
_cell_angle_beta   127.06790469
_cell_angle_gamma   78.31666608
_symmetry_Int_Tables_number   1
_chemical_formula_structural   Y10Hg2Ru3Rh
_chemical_formula_sum   'Y10 Hg2 Ru3 Rh1'
_cell_volume   408.79038446
_cell_formula_units_Z   1
loop_
 _symmetry_equiv_pos_site_id
 _symmetry_equiv_pos_as_xyz
  1  'x, y, z'
loop_
 _atom_site_type_symbol
 _atom_site_label
 _atom_site_symmetry_multiplicity
 _atom_site_fract_x
 _atom_site_fract_y
 _atom_site_fract_z
 _atom_site_occupancy
  Y  Y0  1  0.001592  0.999871  0.001465  1
  Y  Y1  1  0.500129  0.498408  0.998535  1
  Y  Y2  1  0.799036  0.294053  0.824121  1
  Y  Y3  1  0.205947  0.700964  0.175879  1
  Y  Y4  1  0.474916  0.969932  0.175879  1
  Y  Y5  1  0.289538  0.475418  0.500000  1
  Y  Y6  1  0.024582  0.210462  0.500000  1
  Y  Y7  1  0.530068  0.025084  0.824121  1
  Y  Y8  1  0.701574  0.529721  0.500000  1
  Y  Y9  1  0.970279  0.798426  0.500000  1
  Hg  Hg10  1  0.251599  0.248401  0.000000  1
  Hg  Hg11  1  0.751599  0.748401  0.000000  1
  Ru  Ru12  1  0.139169  0.641323  0.780492  1
  Ru  Ru13  1  0.858677  0.360831  0.219508  1
  Ru  Ru14  1  0.637774  0.862226  0.500000  1
  Rh  Rh15  1  0.363521  0.136479  0.500000  1
