# generated using pymatgen
data_TbPr2Be(PPd4)5
_symmetry_space_group_name_H-M   'P 1'
_cell_length_a   8.74234924
_cell_length_b   8.69711602
_cell_length_c   8.69711600
_cell_angle_alpha   60.34438739
_cell_angle_beta   59.82781304
_cell_angle_gamma   59.82780802
_symmetry_Int_Tables_number   1
_chemical_formula_structural   TbPr2Be(PPd4)5
_chemical_formula_sum   'Tb1 Pr2 Be1 P5 Pd20'
_cell_volume   467.56294985
_cell_formula_units_Z   1
loop_
 _symmetry_equiv_pos_site_id
 _symmetry_equiv_pos_as_xyz
  1  'x, y, z'
loop_
 _atom_site_type_symbol
 _atom_site_label
 _atom_site_symmetry_multiplicity
 _atom_site_fract_x
 _atom_site_fract_y
 _atom_site_fract_z
 _atom_site_occupancy
  Tb  Tb0  1  0.996118  0.003882  0.003882  1
  Pr  Pr1  1  0.249799  0.250201  0.250201  1
  Pr  Pr2  1  0.749799  0.750201  0.750201  1
  Be  Be3  1  0.731847  0.268153  0.268153  1
  P  P4  1  0.262497  0.737503  0.737503  1
  P  P5  1  0.264639  0.735361  0.263141  1
  P  P6  1  0.736859  0.263141  0.735361  1
  P  P7  1  0.264639  0.263141  0.735361  1
  P  P8  1  0.736859  0.735361  0.263141  1
  Pd  Pd9  1  0.388520  0.384506  0.384506  1
  Pd  Pd10  1  0.614172  0.613457  0.613457  1
  Pd  Pd11  1  0.386543  0.385828  0.841086  1
  Pd  Pd12  1  0.386543  0.841086  0.385828  1
  Pd  Pd13  1  0.615494  0.611480  0.157531  1
  Pd  Pd14  1  0.615494  0.157531  0.611480  1
  Pd  Pd15  1  0.842469  0.384506  0.384506  1
  Pd  Pd16  1  0.158914  0.613457  0.613457  1
  Pd  Pd17  1  0.342899  0.001077  0.001077  1
  Pd  Pd18  1  0.654948  0.001077  0.001077  1
  Pd  Pd19  1  0.998923  0.345052  0.657101  1
  Pd  Pd20  1  0.998923  0.657101  0.345052  1
  Pd  Pd21  1  0.996483  0.342388  0.003517  1
  Pd  Pd22  1  0.657612  0.003517  0.342388  1
  Pd  Pd23  1  0.000892  0.653436  0.999108  1
  Pd  Pd24  1  0.346564  0.999108  0.653436  1
  Pd  Pd25  1  0.996483  0.003517  0.342388  1
  Pd  Pd26  1  0.000892  0.999108  0.653436  1
  Pd  Pd27  1  0.657612  0.342388  0.003517  1
  Pd  Pd28  1  0.346564  0.653436  0.999108  1
