# generated using pymatgen
data_Th14Tc3NiRu2
_symmetry_space_group_name_H-M   'P 1'
_cell_length_a   9.99294206
_cell_length_b   9.89319618
_cell_length_c   6.32812224
_cell_angle_alpha   89.99447561
_cell_angle_beta   89.87599684
_cell_angle_gamma   119.78326838
_symmetry_Int_Tables_number   1
_chemical_formula_structural   Th14Tc3NiRu2
_chemical_formula_sum   'Th14 Tc3 Ni1 Ru2'
_cell_volume   542.97320968
_cell_formula_units_Z   1
loop_
 _symmetry_equiv_pos_site_id
 _symmetry_equiv_pos_as_xyz
  1  'x, y, z'
loop_
 _atom_site_type_symbol
 _atom_site_label
 _atom_site_symmetry_multiplicity
 _atom_site_fract_x
 _atom_site_fract_y
 _atom_site_fract_z
 _atom_site_occupancy
  Th  Th0  1  0.458149  0.538614  0.297229  1
  Th  Th1  1  0.079858  0.538365  0.299384  1
  Th  Th2  1  0.917197  0.458440  0.799469  1
  Th  Th3  1  0.251945  0.126035  0.504028  1
  Th  Th4  1  0.541801  0.081206  0.797197  1
  Th  Th5  1  0.748998  0.874384  0.007325  1
  Th  Th6  1  0.666186  0.334089  0.290224  1
  Th  Th7  1  0.127658  0.872635  0.002169  1
  Th  Th8  1  0.460493  0.921447  0.295605  1
  Th  Th9  1  0.543063  0.462098  0.797048  1
  Th  Th10  1  0.872957  0.124197  0.503469  1
  Th  Th11  1  0.125386  0.248755  0.005154  1
  Th  Th12  1  0.874922  0.752472  0.502251  1
  Th  Th13  1  0.333127  0.665199  0.790013  1
  Tc  Tc14  1  0.818151  0.192735  0.048971  1
  Tc  Tc15  1  0.628275  0.808818  0.549230  1
  Tc  Tc16  1  0.371559  0.190293  0.046143  1
  Ni  Ni17  1  0.814944  0.627635  0.052497  1
  Ru  Ru18  1  0.184008  0.371969  0.547944  1
  Ru  Ru19  1  0.181321  0.810618  0.548649  1
