# generated using pymatgen
data_AcGeIrO
_symmetry_space_group_name_H-M   'P 1'
_cell_length_a   4.22179100
_cell_length_b   4.22179100
_cell_length_c   8.94801000
_cell_angle_alpha   90.00000000
_cell_angle_beta   90.00000000
_cell_angle_gamma   90.00000000
_symmetry_Int_Tables_number   1
_chemical_formula_structural   AcGeIrO
_chemical_formula_sum   'Ac2 Ge2 Ir2 O2'
_cell_volume   159.48502846
_cell_formula_units_Z   2
loop_
 _symmetry_equiv_pos_site_id
 _symmetry_equiv_pos_as_xyz
  1  'x, y, z'
loop_
 _atom_site_type_symbol
 _atom_site_label
 _atom_site_symmetry_multiplicity
 _atom_site_fract_x
 _atom_site_fract_y
 _atom_site_fract_z
 _atom_site_occupancy
  Ac  Ac0  1  0.250002  0.250002  0.143417  1
  Ac  Ac1  1  0.750002  0.750002  0.856585  1
  Ge  Ge2  1  0.750002  0.750002  0.353013  1
  Ge  Ge3  1  0.250002  0.250002  0.646986  1
  Ir  Ir4  1  0.750002  0.250002  0.500000  1
  Ir  Ir5  1  0.250002  0.750002  0.500000  1
  O  O6  1  0.750002  0.250002  0.000000  1
  O  O7  1  0.250002  0.750002  0.000000  1
