# generated using pymatgen
data_Rb3Na(ThS3)2
_symmetry_space_group_name_H-M   'P 1'
_cell_length_a   7.32053823
_cell_length_b   7.32053870
_cell_length_c   8.12569400
_cell_angle_alpha   81.41378314
_cell_angle_beta   81.41378258
_cell_angle_gamma   120.07720444
_symmetry_Int_Tables_number   1
_chemical_formula_structural   Rb3Na(ThS3)2
_chemical_formula_sum   'Rb3 Na1 Th2 S6'
_cell_volume   359.59226566
_cell_formula_units_Z   1
loop_
 _symmetry_equiv_pos_site_id
 _symmetry_equiv_pos_as_xyz
  1  'x, y, z'
loop_
 _atom_site_type_symbol
 _atom_site_label
 _atom_site_symmetry_multiplicity
 _atom_site_fract_x
 _atom_site_fract_y
 _atom_site_fract_z
 _atom_site_occupancy
  Rb  Rb0  1  0.657366  0.342634  0.500000  1
  Rb  Rb1  1  0.342634  0.657366  0.500000  1
  Rb  Rb2  1  0.000000  0.000000  0.500000  1
  Na  Na3  1  0.500000  0.500000  0.000000  1
  Th  Th4  1  0.832806  0.167194  0.000000  1
  Th  Th5  1  0.167194  0.832806  0.000000  1
  S  S6  1  0.791694  0.791694  0.194355  1
  S  S7  1  0.208306  0.208306  0.805645  1
  S  S8  1  0.433303  0.074144  0.199012  1
  S  S9  1  0.566697  0.925856  0.800988  1
  S  S10  1  0.925856  0.566697  0.800988  1
  S  S11  1  0.074144  0.433303  0.199012  1
