# generated using pymatgen
data_Pr4ZnB4Rh9
_symmetry_space_group_name_H-M   'P 1'
_cell_length_a   5.57933003
_cell_length_b   5.57933150
_cell_length_c   21.01094700
_cell_angle_alpha   90.00000000
_cell_angle_beta   90.00000000
_cell_angle_gamma   119.99382432
_symmetry_Int_Tables_number   1
_chemical_formula_structural   Pr4ZnB4Rh9
_chemical_formula_sum   'Pr8 Zn2 B8 Rh18'
_cell_volume   566.45771892
_cell_formula_units_Z   2
loop_
 _symmetry_equiv_pos_site_id
 _symmetry_equiv_pos_as_xyz
  1  'x, y, z'
loop_
 _atom_site_type_symbol
 _atom_site_label
 _atom_site_symmetry_multiplicity
 _atom_site_fract_x
 _atom_site_fract_y
 _atom_site_fract_z
 _atom_site_occupancy
  Pr  Pr0  1  0.666677  0.333323  0.524759  1
  Pr  Pr1  1  0.333323  0.666677  0.475241  1
  Pr  Pr2  1  0.333323  0.666677  0.024759  1
  Pr  Pr3  1  0.666677  0.333323  0.975241  1
  Pr  Pr4  1  0.666739  0.333261  0.674794  1
  Pr  Pr5  1  0.333261  0.666739  0.325206  1
  Pr  Pr6  1  0.333261  0.666739  0.174794  1
  Pr  Pr7  1  0.666739  0.333261  0.825206  1
  Zn  Zn8  1  0.000000  0.000000  0.500000  1
  Zn  Zn9  1  0.000000  0.000000  0.000000  1
  B  B10  1  0.000079  0.999921  0.674694  1
  B  B11  1  0.999921  0.000079  0.325306  1
  B  B12  1  0.999921  0.000079  0.174694  1
  B  B13  1  0.000079  0.999921  0.825306  1
  B  B14  1  0.666587  0.333413  0.326131  1
  B  B15  1  0.333413  0.666587  0.673869  1
  B  B16  1  0.333413  0.666587  0.826131  1
  B  B17  1  0.666587  0.333413  0.173869  1
  Rh  Rh18  1  0.166799  0.333371  0.750000  1
  Rh  Rh19  1  0.166794  0.833206  0.750000  1
  Rh  Rh20  1  0.666629  0.833201  0.750000  1
  Rh  Rh21  1  0.833201  0.666629  0.250000  1
  Rh  Rh22  1  0.833206  0.166794  0.250000  1
  Rh  Rh23  1  0.333371  0.166799  0.250000  1
  Rh  Rh24  1  0.166594  0.332961  0.606625  1
  Rh  Rh25  1  0.166585  0.833415  0.606626  1
  Rh  Rh26  1  0.667039  0.833406  0.606625  1
  Rh  Rh27  1  0.833406  0.667039  0.393375  1
  Rh  Rh28  1  0.833415  0.166585  0.393374  1
  Rh  Rh29  1  0.332961  0.166594  0.393375  1
  Rh  Rh30  1  0.833406  0.667039  0.106625  1
  Rh  Rh31  1  0.833415  0.166585  0.106626  1
  Rh  Rh32  1  0.332961  0.166594  0.106625  1
  Rh  Rh33  1  0.166594  0.332961  0.893375  1
  Rh  Rh34  1  0.166585  0.833415  0.893374  1
  Rh  Rh35  1  0.667039  0.833406  0.893375  1
