# generated using pymatgen
data_Er3LuThPd15
_symmetry_space_group_name_H-M   'P 1'
_cell_length_a   4.14799300
_cell_length_b   4.14799300
_cell_length_c   20.63081700
_cell_angle_alpha   90.00000000
_cell_angle_beta   90.00000000
_cell_angle_gamma   90.00000000
_symmetry_Int_Tables_number   1
_chemical_formula_structural   Er3LuThPd15
_chemical_formula_sum   'Er3 Lu1 Th1 Pd15'
_cell_volume   354.97065867
_cell_formula_units_Z   1
loop_
 _symmetry_equiv_pos_site_id
 _symmetry_equiv_pos_as_xyz
  1  'x, y, z'
loop_
 _atom_site_type_symbol
 _atom_site_label
 _atom_site_symmetry_multiplicity
 _atom_site_fract_x
 _atom_site_fract_y
 _atom_site_fract_z
 _atom_site_occupancy
  Er  Er0  1  0.000000  0.000000  0.203143  1
  Er  Er1  1  0.000000  0.000000  0.400144  1
  Er  Er2  1  0.000000  0.000000  0.600309  1
  Lu  Lu3  1  0.000000  0.000000  0.796635  1
  Th  Th4  1  0.000000  0.000000  0.999780  1
  Pd  Pd5  1  0.500000  0.500000  0.000110  1
  Pd  Pd6  1  0.500000  0.500000  0.201347  1
  Pd  Pd7  1  0.500000  0.500000  0.400604  1
  Pd  Pd8  1  0.500000  0.500000  0.599279  1
  Pd  Pd9  1  0.500000  0.500000  0.798620  1
  Pd  Pd10  1  0.500000  0.000000  0.101989  1
  Pd  Pd11  1  0.500000  0.000000  0.300854  1
  Pd  Pd12  1  0.500000  0.000000  0.499940  1
  Pd  Pd13  1  0.500000  0.000000  0.699580  1
  Pd  Pd14  1  0.500000  0.000000  0.897653  1
  Pd  Pd15  1  0.000000  0.500000  0.101989  1
  Pd  Pd16  1  0.000000  0.500000  0.300854  1
  Pd  Pd17  1  0.000000  0.500000  0.499940  1
  Pd  Pd18  1  0.000000  0.500000  0.699580  1
  Pd  Pd19  1  0.000000  0.500000  0.897653  1
