# generated using pymatgen
data_NaSbSe2O7
_symmetry_space_group_name_H-M   'P 1'
_cell_length_a   7.01264100
_cell_length_b   7.01264139
_cell_length_c   7.28345600
_cell_angle_alpha   90.00000000
_cell_angle_beta   90.00000000
_cell_angle_gamma   110.67871345
_symmetry_Int_Tables_number   1
_chemical_formula_structural   NaSbSe2O7
_chemical_formula_sum   'Na2 Sb2 Se4 O14'
_cell_volume   335.10389895
_cell_formula_units_Z   2
loop_
 _symmetry_equiv_pos_site_id
 _symmetry_equiv_pos_as_xyz
  1  'x, y, z'
loop_
 _atom_site_type_symbol
 _atom_site_label
 _atom_site_symmetry_multiplicity
 _atom_site_fract_x
 _atom_site_fract_y
 _atom_site_fract_z
 _atom_site_occupancy
  Na  Na0  1  0.980587  0.980587  0.366213  1
  Na  Na1  1  0.019413  0.019413  0.866213  1
  Sb  Sb2  1  0.502155  0.502155  0.879836  1
  Sb  Sb3  1  0.497845  0.497845  0.379836  1
  Se  Se4  1  0.564860  0.956690  0.628606  1
  Se  Se5  1  0.956690  0.564860  0.628606  1
  Se  Se6  1  0.435140  0.043310  0.128606  1
  Se  Se7  1  0.043310  0.435140  0.128606  1
  O  O8  1  0.553237  0.799848  0.826356  1
  O  O9  1  0.799848  0.553237  0.826356  1
  O  O10  1  0.446763  0.200152  0.326356  1
  O  O11  1  0.200152  0.446763  0.326356  1
  O  O12  1  0.553117  0.797783  0.432366  1
  O  O13  1  0.797783  0.553117  0.432366  1
  O  O14  1  0.446883  0.202217  0.932366  1
  O  O15  1  0.202217  0.446883  0.932366  1
  O  O16  1  0.813196  0.095554  0.625889  1
  O  O17  1  0.095554  0.813196  0.625889  1
  O  O18  1  0.186804  0.904446  0.125889  1
  O  O19  1  0.904446  0.186804  0.125889  1
  O  O20  1  0.407173  0.407173  0.630455  1
  O  O21  1  0.592827  0.592827  0.130455  1
