# generated using pymatgen
data_Dy2Tm10Ru3Rh
_symmetry_space_group_name_H-M   'P 1'
_cell_length_a   6.26129186
_cell_length_b   7.22969514
_cell_length_c   9.03679200
_cell_angle_alpha   90.00000000
_cell_angle_beta   90.00000000
_cell_angle_gamma   89.98137976
_symmetry_Int_Tables_number   1
_chemical_formula_structural   Dy2Tm10Ru3Rh
_chemical_formula_sum   'Dy2 Tm10 Ru3 Rh1'
_cell_volume   409.07053283
_cell_formula_units_Z   1
loop_
 _symmetry_equiv_pos_site_id
 _symmetry_equiv_pos_as_xyz
  1  'x, y, z'
loop_
 _atom_site_type_symbol
 _atom_site_label
 _atom_site_symmetry_multiplicity
 _atom_site_fract_x
 _atom_site_fract_y
 _atom_site_fract_z
 _atom_site_occupancy
  Dy  Dy0  1  0.630423  0.037500  0.250000  1
  Dy  Dy1  1  0.870161  0.539266  0.250000  1
  Tm  Tm2  1  0.368483  0.960697  0.750000  1
  Tm  Tm3  1  0.132768  0.460912  0.750000  1
  Tm  Tm4  1  0.167757  0.174771  0.061811  1
  Tm  Tm5  1  0.830033  0.822947  0.934583  1
  Tm  Tm6  1  0.672728  0.322704  0.932782  1
  Tm  Tm7  1  0.830033  0.822947  0.565417  1
  Tm  Tm8  1  0.329542  0.679064  0.061486  1
  Tm  Tm9  1  0.167757  0.174771  0.438189  1
  Tm  Tm10  1  0.329542  0.679064  0.438514  1
  Tm  Tm11  1  0.672728  0.322704  0.567218  1
  Ru  Ru12  1  0.536581  0.614635  0.750000  1
  Ru  Ru13  1  0.964480  0.115858  0.750000  1
  Ru  Ru14  1  0.043229  0.885401  0.250000  1
  Rh  Rh15  1  0.453753  0.386758  0.250000  1
