# generated using pymatgen
data_DyY2Ga6Co5Ni4
_symmetry_space_group_name_H-M   'P 1'
_cell_length_a   4.06836700
_cell_length_b   8.70731786
_cell_length_c   8.70930941
_cell_angle_alpha   60.20763108
_cell_angle_beta   90.00000000
_cell_angle_gamma   90.00000000
_symmetry_Int_Tables_number   1
_chemical_formula_structural   DyY2Ga6Co5Ni4
_chemical_formula_sum   'Dy1 Y2 Ga6 Co5 Ni4'
_cell_volume   267.74644883
_cell_formula_units_Z   1
loop_
 _symmetry_equiv_pos_site_id
 _symmetry_equiv_pos_as_xyz
  1  'x, y, z'
loop_
 _atom_site_type_symbol
 _atom_site_label
 _atom_site_symmetry_multiplicity
 _atom_site_fract_x
 _atom_site_fract_y
 _atom_site_fract_z
 _atom_site_occupancy
  Dy  Dy0  1  0.000000  0.001294  0.997170  1
  Y  Y1  1  0.500000  0.332583  0.334028  1
  Y  Y2  1  0.500000  0.664040  0.670032  1
  Ga  Ga3  1  0.000000  0.508879  0.490724  1
  Ga  Ga4  1  0.000000  0.490262  0.000826  1
  Ga  Ga5  1  0.000000  0.003068  0.508679  1
  Ga  Ga6  1  0.500000  0.275097  0.725403  1
  Ga  Ga7  1  0.500000  0.725129  0.999106  1
  Ga  Ga8  1  0.500000  0.000588  0.272991  1
  Co  Co9  1  0.000000  0.176822  0.186718  1
  Co  Co10  1  0.000000  0.187278  0.636948  1
  Co  Co11  1  0.000000  0.636259  0.177723  1
  Co  Co12  1  0.000000  0.812724  0.821013  1
  Co  Co13  1  0.000000  0.364662  0.813166  1
  Ni  Ni14  1  0.000000  0.821914  0.367100  1
  Ni  Ni15  1  0.500000  0.703733  0.294422  1
  Ni  Ni16  1  0.500000  0.296054  0.000838  1
  Ni  Ni17  1  0.500000  0.999511  0.703216  1
