# generated using pymatgen
data_Zr5ZnBiPb2
_symmetry_space_group_name_H-M   'P 1'
_cell_length_a   8.84957714
_cell_length_b   8.84682732
_cell_length_c   5.94408400
_cell_angle_alpha   90.00000000
_cell_angle_beta   90.00000000
_cell_angle_gamma   119.98972767
_symmetry_Int_Tables_number   1
_chemical_formula_structural   Zr5ZnBiPb2
_chemical_formula_sum   'Zr10 Zn2 Bi2 Pb4'
_cell_volume   403.06082011
_cell_formula_units_Z   2
loop_
 _symmetry_equiv_pos_site_id
 _symmetry_equiv_pos_as_xyz
  1  'x, y, z'
loop_
 _atom_site_type_symbol
 _atom_site_label
 _atom_site_symmetry_multiplicity
 _atom_site_fract_x
 _atom_site_fract_y
 _atom_site_fract_z
 _atom_site_occupancy
  Zr  Zr0  1  0.332953  0.666477  0.000000  1
  Zr  Zr1  1  0.666320  0.333160  0.500000  1
  Zr  Zr2  1  0.666320  0.333160  0.000000  1
  Zr  Zr3  1  0.332953  0.666477  0.500000  1
  Zr  Zr4  1  0.265580  0.000018  0.250000  1
  Zr  Zr5  1  0.265580  0.265562  0.750000  1
  Zr  Zr6  1  0.001125  0.734640  0.750000  1
  Zr  Zr7  1  0.001125  0.266485  0.250000  1
  Zr  Zr8  1  0.734458  0.733549  0.250000  1
  Zr  Zr9  1  0.734458  0.000909  0.750000  1
  Zn  Zn10  1  0.000743  0.000372  0.000000  1
  Zn  Zn11  1  0.000743  0.000372  0.500000  1
  Bi  Bi12  1  0.614792  0.000240  0.250000  1
  Bi  Bi13  1  0.614792  0.614553  0.750000  1
  Pb  Pb14  1  0.000029  0.384791  0.750000  1
  Pb  Pb15  1  0.000029  0.615239  0.250000  1
  Pb  Pb16  1  0.383999  0.384048  0.250000  1
  Pb  Pb17  1  0.383999  0.999950  0.750000  1
