# generated using pymatgen
data_Lu8Sc12Si15Pb
_symmetry_space_group_name_H-M   'P 1'
_cell_length_a   7.06860819
_cell_length_b   7.34577308
_cell_length_c   13.96770008
_cell_angle_alpha   90.01286613
_cell_angle_beta   89.16715839
_cell_angle_gamma   89.98856896
_symmetry_Int_Tables_number   1
_chemical_formula_structural   Lu8Sc12Si15Pb
_chemical_formula_sum   'Lu8 Sc12 Si15 Pb1'
_cell_volume   725.18767854
_cell_formula_units_Z   1
loop_
 _symmetry_equiv_pos_site_id
 _symmetry_equiv_pos_as_xyz
  1  'x, y, z'
loop_
 _atom_site_type_symbol
 _atom_site_label
 _atom_site_symmetry_multiplicity
 _atom_site_fract_x
 _atom_site_fract_y
 _atom_site_fract_z
 _atom_site_occupancy
  Lu  Lu0  1  0.995990  0.667531  0.598488  1
  Lu  Lu1  1  0.997085  0.330017  0.398668  1
  Lu  Lu2  1  0.510182  0.184192  0.397915  1
  Lu  Lu3  1  0.007269  0.323338  0.095730  1
  Lu  Lu4  1  0.509947  0.810832  0.600597  1
  Lu  Lu5  1  0.992047  0.676137  0.905352  1
  Lu  Lu6  1  0.493161  0.822978  0.905193  1
  Lu  Lu7  1  0.506952  0.177138  0.096255  1
  Sc  Sc8  1  0.169680  0.996872  0.756327  1
  Sc  Sc9  1  0.829173  0.003014  0.249048  1
  Sc  Sc10  1  0.328805  0.496224  0.249992  1
  Sc  Sc11  1  0.673099  0.504112  0.751565  1
  Sc  Sc12  1  0.353050  0.342077  0.631369  1
  Sc  Sc13  1  0.655667  0.673408  0.372658  1
  Sc  Sc14  1  0.153631  0.816252  0.368248  1
  Sc  Sc15  1  0.661757  0.677918  0.123843  1
  Sc  Sc16  1  0.828998  0.175307  0.626934  1
  Sc  Sc17  1  0.335885  0.323592  0.876392  1
  Sc  Sc18  1  0.836885  0.177569  0.875678  1
  Sc  Sc19  1  0.163115  0.822450  0.124829  1
  Si  Si20  1  0.043032  0.384044  0.751375  1
  Si  Si21  1  0.955330  0.611757  0.246030  1
  Si  Si22  1  0.458235  0.888270  0.248367  1
  Si  Si23  1  0.538660  0.110535  0.752575  1
  Si  Si24  1  0.293478  0.633009  0.753581  1
  Si  Si25  1  0.705928  0.370700  0.246120  1
  Si  Si26  1  0.205536  0.130717  0.248654  1
  Si  Si27  1  0.796285  0.868616  0.752207  1
  Si  Si28  1  0.819750  0.961142  0.458328  1
  Si  Si29  1  0.325911  0.536406  0.460027  1
  Si  Si30  1  0.837552  0.965855  0.038866  1
  Si  Si31  1  0.674864  0.461886  0.537610  1
  Si  Si32  1  0.160948  0.034796  0.962389  1
  Si  Si33  1  0.662076  0.464785  0.961495  1
  Si  Si34  1  0.336472  0.534555  0.039260  1
  Pb  Pb35  1  0.183566  0.041970  0.538035  1
