# generated using pymatgen
data_NaCeB4Rh5
_symmetry_space_group_name_H-M   'P 1'
_cell_length_a   7.46440386
_cell_length_b   6.27224934
_cell_length_c   5.61561947
_cell_angle_alpha   77.57341544
_cell_angle_beta   55.14512503
_cell_angle_gamma   47.28145204
_symmetry_Int_Tables_number   1
_chemical_formula_structural   NaCeB4Rh5
_chemical_formula_sum   'Na1 Ce1 B4 Rh5'
_cell_volume   151.88177611
_cell_formula_units_Z   1
loop_
 _symmetry_equiv_pos_site_id
 _symmetry_equiv_pos_as_xyz
  1  'x, y, z'
loop_
 _atom_site_type_symbol
 _atom_site_label
 _atom_site_symmetry_multiplicity
 _atom_site_fract_x
 _atom_site_fract_y
 _atom_site_fract_z
 _atom_site_occupancy
  Na  Na0  1  0.149932  0.149932  0.850068  1
  Ce  Ce1  1  0.865750  0.865750  0.134250  1
  B  B2  1  0.788607  0.469420  0.530580  1
  B  B3  1  0.207641  0.525501  0.474499  1
  B  B4  1  0.525501  0.207641  0.792359  1
  B  B5  1  0.469420  0.788607  0.211393  1
  Rh  Rh6  1  0.500286  0.500286  0.499714  1
  Rh  Rh7  1  0.499317  0.499317  0.000683  1
  Rh  Rh8  1  0.999317  0.999317  0.500683  1
  Rh  Rh9  1  0.747114  0.747114  0.752886  1
  Rh  Rh10  1  0.247114  0.247114  0.252886  1
