# generated using pymatgen
data_TbY3Cd2Cu3Ru
_symmetry_space_group_name_H-M   'P 1'
_cell_length_a   7.50929947
_cell_length_b   7.50930015
_cell_length_c   3.81717500
_cell_angle_alpha   90.00000000
_cell_angle_beta   90.00000000
_cell_angle_gamma   89.73802946
_symmetry_Int_Tables_number   1
_chemical_formula_structural   TbY3Cd2Cu3Ru
_chemical_formula_sum   'Tb1 Y3 Cd2 Cu3 Ru1'
_cell_volume   215.24665891
_cell_formula_units_Z   1
loop_
 _symmetry_equiv_pos_site_id
 _symmetry_equiv_pos_as_xyz
  1  'x, y, z'
loop_
 _atom_site_type_symbol
 _atom_site_label
 _atom_site_symmetry_multiplicity
 _atom_site_fract_x
 _atom_site_fract_y
 _atom_site_fract_z
 _atom_site_occupancy
  Tb  Tb0  1  0.313168  0.813168  0.500000  1
  Y  Y1  1  0.671285  0.171285  0.500000  1
  Y  Y2  1  0.182458  0.339804  0.500000  1
  Y  Y3  1  0.839804  0.682458  0.500000  1
  Cd  Cd4  1  0.999162  0.007606  0.000000  1
  Cd  Cd5  1  0.507606  0.499162  0.000000  1
  Cu  Cu6  1  0.875861  0.375861  0.000000  1
  Cu  Cu7  1  0.615293  0.876699  0.000000  1
  Cu  Cu8  1  0.376699  0.115293  0.000000  1
  Ru  Ru9  1  0.118662  0.618662  0.000000  1
