# generated using pymatgen
data_HfZrTiSi2Ir
_symmetry_space_group_name_H-M   'P 1'
_cell_length_a   3.82532200
_cell_length_b   6.65224600
_cell_length_c   7.87003600
_cell_angle_alpha   90.00000000
_cell_angle_beta   90.00000000
_cell_angle_gamma   90.00000000
_symmetry_Int_Tables_number   1
_chemical_formula_structural   HfZrTiSi2Ir
_chemical_formula_sum   'Hf2 Zr2 Ti2 Si4 Ir2'
_cell_volume   200.26867209
_cell_formula_units_Z   2
loop_
 _symmetry_equiv_pos_site_id
 _symmetry_equiv_pos_as_xyz
  1  'x, y, z'
loop_
 _atom_site_type_symbol
 _atom_site_label
 _atom_site_symmetry_multiplicity
 _atom_site_fract_x
 _atom_site_fract_y
 _atom_site_fract_z
 _atom_site_occupancy
  Hf  Hf0  1  0.250000  0.025634  0.327054  1
  Hf  Hf1  1  0.250000  0.525634  0.172946  1
  Zr  Zr2  1  0.750000  0.971455  0.672102  1
  Zr  Zr3  1  0.750000  0.471455  0.827898  1
  Ti  Ti4  1  0.250000  0.141777  0.943503  1
  Ti  Ti5  1  0.250000  0.641777  0.556497  1
  Si  Si6  1  0.250000  0.262524  0.624040  1
  Si  Si7  1  0.250000  0.762524  0.875960  1
  Si  Si8  1  0.750000  0.733340  0.356152  1
  Si  Si9  1  0.750000  0.233340  0.143848  1
  Ir  Ir10  1  0.750000  0.865270  0.060689  1
  Ir  Ir11  1  0.750000  0.365270  0.439311  1
