# generated using pymatgen
data_Mg2IO6
_symmetry_space_group_name_H-M   'P 1'
_cell_length_a   4.73245200
_cell_length_b   4.72521200
_cell_length_c   9.26174800
_cell_angle_alpha   90.00000000
_cell_angle_beta   90.00000000
_cell_angle_gamma   90.00000000
_symmetry_Int_Tables_number   1
_chemical_formula_structural   Mg2IO6
_chemical_formula_sum   'Mg4 I2 O12'
_cell_volume   207.10971745
_cell_formula_units_Z   2
loop_
 _symmetry_equiv_pos_site_id
 _symmetry_equiv_pos_as_xyz
  1  'x, y, z'
loop_
 _atom_site_type_symbol
 _atom_site_label
 _atom_site_symmetry_multiplicity
 _atom_site_fract_x
 _atom_site_fract_y
 _atom_site_fract_z
 _atom_site_occupancy
  Mg  Mg0  1  0.000000  0.000000  0.334417  1
  Mg  Mg1  1  0.500000  0.500000  0.165583  1
  Mg  Mg2  1  0.000000  0.000000  0.665583  1
  Mg  Mg3  1  0.500000  0.500000  0.834417  1
  I  I4  1  0.500000  0.500000  0.500000  1
  I  I5  1  0.000000  0.000000  0.000000  1
  O  O6  1  0.688914  0.689344  0.651654  1
  O  O7  1  0.311086  0.310656  0.651654  1
  O  O8  1  0.811086  0.189344  0.848346  1
  O  O9  1  0.188914  0.810656  0.848346  1
  O  O10  1  0.311086  0.310656  0.348346  1
  O  O11  1  0.688914  0.689344  0.348346  1
  O  O12  1  0.188914  0.810656  0.151654  1
  O  O13  1  0.811086  0.189344  0.151654  1
  O  O14  1  0.715815  0.715546  0.000000  1
  O  O15  1  0.284185  0.284454  0.000000  1
  O  O16  1  0.784185  0.215546  0.500000  1
  O  O17  1  0.215815  0.784454  0.500000  1
