# generated using pymatgen
data_La5Nd3(Cd3Au10)2
_symmetry_space_group_name_H-M   'P 1'
_cell_length_a   8.74422709
_cell_length_b   8.74420779
_cell_length_c   10.41060900
_cell_angle_alpha   89.95914562
_cell_angle_beta   89.96041032
_cell_angle_gamma   108.24561643
_symmetry_Int_Tables_number   1
_chemical_formula_structural   La5Nd3(Cd3Au10)2
_chemical_formula_sum   'La5 Nd3 Cd6 Au20'
_cell_volume   755.98767365
_cell_formula_units_Z   1
loop_
 _symmetry_equiv_pos_site_id
 _symmetry_equiv_pos_as_xyz
  1  'x, y, z'
loop_
 _atom_site_type_symbol
 _atom_site_label
 _atom_site_symmetry_multiplicity
 _atom_site_fract_x
 _atom_site_fract_y
 _atom_site_fract_z
 _atom_site_occupancy
  La  La0  1  0.201666  0.798328  0.499998  1
  La  La1  1  0.301291  0.300138  0.205506  1
  La  La2  1  0.699860  0.698716  0.794496  1
  La  La3  1  0.199736  0.199937  0.706733  1
  La  La4  1  0.800065  0.800254  0.293273  1
  Nd  Nd5  1  0.701155  0.298863  0.000009  1
  Nd  Nd6  1  0.299120  0.700888  0.000002  1
  Nd  Nd7  1  0.798301  0.201698  0.500000  1
  Cd  Cd8  1  0.018395  0.516904  0.249831  1
  Cd  Cd9  1  0.982241  0.482274  0.749150  1
  Cd  Cd10  1  0.483065  0.981611  0.750150  1
  Cd  Cd11  1  0.517725  0.017761  0.250840  1
  Cd  Cd12  1  0.999146  0.000861  0.999995  1
  Cd  Cd13  1  0.498960  0.501031  0.500009  1
  Au  Au14  1  0.096411  0.097671  0.405731  1
  Au  Au15  1  0.902330  0.903593  0.594272  1
  Au  Au16  1  0.402178  0.400968  0.907925  1
  Au  Au17  1  0.599033  0.597829  0.092070  1
  Au  Au18  1  0.882653  0.166743  0.210609  1
  Au  Au19  1  0.115791  0.833482  0.791046  1
  Au  Au20  1  0.615627  0.332297  0.711242  1
  Au  Au21  1  0.667703  0.384382  0.288765  1
  Au  Au22  1  0.384917  0.666349  0.287307  1
  Au  Au23  1  0.333650  0.615092  0.712697  1
  Au  Au24  1  0.833227  0.117348  0.789388  1
  Au  Au25  1  0.166511  0.884204  0.208957  1
  Au  Au26  1  0.933431  0.654417  0.017956  1
  Au  Au27  1  0.067212  0.346443  0.982492  1
  Au  Au28  1  0.569213  0.845999  0.517111  1
  Au  Au29  1  0.153998  0.430784  0.482886  1
  Au  Au30  1  0.433046  0.156809  0.482412  1
  Au  Au31  1  0.843185  0.566957  0.517590  1
  Au  Au32  1  0.345595  0.066574  0.982047  1
  Au  Au33  1  0.653557  0.932796  0.017502  1
