# generated using pymatgen
data_La2Tb(HoRu)2
_symmetry_space_group_name_H-M   'P 1'
_cell_length_a   6.50834681
_cell_length_b   7.24263358
_cell_length_c   8.80365901
_cell_angle_alpha   96.31030580
_cell_angle_beta   111.69334221
_cell_angle_gamma   89.99999443
_symmetry_Int_Tables_number   1
_chemical_formula_structural   La2Tb(HoRu)2
_chemical_formula_sum   'La4 Tb2 Ho4 Ru4'
_cell_volume   382.88489405
_cell_formula_units_Z   2
loop_
 _symmetry_equiv_pos_site_id
 _symmetry_equiv_pos_as_xyz
  1  'x, y, z'
loop_
 _atom_site_type_symbol
 _atom_site_label
 _atom_site_symmetry_multiplicity
 _atom_site_fract_x
 _atom_site_fract_y
 _atom_site_fract_z
 _atom_site_occupancy
  La  La0  1  0.978333  0.911641  0.193913  1
  La  La1  1  0.784419  0.588359  0.806087  1
  La  La2  1  0.021106  0.089087  0.805701  1
  La  La3  1  0.215406  0.410913  0.194299  1
  Tb  Tb4  1  0.636497  0.815279  0.431007  1
  Tb  Tb5  1  0.205488  0.684721  0.568993  1
  Ho  Ho6  1  0.364096  0.184858  0.569298  1
  Ho  Ho7  1  0.794799  0.315142  0.430702  1
  Ho  Ho8  1  0.425925  0.750000  0.000000  1
  Ho  Ho9  1  0.574012  0.250000  0.000000  1
  Ru  Ru10  1  0.825030  0.580872  0.224159  1
  Ru  Ru11  1  0.600871  0.919128  0.775841  1
  Ru  Ru12  1  0.174707  0.418599  0.775396  1
  Ru  Ru13  1  0.399311  0.081401  0.224604  1
