# generated using pymatgen
data_Tm3Sc2Sb3C
_symmetry_space_group_name_H-M   'P 1'
_cell_length_a   8.66025500
_cell_length_b   8.66025453
_cell_length_c   6.21158800
_cell_angle_alpha   90.00000000
_cell_angle_beta   90.00000000
_cell_angle_gamma   120.00000562
_symmetry_Int_Tables_number   1
_chemical_formula_structural   Tm3Sc2Sb3C
_chemical_formula_sum   'Tm6 Sc4 Sb6 C2'
_cell_volume   403.45452026
_cell_formula_units_Z   2
loop_
 _symmetry_equiv_pos_site_id
 _symmetry_equiv_pos_as_xyz
  1  'x, y, z'
loop_
 _atom_site_type_symbol
 _atom_site_label
 _atom_site_symmetry_multiplicity
 _atom_site_fract_x
 _atom_site_fract_y
 _atom_site_fract_z
 _atom_site_occupancy
  Tm  Tm0  1  0.785379  0.785379  0.250000  1
  Tm  Tm1  1  0.214621  0.000000  0.250000  1
  Tm  Tm2  1  0.000000  0.214621  0.250000  1
  Tm  Tm3  1  0.214621  0.214621  0.750000  1
  Tm  Tm4  1  0.785379  0.000000  0.750000  1
  Tm  Tm5  1  0.000000  0.785379  0.750000  1
  Sc  Sc6  1  0.666667  0.333333  0.500000  1
  Sc  Sc7  1  0.333333  0.666667  0.500000  1
  Sc  Sc8  1  0.333333  0.666667  0.000000  1
  Sc  Sc9  1  0.666667  0.333333  0.000000  1
  Sb  Sb10  1  0.406980  0.406980  0.250000  1
  Sb  Sb11  1  0.593020  0.000000  0.250000  1
  Sb  Sb12  1  0.000000  0.593020  0.250000  1
  Sb  Sb13  1  0.593020  0.593020  0.750000  1
  Sb  Sb14  1  0.406980  0.000000  0.750000  1
  Sb  Sb15  1  0.000000  0.406980  0.750000  1
  C  C16  1  0.000000  0.000000  0.500000  1
  C  C17  1  0.000000  0.000000  0.000000  1
