# generated using pymatgen
data_Y2GaSi4Rh3
_symmetry_space_group_name_H-M   'P 1'
_cell_length_a   8.20358524
_cell_length_b   8.20358522
_cell_length_c   5.68372324
_cell_angle_alpha   71.44354854
_cell_angle_beta   71.44354653
_cell_angle_gamma   94.48660481
_symmetry_Int_Tables_number   1
_chemical_formula_structural   Y2GaSi4Rh3
_chemical_formula_sum   'Y4 Ga2 Si8 Rh6'
_cell_volume   336.84236238
_cell_formula_units_Z   2
loop_
 _symmetry_equiv_pos_site_id
 _symmetry_equiv_pos_as_xyz
  1  'x, y, z'
loop_
 _atom_site_type_symbol
 _atom_site_label
 _atom_site_symmetry_multiplicity
 _atom_site_fract_x
 _atom_site_fract_y
 _atom_site_fract_z
 _atom_site_occupancy
  Y  Y0  1  0.866446  0.599557  0.756925  1
  Y  Y1  1  0.133554  0.400443  0.243075  1
  Y  Y2  1  0.400443  0.133554  0.743075  1
  Y  Y3  1  0.599557  0.866446  0.256925  1
  Ga  Ga4  1  0.777288  0.222712  0.750000  1
  Ga  Ga5  1  0.222712  0.777288  0.250000  1
  Si  Si6  1  0.513751  0.486249  0.750000  1
  Si  Si7  1  0.486249  0.513751  0.250000  1
  Si  Si8  1  0.212433  0.787567  0.750000  1
  Si  Si9  1  0.787567  0.212433  0.250000  1
  Si  Si10  1  0.264599  0.061782  0.338860  1
  Si  Si11  1  0.735401  0.938218  0.661140  1
  Si  Si12  1  0.938218  0.735401  0.161140  1
  Si  Si13  1  0.061782  0.264599  0.838860  1
  Rh  Rh14  1  0.535293  0.263061  0.135872  1
  Rh  Rh15  1  0.736939  0.464707  0.364128  1
  Rh  Rh16  1  0.464707  0.736939  0.864128  1
  Rh  Rh17  1  0.263061  0.535293  0.635872  1
  Rh  Rh18  1  0.992828  0.007172  0.250000  1
  Rh  Rh19  1  0.007172  0.992828  0.750000  1
