# generated using pymatgen
data_K2BaNp3O9
_symmetry_space_group_name_H-M   'P 1'
_cell_length_a   6.15070900
_cell_length_b   6.15070940
_cell_length_c   7.51574800
_cell_angle_alpha   90.00000000
_cell_angle_beta   90.00000000
_cell_angle_gamma   119.99999245
_symmetry_Int_Tables_number   1
_chemical_formula_structural   K2BaNp3O9
_chemical_formula_sum   'K2 Ba1 Np3 O9'
_cell_volume   246.23697307
_cell_formula_units_Z   1
loop_
 _symmetry_equiv_pos_site_id
 _symmetry_equiv_pos_as_xyz
  1  'x, y, z'
loop_
 _atom_site_type_symbol
 _atom_site_label
 _atom_site_symmetry_multiplicity
 _atom_site_fract_x
 _atom_site_fract_y
 _atom_site_fract_z
 _atom_site_occupancy
  K  K0  1  0.666667  0.333333  0.333951  1
  K  K1  1  0.333333  0.666667  0.666049  1
  Ba  Ba2  1  0.000000  0.000000  0.000000  1
  Np  Np3  1  0.000000  0.000000  0.500000  1
  Np  Np4  1  0.666667  0.333333  0.831684  1
  Np  Np5  1  0.333333  0.666667  0.168316  1
  O  O6  1  0.674439  0.837219  0.325054  1
  O  O7  1  0.325561  0.162781  0.674946  1
  O  O8  1  0.000000  0.500000  0.000000  1
  O  O9  1  0.837219  0.674439  0.674946  1
  O  O10  1  0.500000  0.000000  0.000000  1
  O  O11  1  0.162781  0.325561  0.325054  1
  O  O12  1  0.837219  0.162781  0.674946  1
  O  O13  1  0.500000  0.500000  0.000000  1
  O  O14  1  0.162781  0.837219  0.325054  1
