# generated using pymatgen
data_NdSm4Bi3O14
_symmetry_space_group_name_H-M   'P 1'
_cell_length_a   6.69753283
_cell_length_b   6.74288618
_cell_length_c   7.88837760
_cell_angle_alpha   106.77903100
_cell_angle_beta   89.65302172
_cell_angle_gamma   98.22992433
_symmetry_Int_Tables_number   1
_chemical_formula_structural   NdSm4Bi3O14
_chemical_formula_sum   'Nd1 Sm4 Bi3 O14'
_cell_volume   337.33118205
_cell_formula_units_Z   1
loop_
 _symmetry_equiv_pos_site_id
 _symmetry_equiv_pos_as_xyz
  1  'x, y, z'
loop_
 _atom_site_type_symbol
 _atom_site_label
 _atom_site_symmetry_multiplicity
 _atom_site_fract_x
 _atom_site_fract_y
 _atom_site_fract_z
 _atom_site_occupancy
  Nd  Nd0  1  0.751285  0.484283  0.619456  1
  Sm  Sm1  1  0.457636  0.007807  0.254158  1
  Sm  Sm2  1  0.537940  0.001402  0.750788  1
  Sm  Sm3  1  0.269331  0.533150  0.882689  1
  Sm  Sm4  1  0.741471  0.461121  0.114119  1
  Bi  Bi5  1  0.993680  0.998675  0.499835  1
  Bi  Bi6  1  0.998497  0.995558  0.997356  1
  Bi  Bi7  1  0.286943  0.537305  0.389199  1
  O  O8  1  0.447413  0.649816  0.170148  1
  O  O9  1  0.557859  0.358101  0.838470  1
  O  O10  1  0.298451  0.921148  0.952794  1
  O  O11  1  0.700899  0.074377  0.049220  1
  O  O12  1  0.293552  0.928796  0.514170  1
  O  O13  1  0.701097  0.084150  0.492450  1
  O  O14  1  0.548193  0.364615  0.342746  1
  O  O15  1  0.454985  0.640674  0.654365  1
  O  O16  1  0.926933  0.665367  0.949024  1
  O  O17  1  0.068607  0.318582  0.026202  1
  O  O18  1  0.072328  0.330133  0.627371  1
  O  O19  1  0.905260  0.670072  0.381887  1
  O  O20  1  0.877301  0.904287  0.726427  1
  O  O21  1  0.110335  0.070584  0.267122  1
