# generated using pymatgen
data_Hf4Ti3CrP4
_symmetry_space_group_name_H-M   'P 1'
_cell_length_a   3.50441900
_cell_length_b   6.68033931
_cell_length_c   8.03852974
_cell_angle_alpha   89.92644250
_cell_angle_beta   90.00000000
_cell_angle_gamma   90.00000000
_symmetry_Int_Tables_number   1
_chemical_formula_structural   Hf4Ti3CrP4
_chemical_formula_sum   'Hf4 Ti3 Cr1 P4'
_cell_volume   188.18751740
_cell_formula_units_Z   1
loop_
 _symmetry_equiv_pos_site_id
 _symmetry_equiv_pos_as_xyz
  1  'x, y, z'
loop_
 _atom_site_type_symbol
 _atom_site_label
 _atom_site_symmetry_multiplicity
 _atom_site_fract_x
 _atom_site_fract_y
 _atom_site_fract_z
 _atom_site_occupancy
  Hf  Hf0  1  0.250000  0.535298  0.167166  1
  Hf  Hf1  1  0.750000  0.456580  0.835288  1
  Hf  Hf2  1  0.750000  0.965429  0.670450  1
  Hf  Hf3  1  0.250000  0.037747  0.327688  1
  Ti  Ti4  1  0.250000  0.633981  0.561570  1
  Ti  Ti5  1  0.750000  0.361140  0.440634  1
  Ti  Ti6  1  0.750000  0.873263  0.056368  1
  Cr  Cr7  1  0.250000  0.135525  0.941418  1
  P  P8  1  0.250000  0.764081  0.860251  1
  P  P9  1  0.750000  0.238209  0.133354  1
  P  P10  1  0.750000  0.739104  0.360183  1
  P  P11  1  0.250000  0.259643  0.645630  1
