# generated using pymatgen
data_La7Pr5(SiBr3)4
_symmetry_space_group_name_H-M   'P 1'
_cell_length_a   10.61645013
_cell_length_b   10.58424364
_cell_length_c   10.61645018
_cell_angle_alpha   109.41938349
_cell_angle_beta   109.61392988
_cell_angle_gamma   109.41938501
_symmetry_Int_Tables_number   1
_chemical_formula_structural   La7Pr5(SiBr3)4
_chemical_formula_sum   'La7 Pr5 Si4 Br12'
_cell_volume   917.88005386
_cell_formula_units_Z   1
loop_
 _symmetry_equiv_pos_site_id
 _symmetry_equiv_pos_as_xyz
  1  'x, y, z'
loop_
 _atom_site_type_symbol
 _atom_site_label
 _atom_site_symmetry_multiplicity
 _atom_site_fract_x
 _atom_site_fract_y
 _atom_site_fract_z
 _atom_site_occupancy
  La  La0  1  0.240506  0.479838  0.489812  1
  La  La1  1  0.010188  0.020162  0.259494  1
  La  La2  1  0.011255  0.490973  0.750107  1
  La  La3  1  0.490697  0.240188  0.479266  1
  La  La4  1  0.749893  0.009027  0.488745  1
  La  La5  1  0.020734  0.259812  0.009303  1
  La  La6  1  0.260721  0.750000  0.239279  1
  Pr  Pr7  1  0.487557  0.750000  0.012443  1
  Pr  Pr8  1  0.749650  0.236946  0.262026  1
  Pr  Pr9  1  0.237974  0.263054  0.750350  1
  Pr  Pr10  1  0.475294  0.486141  0.235087  1
  Pr  Pr11  1  0.264913  0.013859  0.024706  1
  Si  Si12  1  0.250072  0.250000  0.249928  1
  Si  Si13  1  0.000039  0.250000  0.499961  1
  Si  Si14  1  0.249215  0.499904  0.999590  1
  Si  Si15  1  0.500410  0.000096  0.250785  1
  Br  Br16  1  0.999894  0.993071  0.747012  1
  Br  Br17  1  0.751546  0.744107  0.247722  1
  Br  Br18  1  0.993300  0.747618  0.994739  1
  Br  Br19  1  0.250385  0.997160  0.505389  1
  Br  Br20  1  0.744152  0.996060  0.992608  1
  Br  Br21  1  0.503156  0.250000  0.996844  1
  Br  Br22  1  0.745916  0.250000  0.754084  1
  Br  Br23  1  0.505261  0.752382  0.506700  1
  Br  Br24  1  0.752988  0.506929  0.500106  1
  Br  Br25  1  0.252278  0.755893  0.748454  1
  Br  Br26  1  0.507392  0.503940  0.755848  1
  Br  Br27  1  0.994611  0.502840  0.249615  1
