# generated using pymatgen
data_La3Eu(SO4)6
_symmetry_space_group_name_H-M   'P 1'
_cell_length_a   6.82986467
_cell_length_b   7.07552233
_cell_length_c   11.46587600
_cell_angle_alpha   106.51312554
_cell_angle_beta   107.76340760
_cell_angle_gamma   89.93477011
_symmetry_Int_Tables_number   1
_chemical_formula_structural   La3Eu(SO4)6
_chemical_formula_sum   'La3 Eu1 S6 O24'
_cell_volume   503.67941039
_cell_formula_units_Z   1
loop_
 _symmetry_equiv_pos_site_id
 _symmetry_equiv_pos_as_xyz
  1  'x, y, z'
loop_
 _atom_site_type_symbol
 _atom_site_label
 _atom_site_symmetry_multiplicity
 _atom_site_fract_x
 _atom_site_fract_y
 _atom_site_fract_z
 _atom_site_occupancy
  La  La0  1  0.782330  0.129735  0.264576  1
  La  La1  1  0.481019  0.628931  0.264077  1
  La  La2  1  0.517419  0.371210  0.735120  1
  Eu  Eu3  1  0.217823  0.868154  0.735147  1
  S  S4  1  0.664635  0.245767  0.998730  1
  S  S5  1  0.330446  0.752479  0.997877  1
  S  S6  1  0.999406  0.677876  0.369172  1
  S  S7  1  0.368302  0.176306  0.365755  1
  S  S8  1  0.003518  0.323031  0.634884  1
  S  S9  1  0.634503  0.824809  0.634559  1
  O  O10  1  0.233162  0.611759  0.041674  1
  O  O11  1  0.808086  0.107421  0.045328  1
  O  O12  1  0.591747  0.351725  0.109861  1
  O  O13  1  0.513633  0.858237  0.110911  1
  O  O14  1  0.148261  0.624381  0.297817  1
  O  O15  1  0.147473  0.120903  0.293655  1
  O  O16  1  0.460632  0.297369  0.302473  1
  O  O17  1  0.841879  0.798598  0.305226  1
  O  O18  1  0.483737  0.996544  0.356628  1
  O  O19  1  0.873755  0.496746  0.357225  1
  O  O20  1  0.899031  0.211304  0.500268  1
  O  O21  1  0.599723  0.709218  0.500045  1
  O  O22  1  0.398471  0.290985  0.499387  1
  O  O23  1  0.102961  0.790343  0.503164  1
  O  O24  1  0.129898  0.503451  0.646288  1
  O  O25  1  0.523309  0.007053  0.643420  1
  O  O26  1  0.159213  0.200131  0.697415  1
  O  O27  1  0.537583  0.706374  0.697531  1
  O  O28  1  0.856331  0.874603  0.705649  1
  O  O29  1  0.853656  0.377434  0.705343  1
  O  O30  1  0.481105  0.140584  0.887010  1
  O  O31  1  0.407030  0.648494  0.888980  1
  O  O32  1  0.189370  0.890630  0.950358  1
  O  O33  1  0.760554  0.387419  0.954448  1
