# generated using pymatgen
data_La4CeSm5(Sn5Rh2)4
_symmetry_space_group_name_H-M   'P 1'
_cell_length_a   14.25468200
_cell_length_b   14.25468200
_cell_length_c   4.61309900
_cell_angle_alpha   90.00000000
_cell_angle_beta   90.00000000
_cell_angle_gamma   90.00000000
_symmetry_Int_Tables_number   1
_chemical_formula_structural   La4CeSm5(Sn5Rh2)4
_chemical_formula_sum   'La4 Ce1 Sm5 Sn20 Rh8'
_cell_volume   937.36307490
_cell_formula_units_Z   1
loop_
 _symmetry_equiv_pos_site_id
 _symmetry_equiv_pos_as_xyz
  1  'x, y, z'
loop_
 _atom_site_type_symbol
 _atom_site_label
 _atom_site_symmetry_multiplicity
 _atom_site_fract_x
 _atom_site_fract_y
 _atom_site_fract_z
 _atom_site_occupancy
  La  La0  1  0.889269  0.389063  0.500000  1
  La  La1  1  0.110731  0.610937  0.500000  1
  La  La2  1  0.389063  0.110731  0.500000  1
  La  La3  1  0.610937  0.889269  0.500000  1
  Ce  Ce4  1  0.000000  0.000000  0.000000  1
  Sm  Sm5  1  0.500000  0.500000  0.000000  1
  Sm  Sm6  1  0.678095  0.178156  0.500000  1
  Sm  Sm7  1  0.321905  0.821844  0.500000  1
  Sm  Sm8  1  0.178156  0.321905  0.500000  1
  Sm  Sm9  1  0.821844  0.678095  0.500000  1
  Sn  Sn10  1  0.570481  0.070514  0.000000  1
  Sn  Sn11  1  0.429519  0.929486  0.000000  1
  Sn  Sn12  1  0.070514  0.429519  0.000000  1
  Sn  Sn13  1  0.929486  0.570481  0.000000  1
  Sn  Sn14  1  0.653100  0.698394  0.000000  1
  Sn  Sn15  1  0.346900  0.301606  0.000000  1
  Sn  Sn16  1  0.152413  0.801634  0.000000  1
  Sn  Sn17  1  0.847587  0.198366  0.000000  1
  Sn  Sn18  1  0.301606  0.653100  0.000000  1
  Sn  Sn19  1  0.698394  0.346900  0.000000  1
  Sn  Sn20  1  0.198366  0.152413  0.000000  1
  Sn  Sn21  1  0.801634  0.847587  0.000000  1
  Sn  Sn22  1  0.661941  0.504934  0.500000  1
  Sn  Sn23  1  0.338059  0.495066  0.500000  1
  Sn  Sn24  1  0.161285  0.993987  0.500000  1
  Sn  Sn25  1  0.838715  0.006013  0.500000  1
  Sn  Sn26  1  0.495066  0.661941  0.500000  1
  Sn  Sn27  1  0.504934  0.338059  0.500000  1
  Sn  Sn28  1  0.006013  0.161285  0.500000  1
  Sn  Sn29  1  0.993987  0.838715  0.500000  1
  Rh  Rh30  1  0.745053  0.529818  0.000000  1
  Rh  Rh31  1  0.254947  0.470182  0.000000  1
  Rh  Rh32  1  0.244949  0.969565  0.000000  1
  Rh  Rh33  1  0.755051  0.030435  0.000000  1
  Rh  Rh34  1  0.470182  0.745053  0.000000  1
  Rh  Rh35  1  0.529818  0.254947  0.000000  1
  Rh  Rh36  1  0.030435  0.244949  0.000000  1
  Rh  Rh37  1  0.969565  0.755051  0.000000  1
