# generated using pymatgen
data_TbY2Al2Co9B4
_symmetry_space_group_name_H-M   'P 1'
_cell_length_a   5.15306900
_cell_length_b   5.15430171
_cell_length_c   9.54873400
_cell_angle_alpha   89.99980553
_cell_angle_beta   89.99999841
_cell_angle_gamma   120.00235019
_symmetry_Int_Tables_number   1
_chemical_formula_structural   TbY2Al2Co9B4
_chemical_formula_sum   'Tb1 Y2 Al2 Co9 B4'
_cell_volume   219.63519602
_cell_formula_units_Z   1
loop_
 _symmetry_equiv_pos_site_id
 _symmetry_equiv_pos_as_xyz
  1  'x, y, z'
loop_
 _atom_site_type_symbol
 _atom_site_label
 _atom_site_symmetry_multiplicity
 _atom_site_fract_x
 _atom_site_fract_y
 _atom_site_fract_z
 _atom_site_occupancy
  Tb  Tb0  1  0.999992  0.999992  0.660171  1
  Y  Y1  1  0.999987  0.999995  0.000120  1
  Y  Y2  1  0.000005  0.000012  0.340122  1
  Al  Al3  1  0.333407  0.666603  0.999980  1
  Al  Al4  1  0.666568  0.333386  0.999979  1
  Co  Co5  1  0.499998  0.000002  0.500100  1
  Co  Co6  1  0.499997  0.500002  0.500075  1
  Co  Co7  1  0.999996  0.500001  0.500063  1
  Co  Co8  1  0.500000  0.000005  0.206835  1
  Co  Co9  1  0.500003  0.500011  0.206907  1
  Co  Co10  1  0.999999  0.500008  0.206812  1
  Co  Co11  1  0.499991  0.999995  0.793021  1
  Co  Co12  1  0.499989  0.499993  0.792982  1
  Co  Co13  1  0.999990  0.499991  0.793113  1
  B  B14  1  0.333261  0.666705  0.348924  1
  B  B15  1  0.666735  0.333305  0.348923  1
  B  B16  1  0.666814  0.333388  0.650938  1
  B  B17  1  0.333170  0.666605  0.650938  1
