# generated using pymatgen
data_TbEr4Sc(Si3Ru)8
_symmetry_space_group_name_H-M   'P 1'
_cell_length_a   10.08624156
_cell_length_b   10.08676957
_cell_length_c   8.10866427
_cell_angle_alpha   90.02266621
_cell_angle_beta   89.96972136
_cell_angle_gamma   132.60312024
_symmetry_Int_Tables_number   1
_chemical_formula_structural   TbEr4Sc(Si3Ru)8
_chemical_formula_sum   'Tb1 Er4 Sc1 Si24 Ru8'
_cell_volume   607.21721095
_cell_formula_units_Z   1
loop_
 _symmetry_equiv_pos_site_id
 _symmetry_equiv_pos_as_xyz
  1  'x, y, z'
loop_
 _atom_site_type_symbol
 _atom_site_label
 _atom_site_symmetry_multiplicity
 _atom_site_fract_x
 _atom_site_fract_y
 _atom_site_fract_z
 _atom_site_occupancy
  Tb  Tb0  1  0.497693  0.997719  0.250083  1
  Er  Er1  1  0.002127  0.502186  0.749856  1
  Er  Er2  1  0.502255  0.002203  0.749861  1
  Er  Er3  1  0.997814  0.497802  0.250143  1
  Er  Er4  1  0.000004  0.000017  0.999987  1
  Sc  Sc5  1  0.500013  0.500009  0.500052  1
  Si  Si6  1  0.388409  0.154709  0.004651  1
  Si  Si7  1  0.653581  0.885415  0.495480  1
  Si  Si8  1  0.114291  0.346065  0.504835  1
  Si  Si9  1  0.844992  0.611349  0.995007  1
  Si  Si10  1  0.611568  0.845386  0.994630  1
  Si  Si11  1  0.346508  0.114559  0.505182  1
  Si  Si12  1  0.885640  0.653862  0.495151  1
  Si  Si13  1  0.154962  0.388610  0.005016  1
  Si  Si14  1  0.611909  0.379513  0.230164  1
  Si  Si15  1  0.878535  0.112912  0.271849  1
  Si  Si16  1  0.887186  0.121557  0.728016  1
  Si  Si17  1  0.620587  0.388202  0.770041  1
  Si  Si18  1  0.388447  0.620845  0.770038  1
  Si  Si19  1  0.121883  0.887475  0.728009  1
  Si  Si20  1  0.705278  0.295468  0.999535  1
  Si  Si21  1  0.795202  0.205549  0.500461  1
  Si  Si22  1  0.294665  0.704510  0.999508  1
  Si  Si23  1  0.204758  0.794383  0.500497  1
  Si  Si24  1  0.169896  0.169921  0.334482  1
  Si  Si25  1  0.666121  0.666086  0.169216  1
  Si  Si26  1  0.333867  0.333920  0.830824  1
  Si  Si27  1  0.830104  0.830083  0.665502  1
  Si  Si28  1  0.379060  0.611530  0.230237  1
  Si  Si29  1  0.112521  0.878047  0.271738  1
  Ru  Ru30  1  0.627243  0.627280  0.872979  1
  Ru  Ru31  1  0.126360  0.126311  0.628095  1
  Ru  Ru32  1  0.873772  0.873720  0.371832  1
  Ru  Ru33  1  0.372784  0.372827  0.127107  1
  Ru  Ru34  1  0.330466  0.667867  0.500640  1
  Ru  Ru35  1  0.168491  0.829853  0.999295  1
  Ru  Ru36  1  0.669508  0.332108  0.500518  1
  Ru  Ru37  1  0.831499  0.170145  0.999482  1
