# generated using pymatgen
data_Sm3Er(Tm4Bi3)4
_symmetry_space_group_name_H-M   'P 1'
_cell_length_a   8.23478502
_cell_length_b   9.45828900
_cell_length_c   11.97554403
_cell_angle_alpha   90.00000000
_cell_angle_beta   89.99131194
_cell_angle_gamma   90.00000000
_symmetry_Int_Tables_number   1
_chemical_formula_structural   Sm3Er(Tm4Bi3)4
_chemical_formula_sum   'Sm3 Er1 Tm16 Bi12'
_cell_volume   932.73890734
_cell_formula_units_Z   1
loop_
 _symmetry_equiv_pos_site_id
 _symmetry_equiv_pos_as_xyz
  1  'x, y, z'
loop_
 _atom_site_type_symbol
 _atom_site_label
 _atom_site_symmetry_multiplicity
 _atom_site_fract_x
 _atom_site_fract_y
 _atom_site_fract_z
 _atom_site_occupancy
  Sm  Sm0  1  0.314530  0.250000  0.218600  1
  Sm  Sm1  1  0.814462  0.250000  0.281318  1
  Sm  Sm2  1  0.685823  0.750000  0.781500  1
  Er  Er3  1  0.186460  0.750000  0.717516  1
  Tm  Tm4  1  0.352172  0.750000  0.217552  1
  Tm  Tm5  1  0.852551  0.750000  0.282668  1
  Tm  Tm6  1  0.647390  0.250000  0.782159  1
  Tm  Tm7  1  0.147573  0.250000  0.717670  1
  Tm  Tm8  1  0.691168  0.566126  0.059500  1
  Tm  Tm9  1  0.191642  0.933910  0.440785  1
  Tm  Tm10  1  0.308665  0.066089  0.940163  1
  Tm  Tm11  1  0.808232  0.433888  0.559589  1
  Tm  Tm12  1  0.308665  0.433911  0.940163  1
  Tm  Tm13  1  0.808232  0.066112  0.559589  1
  Tm  Tm14  1  0.691168  0.933874  0.059500  1
  Tm  Tm15  1  0.191642  0.566090  0.440785  1
  Tm  Tm16  1  0.476994  0.250000  0.489717  1
  Tm  Tm17  1  0.977450  0.250000  0.010413  1
  Tm  Tm18  1  0.522498  0.750000  0.511204  1
  Tm  Tm19  1  0.022914  0.750000  0.989044  1
  Bi  Bi20  1  0.401349  0.750000  0.959501  1
  Bi  Bi21  1  0.905101  0.750000  0.541277  1
  Bi  Bi22  1  0.597384  0.250000  0.039350  1
  Bi  Bi23  1  0.097119  0.250000  0.460638  1
  Bi  Bi24  1  0.564955  0.992577  0.326824  1
  Bi  Bi25  1  0.064728  0.507277  0.173430  1
  Bi  Bi26  1  0.432907  0.494463  0.673736  1
  Bi  Bi27  1  0.936818  0.005961  0.825911  1
  Bi  Bi28  1  0.432907  0.005537  0.673736  1
  Bi  Bi29  1  0.936818  0.494039  0.825911  1
  Bi  Bi30  1  0.564955  0.507423  0.326824  1
  Bi  Bi31  1  0.064728  0.992723  0.173430  1
