# generated using pymatgen
data_HoEr9(CoBi2)2
_symmetry_space_group_name_H-M   'P 1'
_cell_length_a   7.92251086
_cell_length_b   8.84530100
_cell_length_c   12.34869297
_cell_angle_alpha   90.00000000
_cell_angle_beta   90.07645770
_cell_angle_gamma   90.00000000
_symmetry_Int_Tables_number   1
_chemical_formula_structural   HoEr9(CoBi2)2
_chemical_formula_sum   'Ho2 Er18 Co4 Bi8'
_cell_volume   865.35850340
_cell_formula_units_Z   2
loop_
 _symmetry_equiv_pos_site_id
 _symmetry_equiv_pos_as_xyz
  1  'x, y, z'
loop_
 _atom_site_type_symbol
 _atom_site_label
 _atom_site_symmetry_multiplicity
 _atom_site_fract_x
 _atom_site_fract_y
 _atom_site_fract_z
 _atom_site_occupancy
  Ho  Ho0  1  0.654660  0.750000  0.699942  1
  Ho  Ho1  1  0.345340  0.250000  0.300058  1
  Er  Er2  1  0.153709  0.250000  0.801244  1
  Er  Er3  1  0.846291  0.750000  0.198756  1
  Er  Er4  1  0.119498  0.750000  0.813653  1
  Er  Er5  1  0.880502  0.250000  0.186347  1
  Er  Er6  1  0.618969  0.250000  0.686320  1
  Er  Er7  1  0.381031  0.750000  0.313680  1
  Er  Er8  1  0.552858  0.750000  0.997212  1
  Er  Er9  1  0.447142  0.250000  0.002788  1
  Er  Er10  1  0.052632  0.250000  0.502495  1
  Er  Er11  1  0.947368  0.750000  0.497505  1
  Er  Er12  1  0.826042  0.463247  0.935908  1
  Er  Er13  1  0.173958  0.536753  0.064092  1
  Er  Er14  1  0.325979  0.536401  0.563926  1
  Er  Er15  1  0.173958  0.963247  0.064092  1
  Er  Er16  1  0.674021  0.463599  0.436074  1
  Er  Er17  1  0.826042  0.036753  0.935908  1
  Er  Er18  1  0.674021  0.036401  0.436074  1
  Er  Er19  1  0.325979  0.963599  0.563926  1
  Co  Co20  1  0.936537  0.750000  0.992516  1
  Co  Co21  1  0.063463  0.250000  0.007484  1
  Co  Co22  1  0.436681  0.250000  0.507030  1
  Co  Co23  1  0.563319  0.750000  0.492970  1
  Bi  Bi24  1  0.932819  0.008223  0.673407  1
  Bi  Bi25  1  0.067181  0.991777  0.326593  1
  Bi  Bi26  1  0.431610  0.992554  0.826734  1
  Bi  Bi27  1  0.067181  0.508223  0.326593  1
  Bi  Bi28  1  0.568390  0.007446  0.173266  1
  Bi  Bi29  1  0.932819  0.491777  0.673407  1
  Bi  Bi30  1  0.568390  0.492554  0.173266  1
  Bi  Bi31  1  0.431610  0.507446  0.826734  1
