# generated using pymatgen
data_Dy3Er7(In2Cu)4
_symmetry_space_group_name_H-M   'P 1'
_cell_length_a   3.63164100
_cell_length_b   7.99198272
_cell_length_c   17.86653860
_cell_angle_alpha   89.95147163
_cell_angle_beta   90.00000000
_cell_angle_gamma   90.00000000
_symmetry_Int_Tables_number   1
_chemical_formula_structural   Dy3Er7(In2Cu)4
_chemical_formula_sum   'Dy3 Er7 In8 Cu4'
_cell_volume   518.55844666
_cell_formula_units_Z   1
loop_
 _symmetry_equiv_pos_site_id
 _symmetry_equiv_pos_as_xyz
  1  'x, y, z'
loop_
 _atom_site_type_symbol
 _atom_site_label
 _atom_site_symmetry_multiplicity
 _atom_site_fract_x
 _atom_site_fract_y
 _atom_site_fract_z
 _atom_site_occupancy
  Dy  Dy0  1  0.000000  0.500010  0.499998  1
  Dy  Dy1  1  0.000000  0.000003  0.999950  1
  Dy  Dy2  1  0.000000  0.738740  0.280343  1
  Er  Er3  1  0.000000  0.261150  0.719880  1
  Er  Er4  1  0.000000  0.761042  0.780094  1
  Er  Er5  1  0.000000  0.238962  0.219892  1
  Er  Er6  1  0.000000  0.618055  0.083411  1
  Er  Er7  1  0.000000  0.381892  0.916456  1
  Er  Er8  1  0.000000  0.881854  0.583401  1
  Er  Er9  1  0.000000  0.118350  0.416683  1
  In  In10  1  0.500000  0.706315  0.930768  1
  In  In11  1  0.500000  0.293418  0.069245  1
  In  In12  1  0.500000  0.793905  0.431365  1
  In  In13  1  0.500000  0.206255  0.569216  1
  In  In14  1  0.500000  0.579136  0.650677  1
  In  In15  1  0.500000  0.419993  0.349521  1
  In  In16  1  0.500000  0.921479  0.150199  1
  In  In17  1  0.500000  0.079270  0.849310  1
  Cu  Cu18  1  0.500000  0.523098  0.196706  1
  Cu  Cu19  1  0.500000  0.475491  0.802747  1
  Cu  Cu20  1  0.500000  0.975534  0.697244  1
  Cu  Cu21  1  0.500000  0.026048  0.302895  1
