# generated using pymatgen
data_Zr4Ti5ZnPd2
_symmetry_space_group_name_H-M   'P 1'
_cell_length_a   5.55449000
_cell_length_b   5.55898526
_cell_length_c   8.36190900
_cell_angle_alpha   90.00000000
_cell_angle_beta   90.00000000
_cell_angle_gamma   119.97324187
_symmetry_Int_Tables_number   1
_chemical_formula_structural   Zr4Ti5ZnPd2
_chemical_formula_sum   'Zr4 Ti5 Zn1 Pd2'
_cell_volume   223.66231571
_cell_formula_units_Z   1
loop_
 _symmetry_equiv_pos_site_id
 _symmetry_equiv_pos_as_xyz
  1  'x, y, z'
loop_
 _atom_site_type_symbol
 _atom_site_label
 _atom_site_symmetry_multiplicity
 _atom_site_fract_x
 _atom_site_fract_y
 _atom_site_fract_z
 _atom_site_occupancy
  Zr  Zr0  1  0.668909  0.337818  0.065313  1
  Zr  Zr1  1  0.668909  0.337818  0.434687  1
  Zr  Zr2  1  0.339406  0.678813  0.562136  1
  Zr  Zr3  1  0.339406  0.678813  0.937863  1
  Ti  Ti4  1  0.172518  0.345037  0.250000  1
  Ti  Ti5  1  0.179986  0.835248  0.250000  1
  Ti  Ti6  1  0.655262  0.835248  0.250000  1
  Ti  Ti7  1  0.335324  0.152957  0.750001  1
  Ti  Ti8  1  0.817634  0.152957  0.750001  1
  Zn  Zn9  1  0.821677  0.643356  0.750001  1
  Pd  Pd10  1  0.000484  0.000969  0.999424  1
  Pd  Pd11  1  0.000484  0.000969  0.500576  1
