# generated using pymatgen
data_Yb2InGa11Te20
_symmetry_space_group_name_H-M   'P 1'
_cell_length_a   10.49925536
_cell_length_b   10.54858085
_cell_length_c   10.45246414
_cell_angle_alpha   90.23637854
_cell_angle_beta   90.18900656
_cell_angle_gamma   89.12425708
_symmetry_Int_Tables_number   1
_chemical_formula_structural   Yb2InGa11Te20
_chemical_formula_sum   'Yb2 In1 Ga11 Te20'
_cell_volume   1157.48272743
_cell_formula_units_Z   1
loop_
 _symmetry_equiv_pos_site_id
 _symmetry_equiv_pos_as_xyz
  1  'x, y, z'
loop_
 _atom_site_type_symbol
 _atom_site_label
 _atom_site_symmetry_multiplicity
 _atom_site_fract_x
 _atom_site_fract_y
 _atom_site_fract_z
 _atom_site_occupancy
  Yb  Yb0  1  0.996640  0.745043  0.254437  1
  Yb  Yb1  1  0.256398  0.003820  0.746666  1
  In  In2  1  0.157125  0.428650  0.124010  1
  Ga  Ga3  1  0.433277  0.126860  0.160851  1
  Ga  Ga4  1  0.346854  0.749870  0.169524  1
  Ga  Ga5  1  0.660617  0.830746  0.252633  1
  Ga  Ga6  1  0.746158  0.168149  0.336295  1
  Ga  Ga7  1  0.124899  0.159644  0.427279  1
  Ga  Ga8  1  0.836998  0.874673  0.573478  1
  Ga  Ga9  1  0.832141  0.253342  0.663384  1
  Ga  Ga10  1  0.169684  0.340108  0.746239  1
  Ga  Ga11  1  0.253465  0.653540  0.830620  1
  Ga  Ga12  1  0.869164  0.569879  0.838036  1
  Ga  Ga13  1  0.569405  0.841370  0.877014  1
  Te  Te14  1  0.171205  0.826725  0.999686  1
  Te  Te15  1  0.570007  0.672130  0.068691  1
  Te  Te16  1  0.903475  0.508016  0.082904  1
  Te  Te17  1  0.826841  0.994521  0.168069  1
  Te  Te18  1  0.175275  0.160089  0.173642  1
  Te  Te19  1  0.561996  0.314637  0.255131  1
  Te  Te20  1  0.249838  0.582012  0.325388  1
  Te  Te21  1  0.435043  0.931889  0.325952  1
  Te  Te22  1  0.929387  0.321885  0.430766  1
  Te  Te23  1  0.756278  0.682573  0.432893  1
  Te  Te24  1  0.079785  0.918939  0.502165  1
  Te  Te25  1  0.317202  0.243493  0.565690  1
  Te  Te26  1  0.676915  0.071826  0.568310  1
  Te  Te27  1  0.068275  0.567114  0.675772  1
  Te  Te28  1  0.428275  0.755288  0.684188  1
  Te  Te29  1  0.684625  0.437307  0.741159  1
  Te  Te30  1  0.006213  0.174499  0.832696  1
  Te  Te31  1  0.824691  0.825511  0.827079  1
  Te  Te32  1  0.499380  0.081258  0.917916  1
  Te  Te33  1  0.338190  0.428871  0.921438  1
