# generated using pymatgen
data_Ti(NbSe2)4
_symmetry_space_group_name_H-M   'P 1'
_cell_length_a   6.99476100
_cell_length_b   6.99476013
_cell_length_c   12.93342800
_cell_angle_alpha   90.00000000
_cell_angle_beta   90.00000000
_cell_angle_gamma   119.99999940
_symmetry_Int_Tables_number   1
_chemical_formula_structural   Ti(NbSe2)4
_chemical_formula_sum   'Ti2 Nb8 Se16'
_cell_volume   548.01190057
_cell_formula_units_Z   2
loop_
 _symmetry_equiv_pos_site_id
 _symmetry_equiv_pos_as_xyz
  1  'x, y, z'
loop_
 _atom_site_type_symbol
 _atom_site_label
 _atom_site_symmetry_multiplicity
 _atom_site_fract_x
 _atom_site_fract_y
 _atom_site_fract_z
 _atom_site_occupancy
  Ti  Ti0  1  0.000000  0.000000  0.500000  1
  Ti  Ti1  1  0.000000  0.000000  0.000000  1
  Nb  Nb2  1  0.000000  0.000000  0.250000  1
  Nb  Nb3  1  0.000000  0.000000  0.750000  1
  Nb  Nb4  1  0.506699  0.013398  0.250000  1
  Nb  Nb5  1  0.986602  0.493301  0.250000  1
  Nb  Nb6  1  0.506699  0.493301  0.250000  1
  Nb  Nb7  1  0.493301  0.986602  0.750000  1
  Nb  Nb8  1  0.013398  0.506699  0.750000  1
  Nb  Nb9  1  0.493301  0.506699  0.750000  1
  Se  Se10  1  0.333333  0.666667  0.882793  1
  Se  Se11  1  0.666667  0.333333  0.117207  1
  Se  Se12  1  0.666667  0.333333  0.382793  1
  Se  Se13  1  0.333333  0.666667  0.617207  1
  Se  Se14  1  0.831589  0.663177  0.879500  1
  Se  Se15  1  0.336823  0.168411  0.879500  1
  Se  Se16  1  0.831589  0.168411  0.879500  1
  Se  Se17  1  0.168411  0.336823  0.120500  1
  Se  Se18  1  0.663177  0.831589  0.120500  1
  Se  Se19  1  0.168411  0.831589  0.120500  1
  Se  Se20  1  0.168411  0.336823  0.379500  1
  Se  Se21  1  0.663177  0.831589  0.379500  1
  Se  Se22  1  0.168411  0.831589  0.379500  1
  Se  Se23  1  0.831589  0.663177  0.620500  1
  Se  Se24  1  0.336823  0.168411  0.620500  1
  Se  Se25  1  0.831589  0.168411  0.620500  1
