# generated using pymatgen
data_Li(AuF6)2
_symmetry_space_group_name_H-M   'P 1'
_cell_length_a   5.15413101
_cell_length_b   5.47831677
_cell_length_c   8.79675202
_cell_angle_alpha   104.82148223
_cell_angle_beta   90.62367777
_cell_angle_gamma   117.39300554
_symmetry_Int_Tables_number   1
_chemical_formula_structural   Li(AuF6)2
_chemical_formula_sum   'Li1 Au2 F12'
_cell_volume   210.79033773
_cell_formula_units_Z   1
loop_
 _symmetry_equiv_pos_site_id
 _symmetry_equiv_pos_as_xyz
  1  'x, y, z'
loop_
 _atom_site_type_symbol
 _atom_site_label
 _atom_site_symmetry_multiplicity
 _atom_site_fract_x
 _atom_site_fract_y
 _atom_site_fract_z
 _atom_site_occupancy
  Li  Li0  1  0.000000  0.000000  0.000000  1
  Au  Au1  1  0.763284  0.500356  0.250213  1
  Au  Au2  1  0.236716  0.499644  0.749787  1
  F  F3  1  0.813645  0.260804  0.707637  1
  F  F4  1  0.186355  0.739196  0.292363  1
  F  F5  1  0.199014  0.747301  0.942574  1
  F  F6  1  0.720848  0.741887  0.439054  1
  F  F7  1  0.279152  0.258113  0.560946  1
  F  F8  1  0.790265  0.261343  0.369976  1
  F  F9  1  0.209735  0.738657  0.630024  1
  F  F10  1  0.333699  0.258571  0.204522  1
  F  F11  1  0.666301  0.741429  0.795478  1
  F  F12  1  0.734032  0.741470  0.127546  1
  F  F13  1  0.265968  0.258530  0.872454  1
  F  F14  1  0.800986  0.252699  0.057426  1
