# generated using pymatgen
data_Cs2NaRh3F12
_symmetry_space_group_name_H-M   'P 1'
_cell_length_a   7.70317720
_cell_length_b   7.70317728
_cell_length_c   7.70317639
_cell_angle_alpha   58.42237966
_cell_angle_beta   58.42237931
_cell_angle_gamma   58.42237632
_symmetry_Int_Tables_number   1
_chemical_formula_structural   Cs2NaRh3F12
_chemical_formula_sum   'Cs2 Na1 Rh3 F12'
_cell_volume   311.54751891
_cell_formula_units_Z   1
loop_
 _symmetry_equiv_pos_site_id
 _symmetry_equiv_pos_as_xyz
  1  'x, y, z'
loop_
 _atom_site_type_symbol
 _atom_site_label
 _atom_site_symmetry_multiplicity
 _atom_site_fract_x
 _atom_site_fract_y
 _atom_site_fract_z
 _atom_site_occupancy
  Cs  Cs0  1  0.626451  0.626451  0.626451  1
  Cs  Cs1  1  0.373549  0.373549  0.373549  1
  Na  Na2  1  0.000000  0.000000  0.000000  1
  Rh  Rh3  1  0.500000  0.000000  0.000000  1
  Rh  Rh4  1  0.000000  0.000000  0.500000  1
  Rh  Rh5  1  0.000000  0.500000  0.000000  1
  F  F6  1  0.090969  0.090969  0.630808  1
  F  F7  1  0.630808  0.090969  0.090969  1
  F  F8  1  0.090969  0.630808  0.090969  1
  F  F9  1  0.909031  0.369192  0.909031  1
  F  F10  1  0.909031  0.909031  0.369192  1
  F  F11  1  0.369192  0.909031  0.909031  1
  F  F12  1  0.901241  0.314813  0.314813  1
  F  F13  1  0.314813  0.314813  0.901241  1
  F  F14  1  0.314813  0.901241  0.314813  1
  F  F15  1  0.685187  0.098759  0.685187  1
  F  F16  1  0.098759  0.685187  0.685187  1
  F  F17  1  0.685187  0.685187  0.098759  1
