# generated using pymatgen
data_Tb2Pd7PtSe
_symmetry_space_group_name_H-M   'P 1'
_cell_length_a   4.12931900
_cell_length_b   4.15277500
_cell_length_c   11.36064600
_cell_angle_alpha   90.00000000
_cell_angle_beta   90.00000000
_cell_angle_gamma   90.00000000
_symmetry_Int_Tables_number   1
_chemical_formula_structural   Tb2Pd7PtSe
_chemical_formula_sum   'Tb2 Pd7 Pt1 Se1'
_cell_volume   194.81386528
_cell_formula_units_Z   1
loop_
 _symmetry_equiv_pos_site_id
 _symmetry_equiv_pos_as_xyz
  1  'x, y, z'
loop_
 _atom_site_type_symbol
 _atom_site_label
 _atom_site_symmetry_multiplicity
 _atom_site_fract_x
 _atom_site_fract_y
 _atom_site_fract_z
 _atom_site_occupancy
  Tb  Tb0  1  0.500000  0.500000  0.820392  1
  Tb  Tb1  1  0.500000  0.500000  0.179608  1
  Pd  Pd2  1  0.000000  0.500000  0.000000  1
  Pd  Pd3  1  0.500000  0.000000  0.636856  1
  Pd  Pd4  1  0.000000  0.500000  0.636181  1
  Pd  Pd5  1  0.500000  0.000000  0.363144  1
  Pd  Pd6  1  0.000000  0.500000  0.363819  1
  Pd  Pd7  1  0.000000  0.000000  0.818357  1
  Pd  Pd8  1  0.000000  0.000000  0.181643  1
  Pt  Pt9  1  0.500000  0.000000  0.000000  1
  Se  Se10  1  0.000000  0.000000  0.500000  1
