# generated using pymatgen
data_Dy6Lu4CuPPb6
_symmetry_space_group_name_H-M   'P 1'
_cell_length_a   9.11948900
_cell_length_b   9.11948913
_cell_length_c   6.64614300
_cell_angle_alpha   90.00000000
_cell_angle_beta   90.00000000
_cell_angle_gamma   120.00000317
_symmetry_Int_Tables_number   1
_chemical_formula_structural   Dy6Lu4CuPPb6
_chemical_formula_sum   'Dy6 Lu4 Cu1 P1 Pb6'
_cell_volume   478.67562485
_cell_formula_units_Z   1
loop_
 _symmetry_equiv_pos_site_id
 _symmetry_equiv_pos_as_xyz
  1  'x, y, z'
loop_
 _atom_site_type_symbol
 _atom_site_label
 _atom_site_symmetry_multiplicity
 _atom_site_fract_x
 _atom_site_fract_y
 _atom_site_fract_z
 _atom_site_occupancy
  Dy  Dy0  1  0.247165  0.000000  0.738553  1
  Dy  Dy1  1  0.752835  0.000000  0.261447  1
  Dy  Dy2  1  0.000000  0.247165  0.738553  1
  Dy  Dy3  1  0.000000  0.752835  0.261447  1
  Dy  Dy4  1  0.752835  0.752835  0.738553  1
  Dy  Dy5  1  0.247165  0.247165  0.261447  1
  Lu  Lu6  1  0.333333  0.666667  0.500000  1
  Lu  Lu7  1  0.666667  0.333333  0.500000  1
  Lu  Lu8  1  0.666667  0.333333  0.000000  1
  Lu  Lu9  1  0.333333  0.666667  0.000000  1
  Cu  Cu10  1  0.000000  0.000000  0.000000  1
  P  P11  1  0.000000  0.000000  0.500000  1
  Pb  Pb12  1  0.604023  0.000000  0.749967  1
  Pb  Pb13  1  0.395977  0.000000  0.250033  1
  Pb  Pb14  1  0.000000  0.604023  0.749967  1
  Pb  Pb15  1  0.000000  0.395977  0.250033  1
  Pb  Pb16  1  0.395977  0.395977  0.749967  1
  Pb  Pb17  1  0.604023  0.604023  0.250033  1
