# generated using pymatgen
data_Li3B4Ir4Pd
_symmetry_space_group_name_H-M   'P 1'
_cell_length_a   6.77999956
_cell_length_b   6.06477749
_cell_length_c   5.47224603
_cell_angle_alpha   73.47290797
_cell_angle_beta   58.52042722
_cell_angle_gamma   51.19895030
_symmetry_Int_Tables_number   1
_chemical_formula_structural   Li3B4Ir4Pd
_chemical_formula_sum   'Li3 B4 Ir4 Pd1'
_cell_volume   149.24165413
_cell_formula_units_Z   1
loop_
 _symmetry_equiv_pos_site_id
 _symmetry_equiv_pos_as_xyz
  1  'x, y, z'
loop_
 _atom_site_type_symbol
 _atom_site_label
 _atom_site_symmetry_multiplicity
 _atom_site_fract_x
 _atom_site_fract_y
 _atom_site_fract_z
 _atom_site_occupancy
  Li  Li0  1  0.935147  0.775260  0.404000  1
  Li  Li1  1  0.450063  0.320261  0.366963  1
  Li  Li2  1  0.863214  0.370929  0.321481  1
  B  B3  1  0.056247  0.968025  0.582380  1
  B  B4  1  0.676965  0.831735  0.177524  1
  B  B5  1  0.428241  0.569872  0.938932  1
  B  B6  1  0.281819  0.196896  0.845795  1
  Ir  Ir7  1  0.105492  0.631326  0.876257  1
  Ir  Ir8  1  0.354966  0.871550  0.150955  1
  Ir  Ir9  1  0.618330  0.144252  0.863975  1
  Ir  Ir10  1  0.401205  0.874566  0.620610  1
  Pd  Pd11  1  0.883511  0.390128  0.795928  1
