# generated using pymatgen
data_TbLu7Hf12Si15Sn
_symmetry_space_group_name_H-M   'P 1'
_cell_length_a   7.25662561
_cell_length_b   7.27886814
_cell_length_c   13.31853335
_cell_angle_alpha   89.77097302
_cell_angle_beta   89.95305745
_cell_angle_gamma   89.83182684
_symmetry_Int_Tables_number   1
_chemical_formula_structural   TbLu7Hf12Si15Sn
_chemical_formula_sum   'Tb1 Lu7 Hf12 Si15 Sn1'
_cell_volume   703.47633120
_cell_formula_units_Z   1
loop_
 _symmetry_equiv_pos_site_id
 _symmetry_equiv_pos_as_xyz
  1  'x, y, z'
loop_
 _atom_site_type_symbol
 _atom_site_label
 _atom_site_symmetry_multiplicity
 _atom_site_fract_x
 _atom_site_fract_y
 _atom_site_fract_z
 _atom_site_occupancy
  Tb  Tb0  1  0.661903  0.999912  0.283126  1
  Lu  Lu1  1  0.988594  0.346454  0.211714  1
  Lu  Lu2  1  0.005036  0.655292  0.716474  1
  Lu  Lu3  1  0.147724  0.506845  0.471984  1
  Lu  Lu4  1  0.505251  0.842141  0.031905  1
  Lu  Lu5  1  0.845612  0.503548  0.964027  1
  Lu  Lu6  1  0.498296  0.152991  0.539473  1
  Lu  Lu7  1  0.344452  0.995701  0.784597  1
  Hf  Hf8  1  0.174248  0.175128  0.998616  1
  Hf  Hf9  1  0.825613  0.826594  0.501620  1
  Hf  Hf10  1  0.326268  0.680839  0.247827  1
  Hf  Hf11  1  0.674921  0.324840  0.750254  1
  Hf  Hf12  1  0.141503  0.987828  0.374049  1
  Hf  Hf13  1  0.853317  0.002291  0.873953  1
  Hf  Hf14  1  0.502012  0.648695  0.625617  1
  Hf  Hf15  1  0.352042  0.496834  0.874995  1
  Hf  Hf16  1  0.496728  0.352686  0.118543  1
  Hf  Hf17  1  0.659319  0.513750  0.379563  1
  Hf  Hf18  1  0.996090  0.148180  0.626962  1
  Hf  Hf19  1  0.001540  0.849865  0.123234  1
  Si  Si20  1  0.640755  0.704650  0.818272  1
  Si  Si21  1  0.204823  0.861442  0.569461  1
  Si  Si22  1  0.141174  0.794346  0.930775  1
  Si  Si23  1  0.795813  0.139942  0.065850  1
  Si  Si24  1  0.860572  0.206060  0.434182  1
  Si  Si25  1  0.295535  0.359680  0.682280  1
  Si  Si26  1  0.704061  0.637461  0.180506  1
  Si  Si27  1  0.295971  0.041805  0.179867  1
  Si  Si28  1  0.702673  0.950532  0.686532  1
  Si  Si29  1  0.449630  0.798736  0.436793  1
  Si  Si30  1  0.201001  0.547875  0.064096  1
  Si  Si31  1  0.547777  0.200274  0.933570  1
  Si  Si32  1  0.796813  0.451993  0.567151  1
  Si  Si33  1  0.048092  0.298022  0.814547  1
  Si  Si34  1  0.954655  0.698569  0.312937  1
  Sn  Sn35  1  0.360181  0.298203  0.324649  1
