# generated using pymatgen
data_Dy12TlFe4Pt
_symmetry_space_group_name_H-M   'P 1'
_cell_length_a   8.33671427
_cell_length_b   8.33671330
_cell_length_c   8.33671400
_cell_angle_alpha   110.36881601
_cell_angle_beta   110.91411260
_cell_angle_gamma   107.15573726
_symmetry_Int_Tables_number   1
_chemical_formula_structural   Dy12TlFe4Pt
_chemical_formula_sum   'Dy12 Tl1 Fe4 Pt1'
_cell_volume   445.47459522
_cell_formula_units_Z   1
loop_
 _symmetry_equiv_pos_site_id
 _symmetry_equiv_pos_as_xyz
  1  'x, y, z'
loop_
 _atom_site_type_symbol
 _atom_site_label
 _atom_site_symmetry_multiplicity
 _atom_site_fract_x
 _atom_site_fract_y
 _atom_site_fract_z
 _atom_site_occupancy
  Dy  Dy0  1  0.185130  0.288082  0.473213  1
  Dy  Dy1  1  0.814870  0.711918  0.526787  1
  Dy  Dy2  1  0.185130  0.711918  0.897048  1
  Dy  Dy3  1  0.814870  0.288082  0.102952  1
  Dy  Dy4  1  0.313837  0.615343  0.301506  1
  Dy  Dy5  1  0.686163  0.384657  0.698494  1
  Dy  Dy6  1  0.313837  0.012334  0.698494  1
  Dy  Dy7  1  0.686163  0.987666  0.301506  1
  Dy  Dy8  1  0.415469  0.216442  0.199027  1
  Dy  Dy9  1  0.584531  0.783558  0.800973  1
  Dy  Dy10  1  0.017415  0.216442  0.800973  1
  Dy  Dy11  1  0.982585  0.783558  0.199027  1
  Tl  Tl12  1  0.500000  0.500000  0.000000  1
  Fe  Fe13  1  0.108405  0.608405  0.500000  1
  Fe  Fe14  1  0.891595  0.391595  0.500000  1
  Fe  Fe15  1  0.385255  0.000000  0.385255  1
  Fe  Fe16  1  0.614745  0.000000  0.614745  1
  Pt  Pt17  1  0.000000  0.000000  0.000000  1
