# generated using pymatgen
data_CdIn3(Pd2Au)4
_symmetry_space_group_name_H-M   'P 1'
_cell_length_a   5.93496100
_cell_length_b   5.93747200
_cell_length_c   7.80146200
_cell_angle_alpha   90.00001699
_cell_angle_beta   90.00015571
_cell_angle_gamma   90.00003861
_symmetry_Int_Tables_number   1
_chemical_formula_structural   CdIn3(Pd2Au)4
_chemical_formula_sum   'Cd1 In3 Pd8 Au4'
_cell_volume   274.91310404
_cell_formula_units_Z   1
loop_
 _symmetry_equiv_pos_site_id
 _symmetry_equiv_pos_as_xyz
  1  'x, y, z'
loop_
 _atom_site_type_symbol
 _atom_site_label
 _atom_site_symmetry_multiplicity
 _atom_site_fract_x
 _atom_site_fract_y
 _atom_site_fract_z
 _atom_site_occupancy
  Cd  Cd0  1  0.250180  0.250000  0.999994  1
  In  In1  1  0.749826  0.750001  0.000004  1
  In  In2  1  0.249830  0.250000  0.500003  1
  In  In3  1  0.750172  0.750002  0.499998  1
  Pd  Pd4  1  0.999339  0.999342  0.250413  1
  Pd  Pd5  1  0.999339  0.500665  0.250413  1
  Pd  Pd6  1  0.500621  0.999348  0.250725  1
  Pd  Pd7  1  0.500621  0.500646  0.250725  1
  Pd  Pd8  1  0.500677  0.999349  0.749276  1
  Pd  Pd9  1  0.500678  0.500656  0.749275  1
  Pd  Pd10  1  0.999351  0.999341  0.749586  1
  Pd  Pd11  1  0.999353  0.500652  0.749586  1
  Au  Au12  1  0.749876  0.249999  0.000004  1
  Au  Au13  1  0.250139  0.750002  0.999992  1
  Au  Au14  1  0.750142  0.249999  0.499995  1
  Au  Au15  1  0.249857  0.750002  0.500009  1
