# generated using pymatgen
data_Ti3Mn2Si3Ir
_symmetry_space_group_name_H-M   'P 1'
_cell_length_a   7.22621368
_cell_length_b   7.22621574
_cell_length_c   7.22621525
_cell_angle_alpha   127.42226418
_cell_angle_beta   121.64536186
_cell_angle_gamma   82.39490051
_symmetry_Int_Tables_number   1
_chemical_formula_structural   Ti3Mn2Si3Ir
_chemical_formula_sum   'Ti6 Mn4 Si6 Ir2'
_cell_volume   245.22052249
_cell_formula_units_Z   2
loop_
 _symmetry_equiv_pos_site_id
 _symmetry_equiv_pos_as_xyz
  1  'x, y, z'
loop_
 _atom_site_type_symbol
 _atom_site_label
 _atom_site_symmetry_multiplicity
 _atom_site_fract_x
 _atom_site_fract_y
 _atom_site_fract_z
 _atom_site_occupancy
  Ti  Ti0  1  0.747723  0.090090  0.842368  1
  Ti  Ti1  1  0.477582  0.962760  0.985177  1
  Ti  Ti2  1  0.522418  0.507595  0.485177  1
  Ti  Ti3  1  0.950764  0.903393  0.452629  1
  Ti  Ti4  1  0.252277  0.094644  0.342368  1
  Ti  Ti5  1  0.049236  0.501866  0.952629  1
  Mn  Mn6  1  0.911994  0.250573  0.409828  1
  Mn  Mn7  1  0.659254  0.497833  0.909828  1
  Mn  Mn8  1  0.340746  0.250573  0.838581  1
  Mn  Mn9  1  0.088006  0.497833  0.338581  1
  Si  Si10  1  0.280353  0.519501  0.739148  1
  Si  Si11  1  0.162541  0.176058  0.000106  1
  Si  Si12  1  0.675951  0.176058  0.513517  1
  Si  Si13  1  0.324049  0.837564  0.500106  1
  Si  Si14  1  0.719647  0.458796  0.239148  1
  Si  Si15  1  0.837459  0.837564  0.013517  1
  Ir  Ir16  1  0.500000  0.747547  0.247547  1
  Ir  Ir17  1  0.000000  0.747547  0.747547  1
