# generated using pymatgen
data_Th2Sc3GaSi3
_symmetry_space_group_name_H-M   'P 1'
_cell_length_a   7.28867160
_cell_length_b   7.49568032
_cell_length_c   14.38527486
_cell_angle_alpha   90.03830284
_cell_angle_beta   90.07421520
_cell_angle_gamma   89.95957351
_symmetry_Int_Tables_number   1
_chemical_formula_structural   Th2Sc3GaSi3
_chemical_formula_sum   'Th8 Sc12 Ga4 Si12'
_cell_volume   785.91763640
_cell_formula_units_Z   4
loop_
 _symmetry_equiv_pos_site_id
 _symmetry_equiv_pos_as_xyz
  1  'x, y, z'
loop_
 _atom_site_type_symbol
 _atom_site_label
 _atom_site_symmetry_multiplicity
 _atom_site_fract_x
 _atom_site_fract_y
 _atom_site_fract_z
 _atom_site_occupancy
  Th  Th0  1  0.004072  0.168764  0.096586  1
  Th  Th1  1  0.998688  0.831281  0.902890  1
  Th  Th2  1  0.492227  0.675386  0.902316  1
  Th  Th3  1  0.992879  0.832149  0.601211  1
  Th  Th4  1  0.502353  0.323386  0.096159  1
  Th  Th5  1  0.001189  0.168541  0.400259  1
  Th  Th6  1  0.506944  0.326136  0.399304  1
  Th  Th7  1  0.496431  0.674791  0.601654  1
  Sc  Sc8  1  0.163554  0.502195  0.753299  1
  Sc  Sc9  1  0.836303  0.497513  0.248682  1
  Sc  Sc10  1  0.335407  0.001308  0.245691  1
  Sc  Sc11  1  0.664868  0.999239  0.752698  1
  Sc  Sc12  1  0.339135  0.174491  0.628526  1
  Sc  Sc13  1  0.665320  0.827467  0.372229  1
  Sc  Sc14  1  0.167526  0.672378  0.370653  1
  Sc  Sc15  1  0.662029  0.829866  0.124441  1
  Sc  Sc16  1  0.830570  0.325155  0.628631  1
  Sc  Sc17  1  0.335986  0.173265  0.875835  1
  Sc  Sc18  1  0.833450  0.325356  0.874049  1
  Sc  Sc19  1  0.169912  0.672584  0.125320  1
  Ga  Ga20  1  0.162170  0.460346  0.539543  1
  Ga  Ga21  1  0.839595  0.540292  0.461729  1
  Ga  Ga22  1  0.338512  0.960426  0.461475  1
  Ga  Ga23  1  0.838807  0.537838  0.038798  1
  Si  Si24  1  0.038128  0.123956  0.751174  1
  Si  Si25  1  0.962225  0.875533  0.248564  1
  Si  Si26  1  0.466366  0.622061  0.248133  1
  Si  Si27  1  0.534904  0.378565  0.751938  1
  Si  Si28  1  0.292810  0.877377  0.751129  1
  Si  Si29  1  0.706559  0.124343  0.247800  1
  Si  Si30  1  0.205001  0.373814  0.248734  1
  Si  Si31  1  0.794686  0.625017  0.752262  1
  Si  Si32  1  0.660578  0.038561  0.538577  1
  Si  Si33  1  0.160648  0.462650  0.961420  1
  Si  Si34  1  0.663400  0.036797  0.959509  1
  Si  Si35  1  0.336771  0.961173  0.038784  1
