# generated using pymatgen
data_Er6Zn20AsRh3
_symmetry_space_group_name_H-M   'P 1'
_cell_length_a   8.98765665
_cell_length_b   8.99137377
_cell_length_c   9.02067303
_cell_angle_alpha   60.26076610
_cell_angle_beta   59.90569644
_cell_angle_gamma   60.22943169
_symmetry_Int_Tables_number   1
_chemical_formula_structural   Er6Zn20AsRh3
_chemical_formula_sum   'Er6 Zn20 As1 Rh3'
_cell_volume   516.99064084
_cell_formula_units_Z   1
loop_
 _symmetry_equiv_pos_site_id
 _symmetry_equiv_pos_as_xyz
  1  'x, y, z'
loop_
 _atom_site_type_symbol
 _atom_site_label
 _atom_site_symmetry_multiplicity
 _atom_site_fract_x
 _atom_site_fract_y
 _atom_site_fract_z
 _atom_site_occupancy
  Er  Er0  1  0.720078  0.279922  0.279922  1
  Er  Er1  1  0.719441  0.275443  0.724557  1
  Er  Er2  1  0.712927  0.722849  0.277151  1
  Er  Er3  1  0.279922  0.720078  0.720078  1
  Er  Er4  1  0.280559  0.724557  0.275443  1
  Er  Er5  1  0.287073  0.277151  0.722849  1
  Zn  Zn6  1  0.622832  0.121709  0.127420  1
  Zn  Zn7  1  0.122501  0.624167  0.122752  1
  Zn  Zn8  1  0.130582  0.122752  0.624167  1
  Zn  Zn9  1  0.128040  0.127420  0.121709  1
  Zn  Zn10  1  0.377168  0.878291  0.872580  1
  Zn  Zn11  1  0.877499  0.375833  0.877248  1
  Zn  Zn12  1  0.869418  0.877248  0.375833  1
  Zn  Zn13  1  0.871960  0.872580  0.878291  1
  Zn  Zn14  1  0.500000  0.500000  0.000000  1
  Zn  Zn15  1  0.000000  0.500000  0.500000  1
  Zn  Zn16  1  0.000000  0.000000  0.500000  1
  Zn  Zn17  1  0.000000  0.000000  0.000000  1
  Zn  Zn18  1  0.999553  0.336462  0.330805  1
  Zn  Zn19  1  0.331322  0.006241  0.331146  1
  Zn  Zn20  1  0.331289  0.331146  0.006241  1
  Zn  Zn21  1  0.333178  0.330805  0.336462  1
  Zn  Zn22  1  0.000447  0.663538  0.669195  1
  Zn  Zn23  1  0.668678  0.993759  0.668854  1
  Zn  Zn24  1  0.668711  0.668854  0.993759  1
  Zn  Zn25  1  0.666822  0.669195  0.663538  1
  As  As26  1  0.500000  0.500000  0.500000  1
  Rh  Rh27  1  0.500000  0.000000  0.000000  1
  Rh  Rh28  1  0.500000  0.000000  0.500000  1
  Rh  Rh29  1  0.000000  0.500000  0.000000  1
