# generated using pymatgen
data_Th3UH15
_symmetry_space_group_name_H-M   'P 1'
_cell_length_a   7.83297285
_cell_length_b   7.84130326
_cell_length_c   7.82349234
_cell_angle_alpha   109.58339966
_cell_angle_beta   109.54029241
_cell_angle_gamma   109.36091381
_symmetry_Int_Tables_number   1
_chemical_formula_structural   Th3UH15
_chemical_formula_sum   'Th6 U2 H30'
_cell_volume   369.58253076
_cell_formula_units_Z   2
loop_
 _symmetry_equiv_pos_site_id
 _symmetry_equiv_pos_as_xyz
  1  'x, y, z'
loop_
 _atom_site_type_symbol
 _atom_site_label
 _atom_site_symmetry_multiplicity
 _atom_site_fract_x
 _atom_site_fract_y
 _atom_site_fract_z
 _atom_site_occupancy
  Th  Th0  1  0.995415  0.079499  0.495901  1
  Th  Th1  1  0.083895  0.504148  0.000932  1
  Th  Th2  1  0.999514  0.583598  0.504099  1
  Th  Th3  1  0.582963  0.503216  0.999068  1
  Th  Th4  1  0.503521  0.998855  0.586326  1
  Th  Th5  1  0.417196  0.412530  0.413674  1
  U  U6  1  0.914494  0.916141  0.916793  1
  U  U7  1  0.497701  0.999348  0.083207  1
  H  H8  1  0.649537  0.966181  0.366647  1
  H  H9  1  0.218195  0.318651  0.844574  1
  H  H10  1  0.185862  0.401931  0.532881  1
  H  H11  1  0.095576  0.279038  0.125595  1
  H  H12  1  0.278526  0.123562  0.092283  1
  H  H13  1  0.125636  0.092998  0.277018  1
  H  H14  1  0.469981  0.153443  0.874405  1
  H  H15  1  0.718144  0.347722  0.814166  1
  H  H16  1  0.624279  0.372552  0.248602  1
  H  H17  1  0.251077  0.624642  0.376245  1
  H  H18  1  0.746891  0.874852  0.120959  1
  H  H19  1  0.125933  0.753893  0.879041  1
  H  H20  1  0.374831  0.248396  0.623755  1
  H  H21  1  0.875677  0.123950  0.751398  1
  H  H22  1  0.782891  0.599535  0.633353  1
  H  H23  1  0.321870  0.848530  0.220619  1
  H  H24  1  0.372339  0.658273  0.968204  1
  H  H25  1  0.967046  0.370025  0.653214  1
  H  H26  1  0.535107  0.182820  0.402055  1
  H  H27  1  0.403978  0.533556  0.185834  1
  H  H28  1  0.840595  0.217587  0.313001  1
  H  H29  1  0.904135  0.690069  0.031796  1
  H  H30  1  0.813832  0.716811  0.346786  1
  H  H31  1  0.152980  0.869049  0.467119  1
  H  H32  1  0.686243  0.031278  0.907717  1
  H  H33  1  0.348618  0.815980  0.722982  1
  H  H34  1  0.873621  0.474077  0.155426  1
  H  H35  1  0.633053  0.780765  0.597945  1
  H  H36  1  0.601251  0.627911  0.779381  1
  H  H37  1  0.027594  0.904585  0.686999  1
