# generated using pymatgen
data_PrTlAg2(Ir2O7)2
_symmetry_space_group_name_H-M   'P 1'
_cell_length_a   7.27716011
_cell_length_b   7.25811639
_cell_length_c   7.32442860
_cell_angle_alpha   60.29903869
_cell_angle_beta   60.62135370
_cell_angle_gamma   60.08652990
_symmetry_Int_Tables_number   1
_chemical_formula_structural   PrTlAg2(Ir2O7)2
_chemical_formula_sum   'Pr1 Tl1 Ag2 Ir4 O14'
_cell_volume   275.62015499
_cell_formula_units_Z   1
loop_
 _symmetry_equiv_pos_site_id
 _symmetry_equiv_pos_as_xyz
  1  'x, y, z'
loop_
 _atom_site_type_symbol
 _atom_site_label
 _atom_site_symmetry_multiplicity
 _atom_site_fract_x
 _atom_site_fract_y
 _atom_site_fract_z
 _atom_site_occupancy
  Pr  Pr0  1  0.125000  0.125000  0.625000  1
  Tl  Tl1  1  0.625000  0.125000  0.125000  1
  Ag  Ag2  1  0.125000  0.125000  0.125000  1
  Ag  Ag3  1  0.125000  0.625000  0.125000  1
  Ir  Ir4  1  0.625000  0.625000  0.625000  1
  Ir  Ir5  1  0.125000  0.625000  0.625000  1
  Ir  Ir6  1  0.625000  0.125000  0.625000  1
  Ir  Ir7  1  0.625000  0.625000  0.125000  1
  O  O8  1  0.949442  0.547265  0.551159  1
  O  O9  1  0.300558  0.297866  0.698841  1
  O  O10  1  0.940109  0.559306  0.941280  1
  O  O11  1  0.692568  0.299425  0.302115  1
  O  O12  1  0.557432  0.544107  0.947885  1
  O  O13  1  0.547035  0.954928  0.543109  1
  O  O14  1  0.557432  0.950575  0.947885  1
  O  O15  1  0.238140  0.266536  0.228787  1
  O  O16  1  0.300558  0.702735  0.698841  1
  O  O17  1  0.702965  0.295072  0.706891  1
  O  O18  1  0.011860  0.983464  0.021213  1
  O  O19  1  0.949442  0.952134  0.551159  1
  O  O20  1  0.309891  0.690694  0.308720  1
  O  O21  1  0.692568  0.705893  0.302115  1
