# generated using pymatgen
data_RbMg2In7Ir2
_symmetry_space_group_name_H-M   'P 1'
_cell_length_a   9.17769900
_cell_length_b   9.19318721
_cell_length_c   4.04245300
_cell_angle_alpha   90.00000000
_cell_angle_beta   90.00000000
_cell_angle_gamma   119.94428098
_symmetry_Int_Tables_number   1
_chemical_formula_structural   RbMg2In7Ir2
_chemical_formula_sum   'Rb1 Mg2 In7 Ir2'
_cell_volume   295.54192067
_cell_formula_units_Z   1
loop_
 _symmetry_equiv_pos_site_id
 _symmetry_equiv_pos_as_xyz
  1  'x, y, z'
loop_
 _atom_site_type_symbol
 _atom_site_label
 _atom_site_symmetry_multiplicity
 _atom_site_fract_x
 _atom_site_fract_y
 _atom_site_fract_z
 _atom_site_occupancy
  Rb  Rb0  1  0.000000  0.000000  0.000000  1
  Mg  Mg1  1  0.000000  0.500000  0.000000  1
  Mg  Mg2  1  0.500000  0.500000  0.000000  1
  In  In3  1  0.586993  0.785090  0.500000  1
  In  In4  1  0.198098  0.785090  0.500000  1
  In  In5  1  0.208330  0.416660  0.500000  1
  In  In6  1  0.791670  0.583340  0.500000  1
  In  In7  1  0.801902  0.214910  0.500000  1
  In  In8  1  0.413007  0.214910  0.500000  1
  In  In9  1  0.500000  0.000000  0.000000  1
  Ir  Ir10  1  0.333348  0.666696  0.000000  1
  Ir  Ir11  1  0.666652  0.333304  0.000000  1
