# generated using pymatgen
data_Pr2V3Co9As7
_symmetry_space_group_name_H-M   'P 1'
_cell_length_a   3.83430100
_cell_length_b   9.49464185
_cell_length_c   9.49464300
_cell_angle_alpha   120.00000052
_cell_angle_beta   90.00000000
_cell_angle_gamma   90.00000000
_symmetry_Int_Tables_number   1
_chemical_formula_structural   Pr2V3Co9As7
_chemical_formula_sum   'Pr2 V3 Co9 As7'
_cell_volume   299.34641364
_cell_formula_units_Z   1
loop_
 _symmetry_equiv_pos_site_id
 _symmetry_equiv_pos_as_xyz
  1  'x, y, z'
loop_
 _atom_site_type_symbol
 _atom_site_label
 _atom_site_symmetry_multiplicity
 _atom_site_fract_x
 _atom_site_fract_y
 _atom_site_fract_z
 _atom_site_occupancy
  Pr  Pr0  1  0.000000  0.666667  0.333333  1
  Pr  Pr1  1  0.500000  0.333333  0.666667  1
  V  V2  1  0.500000  0.784181  0.897608  1
  V  V3  1  0.500000  0.113427  0.215819  1
  V  V4  1  0.500000  0.102392  0.886573  1
  Co  Co5  1  0.000000  0.571535  0.942561  1
  Co  Co6  1  0.000000  0.371025  0.428465  1
  Co  Co7  1  0.000000  0.057439  0.628975  1
  Co  Co8  1  0.000000  0.877739  0.154738  1
  Co  Co9  1  0.000000  0.276999  0.122261  1
  Co  Co10  1  0.000000  0.845262  0.723001  1
  Co  Co11  1  0.500000  0.951050  0.381124  1
  Co  Co12  1  0.500000  0.430073  0.048950  1
  Co  Co13  1  0.500000  0.618876  0.569927  1
  As  As14  1  0.000000  0.000000  0.000000  1
  As  As15  1  0.500000  0.707554  0.112186  1
  As  As16  1  0.500000  0.404633  0.292446  1
  As  As17  1  0.500000  0.887814  0.595367  1
  As  As18  1  0.000000  0.591651  0.701343  1
  As  As19  1  0.000000  0.109692  0.408349  1
  As  As20  1  0.000000  0.298657  0.890308  1
