# generated using pymatgen
data_Ru(PtRh)4
_symmetry_space_group_name_H-M   'P 1'
_cell_length_a   6.18034867
_cell_length_b   6.18034880
_cell_length_c   6.18034970
_cell_angle_alpha   95.69339387
_cell_angle_beta   95.69338472
_cell_angle_gamma   143.28221839
_symmetry_Int_Tables_number   1
_chemical_formula_structural   Ru(PtRh)4
_chemical_formula_sum   'Ru1 Pt4 Rh4'
_cell_volume   133.95583553
_cell_formula_units_Z   1
loop_
 _symmetry_equiv_pos_site_id
 _symmetry_equiv_pos_as_xyz
  1  'x, y, z'
loop_
 _atom_site_type_symbol
 _atom_site_label
 _atom_site_symmetry_multiplicity
 _atom_site_fract_x
 _atom_site_fract_y
 _atom_site_fract_z
 _atom_site_occupancy
  Ru  Ru0  1  0.000000  0.000000  0.000000  1
  Pt  Pt1  1  0.000000  0.327647  0.327647  1
  Pt  Pt2  1  0.000000  0.672353  0.672353  1
  Pt  Pt3  1  0.672353  0.000000  0.672353  1
  Pt  Pt4  1  0.327647  0.000000  0.327647  1
  Rh  Rh5  1  0.338542  0.338542  0.677086  1
  Rh  Rh6  1  0.661458  0.661458  0.322914  1
  Rh  Rh7  1  0.661458  0.338542  0.000000  1
  Rh  Rh8  1  0.338542  0.661458  0.000000  1
