# generated using pymatgen
data_AcGdS3
_symmetry_space_group_name_H-M   'P 1'
_cell_length_a   4.17508900
_cell_length_b   7.66370700
_cell_length_c   15.75491700
_cell_angle_alpha   90.00000000
_cell_angle_beta   90.00000000
_cell_angle_gamma   90.00000000
_symmetry_Int_Tables_number   1
_chemical_formula_structural   AcGdS3
_chemical_formula_sum   'Ac4 Gd4 S12'
_cell_volume   504.10470359
_cell_formula_units_Z   4
loop_
 _symmetry_equiv_pos_site_id
 _symmetry_equiv_pos_as_xyz
  1  'x, y, z'
loop_
 _atom_site_type_symbol
 _atom_site_label
 _atom_site_symmetry_multiplicity
 _atom_site_fract_x
 _atom_site_fract_y
 _atom_site_fract_z
 _atom_site_occupancy
  Ac  Ac0  1  0.250000  0.142871  0.802019  1
  Ac  Ac1  1  0.250000  0.642871  0.697981  1
  Ac  Ac2  1  0.750000  0.857129  0.197981  1
  Ac  Ac3  1  0.750000  0.357129  0.302019  1
  Gd  Gd4  1  0.250000  0.774971  0.456585  1
  Gd  Gd5  1  0.250000  0.274971  0.043415  1
  Gd  Gd6  1  0.750000  0.225029  0.543415  1
  Gd  Gd7  1  0.750000  0.725029  0.956585  1
  S  S8  1  0.250000  0.152718  0.212559  1
  S  S9  1  0.250000  0.652718  0.287441  1
  S  S10  1  0.750000  0.847282  0.787441  1
  S  S11  1  0.750000  0.347282  0.712559  1
  S  S12  1  0.250000  0.013013  0.603057  1
  S  S13  1  0.250000  0.513013  0.896943  1
  S  S14  1  0.750000  0.986987  0.396943  1
  S  S15  1  0.750000  0.486987  0.103057  1
  S  S16  1  0.250000  0.369383  0.443526  1
  S  S17  1  0.250000  0.869383  0.056474  1
  S  S18  1  0.750000  0.630617  0.556474  1
  S  S19  1  0.750000  0.130617  0.943526  1
