# generated using pymatgen
data_Sc9AlMo3Se
_symmetry_space_group_name_H-M   'P 1'
_cell_length_a   8.83631644
_cell_length_b   8.79054897
_cell_length_c   8.74127100
_cell_angle_alpha   90.00000000
_cell_angle_beta   90.00000000
_cell_angle_gamma   119.82880872
_symmetry_Int_Tables_number   1
_chemical_formula_structural   Sc9AlMo3Se
_chemical_formula_sum   'Sc18 Al2 Mo6 Se2'
_cell_volume   589.03224030
_cell_formula_units_Z   2
loop_
 _symmetry_equiv_pos_site_id
 _symmetry_equiv_pos_as_xyz
  1  'x, y, z'
loop_
 _atom_site_type_symbol
 _atom_site_label
 _atom_site_symmetry_multiplicity
 _atom_site_fract_x
 _atom_site_fract_y
 _atom_site_fract_z
 _atom_site_occupancy
  Sc  Sc0  1  0.201489  0.807845  0.457401  1
  Sc  Sc1  1  0.201489  0.393644  0.457401  1
  Sc  Sc2  1  0.605451  0.802726  0.461102  1
  Sc  Sc3  1  0.803770  0.195720  0.552821  1
  Sc  Sc4  1  0.803770  0.608050  0.552821  1
  Sc  Sc5  1  0.396988  0.198494  0.540913  1
  Sc  Sc6  1  0.803770  0.195720  0.947179  1
  Sc  Sc7  1  0.803770  0.608050  0.947179  1
  Sc  Sc8  1  0.396988  0.198494  0.959087  1
  Sc  Sc9  1  0.201489  0.807845  0.042599  1
  Sc  Sc10  1  0.201489  0.393644  0.042599  1
  Sc  Sc11  1  0.605451  0.802726  0.038898  1
  Sc  Sc12  1  0.532789  0.445971  0.250000  1
  Sc  Sc13  1  0.532789  0.086818  0.250000  1
  Sc  Sc14  1  0.909984  0.454992  0.250000  1
  Sc  Sc15  1  0.460030  0.540196  0.750000  1
  Sc  Sc16  1  0.460030  0.919833  0.750000  1
  Sc  Sc17  1  0.080669  0.540334  0.750000  1
  Al  Al18  1  0.894283  0.104951  0.250000  1
  Al  Al19  1  0.894283  0.789332  0.250000  1
  Mo  Mo20  1  0.210535  0.105267  0.250000  1
  Mo  Mo21  1  0.107082  0.886178  0.750000  1
  Mo  Mo22  1  0.107082  0.220905  0.750000  1
  Mo  Mo23  1  0.772867  0.886434  0.750000  1
  Mo  Mo24  1  0.006166  0.003083  0.515379  1
  Mo  Mo25  1  0.006166  0.003083  0.984621  1
  Se  Se26  1  0.337058  0.668529  0.250000  1
  Se  Se27  1  0.662270  0.331135  0.750000  1
