# generated using pymatgen
data_Ce4Y(SiB4)2
_symmetry_space_group_name_H-M   'P 1'
_cell_length_a   7.32361700
_cell_length_b   7.32361700
_cell_length_c   8.28450900
_cell_angle_alpha   90.00000000
_cell_angle_beta   90.00000000
_cell_angle_gamma   90.00000000
_symmetry_Int_Tables_number   1
_chemical_formula_structural   Ce4Y(SiB4)2
_chemical_formula_sum   'Ce8 Y2 Si4 B16'
_cell_volume   444.34267204
_cell_formula_units_Z   2
loop_
 _symmetry_equiv_pos_site_id
 _symmetry_equiv_pos_as_xyz
  1  'x, y, z'
loop_
 _atom_site_type_symbol
 _atom_site_label
 _atom_site_symmetry_multiplicity
 _atom_site_fract_x
 _atom_site_fract_y
 _atom_site_fract_z
 _atom_site_occupancy
  Ce  Ce0  1  0.682386  0.182386  0.225666  1
  Ce  Ce1  1  0.317614  0.817614  0.774334  1
  Ce  Ce2  1  0.317614  0.817614  0.225666  1
  Ce  Ce3  1  0.817614  0.682386  0.225666  1
  Ce  Ce4  1  0.817614  0.682386  0.774334  1
  Ce  Ce5  1  0.682386  0.182386  0.774334  1
  Ce  Ce6  1  0.182386  0.317614  0.774334  1
  Ce  Ce7  1  0.182386  0.317614  0.225666  1
  Y  Y8  1  0.000000  0.000000  0.500000  1
  Y  Y9  1  0.500000  0.500000  0.500000  1
  Si  Si10  1  0.115076  0.615076  0.500000  1
  Si  Si11  1  0.884924  0.384924  0.500000  1
  Si  Si12  1  0.384924  0.115076  0.500000  1
  Si  Si13  1  0.615076  0.884924  0.500000  1
  B  B14  1  0.172635  0.039282  0.000000  1
  B  B15  1  0.827365  0.960718  0.000000  1
  B  B16  1  0.960718  0.172635  0.000000  1
  B  B17  1  0.327365  0.539282  0.000000  1
  B  B18  1  0.039282  0.827365  0.000000  1
  B  B19  1  0.672635  0.460718  0.000000  1
  B  B20  1  0.539282  0.672635  0.000000  1
  B  B21  1  0.460718  0.327365  0.000000  1
  B  B22  1  0.091759  0.591759  0.000000  1
  B  B23  1  0.908241  0.408241  0.000000  1
  B  B24  1  0.408241  0.091759  0.000000  1
  B  B25  1  0.591759  0.908241  0.000000  1
  B  B26  1  0.000000  0.000000  0.158405  1
  B  B27  1  0.000000  0.000000  0.841595  1
  B  B28  1  0.500000  0.500000  0.841595  1
  B  B29  1  0.500000  0.500000  0.158405  1
