# generated using pymatgen
data_Sc12ZnCo4Pb
_symmetry_space_group_name_H-M   'P 1'
_cell_length_a   7.79170331
_cell_length_b   7.79170360
_cell_length_c   7.79170400
_cell_angle_alpha   110.84663621
_cell_angle_beta   110.72246013
_cell_angle_gamma   106.87536599
_symmetry_Int_Tables_number   1
_chemical_formula_structural   Sc12ZnCo4Pb
_chemical_formula_sum   'Sc12 Zn1 Co4 Pb1'
_cell_volume   363.58800157
_cell_formula_units_Z   1
loop_
 _symmetry_equiv_pos_site_id
 _symmetry_equiv_pos_as_xyz
  1  'x, y, z'
loop_
 _atom_site_type_symbol
 _atom_site_label
 _atom_site_symmetry_multiplicity
 _atom_site_fract_x
 _atom_site_fract_y
 _atom_site_fract_z
 _atom_site_occupancy
  Sc  Sc0  1  0.438228  0.227178  0.211049  1
  Sc  Sc1  1  0.561772  0.772822  0.788951  1
  Sc  Sc2  1  0.016128  0.227178  0.788951  1
  Sc  Sc3  1  0.983872  0.772822  0.211049  1
  Sc  Sc4  1  0.311645  0.611183  0.299538  1
  Sc  Sc5  1  0.688355  0.388817  0.700462  1
  Sc  Sc6  1  0.311645  0.012105  0.700462  1
  Sc  Sc7  1  0.688355  0.987895  0.299538  1
  Sc  Sc8  1  0.185586  0.279189  0.464775  1
  Sc  Sc9  1  0.814414  0.720810  0.535225  1
  Sc  Sc10  1  0.185586  0.720810  0.906397  1
  Sc  Sc11  1  0.814414  0.279189  0.093603  1
  Zn  Zn12  1  0.000000  0.000000  0.000000  1
  Co  Co13  1  0.369404  0.000000  0.369404  1
  Co  Co14  1  0.630596  0.000000  0.630596  1
  Co  Co15  1  0.118795  0.618795  0.500000  1
  Co  Co16  1  0.881205  0.381205  0.500000  1
  Pb  Pb17  1  0.500000  0.500000  0.000000  1
