# generated using pymatgen
data_KFe(CoSb4)3
_symmetry_space_group_name_H-M   'P 1'
_cell_length_a   7.96993100
_cell_length_b   7.96993071
_cell_length_c   7.96993177
_cell_angle_alpha   109.49641126
_cell_angle_beta   109.49641231
_cell_angle_gamma   109.49641719
_symmetry_Int_Tables_number   1
_chemical_formula_structural   KFe(CoSb4)3
_chemical_formula_sum   'K1 Fe1 Co3 Sb12'
_cell_volume   389.34631804
_cell_formula_units_Z   1
loop_
 _symmetry_equiv_pos_site_id
 _symmetry_equiv_pos_as_xyz
  1  'x, y, z'
loop_
 _atom_site_type_symbol
 _atom_site_label
 _atom_site_symmetry_multiplicity
 _atom_site_fract_x
 _atom_site_fract_y
 _atom_site_fract_z
 _atom_site_occupancy
  K  K0  1  0.000000  0.000000  0.000000  1
  Fe  Fe1  1  0.500000  0.500000  0.500000  1
  Co  Co2  1  0.500000  0.000000  0.000000  1
  Co  Co3  1  0.000000  0.500000  0.000000  1
  Co  Co4  1  0.000000  0.000000  0.500000  1
  Sb  Sb5  1  0.836926  0.662275  0.501522  1
  Sb  Sb6  1  0.163074  0.337725  0.498478  1
  Sb  Sb7  1  0.161159  0.662322  0.823731  1
  Sb  Sb8  1  0.838841  0.337678  0.176269  1
  Sb  Sb9  1  0.662275  0.501522  0.836926  1
  Sb  Sb10  1  0.337725  0.498478  0.163074  1
  Sb  Sb11  1  0.662322  0.823731  0.161159  1
  Sb  Sb12  1  0.337678  0.176269  0.838841  1
  Sb  Sb13  1  0.501522  0.836926  0.662275  1
  Sb  Sb14  1  0.498478  0.163074  0.337725  1
  Sb  Sb15  1  0.176269  0.838841  0.337678  1
  Sb  Sb16  1  0.823731  0.161159  0.662322  1
