# generated using pymatgen
data_Cr3Fe4P4W
_symmetry_space_group_name_H-M   'P 1'
_cell_length_a   3.56392500
_cell_length_b   5.83083409
_cell_length_c   6.62084940
_cell_angle_alpha   90.09728924
_cell_angle_beta   90.00000000
_cell_angle_gamma   90.00000000
_symmetry_Int_Tables_number   1
_chemical_formula_structural   Cr3Fe4P4W
_chemical_formula_sum   'Cr3 Fe4 P4 W1'
_cell_volume   137.58539137
_cell_formula_units_Z   1
loop_
 _symmetry_equiv_pos_site_id
 _symmetry_equiv_pos_as_xyz
  1  'x, y, z'
loop_
 _atom_site_type_symbol
 _atom_site_label
 _atom_site_symmetry_multiplicity
 _atom_site_fract_x
 _atom_site_fract_y
 _atom_site_fract_z
 _atom_site_occupancy
  Cr  Cr0  1  0.250000  0.028038  0.826138  1
  Cr  Cr1  1  0.750000  0.473033  0.331664  1
  Cr  Cr2  1  0.250000  0.520803  0.670048  1
  Fe  Fe3  1  0.250000  0.643537  0.062412  1
  Fe  Fe4  1  0.750000  0.356986  0.937016  1
  Fe  Fe5  1  0.250000  0.145250  0.438726  1
  Fe  Fe6  1  0.750000  0.857224  0.562622  1
  P  P7  1  0.250000  0.276311  0.123711  1
  P  P8  1  0.750000  0.729440  0.870705  1
  P  P9  1  0.250000  0.759407  0.383341  1
  P  P10  1  0.750000  0.233756  0.624803  1
  W  W11  1  0.750000  0.976217  0.168814  1
