# generated using pymatgen
data_Yb8Si6Ir7Pd
_symmetry_space_group_name_H-M   'P 1'
_cell_length_a   10.64412057
_cell_length_b   10.68114750
_cell_length_c   7.55167114
_cell_angle_alpha   72.72981380
_cell_angle_beta   72.65489542
_cell_angle_gamma   31.00157418
_symmetry_Int_Tables_number   1
_chemical_formula_structural   Yb8Si6Ir7Pd
_chemical_formula_sum   'Yb8 Si6 Ir7 Pd1'
_cell_volume   420.60775094
_cell_formula_units_Z   1
loop_
 _symmetry_equiv_pos_site_id
 _symmetry_equiv_pos_as_xyz
  1  'x, y, z'
loop_
 _atom_site_type_symbol
 _atom_site_label
 _atom_site_symmetry_multiplicity
 _atom_site_fract_x
 _atom_site_fract_y
 _atom_site_fract_z
 _atom_site_occupancy
  Yb  Yb0  1  0.927954  0.204915  0.334770  1
  Yb  Yb1  1  0.075247  0.789761  0.664675  1
  Yb  Yb2  1  0.791153  0.073760  0.168545  1
  Yb  Yb3  1  0.448053  0.211225  0.910061  1
  Yb  Yb4  1  0.790617  0.551375  0.589988  1
  Yb  Yb5  1  0.207373  0.449540  0.411535  1
  Yb  Yb6  1  0.208616  0.926140  0.832887  1
  Yb  Yb7  1  0.549139  0.794249  0.084163  1
  Si  Si8  1  0.321178  0.023605  0.437690  1
  Si  Si9  1  0.407086  0.591328  0.251159  1
  Si  Si10  1  0.029845  0.314888  0.929549  1
  Si  Si11  1  0.686298  0.968068  0.567054  1
  Si  Si12  1  0.959226  0.698604  0.060613  1
  Si  Si13  1  0.591552  0.408811  0.750452  1
  Ir  Ir14  1  0.583570  0.292115  0.528921  1
  Ir  Ir15  1  0.706414  0.417676  0.973659  1
  Ir  Ir16  1  0.292350  0.582103  0.028423  1
  Ir  Ir17  1  0.420882  0.704038  0.470273  1
  Ir  Ir18  1  0.644615  0.915940  0.313958  1
  Ir  Ir19  1  0.918936  0.641163  0.813346  1
  Ir  Ir20  1  0.357407  0.081934  0.688610  1
  Pd  Pd21  1  0.082490  0.358763  0.189666  1
