# generated using pymatgen
data_Tb3Mn2(BiO6)2
_symmetry_space_group_name_H-M   'P 1'
_cell_length_a   6.87596288
_cell_length_b   6.87596420
_cell_length_c   7.30971501
_cell_angle_alpha   74.61849796
_cell_angle_beta   74.61849575
_cell_angle_gamma   50.52866608
_symmetry_Int_Tables_number   1
_chemical_formula_structural   Tb3Mn2(BiO6)2
_chemical_formula_sum   'Tb3 Mn2 Bi2 O12'
_cell_volume   255.04682467
_cell_formula_units_Z   1
loop_
 _symmetry_equiv_pos_site_id
 _symmetry_equiv_pos_as_xyz
  1  'x, y, z'
loop_
 _atom_site_type_symbol
 _atom_site_label
 _atom_site_symmetry_multiplicity
 _atom_site_fract_x
 _atom_site_fract_y
 _atom_site_fract_z
 _atom_site_occupancy
  Tb  Tb0  1  0.693834  0.693834  0.146929  1
  Tb  Tb1  1  0.306465  0.306465  0.854455  1
  Tb  Tb2  1  0.307122  0.307122  0.338207  1
  Mn  Mn3  1  0.244997  0.756490  0.500382  1
  Mn  Mn4  1  0.756490  0.244997  0.500382  1
  Bi  Bi5  1  0.695821  0.695821  0.661100  1
  Bi  Bi6  1  0.994758  0.994758  0.999862  1
  O  O7  1  0.411017  0.901796  0.918496  1
  O  O8  1  0.574502  0.104897  0.579929  1
  O  O9  1  0.901157  0.421999  0.421746  1
  O  O10  1  0.094566  0.589893  0.078063  1
  O  O11  1  0.001885  0.001885  0.325390  1
  O  O12  1  0.500192  0.500192  0.679008  1
  O  O13  1  0.901796  0.411017  0.918496  1
  O  O14  1  0.104897  0.574502  0.579929  1
  O  O15  1  0.421999  0.901157  0.421746  1
  O  O16  1  0.589893  0.094566  0.078063  1
  O  O17  1  0.500075  0.500075  0.322226  1
  O  O18  1  0.998532  0.998532  0.675591  1
