# generated using pymatgen
data_Ca2La17YbSn16
_symmetry_space_group_name_H-M   'P 1'
_cell_length_a   8.33757602
_cell_length_b   8.61303244
_cell_length_c   16.41524400
_cell_angle_alpha   90.00000000
_cell_angle_beta   90.00000000
_cell_angle_gamma   89.86574712
_symmetry_Int_Tables_number   1
_chemical_formula_structural   Ca2La17YbSn16
_chemical_formula_sum   'Ca2 La17 Yb1 Sn16'
_cell_volume   1178.80519136
_cell_formula_units_Z   1
loop_
 _symmetry_equiv_pos_site_id
 _symmetry_equiv_pos_as_xyz
  1  'x, y, z'
loop_
 _atom_site_type_symbol
 _atom_site_label
 _atom_site_symmetry_multiplicity
 _atom_site_fract_x
 _atom_site_fract_y
 _atom_site_fract_z
 _atom_site_occupancy
  Ca  Ca0  1  0.318885  0.000035  0.750000  1
  Ca  Ca1  1  0.182882  0.496219  0.250000  1
  La  La2  1  0.648263  0.167509  0.622278  1
  La  La3  1  0.148792  0.331235  0.878268  1
  La  La4  1  0.351693  0.830492  0.123559  1
  La  La5  1  0.852187  0.665871  0.378200  1
  La  La6  1  0.351693  0.830492  0.376441  1
  La  La7  1  0.852187  0.665871  0.121800  1
  La  La8  1  0.648263  0.167509  0.877722  1
  La  La9  1  0.148792  0.331235  0.621732  1
  La  La10  1  0.494044  0.684632  0.597458  1
  La  La11  1  0.999231  0.818366  0.903613  1
  La  La12  1  0.504101  0.316515  0.097093  1
  La  La13  1  0.001439  0.185298  0.403646  1
  La  La14  1  0.504101  0.316515  0.402907  1
  La  La15  1  0.001439  0.185298  0.096354  1
  La  La16  1  0.494044  0.684632  0.902542  1
  La  La17  1  0.999231  0.818366  0.596387  1
  La  La18  1  0.819254  0.502375  0.750000  1
  Yb  Yb19  1  0.680362  0.001723  0.250000  1
  Sn  Sn20  1  0.688691  0.962550  0.459338  1
  Sn  Sn21  1  0.194063  0.535839  0.040626  1
  Sn  Sn22  1  0.310829  0.037056  0.961406  1
  Sn  Sn23  1  0.807635  0.465011  0.541573  1
  Sn  Sn24  1  0.310829  0.037056  0.538594  1
  Sn  Sn25  1  0.807635  0.465011  0.958427  1
  Sn  Sn26  1  0.688691  0.962550  0.040662  1
  Sn  Sn27  1  0.194063  0.535839  0.459374  1
  Sn  Sn28  1  0.446894  0.391128  0.750000  1
  Sn  Sn29  1  0.951652  0.105511  0.750000  1
  Sn  Sn30  1  0.551083  0.603672  0.250000  1
  Sn  Sn31  1  0.047982  0.897321  0.250000  1
  Sn  Sn32  1  0.695739  0.860405  0.750000  1
  Sn  Sn33  1  0.195367  0.642835  0.750000  1
  Sn  Sn34  1  0.303421  0.139779  0.250000  1
  Sn  Sn35  1  0.804549  0.358243  0.250000  1
