# generated using pymatgen
data_Tm2Pa2Ge6Ir6W
_symmetry_space_group_name_H-M   'P 1'
_cell_length_a   7.27978105
_cell_length_b   7.29408926
_cell_length_c   7.27985463
_cell_angle_alpha   109.48528683
_cell_angle_beta   109.37668245
_cell_angle_gamma   109.48582968
_symmetry_Int_Tables_number   1
_chemical_formula_structural   Tm2Pa2Ge6Ir6W
_chemical_formula_sum   'Tm2 Pa2 Ge6 Ir6 W1'
_cell_volume   297.81209013
_cell_formula_units_Z   1
loop_
 _symmetry_equiv_pos_site_id
 _symmetry_equiv_pos_as_xyz
  1  'x, y, z'
loop_
 _atom_site_type_symbol
 _atom_site_label
 _atom_site_symmetry_multiplicity
 _atom_site_fract_x
 _atom_site_fract_y
 _atom_site_fract_z
 _atom_site_occupancy
  Tm  Tm0  1  0.000000  0.000000  0.500000  1
  Tm  Tm1  1  0.500000  0.000000  0.000000  1
  Pa  Pa2  1  0.000000  0.500000  0.000000  1
  Pa  Pa3  1  0.500000  0.500000  0.500000  1
  Ge  Ge4  1  0.684392  0.690742  0.006286  1
  Ge  Ge5  1  0.315325  0.999994  0.315343  1
  Ge  Ge6  1  0.993715  0.309289  0.315613  1
  Ge  Ge7  1  0.315608  0.309258  0.993714  1
  Ge  Ge8  1  0.684675  0.000006  0.684657  1
  Ge  Ge9  1  0.006285  0.690711  0.684387  1
  Ir  Ir10  1  0.749615  0.254567  0.504837  1
  Ir  Ir11  1  0.749994  0.499995  0.249956  1
  Ir  Ir12  1  0.504806  0.254570  0.749588  1
  Ir  Ir13  1  0.250006  0.500005  0.750044  1
  Ir  Ir14  1  0.250385  0.745433  0.495163  1
  Ir  Ir15  1  0.495194  0.745430  0.250412  1
  W  W16  1  0.000000  0.000000  0.000000  1
