# generated using pymatgen
data_Ca2Ni5C3
_symmetry_space_group_name_H-M   'P 1'
_cell_length_a   8.22772200
_cell_length_b   8.22772200
_cell_length_c   3.89277600
_cell_angle_alpha   90.00000000
_cell_angle_beta   90.00000000
_cell_angle_gamma   90.00000000
_symmetry_Int_Tables_number   1
_chemical_formula_structural   Ca2Ni5C3
_chemical_formula_sum   'Ca4 Ni10 C6'
_cell_volume   263.52306467
_cell_formula_units_Z   2
loop_
 _symmetry_equiv_pos_site_id
 _symmetry_equiv_pos_as_xyz
  1  'x, y, z'
loop_
 _atom_site_type_symbol
 _atom_site_label
 _atom_site_symmetry_multiplicity
 _atom_site_fract_x
 _atom_site_fract_y
 _atom_site_fract_z
 _atom_site_occupancy
  Ca  Ca0  1  0.344657  0.844657  0.000000  1
  Ca  Ca1  1  0.655343  0.155343  0.000000  1
  Ca  Ca2  1  0.155343  0.344657  0.000000  1
  Ca  Ca3  1  0.844657  0.655343  0.000000  1
  Ni  Ni4  1  0.577655  0.712497  0.500000  1
  Ni  Ni5  1  0.422345  0.287503  0.500000  1
  Ni  Ni6  1  0.922345  0.212497  0.500000  1
  Ni  Ni7  1  0.077655  0.787503  0.500000  1
  Ni  Ni8  1  0.712497  0.422345  0.500000  1
  Ni  Ni9  1  0.287503  0.577655  0.500000  1
  Ni  Ni10  1  0.212497  0.077655  0.500000  1
  Ni  Ni11  1  0.787503  0.922345  0.500000  1
  Ni  Ni12  1  0.500000  0.500000  0.000000  1
  Ni  Ni13  1  0.000000  0.000000  0.000000  1
  C  C14  1  0.500000  0.500000  0.500000  1
  C  C15  1  0.000000  0.000000  0.500000  1
  C  C16  1  0.057628  0.557628  0.500000  1
  C  C17  1  0.942372  0.442372  0.500000  1
  C  C18  1  0.442372  0.057628  0.500000  1
  C  C19  1  0.557628  0.942372  0.500000  1
