# generated using pymatgen
data_MgPa2Rh5
_symmetry_space_group_name_H-M   'P 1'
_cell_length_a   4.19885300
_cell_length_b   5.78216800
_cell_length_c   11.42308500
_cell_angle_alpha   90.00000000
_cell_angle_beta   90.00000000
_cell_angle_gamma   90.00000000
_symmetry_Int_Tables_number   1
_chemical_formula_structural   MgPa2Rh5
_chemical_formula_sum   'Mg2 Pa4 Rh10'
_cell_volume   277.33506593
_cell_formula_units_Z   2
loop_
 _symmetry_equiv_pos_site_id
 _symmetry_equiv_pos_as_xyz
  1  'x, y, z'
loop_
 _atom_site_type_symbol
 _atom_site_label
 _atom_site_symmetry_multiplicity
 _atom_site_fract_x
 _atom_site_fract_y
 _atom_site_fract_z
 _atom_site_occupancy
  Mg  Mg0  1  0.000000  0.000000  0.000000  1
  Mg  Mg1  1  0.000000  0.500000  0.500000  1
  Pa  Pa2  1  0.500000  0.316873  0.139757  1
  Pa  Pa3  1  0.500000  0.683127  0.860243  1
  Pa  Pa4  1  0.500000  0.816873  0.360243  1
  Pa  Pa5  1  0.500000  0.183127  0.639757  1
  Rh  Rh6  1  0.000000  0.000000  0.500000  1
  Rh  Rh7  1  0.000000  0.500000  0.000000  1
  Rh  Rh8  1  0.000000  0.067215  0.245711  1
  Rh  Rh9  1  0.000000  0.932785  0.754289  1
  Rh  Rh10  1  0.000000  0.567215  0.254289  1
  Rh  Rh11  1  0.000000  0.432785  0.745711  1
  Rh  Rh12  1  0.500000  0.298373  0.385746  1
  Rh  Rh13  1  0.500000  0.701627  0.614254  1
  Rh  Rh14  1  0.500000  0.798373  0.114254  1
  Rh  Rh15  1  0.500000  0.201627  0.885746  1
