# generated using pymatgen
data_Ti12Zn12CO3
_symmetry_space_group_name_H-M   'P 1'
_cell_length_a   8.17059381
_cell_length_b   8.13393715
_cell_length_c   8.13393900
_cell_angle_alpha   59.99999654
_cell_angle_beta   60.14829526
_cell_angle_gamma   60.14829333
_symmetry_Int_Tables_number   1
_chemical_formula_structural   Ti12Zn12CO3
_chemical_formula_sum   'Ti12 Zn12 C1 O3'
_cell_volume   383.09824611
_cell_formula_units_Z   1
loop_
 _symmetry_equiv_pos_site_id
 _symmetry_equiv_pos_as_xyz
  1  'x, y, z'
loop_
 _atom_site_type_symbol
 _atom_site_label
 _atom_site_symmetry_multiplicity
 _atom_site_fract_x
 _atom_site_fract_y
 _atom_site_fract_z
 _atom_site_occupancy
  Ti  Ti0  1  0.431025  0.427817  0.070579  1
  Ti  Ti1  1  0.069974  0.429402  0.071222  1
  Ti  Ti2  1  0.431025  0.070579  0.070579  1
  Ti  Ti3  1  0.069974  0.071222  0.429402  1
  Ti  Ti4  1  0.431025  0.070579  0.427817  1
  Ti  Ti5  1  0.069974  0.429402  0.429402  1
  Ti  Ti6  1  0.818975  0.822183  0.179421  1
  Ti  Ti7  1  0.180026  0.820598  0.178778  1
  Ti  Ti8  1  0.818975  0.179421  0.179421  1
  Ti  Ti9  1  0.180026  0.178778  0.820598  1
  Ti  Ti10  1  0.818975  0.179421  0.822183  1
  Ti  Ti11  1  0.180026  0.820598  0.820598  1
  Zn  Zn12  1  0.836492  0.834608  0.494294  1
  Zn  Zn13  1  0.836492  0.494294  0.834608  1
  Zn  Zn14  1  0.494928  0.835025  0.835025  1
  Zn  Zn15  1  0.836492  0.834608  0.834608  1
  Zn  Zn16  1  0.413508  0.415392  0.755706  1
  Zn  Zn17  1  0.413508  0.755706  0.415392  1
  Zn  Zn18  1  0.755072  0.414975  0.414975  1
  Zn  Zn19  1  0.413508  0.415392  0.415392  1
  Zn  Zn20  1  0.625000  0.625000  0.125000  1
  Zn  Zn21  1  0.625000  0.125000  0.625000  1
  Zn  Zn22  1  0.125000  0.625000  0.625000  1
  Zn  Zn23  1  0.625000  0.625000  0.625000  1
  C  C24  1  0.625000  0.125000  0.125000  1
  O  O25  1  0.125000  0.125000  0.625000  1
  O  O26  1  0.125000  0.625000  0.125000  1
  O  O27  1  0.125000  0.125000  0.125000  1
