# generated using pymatgen
data_Tm8HfSc11Ga16
_symmetry_space_group_name_H-M   'P 1'
_cell_length_a   7.20673924
_cell_length_b   7.51563518
_cell_length_c   14.39807839
_cell_angle_alpha   89.98431048
_cell_angle_beta   90.06417071
_cell_angle_gamma   90.01954108
_symmetry_Int_Tables_number   1
_chemical_formula_structural   Tm8HfSc11Ga16
_chemical_formula_sum   'Tm8 Hf1 Sc11 Ga16'
_cell_volume   779.84576600
_cell_formula_units_Z   1
loop_
 _symmetry_equiv_pos_site_id
 _symmetry_equiv_pos_as_xyz
  1  'x, y, z'
loop_
 _atom_site_type_symbol
 _atom_site_label
 _atom_site_symmetry_multiplicity
 _atom_site_fract_x
 _atom_site_fract_y
 _atom_site_fract_z
 _atom_site_occupancy
  Tm  Tm0  1  0.010592  0.179454  0.094800  1
  Tm  Tm1  1  0.989645  0.820561  0.905707  1
  Tm  Tm2  1  0.489716  0.678987  0.905762  1
  Tm  Tm3  1  0.989985  0.821153  0.593974  1
  Tm  Tm4  1  0.509864  0.320496  0.094626  1
  Tm  Tm5  1  0.010871  0.179341  0.405970  1
  Tm  Tm6  1  0.510524  0.320915  0.405601  1
  Tm  Tm7  1  0.489997  0.678695  0.594453  1
  Hf  Hf8  1  0.330190  0.174460  0.624637  1
  Sc  Sc9  1  0.162808  0.503759  0.749989  1
  Sc  Sc10  1  0.837372  0.496179  0.249773  1
  Sc  Sc11  1  0.336811  0.004255  0.250186  1
  Sc  Sc12  1  0.662451  0.995960  0.750048  1
  Sc  Sc13  1  0.670318  0.826368  0.375508  1
  Sc  Sc14  1  0.170419  0.672885  0.375767  1
  Sc  Sc15  1  0.670032  0.826397  0.124344  1
  Sc  Sc16  1  0.829506  0.325878  0.623377  1
  Sc  Sc17  1  0.330343  0.173297  0.875726  1
  Sc  Sc18  1  0.829786  0.327061  0.876258  1
  Sc  Sc19  1  0.169969  0.673216  0.124360  1
  Ga  Ga20  1  0.032326  0.116526  0.748670  1
  Ga  Ga21  1  0.968565  0.883964  0.250126  1
  Ga  Ga22  1  0.468840  0.616031  0.250192  1
  Ga  Ga23  1  0.530383  0.382418  0.749176  1
  Ga  Ga24  1  0.284509  0.871076  0.748823  1
  Ga  Ga25  1  0.716078  0.130117  0.250138  1
  Ga  Ga26  1  0.216121  0.369467  0.250275  1
  Ga  Ga27  1  0.783431  0.630441  0.749741  1
  Ga  Ga28  1  0.163926  0.463160  0.541078  1
  Ga  Ga29  1  0.837768  0.534606  0.459638  1
  Ga  Ga30  1  0.336958  0.966613  0.460919  1
  Ga  Ga31  1  0.837522  0.534772  0.040339  1
  Ga  Ga32  1  0.660325  0.036013  0.540886  1
  Ga  Ga33  1  0.162620  0.465407  0.959372  1
  Ga  Ga34  1  0.662047  0.034559  0.959342  1
  Ga  Ga35  1  0.337384  0.965516  0.040420  1
