# generated using pymatgen
data_Mg(ZrPt4)3
_symmetry_space_group_name_H-M   'P 1'
_cell_length_a   5.70739300
_cell_length_b   5.70739333
_cell_length_c   9.32435200
_cell_angle_alpha   90.00000000
_cell_angle_beta   90.00000000
_cell_angle_gamma   119.99999228
_symmetry_Int_Tables_number   1
_chemical_formula_structural   Mg(ZrPt4)3
_chemical_formula_sum   'Mg1 Zr3 Pt12'
_cell_volume   263.04188454
_cell_formula_units_Z   1
loop_
 _symmetry_equiv_pos_site_id
 _symmetry_equiv_pos_as_xyz
  1  'x, y, z'
loop_
 _atom_site_type_symbol
 _atom_site_label
 _atom_site_symmetry_multiplicity
 _atom_site_fract_x
 _atom_site_fract_y
 _atom_site_fract_z
 _atom_site_occupancy
  Mg  Mg0  1  0.333333  0.666667  0.250000  1
  Zr  Zr1  1  0.000000  0.000000  0.498490  1
  Zr  Zr2  1  0.000000  0.000000  0.001510  1
  Zr  Zr3  1  0.666667  0.333333  0.750000  1
  Pt  Pt4  1  0.500253  0.499747  0.499695  1
  Pt  Pt5  1  0.500253  0.000506  0.499695  1
  Pt  Pt6  1  0.999494  0.499747  0.499695  1
  Pt  Pt7  1  0.500253  0.499747  0.000305  1
  Pt  Pt8  1  0.500253  0.000506  0.000305  1
  Pt  Pt9  1  0.999494  0.499747  0.000305  1
  Pt  Pt10  1  0.829616  0.659230  0.250000  1
  Pt  Pt11  1  0.340770  0.170384  0.250000  1
  Pt  Pt12  1  0.829616  0.170384  0.250000  1
  Pt  Pt13  1  0.170550  0.341100  0.750000  1
  Pt  Pt14  1  0.658900  0.829450  0.750000  1
  Pt  Pt15  1  0.170550  0.829450  0.750000  1
