# generated using pymatgen
data_CaTbSm4(Si3Ru)8
_symmetry_space_group_name_H-M   'P 1'
_cell_length_a   10.14070038
_cell_length_b   10.14069949
_cell_length_c   8.19020300
_cell_angle_alpha   90.01567898
_cell_angle_beta   90.01567898
_cell_angle_gamma   132.39303860
_symmetry_Int_Tables_number   1
_chemical_formula_structural   CaTbSm4(Si3Ru)8
_chemical_formula_sum   'Ca1 Tb1 Sm4 Si24 Ru8'
_cell_volume   622.01784280
_cell_formula_units_Z   1
loop_
 _symmetry_equiv_pos_site_id
 _symmetry_equiv_pos_as_xyz
  1  'x, y, z'
loop_
 _atom_site_type_symbol
 _atom_site_label
 _atom_site_symmetry_multiplicity
 _atom_site_fract_x
 _atom_site_fract_y
 _atom_site_fract_z
 _atom_site_occupancy
  Ca  Ca0  1  0.500000  0.500000  0.500000  1
  Tb  Tb1  1  0.000000  0.000000  0.000000  1
  Sm  Sm2  1  0.502430  0.002713  0.749867  1
  Sm  Sm3  1  0.997287  0.497570  0.250133  1
  Sm  Sm4  1  0.497570  0.997287  0.250133  1
  Sm  Sm5  1  0.002713  0.502430  0.749867  1
  Si  Si6  1  0.795485  0.204515  0.500000  1
  Si  Si7  1  0.295195  0.704805  0.000000  1
  Si  Si8  1  0.204515  0.795485  0.500000  1
  Si  Si9  1  0.704805  0.295195  0.000000  1
  Si  Si10  1  0.333747  0.333747  0.831408  1
  Si  Si11  1  0.666253  0.666253  0.168592  1
  Si  Si12  1  0.169235  0.169235  0.334363  1
  Si  Si13  1  0.830765  0.830765  0.665637  1
  Si  Si14  1  0.122543  0.889346  0.728511  1
  Si  Si15  1  0.110654  0.877457  0.271489  1
  Si  Si16  1  0.610300  0.377929  0.229915  1
  Si  Si17  1  0.622071  0.389700  0.770085  1
  Si  Si18  1  0.877457  0.110654  0.271489  1
  Si  Si19  1  0.889346  0.122543  0.728511  1
  Si  Si20  1  0.389700  0.622071  0.770085  1
  Si  Si21  1  0.377929  0.610300  0.229915  1
  Si  Si22  1  0.345828  0.114315  0.505628  1
  Si  Si23  1  0.885685  0.654172  0.494372  1
  Si  Si24  1  0.388006  0.155363  0.005162  1
  Si  Si25  1  0.844637  0.611994  0.994838  1
  Si  Si26  1  0.654172  0.885685  0.494372  1
  Si  Si27  1  0.114315  0.345828  0.505628  1
  Si  Si28  1  0.611994  0.844637  0.994838  1
  Si  Si29  1  0.155363  0.388006  0.005162  1
  Ru  Ru30  1  0.669442  0.330558  0.500000  1
  Ru  Ru31  1  0.168443  0.831557  0.000000  1
  Ru  Ru32  1  0.330558  0.669442  0.500000  1
  Ru  Ru33  1  0.831557  0.168443  0.000000  1
  Ru  Ru34  1  0.123807  0.123807  0.627411  1
  Ru  Ru35  1  0.876193  0.876193  0.372589  1
  Ru  Ru36  1  0.373441  0.373441  0.124429  1
  Ru  Ru37  1  0.626559  0.626559  0.875571  1
