# generated using pymatgen
data_DyLu(Hf4Sn3)2
_symmetry_space_group_name_H-M   'P 1'
_cell_length_a   8.61202559
_cell_length_b   8.61202685
_cell_length_c   5.81933500
_cell_angle_alpha   90.00000000
_cell_angle_beta   90.00000000
_cell_angle_gamma   121.38444901
_symmetry_Int_Tables_number   1
_chemical_formula_structural   DyLu(Hf4Sn3)2
_chemical_formula_sum   'Dy1 Lu1 Hf8 Sn6'
_cell_volume   368.45575732
_cell_formula_units_Z   1
loop_
 _symmetry_equiv_pos_site_id
 _symmetry_equiv_pos_as_xyz
  1  'x, y, z'
loop_
 _atom_site_type_symbol
 _atom_site_label
 _atom_site_symmetry_multiplicity
 _atom_site_fract_x
 _atom_site_fract_y
 _atom_site_fract_z
 _atom_site_occupancy
  Dy  Dy0  1  0.228091  0.228091  0.250000  1
  Lu  Lu1  1  0.772423  0.772423  0.750000  1
  Hf  Hf2  1  0.252185  0.000550  0.750000  1
  Hf  Hf3  1  0.000550  0.252185  0.750000  1
  Hf  Hf4  1  0.748753  0.999254  0.250000  1
  Hf  Hf5  1  0.999254  0.748753  0.250000  1
  Hf  Hf6  1  0.665117  0.333836  0.999868  1
  Hf  Hf7  1  0.333836  0.665117  0.999868  1
  Hf  Hf8  1  0.333836  0.665117  0.500132  1
  Hf  Hf9  1  0.665117  0.333836  0.500132  1
  Sn  Sn10  1  0.392634  0.392634  0.750000  1
  Sn  Sn11  1  0.607053  0.002213  0.750000  1
  Sn  Sn12  1  0.002213  0.607053  0.750000  1
  Sn  Sn13  1  0.609103  0.609103  0.250000  1
  Sn  Sn14  1  0.393837  0.996000  0.250000  1
  Sn  Sn15  1  0.996000  0.393837  0.250000  1
