# generated using pymatgen
data_Dy6YRhO12
_symmetry_space_group_name_H-M   'P 1'
_cell_length_a   6.63871293
_cell_length_b   6.63871334
_cell_length_c   6.63871260
_cell_angle_alpha   95.13854267
_cell_angle_beta   95.13854216
_cell_angle_gamma   95.13855395
_symmetry_Int_Tables_number   1
_chemical_formula_structural   Dy6YRhO12
_chemical_formula_sum   'Dy6 Y1 Rh1 O12'
_cell_volume   288.82986151
_cell_formula_units_Z   1
loop_
 _symmetry_equiv_pos_site_id
 _symmetry_equiv_pos_as_xyz
  1  'x, y, z'
loop_
 _atom_site_type_symbol
 _atom_site_label
 _atom_site_symmetry_multiplicity
 _atom_site_fract_x
 _atom_site_fract_y
 _atom_site_fract_z
 _atom_site_occupancy
  Dy  Dy0  1  0.733794  0.911950  0.426689  1
  Dy  Dy1  1  0.426689  0.733794  0.911950  1
  Dy  Dy2  1  0.088050  0.573311  0.266206  1
  Dy  Dy3  1  0.911950  0.426689  0.733794  1
  Dy  Dy4  1  0.573311  0.266206  0.088050  1
  Dy  Dy5  1  0.266206  0.088050  0.573311  1
  Y  Y6  1  0.000000  0.000000  0.000000  1
  Rh  Rh7  1  0.500000  0.500000  0.500000  1
  O  O8  1  0.066133  0.911807  0.320894  1
  O  O9  1  0.679106  0.933867  0.088193  1
  O  O10  1  0.455625  0.803836  0.585755  1
  O  O11  1  0.088193  0.679106  0.933867  1
  O  O12  1  0.803836  0.585755  0.455625  1
  O  O13  1  0.414245  0.544375  0.196164  1
  O  O14  1  0.585755  0.455625  0.803836  1
  O  O15  1  0.196164  0.414245  0.544375  1
  O  O16  1  0.911807  0.320894  0.066133  1
  O  O17  1  0.544375  0.196164  0.414245  1
  O  O18  1  0.320894  0.066133  0.911807  1
  O  O19  1  0.933867  0.088193  0.679106  1
