# generated using pymatgen
data_Ac8YbIr6
_symmetry_space_group_name_H-M   'P 1'
_cell_length_a   8.03314765
_cell_length_b   8.03314748
_cell_length_c   8.03314847
_cell_angle_alpha   69.97209946
_cell_angle_beta   69.97209863
_cell_angle_gamma   69.97208880
_symmetry_Int_Tables_number   1
_chemical_formula_structural   Ac8YbIr6
_chemical_formula_sum   'Ac8 Yb1 Ir6'
_cell_volume   442.44771105
_cell_formula_units_Z   1
loop_
 _symmetry_equiv_pos_site_id
 _symmetry_equiv_pos_as_xyz
  1  'x, y, z'
loop_
 _atom_site_type_symbol
 _atom_site_label
 _atom_site_symmetry_multiplicity
 _atom_site_fract_x
 _atom_site_fract_y
 _atom_site_fract_z
 _atom_site_occupancy
  Ac  Ac0  1  0.807005  0.807005  0.807005  1
  Ac  Ac1  1  0.192995  0.192995  0.192995  1
  Ac  Ac2  1  0.147755  0.387448  0.679887  1
  Ac  Ac3  1  0.679887  0.147755  0.387448  1
  Ac  Ac4  1  0.387448  0.679887  0.147755  1
  Ac  Ac5  1  0.852245  0.612552  0.320113  1
  Ac  Ac6  1  0.320113  0.852245  0.612552  1
  Ac  Ac7  1  0.612552  0.320113  0.852245  1
  Yb  Yb8  1  0.000000  0.000000  0.000000  1
  Ir  Ir9  1  0.955238  0.173231  0.586241  1
  Ir  Ir10  1  0.586241  0.955238  0.173231  1
  Ir  Ir11  1  0.173231  0.586241  0.955238  1
  Ir  Ir12  1  0.044762  0.826769  0.413759  1
  Ir  Ir13  1  0.413759  0.044762  0.826769  1
  Ir  Ir14  1  0.826769  0.413759  0.044762  1
