# generated using pymatgen
data_Mo2H11
_symmetry_space_group_name_H-M   'P 1'
_cell_length_a   3.10119224
_cell_length_b   3.10089431
_cell_length_c   13.28640958
_cell_angle_alpha   70.19191007
_cell_angle_beta   90.06272434
_cell_angle_gamma   89.98871802
_symmetry_Int_Tables_number   1
_chemical_formula_structural   Mo2H11
_chemical_formula_sum   'Mo2 H11'
_cell_volume   120.20857823
_cell_formula_units_Z   1
loop_
 _symmetry_equiv_pos_site_id
 _symmetry_equiv_pos_as_xyz
  1  'x, y, z'
loop_
 _atom_site_type_symbol
 _atom_site_label
 _atom_site_symmetry_multiplicity
 _atom_site_fract_x
 _atom_site_fract_y
 _atom_site_fract_z
 _atom_site_occupancy
  Mo  Mo0  1  0.967161  0.688666  0.299322  1
  Mo  Mo1  1  0.466062  0.428880  0.133939  1
  H  H2  1  0.942970  0.257556  0.828121  1
  H  H3  1  0.965070  0.547309  0.051944  1
  H  H4  1  0.966186  0.306528  0.218208  1
  H  H5  1  0.524155  0.845315  0.662539  1
  H  H6  1  0.467885  0.047736  0.051871  1
  H  H7  1  0.467135  0.562163  0.387407  1
  H  H8  1  0.969481  0.058638  0.387764  1
  H  H9  1  0.586337  0.734473  0.622493  1
  H  H10  1  0.466654  0.805865  0.218588  1
  H  H11  1  0.120878  0.100414  0.824496  1
  H  H12  1  0.463031  0.628273  0.998854  1
