# generated using pymatgen
data_Dy4Al4OsPd3
_symmetry_space_group_name_H-M   'P 1'
_cell_length_a   4.33301100
_cell_length_b   6.92420242
_cell_length_c   7.91263852
_cell_angle_alpha   89.95927718
_cell_angle_beta   90.00000000
_cell_angle_gamma   90.00000000
_symmetry_Int_Tables_number   1
_chemical_formula_structural   Dy4Al4OsPd3
_chemical_formula_sum   'Dy4 Al4 Os1 Pd3'
_cell_volume   237.40002655
_cell_formula_units_Z   1
loop_
 _symmetry_equiv_pos_site_id
 _symmetry_equiv_pos_as_xyz
  1  'x, y, z'
loop_
 _atom_site_type_symbol
 _atom_site_label
 _atom_site_symmetry_multiplicity
 _atom_site_fract_x
 _atom_site_fract_y
 _atom_site_fract_z
 _atom_site_occupancy
  Dy  Dy0  1  0.250000  0.036175  0.322186  1
  Dy  Dy1  1  0.250000  0.530980  0.180545  1
  Dy  Dy2  1  0.750000  0.979876  0.678439  1
  Dy  Dy3  1  0.750000  0.463250  0.815119  1
  Al  Al4  1  0.250000  0.144429  0.935417  1
  Al  Al5  1  0.250000  0.636694  0.562067  1
  Al  Al6  1  0.750000  0.857615  0.059821  1
  Al  Al7  1  0.750000  0.355010  0.442280  1
  Os  Os8  1  0.250000  0.266726  0.622707  1
  Pd  Pd9  1  0.250000  0.772356  0.881603  1
  Pd  Pd10  1  0.750000  0.728422  0.377563  1
  Pd  Pd11  1  0.750000  0.228467  0.122250  1
