# generated using pymatgen
data_Sr6Cd7Hg5
_symmetry_space_group_name_H-M   'P 1'
_cell_length_a   6.52594044
_cell_length_b   6.52594122
_cell_length_c   18.73595084
_cell_angle_alpha   77.79017840
_cell_angle_beta   77.79017810
_cell_angle_gamma   44.57844270
_symmetry_Int_Tables_number   1
_chemical_formula_structural   Sr6Cd7Hg5
_chemical_formula_sum   'Sr6 Cd7 Hg5'
_cell_volume   545.22548559
_cell_formula_units_Z   1
loop_
 _symmetry_equiv_pos_site_id
 _symmetry_equiv_pos_as_xyz
  1  'x, y, z'
loop_
 _atom_site_type_symbol
 _atom_site_label
 _atom_site_symmetry_multiplicity
 _atom_site_fract_x
 _atom_site_fract_y
 _atom_site_fract_z
 _atom_site_occupancy
  Sr  Sr0  1  0.267039  0.267039  0.241780  1
  Sr  Sr1  1  0.602045  0.602045  0.574109  1
  Sr  Sr2  1  0.939104  0.939104  0.904333  1
  Sr  Sr3  1  0.061439  0.061439  0.095319  1
  Sr  Sr4  1  0.394545  0.394545  0.427961  1
  Sr  Sr5  1  0.727914  0.727914  0.761358  1
  Cd  Cd6  1  0.764867  0.764867  0.097963  1
  Cd  Cd7  1  0.095069  0.095069  0.431467  1
  Cd  Cd8  1  0.428947  0.428947  0.763880  1
  Cd  Cd9  1  0.379411  0.379411  0.043216  1
  Cd  Cd10  1  0.955786  0.955786  0.291987  1
  Cd  Cd11  1  0.290586  0.290586  0.625218  1
  Cd  Cd12  1  0.622398  0.622398  0.959462  1
  Hg  Hg13  1  0.716871  0.716871  0.380977  1
  Hg  Hg14  1  0.050668  0.050668  0.712378  1
  Hg  Hg15  1  0.566533  0.566533  0.228607  1
  Hg  Hg16  1  0.900199  0.900199  0.562683  1
  Hg  Hg17  1  0.236588  0.236588  0.897297  1
