# generated using pymatgen
data_Tb4Er8Ni4SnAu
_symmetry_space_group_name_H-M   'P 1'
_cell_length_a   8.33096986
_cell_length_b   8.33097024
_cell_length_c   8.33096984
_cell_angle_alpha   106.47179250
_cell_angle_beta   109.18313746
_cell_angle_gamma   112.82190891
_symmetry_Int_Tables_number   1
_chemical_formula_structural   Tb4Er8Ni4SnAu
_chemical_formula_sum   'Tb4 Er8 Ni4 Sn1 Au1'
_cell_volume   443.72462731
_cell_formula_units_Z   1
loop_
 _symmetry_equiv_pos_site_id
 _symmetry_equiv_pos_as_xyz
  1  'x, y, z'
loop_
 _atom_site_type_symbol
 _atom_site_label
 _atom_site_symmetry_multiplicity
 _atom_site_fract_x
 _atom_site_fract_y
 _atom_site_fract_z
 _atom_site_occupancy
  Tb  Tb0  1  0.612102  0.792624  0.819478  1
  Tb  Tb1  1  0.973146  0.792624  0.180522  1
  Tb  Tb2  1  0.026854  0.207376  0.819478  1
  Tb  Tb3  1  0.387898  0.207376  0.180522  1
  Er  Er4  1  0.696365  0.276698  0.973062  1
  Er  Er5  1  0.303635  0.723302  0.026938  1
  Er  Er6  1  0.696365  0.723302  0.419666  1
  Er  Er7  1  0.303635  0.276698  0.580334  1
  Er  Er8  1  0.810383  0.134944  0.324561  1
  Er  Er9  1  0.810383  0.485822  0.675439  1
  Er  Er10  1  0.189617  0.865056  0.675439  1
  Er  Er11  1  0.189617  0.514178  0.324561  1
  Ni  Ni12  1  0.857371  0.500000  0.357371  1
  Ni  Ni13  1  0.142629  0.500000  0.642629  1
  Ni  Ni14  1  0.000000  0.125262  0.125262  1
  Ni  Ni15  1  0.000000  0.874738  0.874738  1
  Sn  Sn16  1  0.500000  0.000000  0.500000  1
  Au  Au17  1  0.500000  0.500000  0.000000  1
