# generated using pymatgen
data_Ho6CoP12Ru14Rh3
_symmetry_space_group_name_H-M   'P 1'
_cell_length_a   3.94749700
_cell_length_b   11.11953341
_cell_length_c   12.56704865
_cell_angle_alpha   89.77406497
_cell_angle_beta   90.00000000
_cell_angle_gamma   90.00000000
_symmetry_Int_Tables_number   1
_chemical_formula_structural   Ho6CoP12Ru14Rh3
_chemical_formula_sum   'Ho6 Co1 P12 Ru14 Rh3'
_cell_volume   551.61782649
_cell_formula_units_Z   1
loop_
 _symmetry_equiv_pos_site_id
 _symmetry_equiv_pos_as_xyz
  1  'x, y, z'
loop_
 _atom_site_type_symbol
 _atom_site_label
 _atom_site_symmetry_multiplicity
 _atom_site_fract_x
 _atom_site_fract_y
 _atom_site_fract_z
 _atom_site_occupancy
  Ho  Ho0  1  0.000000  0.499098  0.522442  1
  Ho  Ho1  1  0.500000  0.001139  0.477046  1
  Ho  Ho2  1  0.500000  0.817287  0.204481  1
  Ho  Ho3  1  0.500000  0.182254  0.204750  1
  Ho  Ho4  1  0.000000  0.684418  0.794333  1
  Ho  Ho5  1  0.000000  0.314502  0.796156  1
  Co  Co6  1  0.500000  0.998325  0.014997  1
  P  P7  1  0.500000  0.301010  0.617267  1
  P  P8  1  0.500000  0.699297  0.616704  1
  P  P9  1  0.000000  0.198848  0.383146  1
  P  P10  1  0.000000  0.802140  0.383420  1
  P  P11  1  0.500000  0.497197  0.878585  1
  P  P12  1  0.000000  0.998437  0.119054  1
  P  P13  1  0.500000  0.854249  0.896671  1
  P  P14  1  0.500000  0.149174  0.899282  1
  P  P15  1  0.000000  0.653339  0.107280  1
  P  P16  1  0.000000  0.345126  0.102287  1
  P  P17  1  0.500000  0.500192  0.338654  1
  P  P18  1  0.000000  0.000246  0.660704  1
  Ru  Ru19  1  0.000000  0.502707  0.983848  1
  Ru  Ru20  1  0.500000  0.302402  0.430001  1
  Ru  Ru21  1  0.500000  0.698742  0.430471  1
  Ru  Ru22  1  0.000000  0.197478  0.570690  1
  Ru  Ru23  1  0.000000  0.803448  0.570043  1
  Ru  Ru24  1  0.500000  0.878059  0.714869  1
  Ru  Ru25  1  0.500000  0.121850  0.716759  1
  Ru  Ru26  1  0.000000  0.622353  0.286881  1
  Ru  Ru27  1  0.000000  0.377306  0.283542  1
  Ru  Ru28  1  0.500000  0.330132  0.988636  1
  Ru  Ru29  1  0.000000  0.162260  0.012493  1
  Ru  Ru30  1  0.000000  0.833540  0.013305  1
  Ru  Ru31  1  0.500000  0.503544  0.153958  1
  Ru  Ru32  1  0.000000  0.997794  0.846171  1
  Rh  Rh33  1  0.500000  0.671664  0.982832  1
  Rh  Rh34  1  0.500000  0.500306  0.691106  1
  Rh  Rh35  1  0.000000  0.000138  0.307136  1
