# generated using pymatgen
data_Nd2Zr7O16
_symmetry_space_group_name_H-M   'P 1'
_cell_length_a   9.76106596
_cell_length_b   9.76106544
_cell_length_c   9.76106576
_cell_angle_alpha   38.31529384
_cell_angle_beta   38.31529814
_cell_angle_gamma   38.31529798
_symmetry_Int_Tables_number   1
_chemical_formula_structural   Nd2Zr7O16
_chemical_formula_sum   'Nd2 Zr7 O16'
_cell_volume   321.08223388
_cell_formula_units_Z   1
loop_
 _symmetry_equiv_pos_site_id
 _symmetry_equiv_pos_as_xyz
  1  'x, y, z'
loop_
 _atom_site_type_symbol
 _atom_site_label
 _atom_site_symmetry_multiplicity
 _atom_site_fract_x
 _atom_site_fract_y
 _atom_site_fract_z
 _atom_site_occupancy
  Nd  Nd0  1  0.329511  0.329511  0.329511  1
  Nd  Nd1  1  0.670489  0.670489  0.670489  1
  Zr  Zr2  1  0.000000  0.000000  0.000000  1
  Zr  Zr3  1  0.870443  0.271517  0.505467  1
  Zr  Zr4  1  0.494533  0.129557  0.728483  1
  Zr  Zr5  1  0.728483  0.494533  0.129557  1
  Zr  Zr6  1  0.271517  0.505467  0.870443  1
  Zr  Zr7  1  0.505467  0.870443  0.271517  1
  Zr  Zr8  1  0.129557  0.728483  0.494533  1
  O  O9  1  0.237206  0.237206  0.237206  1
  O  O10  1  0.972449  0.247186  0.663847  1
  O  O11  1  0.856564  0.142492  0.405684  1
  O  O12  1  0.594316  0.143436  0.857508  1
  O  O13  1  0.336153  0.027551  0.752814  1
  O  O14  1  0.752814  0.336153  0.027551  1
  O  O15  1  0.857508  0.594316  0.143436  1
  O  O16  1  0.416206  0.416206  0.416206  1
  O  O17  1  0.583794  0.583794  0.583794  1
  O  O18  1  0.142492  0.405684  0.856564  1
  O  O19  1  0.247186  0.663847  0.972449  1
  O  O20  1  0.663847  0.972449  0.247186  1
  O  O21  1  0.405684  0.856564  0.142492  1
  O  O22  1  0.143436  0.857508  0.594316  1
  O  O23  1  0.027551  0.752814  0.336153  1
  O  O24  1  0.762794  0.762794  0.762794  1
