# generated using pymatgen
data_Tm4HfPd14Pt
_symmetry_space_group_name_H-M   'P 1'
_cell_length_a   4.09456100
_cell_length_b   4.09456100
_cell_length_c   20.49454400
_cell_angle_alpha   90.00000000
_cell_angle_beta   90.00000000
_cell_angle_gamma   90.00000000
_symmetry_Int_Tables_number   1
_chemical_formula_structural   Tm4HfPd14Pt
_chemical_formula_sum   'Tm4 Hf1 Pd14 Pt1'
_cell_volume   343.59983836
_cell_formula_units_Z   1
loop_
 _symmetry_equiv_pos_site_id
 _symmetry_equiv_pos_as_xyz
  1  'x, y, z'
loop_
 _atom_site_type_symbol
 _atom_site_label
 _atom_site_symmetry_multiplicity
 _atom_site_fract_x
 _atom_site_fract_y
 _atom_site_fract_z
 _atom_site_occupancy
  Tm  Tm0  1  0.000000  0.000000  0.198292  1
  Tm  Tm1  1  0.000000  0.000000  0.398674  1
  Tm  Tm2  1  0.000000  0.000000  0.601326  1
  Tm  Tm3  1  0.000000  0.000000  0.801708  1
  Hf  Hf4  1  0.000000  0.000000  0.000000  1
  Pd  Pd5  1  0.500000  0.500000  0.196777  1
  Pd  Pd6  1  0.500000  0.500000  0.399148  1
  Pd  Pd7  1  0.500000  0.500000  0.600852  1
  Pd  Pd8  1  0.500000  0.500000  0.803223  1
  Pd  Pd9  1  0.500000  0.000000  0.095047  1
  Pd  Pd10  1  0.500000  0.000000  0.297940  1
  Pd  Pd11  1  0.500000  0.000000  0.500000  1
  Pd  Pd12  1  0.500000  0.000000  0.702060  1
  Pd  Pd13  1  0.500000  0.000000  0.904953  1
  Pd  Pd14  1  0.000000  0.500000  0.095047  1
  Pd  Pd15  1  0.000000  0.500000  0.297940  1
  Pd  Pd16  1  0.000000  0.500000  0.500000  1
  Pd  Pd17  1  0.000000  0.500000  0.702060  1
  Pd  Pd18  1  0.000000  0.500000  0.904953  1
  Pt  Pt19  1  0.500000  0.500000  0.000000  1
