# generated using pymatgen
data_DyUBiN2
_symmetry_space_group_name_H-M   'P 1'
_cell_length_a   6.86408642
_cell_length_b   6.86408757
_cell_length_c   6.86408640
_cell_angle_alpha   146.59654321
_cell_angle_beta   146.59654347
_cell_angle_gamma   47.96153830
_symmetry_Int_Tables_number   1
_chemical_formula_structural   DyUBiN2
_chemical_formula_sum   'Dy1 U1 Bi1 N2'
_cell_volume   97.62135986
_cell_formula_units_Z   1
loop_
 _symmetry_equiv_pos_site_id
 _symmetry_equiv_pos_as_xyz
  1  'x, y, z'
loop_
 _atom_site_type_symbol
 _atom_site_label
 _atom_site_symmetry_multiplicity
 _atom_site_fract_x
 _atom_site_fract_y
 _atom_site_fract_z
 _atom_site_occupancy
  Dy  Dy0  1  0.338361  0.338361  0.000000  1
  U  U1  1  0.670665  0.670665  0.000000  1
  Bi  Bi2  1  0.007408  0.007408  0.000000  1
  N  N3  1  0.741782  0.241782  0.500000  1
  N  N4  1  0.241782  0.741782  0.500000  1
