# generated using pymatgen
data_LiAg5TeO6
_symmetry_space_group_name_H-M   'P 1'
_cell_length_a   5.80196100
_cell_length_b   5.80196108
_cell_length_c   12.48321200
_cell_angle_alpha   90.00000000
_cell_angle_beta   90.00000000
_cell_angle_gamma   119.99999384
_symmetry_Int_Tables_number   1
_chemical_formula_structural   LiAg5TeO6
_chemical_formula_sum   'Li2 Ag10 Te2 O12'
_cell_volume   363.92058443
_cell_formula_units_Z   2
loop_
 _symmetry_equiv_pos_site_id
 _symmetry_equiv_pos_as_xyz
  1  'x, y, z'
loop_
 _atom_site_type_symbol
 _atom_site_label
 _atom_site_symmetry_multiplicity
 _atom_site_fract_x
 _atom_site_fract_y
 _atom_site_fract_z
 _atom_site_occupancy
  Li  Li0  1  0.666667  0.333333  0.750000  1
  Li  Li1  1  0.333333  0.666667  0.250000  1
  Ag  Ag2  1  0.000000  0.000000  0.881745  1
  Ag  Ag3  1  0.000000  0.000000  0.381745  1
  Ag  Ag4  1  0.000000  0.000000  0.118255  1
  Ag  Ag5  1  0.000000  0.000000  0.618255  1
  Ag  Ag6  1  0.500000  0.500000  0.000000  1
  Ag  Ag7  1  0.000000  0.500000  0.000000  1
  Ag  Ag8  1  0.500000  0.000000  0.000000  1
  Ag  Ag9  1  0.000000  0.500000  0.500000  1
  Ag  Ag10  1  0.500000  0.000000  0.500000  1
  Ag  Ag11  1  0.500000  0.500000  0.500000  1
  Te  Te12  1  0.333333  0.666667  0.750000  1
  Te  Te13  1  0.666667  0.333333  0.250000  1
  O  O14  1  0.599824  0.632764  0.837956  1
  O  O15  1  0.032941  0.400176  0.837956  1
  O  O16  1  0.367236  0.967059  0.837956  1
  O  O17  1  0.967059  0.367236  0.337956  1
  O  O18  1  0.400176  0.032941  0.337956  1
  O  O19  1  0.632764  0.599824  0.337956  1
  O  O20  1  0.400176  0.367236  0.162044  1
  O  O21  1  0.967059  0.599824  0.162044  1
  O  O22  1  0.632764  0.032941  0.162044  1
  O  O23  1  0.032941  0.632764  0.662044  1
  O  O24  1  0.599824  0.967059  0.662044  1
  O  O25  1  0.367236  0.400176  0.662044  1
