# generated using pymatgen
data_V2ReSi12Mo17
_symmetry_space_group_name_H-M   'P 1'
_cell_length_a   4.89479600
_cell_length_b   7.28368733
_cell_length_c   13.73282200
_cell_angle_alpha   90.00000000
_cell_angle_beta   90.00000000
_cell_angle_gamma   109.61678175
_symmetry_Int_Tables_number   1
_chemical_formula_structural   V2ReSi12Mo17
_chemical_formula_sum   'V2 Re1 Si12 Mo17'
_cell_volume   461.18774198
_cell_formula_units_Z   1
loop_
 _symmetry_equiv_pos_site_id
 _symmetry_equiv_pos_as_xyz
  1  'x, y, z'
loop_
 _atom_site_type_symbol
 _atom_site_label
 _atom_site_symmetry_multiplicity
 _atom_site_fract_x
 _atom_site_fract_y
 _atom_site_fract_z
 _atom_site_occupancy
  V  V0  1  0.002852  0.499856  0.250000  1
  V  V1  1  0.501007  0.499704  0.750000  1
  Re  Re2  1  0.995046  0.500080  0.750000  1
  Si  Si3  1  0.250114  0.999939  0.000003  1
  Si  Si4  1  0.750103  0.999863  0.500378  1
  Si  Si5  1  0.750103  0.999863  0.999622  1
  Si  Si6  1  0.250114  0.999939  0.499997  1
  Si  Si7  1  0.753834  0.500100  0.085308  1
  Si  Si8  1  0.249978  0.499952  0.586682  1
  Si  Si9  1  0.753834  0.500100  0.414692  1
  Si  Si10  1  0.249978  0.499952  0.913318  1
  Si  Si11  1  0.411236  0.830328  0.250000  1
  Si  Si12  1  0.912267  0.827662  0.750000  1
  Si  Si13  1  0.082228  0.169907  0.250000  1
  Si  Si14  1  0.586713  0.172307  0.750000  1
  Mo  Mo15  1  0.927492  0.852336  0.348677  1
  Mo  Mo16  1  0.427891  0.853288  0.848036  1
  Mo  Mo17  1  0.576675  0.148029  0.151189  1
  Mo  Mo18  1  0.075705  0.146625  0.651734  1
  Mo  Mo19  1  0.148839  0.303222  0.072897  1
  Mo  Mo20  1  0.648425  0.302882  0.573215  1
  Mo  Mo21  1  0.348292  0.696859  0.427144  1
  Mo  Mo22  1  0.848102  0.696944  0.926789  1
  Mo  Mo23  1  0.348292  0.696859  0.072856  1
  Mo  Mo24  1  0.848102  0.696944  0.573211  1
  Mo  Mo25  1  0.148839  0.303222  0.427103  1
  Mo  Mo26  1  0.648425  0.302882  0.926785  1
  Mo  Mo27  1  0.576675  0.148029  0.348811  1
  Mo  Mo28  1  0.075705  0.146625  0.848266  1
  Mo  Mo29  1  0.927492  0.852336  0.151323  1
  Mo  Mo30  1  0.427891  0.853288  0.651964  1
  Mo  Mo31  1  0.497742  0.500083  0.250000  1
