# generated using pymatgen
data_Pm5Si4
_symmetry_space_group_name_H-M   'P 1'
_cell_length_a   4.41896099
_cell_length_b   5.89338987
_cell_length_c   10.89939547
_cell_angle_alpha   118.15349506
_cell_angle_beta   113.86711612
_cell_angle_gamma   68.16390598
_symmetry_Int_Tables_number   1
_chemical_formula_structural   Pm5Si4
_chemical_formula_sum   'Pm5 Si4'
_cell_volume   223.02112232
_cell_formula_units_Z   1
loop_
 _symmetry_equiv_pos_site_id
 _symmetry_equiv_pos_as_xyz
  1  'x, y, z'
loop_
 _atom_site_type_symbol
 _atom_site_label
 _atom_site_symmetry_multiplicity
 _atom_site_fract_x
 _atom_site_fract_y
 _atom_site_fract_z
 _atom_site_occupancy
  Pm  Pm0  1  0.188189  0.196392  0.662866  1
  Pm  Pm1  1  0.488289  0.479235  0.102621  1
  Pm  Pm2  1  0.313728  0.493358  0.437635  1
  Pm  Pm3  1  0.901165  0.985690  0.269863  1
  Pm  Pm4  1  0.613095  0.777171  0.877334  1
  Si  Si5  1  0.180186  0.078497  0.094328  1
  Si  Si6  1  0.901986  0.764202  0.661007  1
  Si  Si7  1  0.621691  0.894584  0.445955  1
  Si  Si8  1  0.899348  0.209504  0.879273  1
