# generated using pymatgen
data_Zr2Nb3B4SbRu10
_symmetry_space_group_name_H-M   'P 1'
_cell_length_a   9.49706641
_cell_length_b   9.52205549
_cell_length_c   3.07355500
_cell_angle_alpha   90.00000000
_cell_angle_beta   90.00000000
_cell_angle_gamma   90.28215891
_symmetry_Int_Tables_number   1
_chemical_formula_structural   Zr2Nb3B4SbRu10
_chemical_formula_sum   'Zr2 Nb3 B4 Sb1 Ru10'
_cell_volume   277.94310555
_cell_formula_units_Z   1
loop_
 _symmetry_equiv_pos_site_id
 _symmetry_equiv_pos_as_xyz
  1  'x, y, z'
loop_
 _atom_site_type_symbol
 _atom_site_label
 _atom_site_symmetry_multiplicity
 _atom_site_fract_x
 _atom_site_fract_y
 _atom_site_fract_z
 _atom_site_occupancy
  Zr  Zr0  1  0.824076  0.676989  0.000000  1
  Zr  Zr1  1  0.175924  0.323011  0.000000  1
  Nb  Nb2  1  0.322387  0.826262  0.000000  1
  Nb  Nb3  1  0.677613  0.173738  0.000000  1
  Nb  Nb4  1  0.000000  0.000000  0.000000  1
  B  B5  1  0.619902  0.878951  0.000000  1
  B  B6  1  0.380098  0.121049  0.000000  1
  B  B7  1  0.121816  0.621118  0.000000  1
  B  B8  1  0.878184  0.378882  0.000000  1
  Sb  Sb9  1  0.500000  0.500000  0.000000  1
  Ru  Ru10  1  0.566936  0.722144  0.500000  1
  Ru  Ru11  1  0.433064  0.277856  0.500000  1
  Ru  Ru12  1  0.073520  0.782551  0.500000  1
  Ru  Ru13  1  0.926480  0.217449  0.500000  1
  Ru  Ru14  1  0.282084  0.577694  0.500000  1
  Ru  Ru15  1  0.717916  0.422306  0.500000  1
  Ru  Ru16  1  0.220568  0.066428  0.500000  1
  Ru  Ru17  1  0.779432  0.933572  0.500000  1
  Ru  Ru18  1  0.500000  0.000000  0.500000  1
  Ru  Ru19  1  0.000000  0.500000  0.500000  1
