# generated using pymatgen
data_Ce6HoThF30
_symmetry_space_group_name_H-M   'P 1'
_cell_length_a   8.74123204
_cell_length_b   8.74123031
_cell_length_c   8.70596600
_cell_angle_alpha   79.55866908
_cell_angle_beta   79.55867118
_cell_angle_gamma   100.47512790
_symmetry_Int_Tables_number   1
_chemical_formula_structural   Ce6HoThF30
_chemical_formula_sum   'Ce6 Ho1 Th1 F30'
_cell_volume   627.32138289
_cell_formula_units_Z   1
loop_
 _symmetry_equiv_pos_site_id
 _symmetry_equiv_pos_as_xyz
  1  'x, y, z'
loop_
 _atom_site_type_symbol
 _atom_site_label
 _atom_site_symmetry_multiplicity
 _atom_site_fract_x
 _atom_site_fract_y
 _atom_site_fract_z
 _atom_site_occupancy
  Ce  Ce0  1  0.750324  0.249676  0.250000  1
  Ce  Ce1  1  0.250173  0.749827  0.750000  1
  Ce  Ce2  1  0.749194  0.676389  0.679185  1
  Ce  Ce3  1  0.323611  0.250806  0.820815  1
  Ce  Ce4  1  0.246966  0.321895  0.326923  1
  Ce  Ce5  1  0.678105  0.753034  0.173077  1
  Ho  Ho6  1  0.822475  0.177525  0.750000  1
  Th  Th7  1  0.178049  0.821951  0.250000  1
  F  F8  1  0.314039  0.340826  0.056233  1
  F  F9  1  0.947023  0.816588  0.152397  1
  F  F10  1  0.835170  0.446543  0.687864  1
  F  F11  1  0.450918  0.849552  0.179551  1
  F  F12  1  0.811981  0.940993  0.663251  1
  F  F13  1  0.348151  0.317882  0.552043  1
  F  F14  1  0.682118  0.651849  0.947956  1
  F  F15  1  0.059007  0.188019  0.836749  1
  F  F16  1  0.150448  0.549082  0.320449  1
  F  F17  1  0.553457  0.164830  0.812136  1
  F  F18  1  0.183412  0.052977  0.347603  1
  F  F19  1  0.659174  0.685961  0.443767  1
  F  F20  1  0.781009  0.268935  0.992671  1
  F  F21  1  0.008950  0.278046  0.221765  1
  F  F22  1  0.776391  0.508709  0.219800  1
  F  F23  1  0.506030  0.777932  0.722370  1
  F  F24  1  0.279205  0.007016  0.721320  1
  F  F25  1  0.281230  0.777572  0.487965  1
  F  F26  1  0.222428  0.718770  0.012035  1
  F  F27  1  0.992984  0.720795  0.778680  1
  F  F28  1  0.222068  0.493970  0.777630  1
  F  F29  1  0.491291  0.223609  0.280200  1
  F  F30  1  0.721954  0.991050  0.278235  1
  F  F31  1  0.731065  0.218991  0.507329  1
  F  F32  1  0.460811  0.539189  0.250000  1
  F  F33  1  0.750121  0.962535  0.965389  1
  F  F34  1  0.037465  0.249879  0.534611  1
  F  F35  1  0.250034  0.035828  0.033029  1
  F  F36  1  0.964172  0.749966  0.466971  1
  F  F37  1  0.528999  0.471001  0.750000  1
