# generated using pymatgen
data_DyCuAuO4
_symmetry_space_group_name_H-M   'P 1'
_cell_length_a   6.49087707
_cell_length_b   6.49087748
_cell_length_c   6.44264593
_cell_angle_alpha   126.02671026
_cell_angle_beta   126.13998506
_cell_angle_gamma   80.26044963
_symmetry_Int_Tables_number   1
_chemical_formula_structural   DyCuAuO4
_chemical_formula_sum   'Dy2 Cu2 Au2 O8'
_cell_volume   170.59437945
_cell_formula_units_Z   2
loop_
 _symmetry_equiv_pos_site_id
 _symmetry_equiv_pos_as_xyz
  1  'x, y, z'
loop_
 _atom_site_type_symbol
 _atom_site_label
 _atom_site_symmetry_multiplicity
 _atom_site_fract_x
 _atom_site_fract_y
 _atom_site_fract_z
 _atom_site_occupancy
  Dy  Dy0  1  0.000188  0.000188  0.000000  1
  Dy  Dy1  1  0.749812  0.249812  0.500000  1
  Cu  Cu2  1  0.375000  0.125000  0.750000  1
  Cu  Cu3  1  0.375000  0.625000  0.250000  1
  Au  Au4  1  0.875000  0.625000  0.250000  1
  Au  Au5  1  0.375000  0.625000  0.750000  1
  O  O6  1  0.400849  0.863855  0.160696  1
  O  O7  1  0.703158  0.240152  0.839304  1
  O  O8  1  0.349151  0.386145  0.339304  1
  O  O9  1  0.046842  0.009848  0.660696  1
  O  O10  1  0.010513  0.650983  0.046236  1
  O  O11  1  0.604749  0.964279  0.953764  1
  O  O12  1  0.145251  0.285721  0.546236  1
  O  O13  1  0.739487  0.599017  0.453764  1
