# generated using pymatgen
data_Ca20TlSi8Bi3
_symmetry_space_group_name_H-M   'P 1'
_cell_length_a   7.78719200
_cell_length_b   7.78719200
_cell_length_c   15.06205000
_cell_angle_alpha   90.00000000
_cell_angle_beta   90.00000000
_cell_angle_gamma   90.00000000
_symmetry_Int_Tables_number   1
_chemical_formula_structural   Ca20TlSi8Bi3
_chemical_formula_sum   'Ca20 Tl1 Si8 Bi3'
_cell_volume   913.36812296
_cell_formula_units_Z   1
loop_
 _symmetry_equiv_pos_site_id
 _symmetry_equiv_pos_as_xyz
  1  'x, y, z'
loop_
 _atom_site_type_symbol
 _atom_site_label
 _atom_site_symmetry_multiplicity
 _atom_site_fract_x
 _atom_site_fract_y
 _atom_site_fract_z
 _atom_site_occupancy
  Ca  Ca0  1  0.678207  0.168340  0.112330  1
  Ca  Ca1  1  0.173689  0.672772  0.615149  1
  Ca  Ca2  1  0.321793  0.831660  0.112330  1
  Ca  Ca3  1  0.826311  0.327228  0.615149  1
  Ca  Ca4  1  0.831660  0.678207  0.112330  1
  Ca  Ca5  1  0.327228  0.173689  0.615149  1
  Ca  Ca6  1  0.168340  0.321793  0.112330  1
  Ca  Ca7  1  0.672772  0.826311  0.615149  1
  Ca  Ca8  1  0.831660  0.321793  0.887670  1
  Ca  Ca9  1  0.327228  0.826311  0.384851  1
  Ca  Ca10  1  0.168340  0.678207  0.887670  1
  Ca  Ca11  1  0.672772  0.173689  0.384851  1
  Ca  Ca12  1  0.678207  0.831660  0.887670  1
  Ca  Ca13  1  0.173689  0.327228  0.384851  1
  Ca  Ca14  1  0.321793  0.168340  0.887670  1
  Ca  Ca15  1  0.826311  0.672772  0.384851  1
  Ca  Ca16  1  0.500000  0.500000  0.755599  1
  Ca  Ca17  1  0.000000  0.000000  0.246900  1
  Ca  Ca18  1  0.000000  0.000000  0.753100  1
  Ca  Ca19  1  0.500000  0.500000  0.244401  1
  Tl  Tl20  1  0.000000  0.000000  0.000000  1
  Si  Si21  1  0.612585  0.115001  0.749598  1
  Si  Si22  1  0.115001  0.612585  0.250402  1
  Si  Si23  1  0.884999  0.387415  0.250402  1
  Si  Si24  1  0.387415  0.884999  0.749598  1
  Si  Si25  1  0.884999  0.612585  0.749598  1
  Si  Si26  1  0.387415  0.115001  0.250402  1
  Si  Si27  1  0.115001  0.387415  0.749598  1
  Si  Si28  1  0.612585  0.884999  0.250402  1
  Bi  Bi29  1  0.500000  0.500000  0.500000  1
  Bi  Bi30  1  0.500000  0.500000  0.000000  1
  Bi  Bi31  1  0.000000  0.000000  0.500000  1
