# generated using pymatgen
data_Ho4Tm12In3Ni4Hg
_symmetry_space_group_name_H-M   'P 1'
_cell_length_a   9.43737513
_cell_length_b   9.44839632
_cell_length_c   9.44839600
_cell_angle_alpha   60.00000111
_cell_angle_beta   59.96136230
_cell_angle_gamma   59.96135983
_symmetry_Int_Tables_number   1
_chemical_formula_structural   Ho4Tm12In3Ni4Hg
_chemical_formula_sum   'Ho4 Tm12 In3 Ni4 Hg1'
_cell_volume   595.38587338
_cell_formula_units_Z   1
loop_
 _symmetry_equiv_pos_site_id
 _symmetry_equiv_pos_as_xyz
  1  'x, y, z'
loop_
 _atom_site_type_symbol
 _atom_site_label
 _atom_site_symmetry_multiplicity
 _atom_site_fract_x
 _atom_site_fract_y
 _atom_site_fract_z
 _atom_site_occupancy
  Ho  Ho0  1  0.348542  0.348928  0.348928  1
  Ho  Ho1  1  0.348542  0.348928  0.953602  1
  Ho  Ho2  1  0.348542  0.953602  0.348928  1
  Ho  Ho3  1  0.954406  0.348531  0.348531  1
  Tm  Tm4  1  0.811936  0.188089  0.188089  1
  Tm  Tm5  1  0.188346  0.812213  0.812213  1
  Tm  Tm6  1  0.188346  0.812213  0.187229  1
  Tm  Tm7  1  0.811936  0.188089  0.811886  1
  Tm  Tm8  1  0.188346  0.187229  0.812213  1
  Tm  Tm9  1  0.811936  0.811886  0.188089  1
  Tm  Tm10  1  0.940249  0.563167  0.563167  1
  Tm  Tm11  1  0.564974  0.935585  0.935585  1
  Tm  Tm12  1  0.564974  0.935585  0.563853  1
  Tm  Tm13  1  0.940249  0.563167  0.933417  1
  Tm  Tm14  1  0.564974  0.563853  0.935585  1
  Tm  Tm15  1  0.940249  0.933417  0.563167  1
  In  In16  1  0.581435  0.583641  0.583641  1
  In  In17  1  0.581435  0.583641  0.251285  1
  In  In18  1  0.581435  0.251285  0.583641  1
  Ni  Ni19  1  0.141783  0.141657  0.141657  1
  Ni  Ni20  1  0.141783  0.141657  0.574902  1
  Ni  Ni21  1  0.141783  0.574902  0.141657  1
  Ni  Ni22  1  0.574362  0.141880  0.141880  1
  Hg  Hg23  1  0.239431  0.586857  0.586857  1
