# generated using pymatgen
data_Tb5DySn2(BRh6)2
_symmetry_space_group_name_H-M   'P 1'
_cell_length_a   5.83656500
_cell_length_b   5.83656426
_cell_length_c   13.81362300
_cell_angle_alpha   90.00000000
_cell_angle_beta   90.00000000
_cell_angle_gamma   119.99999850
_symmetry_Int_Tables_number   1
_chemical_formula_structural   Tb5DySn2(BRh6)2
_chemical_formula_sum   'Tb5 Dy1 Sn2 B2 Rh12'
_cell_volume   407.52366706
_cell_formula_units_Z   1
loop_
 _symmetry_equiv_pos_site_id
 _symmetry_equiv_pos_as_xyz
  1  'x, y, z'
loop_
 _atom_site_type_symbol
 _atom_site_label
 _atom_site_symmetry_multiplicity
 _atom_site_fract_x
 _atom_site_fract_y
 _atom_site_fract_z
 _atom_site_occupancy
  Tb  Tb0  1  0.000000  0.000000  0.750183  1
  Tb  Tb1  1  0.000000  0.000000  0.249768  1
  Tb  Tb2  1  0.333333  0.666667  0.410541  1
  Tb  Tb3  1  0.666667  0.333333  0.910891  1
  Tb  Tb4  1  0.666667  0.333333  0.589346  1
  Dy  Dy5  1  0.333333  0.666667  0.088724  1
  Sn  Sn6  1  0.333333  0.666667  0.750162  1
  Sn  Sn7  1  0.666667  0.333333  0.249852  1
  B  B8  1  0.000000  0.000000  0.499968  1
  B  B9  1  0.000000  0.000000  0.000036  1
  Rh  Rh10  1  0.343723  0.171862  0.413417  1
  Rh  Rh11  1  0.828138  0.171862  0.413417  1
  Rh  Rh12  1  0.828138  0.656277  0.413417  1
  Rh  Rh13  1  0.172034  0.344068  0.913951  1
  Rh  Rh14  1  0.656278  0.828139  0.586468  1
  Rh  Rh15  1  0.655932  0.827966  0.913951  1
  Rh  Rh16  1  0.343799  0.171900  0.086341  1
  Rh  Rh17  1  0.171861  0.343722  0.586468  1
  Rh  Rh18  1  0.171861  0.828139  0.586468  1
  Rh  Rh19  1  0.828100  0.171900  0.086341  1
  Rh  Rh20  1  0.828100  0.656201  0.086341  1
  Rh  Rh21  1  0.172034  0.827966  0.913951  1
