# generated using pymatgen
data_Ho5Er11TlCd(AgRh2)2
_symmetry_space_group_name_H-M   'P 1'
_cell_length_a   9.49804222
_cell_length_b   9.48343609
_cell_length_c   9.50163900
_cell_angle_alpha   59.93648151
_cell_angle_beta   59.98746889
_cell_angle_gamma   59.96325355
_symmetry_Int_Tables_number   1
_chemical_formula_structural   Ho5Er11TlCd(AgRh2)2
_chemical_formula_sum   'Ho5 Er11 Tl1 Cd1 Ag2 Rh4'
_cell_volume   604.66204842
_cell_formula_units_Z   1
loop_
 _symmetry_equiv_pos_site_id
 _symmetry_equiv_pos_as_xyz
  1  'x, y, z'
loop_
 _atom_site_type_symbol
 _atom_site_label
 _atom_site_symmetry_multiplicity
 _atom_site_fract_x
 _atom_site_fract_y
 _atom_site_fract_z
 _atom_site_occupancy
  Ho  Ho0  1  0.935246  0.562263  0.566716  1
  Ho  Ho1  1  0.935747  0.565583  0.937106  1
  Ho  Ho2  1  0.559318  0.936888  0.567862  1
  Ho  Ho3  1  0.562723  0.936819  0.937475  1
  Ho  Ho4  1  0.312121  0.312652  0.687300  1
  Er  Er5  1  0.936211  0.937282  0.567023  1
  Er  Er6  1  0.560908  0.565496  0.937340  1
  Er  Er7  1  0.688775  0.688184  0.311128  1
  Er  Er8  1  0.147000  0.555565  0.148911  1
  Er  Er9  1  0.688846  0.313011  0.686910  1
  Er  Er10  1  0.148707  0.148764  0.149741  1
  Er  Er11  1  0.553597  0.148102  0.149284  1
  Er  Er12  1  0.689105  0.312086  0.310710  1
  Er  Er13  1  0.148358  0.148823  0.552640  1
  Er  Er14  1  0.312259  0.688975  0.310673  1
  Er  Er15  1  0.313031  0.688725  0.687100  1
  Tl  Tl16  1  0.918749  0.916545  0.246627  1
  Cd  Cd17  1  0.921124  0.241232  0.916159  1
  Ag  Ag18  1  0.250785  0.916014  0.914947  1
  Ag  Ag19  1  0.918060  0.917095  0.914215  1
  Rh  Rh20  1  0.356391  0.357220  0.930452  1
  Rh  Rh21  1  0.356045  0.929858  0.357108  1
  Rh  Rh22  1  0.929957  0.356093  0.356662  1
  Rh  Rh23  1  0.356939  0.356720  0.355911  1
