# generated using pymatgen
data_Zr6Zn23C
_symmetry_space_group_name_H-M   'P 1'
_cell_length_a   8.72659975
_cell_length_b   8.72659930
_cell_length_c   8.72659900
_cell_angle_alpha   59.99999733
_cell_angle_beta   59.99999905
_cell_angle_gamma   59.99999327
_symmetry_Int_Tables_number   1
_chemical_formula_structural   Zr6Zn23C
_chemical_formula_sum   'Zr6 Zn23 C1'
_cell_volume   469.91583529
_cell_formula_units_Z   1
loop_
 _symmetry_equiv_pos_site_id
 _symmetry_equiv_pos_as_xyz
  1  'x, y, z'
loop_
 _atom_site_type_symbol
 _atom_site_label
 _atom_site_symmetry_multiplicity
 _atom_site_fract_x
 _atom_site_fract_y
 _atom_site_fract_z
 _atom_site_occupancy
  Zr  Zr0  1  0.688963  0.311037  0.311037  1
  Zr  Zr1  1  0.311037  0.688963  0.688963  1
  Zr  Zr2  1  0.311037  0.688963  0.311037  1
  Zr  Zr3  1  0.688963  0.311037  0.688963  1
  Zr  Zr4  1  0.311037  0.311037  0.688963  1
  Zr  Zr5  1  0.688963  0.688963  0.311037  1
  Zn  Zn6  1  0.120071  0.120071  0.120071  1
  Zn  Zn7  1  0.879929  0.879929  0.879929  1
  Zn  Zn8  1  0.120071  0.120071  0.639789  1
  Zn  Zn9  1  0.120071  0.639789  0.120071  1
  Zn  Zn10  1  0.879929  0.879929  0.360211  1
  Zn  Zn11  1  0.879929  0.360211  0.879929  1
  Zn  Zn12  1  0.639789  0.120071  0.120071  1
  Zn  Zn13  1  0.360211  0.879929  0.879929  1
  Zn  Zn14  1  0.500000  0.000000  0.000000  1
  Zn  Zn15  1  0.000000  0.500000  0.500000  1
  Zn  Zn16  1  0.000000  0.500000  0.000000  1
  Zn  Zn17  1  0.500000  0.000000  0.500000  1
  Zn  Zn18  1  0.000000  0.000000  0.500000  1
  Zn  Zn19  1  0.500000  0.500000  0.000000  1
  Zn  Zn20  1  0.331065  0.331065  0.331065  1
  Zn  Zn21  1  0.668935  0.668935  0.668935  1
  Zn  Zn22  1  0.331065  0.331065  0.006806  1
  Zn  Zn23  1  0.331065  0.006806  0.331065  1
  Zn  Zn24  1  0.668935  0.668935  0.993194  1
  Zn  Zn25  1  0.668935  0.993194  0.668935  1
  Zn  Zn26  1  0.006806  0.331065  0.331065  1
  Zn  Zn27  1  0.993194  0.668935  0.668935  1
  Zn  Zn28  1  0.000000  0.000000  0.000000  1
  C  C29  1  0.500000  0.500000  0.500000  1
