# generated using pymatgen
data_Nd3HoEr4(CdPt)2
_symmetry_space_group_name_H-M   'P 1'
_cell_length_a   9.75427381
_cell_length_b   9.75427397
_cell_length_c   9.73571600
_cell_angle_alpha   60.06291584
_cell_angle_beta   60.06291530
_cell_angle_gamma   60.11107610
_symmetry_Int_Tables_number   1
_chemical_formula_structural   Nd3HoEr4(CdPt)2
_chemical_formula_sum   'Nd6 Ho2 Er8 Cd4 Pt4'
_cell_volume   656.17408831
_cell_formula_units_Z   2
loop_
 _symmetry_equiv_pos_site_id
 _symmetry_equiv_pos_as_xyz
  1  'x, y, z'
loop_
 _atom_site_type_symbol
 _atom_site_label
 _atom_site_symmetry_multiplicity
 _atom_site_fract_x
 _atom_site_fract_y
 _atom_site_fract_z
 _atom_site_occupancy
  Nd  Nd0  1  0.938618  0.561315  0.562119  1
  Nd  Nd1  1  0.561315  0.938618  0.937949  1
  Nd  Nd2  1  0.561315  0.938618  0.562119  1
  Nd  Nd3  1  0.938618  0.561315  0.937949  1
  Nd  Nd4  1  0.561881  0.561881  0.938119  1
  Nd  Nd5  1  0.938423  0.938423  0.561577  1
  Ho  Ho6  1  0.350094  0.350094  0.350096  1
  Ho  Ho7  1  0.350094  0.350094  0.949716  1
  Er  Er8  1  0.350378  0.949160  0.350231  1
  Er  Er9  1  0.949160  0.350378  0.350231  1
  Er  Er10  1  0.812487  0.187597  0.187881  1
  Er  Er11  1  0.187597  0.812487  0.812035  1
  Er  Er12  1  0.187597  0.812487  0.187881  1
  Er  Er13  1  0.812487  0.187597  0.812035  1
  Er  Er14  1  0.187724  0.187724  0.812276  1
  Er  Er15  1  0.812246  0.812246  0.187754  1
  Cd  Cd16  1  0.579792  0.579792  0.579263  1
  Cd  Cd17  1  0.579792  0.579792  0.261154  1
  Cd  Cd18  1  0.579995  0.260686  0.579660  1
  Cd  Cd19  1  0.260686  0.579995  0.579660  1
  Pt  Pt20  1  0.142362  0.142362  0.142882  1
  Pt  Pt21  1  0.142362  0.142362  0.572394  1
  Pt  Pt22  1  0.141728  0.573251  0.142511  1
  Pt  Pt23  1  0.573251  0.141728  0.142511  1
