# generated using pymatgen
data_Yb6In3Fe(SeO3)12
_symmetry_space_group_name_H-M   'P 1'
_cell_length_a   14.51808999
_cell_length_b   14.51808998
_cell_length_c   14.51809000
_cell_angle_alpha   34.93241816
_cell_angle_beta   34.93241819
_cell_angle_gamma   34.93241613
_symmetry_Int_Tables_number   1
_chemical_formula_structural   Yb6In3Fe(SeO3)12
_chemical_formula_sum   'Yb6 In3 Fe1 Se12 O36'
_cell_volume   895.75523118
_cell_formula_units_Z   1
loop_
 _symmetry_equiv_pos_site_id
 _symmetry_equiv_pos_as_xyz
  1  'x, y, z'
loop_
 _atom_site_type_symbol
 _atom_site_label
 _atom_site_symmetry_multiplicity
 _atom_site_fract_x
 _atom_site_fract_y
 _atom_site_fract_z
 _atom_site_occupancy
  Yb  Yb0  1  0.748048  0.158294  0.339742  1
  Yb  Yb1  1  0.841706  0.660258  0.251952  1
  Yb  Yb2  1  0.158294  0.339742  0.748048  1
  Yb  Yb3  1  0.339742  0.748048  0.158294  1
  Yb  Yb4  1  0.660258  0.251952  0.841706  1
  Yb  Yb5  1  0.251952  0.841706  0.660258  1
  In  In6  1  0.500000  0.500000  0.500000  1
  In  In7  1  0.250939  0.250939  0.250939  1
  In  In8  1  0.749061  0.749061  0.749061  1
  Fe  Fe9  1  0.000000  0.000000  0.000000  1
  Se  Se10  1  0.494007  0.090134  0.817494  1
  Se  Se11  1  0.909866  0.182506  0.505993  1
  Se  Se12  1  0.311376  0.597624  0.999544  1
  Se  Se13  1  0.182506  0.505993  0.909866  1
  Se  Se14  1  0.817494  0.494007  0.090134  1
  Se  Se15  1  0.402376  0.000456  0.688624  1
  Se  Se16  1  0.090134  0.817494  0.494007  1
  Se  Se17  1  0.688624  0.402376  0.000456  1
  Se  Se18  1  0.000456  0.688624  0.402376  1
  Se  Se19  1  0.999544  0.311376  0.597624  1
  Se  Se20  1  0.505993  0.909866  0.182506  1
  Se  Se21  1  0.597624  0.999544  0.311376  1
  O  O22  1  0.349853  0.321982  0.985102  1
  O  O23  1  0.516894  0.183997  0.148407  1
  O  O24  1  0.308415  0.613926  0.677932  1
  O  O25  1  0.336056  0.041259  0.938647  1
  O  O26  1  0.839048  0.432270  0.551655  1
  O  O27  1  0.896460  0.181200  0.829704  1
  O  O28  1  0.938647  0.336056  0.041259  1
  O  O29  1  0.650147  0.678018  0.014898  1
  O  O30  1  0.567730  0.448345  0.160952  1
  O  O31  1  0.321982  0.985102  0.349853  1
  O  O32  1  0.818801  0.170296  0.103540  1
  O  O33  1  0.183997  0.148407  0.516894  1
  O  O34  1  0.160952  0.567730  0.448345  1
  O  O35  1  0.985102  0.349853  0.321982  1
  O  O36  1  0.014898  0.650147  0.678018  1
  O  O37  1  0.677932  0.308415  0.613926  1
  O  O38  1  0.041259  0.938647  0.336056  1
  O  O39  1  0.148407  0.516894  0.183997  1
  O  O40  1  0.663944  0.958741  0.061353  1
  O  O41  1  0.170296  0.103540  0.818801  1
  O  O42  1  0.613926  0.677932  0.308415  1
  O  O43  1  0.829704  0.896460  0.181200  1
  O  O44  1  0.816003  0.851593  0.483106  1
  O  O45  1  0.386074  0.322068  0.691584  1
  O  O46  1  0.691585  0.386074  0.322068  1
  O  O47  1  0.551655  0.839048  0.432270  1
  O  O48  1  0.851593  0.483106  0.816003  1
  O  O49  1  0.061353  0.663944  0.958741  1
  O  O50  1  0.322068  0.691584  0.386074  1
  O  O51  1  0.448345  0.160952  0.567730  1
  O  O52  1  0.483106  0.816003  0.851593  1
  O  O53  1  0.678018  0.014898  0.650147  1
  O  O54  1  0.958741  0.061353  0.663944  1
  O  O55  1  0.432270  0.551655  0.839048  1
  O  O56  1  0.181200  0.829704  0.896460  1
  O  O57  1  0.103540  0.818800  0.170296  1
