# generated using pymatgen
data_Pr10ZnBi6Se
_symmetry_space_group_name_H-M   'P 1'
_cell_length_a   9.72590800
_cell_length_b   9.72590802
_cell_length_c   6.71290200
_cell_angle_alpha   90.00000000
_cell_angle_beta   90.00000000
_cell_angle_gamma   119.99999314
_symmetry_Int_Tables_number   1
_chemical_formula_structural   Pr10ZnBi6Se
_chemical_formula_sum   'Pr10 Zn1 Bi6 Se1'
_cell_volume   549.92224004
_cell_formula_units_Z   1
loop_
 _symmetry_equiv_pos_site_id
 _symmetry_equiv_pos_as_xyz
  1  'x, y, z'
loop_
 _atom_site_type_symbol
 _atom_site_label
 _atom_site_symmetry_multiplicity
 _atom_site_fract_x
 _atom_site_fract_y
 _atom_site_fract_z
 _atom_site_occupancy
  Pr  Pr0  1  0.666667  0.333333  0.000000  1
  Pr  Pr1  1  0.333333  0.666667  0.000000  1
  Pr  Pr2  1  0.333333  0.666667  0.500000  1
  Pr  Pr3  1  0.666667  0.333333  0.500000  1
  Pr  Pr4  1  0.738968  0.738968  0.750919  1
  Pr  Pr5  1  0.261032  0.000000  0.750919  1
  Pr  Pr6  1  0.000000  0.261032  0.750919  1
  Pr  Pr7  1  0.261032  0.261032  0.249081  1
  Pr  Pr8  1  0.738968  0.000000  0.249081  1
  Pr  Pr9  1  0.000000  0.738968  0.249081  1
  Zn  Zn10  1  0.000000  0.000000  0.500000  1
  Bi  Bi11  1  0.386634  0.386634  0.748080  1
  Bi  Bi12  1  0.613366  0.000000  0.748080  1
  Bi  Bi13  1  0.000000  0.613366  0.748080  1
  Bi  Bi14  1  0.613366  0.613366  0.251920  1
  Bi  Bi15  1  0.386634  0.000000  0.251920  1
  Bi  Bi16  1  0.000000  0.386634  0.251920  1
  Se  Se17  1  0.000000  0.000000  0.000000  1
