# generated using pymatgen
data_Er4Tc2B16MoW
_symmetry_space_group_name_H-M   'P 1'
_cell_length_a   3.59468500
_cell_length_b   5.98044215
_cell_length_c   11.56798604
_cell_angle_alpha   89.89917674
_cell_angle_beta   90.00000000
_cell_angle_gamma   90.00000000
_symmetry_Int_Tables_number   1
_chemical_formula_structural   Er4Tc2B16MoW
_chemical_formula_sum   'Er4 Tc2 B16 Mo1 W1'
_cell_volume   248.68593105
_cell_formula_units_Z   1
loop_
 _symmetry_equiv_pos_site_id
 _symmetry_equiv_pos_as_xyz
  1  'x, y, z'
loop_
 _atom_site_type_symbol
 _atom_site_label
 _atom_site_symmetry_multiplicity
 _atom_site_fract_x
 _atom_site_fract_y
 _atom_site_fract_z
 _atom_site_occupancy
  Er  Er0  1  0.000000  0.627582  0.348581  1
  Er  Er1  1  0.000000  0.372855  0.651654  1
  Er  Er2  1  0.000000  0.127973  0.148460  1
  Er  Er3  1  0.000000  0.872024  0.851239  1
  Tc  Tc4  1  0.000000  0.634873  0.086764  1
  Tc  Tc5  1  0.000000  0.364910  0.913305  1
  B  B6  1  0.500000  0.785789  0.184436  1
  B  B7  1  0.500000  0.214073  0.815420  1
  B  B8  1  0.500000  0.290470  0.312258  1
  B  B9  1  0.500000  0.710087  0.687308  1
  B  B10  1  0.500000  0.864243  0.030843  1
  B  B11  1  0.500000  0.135702  0.969077  1
  B  B12  1  0.500000  0.368164  0.467770  1
  B  B13  1  0.500000  0.632370  0.532680  1
  B  B14  1  0.500000  0.884273  0.452447  1
  B  B15  1  0.500000  0.115074  0.547999  1
  B  B16  1  0.500000  0.386773  0.047298  1
  B  B17  1  0.500000  0.613264  0.952662  1
  B  B18  1  0.500000  0.975357  0.304932  1
  B  B19  1  0.500000  0.023801  0.694976  1
  B  B20  1  0.500000  0.477540  0.191618  1
  B  B21  1  0.500000  0.522783  0.808272  1
  Mo  Mo22  1  0.000000  0.869745  0.585398  1
  W  W23  1  0.000000  0.130273  0.414604  1
