# generated using pymatgen
data_Na5Co3F14
_symmetry_space_group_name_H-M   'P 1'
_cell_length_a   7.36082600
_cell_length_b   12.00047100
_cell_length_c   12.31347400
_cell_angle_alpha   90.00000000
_cell_angle_beta   90.00000000
_cell_angle_gamma   90.00000000
_symmetry_Int_Tables_number   1
_chemical_formula_structural   Na5Co3F14
_chemical_formula_sum   'Na20 Co12 F56'
_cell_volume   1087.69076502
_cell_formula_units_Z   4
loop_
 _symmetry_equiv_pos_site_id
 _symmetry_equiv_pos_as_xyz
  1  'x, y, z'
loop_
 _atom_site_type_symbol
 _atom_site_label
 _atom_site_symmetry_multiplicity
 _atom_site_fract_x
 _atom_site_fract_y
 _atom_site_fract_z
 _atom_site_occupancy
  Na  Na0  1  0.820632  0.756112  0.420476  1
  Na  Na1  1  0.179077  0.254396  0.579351  1
  Na  Na2  1  0.679783  0.755318  0.919837  1
  Na  Na3  1  0.320085  0.255152  0.080096  1
  Na  Na4  1  0.723695  0.997150  0.232127  1
  Na  Na5  1  0.277400  0.496064  0.768390  1
  Na  Na6  1  0.781810  0.993632  0.731292  1
  Na  Na7  1  0.221135  0.495259  0.268087  1
  Na  Na8  1  0.804579  0.254359  0.079182  1
  Na  Na9  1  0.195421  0.754229  0.920802  1
  Na  Na10  1  0.696933  0.255380  0.579051  1
  Na  Na11  1  0.302725  0.753550  0.420996  1
  Na  Na12  1  0.721591  0.497125  0.232335  1
  Na  Na13  1  0.277918  0.995657  0.767636  1
  Na  Na14  1  0.780406  0.497166  0.732803  1
  Na  Na15  1  0.216929  0.998842  0.266923  1
  Na  Na16  1  0.027459  0.032526  0.014110  1
  Na  Na17  1  0.972201  0.532808  0.985448  1
  Na  Na18  1  0.469527  0.033474  0.515251  1
  Na  Na19  1  0.531946  0.533558  0.484533  1
  Co  Co20  1  0.504024  0.246943  0.333528  1
  Co  Co21  1  0.496086  0.746449  0.666576  1
  Co  Co22  1  0.996652  0.246490  0.833137  1
  Co  Co23  1  0.003218  0.747090  0.166787  1
  Co  Co24  1  0.997150  0.501261  0.500305  1
  Co  Co25  1  0.003958  0.001032  0.499749  1
  Co  Co26  1  0.503195  0.501119  0.000101  1
  Co  Co27  1  0.497059  0.001039  0.999854  1
  Co  Co28  1  0.004441  0.249881  0.318824  1
  Co  Co29  1  0.995788  0.747424  0.681317  1
  Co  Co30  1  0.497525  0.248180  0.818704  1
  Co  Co31  1  0.502401  0.749140  0.181308  1
  F  F32  1  0.432907  0.359216  0.922035  1
  F  F33  1  0.566757  0.859806  0.077851  1
  F  F34  1  0.068316  0.361257  0.421665  1
  F  F35  1  0.931961  0.855517  0.577977  1
  F  F36  1  0.571026  0.252624  0.186212  1
  F  F37  1  0.428806  0.754422  0.813639  1
  F  F38  1  0.929239  0.251864  0.686008  1
  F  F39  1  0.070495  0.754162  0.313867  1
  F  F40  1  0.128519  0.445147  0.616521  1
  F  F41  1  0.868432  0.947878  0.386608  1
  F  F42  1  0.370673  0.446769  0.115775  1
  F  F43  1  0.630494  0.947005  0.884343  1
  F  F44  1  0.265197  0.743937  0.120826  1
  F  F45  1  0.734774  0.243456  0.879207  1
  F  F46  1  0.234330  0.743284  0.620888  1
  F  F47  1  0.765989  0.243812  0.379250  1
  F  F48  1  0.459061  0.638653  0.282859  1
  F  F49  1  0.542441  0.138118  0.716127  1
  F  F50  1  0.040044  0.637434  0.783609  1
  F  F51  1  0.961935  0.138967  0.217390  1
  F  F52  1  0.725328  0.436529  0.056197  1
  F  F53  1  0.274669  0.936409  0.943890  1
  F  F54  1  0.777488  0.435655  0.557229  1
  F  F55  1  0.213048  0.937493  0.444153  1
  F  F56  1  0.212881  0.566888  0.440839  1
  F  F57  1  0.795570  0.064115  0.556429  1
  F  F58  1  0.283661  0.565753  0.942085  1
  F  F59  1  0.716805  0.065427  0.057960  1
  F  F60  1  0.447700  0.859597  0.279042  1
  F  F61  1  0.550782  0.359144  0.721775  1
  F  F62  1  0.048066  0.858635  0.778400  1
  F  F63  1  0.949757  0.360168  0.221038  1
  F  F64  1  0.747248  0.755655  0.230277  1
  F  F65  1  0.252593  0.253765  0.769611  1
  F  F66  1  0.750929  0.753108  0.730592  1
  F  F67  1  0.249169  0.256797  0.269417  1
  F  F68  1  0.560843  0.731457  0.512952  1
  F  F69  1  0.439820  0.230476  0.487379  1
  F  F70  1  0.937408  0.731476  0.013432  1
  F  F71  1  0.062481  0.230799  0.986586  1
  F  F72  1  0.648588  0.558100  0.889408  1
  F  F73  1  0.350926  0.057904  0.110342  1
  F  F74  1  0.849736  0.559292  0.389452  1
  F  F75  1  0.148948  0.056405  0.609280  1
  F  F76  1  0.495967  0.090533  0.332048  1
  F  F77  1  0.502273  0.590474  0.667911  1
  F  F78  1  0.002074  0.090348  0.831314  1
  F  F79  1  0.998203  0.591237  0.168541  1
  F  F80  1  0.002233  0.902946  0.154203  1
  F  F81  1  0.997506  0.401893  0.846081  1
  F  F82  1  0.498538  0.902802  0.653287  1
  F  F83  1  0.502506  0.402586  0.346588  1
  F  F84  1  0.921400  0.636902  0.582671  1
  F  F85  1  0.080541  0.142240  0.418091  1
  F  F86  1  0.577427  0.638944  0.082104  1
  F  F87  1  0.422744  0.138118  0.917820  1
