# generated using pymatgen
data_Sc22IrRu4Pt3
_symmetry_space_group_name_H-M   'P 1'
_cell_length_a   9.54427563
_cell_length_b   9.50896364
_cell_length_c   9.48082711
_cell_angle_alpha   60.34416075
_cell_angle_beta   59.82379515
_cell_angle_gamma   59.68189310
_symmetry_Int_Tables_number   1
_chemical_formula_structural   Sc22IrRu4Pt3
_chemical_formula_sum   'Sc22 Ir1 Ru4 Pt3'
_cell_volume   607.68959963
_cell_formula_units_Z   1
loop_
 _symmetry_equiv_pos_site_id
 _symmetry_equiv_pos_as_xyz
  1  'x, y, z'
loop_
 _atom_site_type_symbol
 _atom_site_label
 _atom_site_symmetry_multiplicity
 _atom_site_fract_x
 _atom_site_fract_y
 _atom_site_fract_z
 _atom_site_occupancy
  Sc  Sc0  1  0.804323  0.803024  0.195677  1
  Sc  Sc1  1  0.196198  0.803802  0.196198  1
  Sc  Sc2  1  0.804253  0.197158  0.195747  1
  Sc  Sc3  1  0.195677  0.196976  0.804323  1
  Sc  Sc4  1  0.803802  0.196198  0.803802  1
  Sc  Sc5  1  0.195747  0.802842  0.804253  1
  Sc  Sc6  1  0.618583  0.617041  0.150220  1
  Sc  Sc7  1  0.615564  0.151239  0.618564  1
  Sc  Sc8  1  0.150220  0.614155  0.618583  1
  Sc  Sc9  1  0.618564  0.614633  0.615564  1
  Sc  Sc10  1  0.381417  0.382959  0.849780  1
  Sc  Sc11  1  0.384436  0.848761  0.381436  1
  Sc  Sc12  1  0.849780  0.385845  0.381417  1
  Sc  Sc13  1  0.381436  0.385367  0.384436  1
  Sc  Sc14  1  0.845336  0.838153  0.471227  1
  Sc  Sc15  1  0.846912  0.471074  0.839880  1
  Sc  Sc16  1  0.471227  0.845282  0.845336  1
  Sc  Sc17  1  0.839880  0.842133  0.846912  1
  Sc  Sc18  1  0.154664  0.161847  0.528773  1
  Sc  Sc19  1  0.153088  0.528926  0.160120  1
  Sc  Sc20  1  0.528773  0.154718  0.154664  1
  Sc  Sc21  1  0.160120  0.157867  0.153088  1
  Ir  Ir22  1  0.000000  0.500000  0.000000  1
  Ru  Ru23  1  0.000000  0.000000  0.000000  1
  Ru  Ru24  1  0.500000  0.500000  0.500000  1
  Ru  Ru25  1  0.000000  0.500000  0.500000  1
  Ru  Ru26  1  0.500000  0.000000  0.000000  1
  Pt  Pt27  1  0.000000  0.000000  0.500000  1
  Pt  Pt28  1  0.500000  0.000000  0.500000  1
  Pt  Pt29  1  0.500000  0.500000  0.000000  1
