# generated using pymatgen
data_Hf3Cu3N
_symmetry_space_group_name_H-M   'P 1'
_cell_length_a   8.34523121
_cell_length_b   8.34523087
_cell_length_c   8.34523000
_cell_angle_alpha   59.99999552
_cell_angle_beta   59.99999687
_cell_angle_gamma   59.99999427
_symmetry_Int_Tables_number   1
_chemical_formula_structural   Hf3Cu3N
_chemical_formula_sum   'Hf12 Cu12 N4'
_cell_volume   410.96042178
_cell_formula_units_Z   4
loop_
 _symmetry_equiv_pos_site_id
 _symmetry_equiv_pos_as_xyz
  1  'x, y, z'
loop_
 _atom_site_type_symbol
 _atom_site_label
 _atom_site_symmetry_multiplicity
 _atom_site_fract_x
 _atom_site_fract_y
 _atom_site_fract_z
 _atom_site_occupancy
  Hf  Hf0  1  0.810377  0.189623  0.189623  1
  Hf  Hf1  1  0.189623  0.810377  0.189623  1
  Hf  Hf2  1  0.810377  0.810377  0.189623  1
  Hf  Hf3  1  0.189623  0.810377  0.810377  1
  Hf  Hf4  1  0.810377  0.189623  0.810377  1
  Hf  Hf5  1  0.189623  0.189623  0.810377  1
  Hf  Hf6  1  0.439623  0.060377  0.060377  1
  Hf  Hf7  1  0.060377  0.439623  0.060377  1
  Hf  Hf8  1  0.439623  0.439623  0.060377  1
  Hf  Hf9  1  0.060377  0.439623  0.439623  1
  Hf  Hf10  1  0.439623  0.060377  0.439623  1
  Hf  Hf11  1  0.060377  0.060377  0.439623  1
  Cu  Cu12  1  0.417511  0.417511  0.747466  1
  Cu  Cu13  1  0.417511  0.417511  0.417511  1
  Cu  Cu14  1  0.747466  0.417511  0.417511  1
  Cu  Cu15  1  0.417511  0.747466  0.417511  1
  Cu  Cu16  1  0.832489  0.832489  0.502534  1
  Cu  Cu17  1  0.832489  0.832489  0.832489  1
  Cu  Cu18  1  0.502534  0.832489  0.832489  1
  Cu  Cu19  1  0.832489  0.502534  0.832489  1
  Cu  Cu20  1  0.625000  0.625000  0.125000  1
  Cu  Cu21  1  0.625000  0.625000  0.625000  1
  Cu  Cu22  1  0.125000  0.625000  0.625000  1
  Cu  Cu23  1  0.625000  0.125000  0.625000  1
  N  N24  1  0.125000  0.125000  0.625000  1
  N  N25  1  0.125000  0.125000  0.125000  1
  N  N26  1  0.625000  0.125000  0.125000  1
  N  N27  1  0.125000  0.625000  0.125000  1
