# generated using pymatgen
data_MnFe3(MoP)4
_symmetry_space_group_name_H-M   'P 1'
_cell_length_a   3.67259800
_cell_length_b   5.92235768
_cell_length_c   6.76923528
_cell_angle_alpha   89.88915295
_cell_angle_beta   90.00000000
_cell_angle_gamma   90.00000000
_symmetry_Int_Tables_number   1
_chemical_formula_structural   MnFe3(MoP)4
_chemical_formula_sum   'Mn1 Fe3 Mo4 P4'
_cell_volume   147.23356314
_cell_formula_units_Z   1
loop_
 _symmetry_equiv_pos_site_id
 _symmetry_equiv_pos_as_xyz
  1  'x, y, z'
loop_
 _atom_site_type_symbol
 _atom_site_label
 _atom_site_symmetry_multiplicity
 _atom_site_fract_x
 _atom_site_fract_y
 _atom_site_fract_z
 _atom_site_occupancy
  Mn  Mn0  1  0.250000  0.859711  0.939554  1
  Fe  Fe1  1  0.250000  0.359969  0.561238  1
  Fe  Fe2  1  0.750000  0.142865  0.062703  1
  Fe  Fe3  1  0.750000  0.639440  0.437021  1
  Mo  Mo4  1  0.250000  0.973379  0.324551  1
  Mo  Mo5  1  0.250000  0.472240  0.171890  1
  Mo  Mo6  1  0.750000  0.022444  0.675074  1
  Mo  Mo7  1  0.750000  0.530157  0.827848  1
  P  P8  1  0.250000  0.230138  0.877298  1
  P  P9  1  0.250000  0.728812  0.618746  1
  P  P10  1  0.750000  0.771990  0.123726  1
  P  P11  1  0.750000  0.268854  0.380351  1
