# generated using pymatgen
data_NaLa2Ge3As3Pd20
_symmetry_space_group_name_H-M   'P 1'
_cell_length_a   8.89484293
_cell_length_b   8.85686190
_cell_length_c   8.81703200
_cell_angle_alpha   60.43342929
_cell_angle_beta   60.00498678
_cell_angle_gamma   59.56158471
_symmetry_Int_Tables_number   1
_chemical_formula_structural   NaLa2Ge3As3Pd20
_chemical_formula_sum   'Na1 La2 Ge3 As3 Pd20'
_cell_volume   491.10606478
_cell_formula_units_Z   1
loop_
 _symmetry_equiv_pos_site_id
 _symmetry_equiv_pos_as_xyz
  1  'x, y, z'
loop_
 _atom_site_type_symbol
 _atom_site_label
 _atom_site_symmetry_multiplicity
 _atom_site_fract_x
 _atom_site_fract_y
 _atom_site_fract_z
 _atom_site_occupancy
  Na  Na0  1  0.999951  0.000049  0.999951  1
  La  La1  1  0.749805  0.750195  0.749805  1
  La  La2  1  0.249805  0.250195  0.249805  1
  Ge  Ge3  1  0.264217  0.735783  0.264217  1
  Ge  Ge4  1  0.263026  0.736974  0.735803  1
  Ge  Ge5  1  0.735803  0.264197  0.263026  1
  As  As6  1  0.737348  0.738189  0.261811  1
  As  As7  1  0.261811  0.262652  0.737348  1
  As  As8  1  0.737745  0.262255  0.737745  1
  Pd  Pd9  1  0.615421  0.615784  0.615751  1
  Pd  Pd10  1  0.383944  0.383788  0.383986  1
  Pd  Pd11  1  0.151717  0.616014  0.616212  1
  Pd  Pd12  1  0.615751  0.153043  0.615421  1
  Pd  Pd13  1  0.846957  0.384249  0.384216  1
  Pd  Pd14  1  0.383986  0.848283  0.383944  1
  Pd  Pd15  1  0.616212  0.616056  0.151717  1
  Pd  Pd16  1  0.384216  0.384579  0.846957  1
  Pd  Pd17  1  0.000373  0.999627  0.649730  1
  Pd  Pd18  1  0.999435  0.000565  0.348563  1
  Pd  Pd19  1  0.348563  0.651437  0.999435  1
  Pd  Pd20  1  0.649730  0.350270  0.000373  1
  Pd  Pd21  1  0.002487  0.649523  0.000045  1
  Pd  Pd22  1  0.652055  0.999955  0.350477  1
  Pd  Pd23  1  0.000045  0.347945  0.002487  1
  Pd  Pd24  1  0.350477  0.997513  0.652055  1
  Pd  Pd25  1  0.650438  0.000666  0.999334  1
  Pd  Pd26  1  0.348512  0.999166  0.000834  1
  Pd  Pd27  1  0.000834  0.651488  0.348512  1
  Pd  Pd28  1  0.999334  0.349562  0.650438  1
