# generated using pymatgen
data_CeNdMn2F14
_symmetry_space_group_name_H-M   'P 1'
_cell_length_a   5.68401718
_cell_length_b   5.98486564
_cell_length_c   8.18201429
_cell_angle_alpha   101.70427190
_cell_angle_beta   90.18387304
_cell_angle_gamma   89.23449323
_symmetry_Int_Tables_number   1
_chemical_formula_structural   CeNdMn2F14
_chemical_formula_sum   'Ce1 Nd1 Mn2 F14'
_cell_volume   272.52479142
_cell_formula_units_Z   1
loop_
 _symmetry_equiv_pos_site_id
 _symmetry_equiv_pos_as_xyz
  1  'x, y, z'
loop_
 _atom_site_type_symbol
 _atom_site_label
 _atom_site_symmetry_multiplicity
 _atom_site_fract_x
 _atom_site_fract_y
 _atom_site_fract_z
 _atom_site_occupancy
  Ce  Ce0  1  0.696979  0.660495  0.696816  1
  Nd  Nd1  1  0.201312  0.332026  0.306866  1
  Mn  Mn2  1  0.710909  0.809425  0.224606  1
  Mn  Mn3  1  0.208216  0.192473  0.776773  1
  F  F4  1  0.872038  0.446193  0.479144  1
  F  F5  1  0.387987  0.565702  0.524933  1
  F  F6  1  0.422554  0.940414  0.773385  1
  F  F7  1  0.908726  0.052861  0.227328  1
  F  F8  1  0.936676  0.944987  0.752486  1
  F  F9  1  0.455900  0.007945  0.235712  1
  F  F10  1  0.006800  0.452085  0.789321  1
  F  F11  1  0.515533  0.562929  0.211975  1
  F  F12  1  0.703784  0.767094  0.995688  1
  F  F13  1  0.201727  0.237605  0.009596  1
  F  F14  1  0.718860  0.865611  0.452562  1
  F  F15  1  0.217795  0.142963  0.543083  1
  F  F16  1  0.512437  0.396866  0.788672  1
  F  F17  1  0.974487  0.622325  0.211052  1
