# generated using pymatgen
data_Sc2VCo3
_symmetry_space_group_name_H-M   'P 1'
_cell_length_a   4.76780086
_cell_length_b   5.09951716
_cell_length_c   5.09951600
_cell_angle_alpha   59.99999456
_cell_angle_beta   57.67051719
_cell_angle_gamma   57.67052045
_symmetry_Int_Tables_number   1
_chemical_formula_structural   Sc2VCo3
_chemical_formula_sum   'Sc2 V1 Co3'
_cell_volume   84.45713344
_cell_formula_units_Z   1
loop_
 _symmetry_equiv_pos_site_id
 _symmetry_equiv_pos_as_xyz
  1  'x, y, z'
loop_
 _atom_site_type_symbol
 _atom_site_label
 _atom_site_symmetry_multiplicity
 _atom_site_fract_x
 _atom_site_fract_y
 _atom_site_fract_z
 _atom_site_occupancy
  Sc  Sc0  1  0.243637  0.252121  0.252121  1
  Sc  Sc1  1  0.006363  0.997879  0.997879  1
  V  V2  1  0.125000  0.625000  0.625000  1
  Co  Co3  1  0.625000  0.625000  0.125000  1
  Co  Co4  1  0.625000  0.125000  0.625000  1
  Co  Co5  1  0.625000  0.625000  0.625000  1
