# generated using pymatgen
data_HfSc2Ga5Ni
_symmetry_space_group_name_H-M   'P 1'
_cell_length_a   6.61781700
_cell_length_b   6.64347657
_cell_length_c   3.99683500
_cell_angle_alpha   90.00000000
_cell_angle_beta   90.00000000
_cell_angle_gamma   119.87231085
_symmetry_Int_Tables_number   1
_chemical_formula_structural   HfSc2Ga5Ni
_chemical_formula_sum   'Hf1 Sc2 Ga5 Ni1'
_cell_volume   152.37523009
_cell_formula_units_Z   1
loop_
 _symmetry_equiv_pos_site_id
 _symmetry_equiv_pos_as_xyz
  1  'x, y, z'
loop_
 _atom_site_type_symbol
 _atom_site_label
 _atom_site_symmetry_multiplicity
 _atom_site_fract_x
 _atom_site_fract_y
 _atom_site_fract_z
 _atom_site_occupancy
  Hf  Hf0  1  0.593761  0.000000  0.000000  1
  Sc  Sc1  1  0.001377  0.594543  0.000000  1
  Sc  Sc2  1  0.406834  0.405457  0.000000  1
  Ga  Ga3  1  0.241372  0.000000  0.500000  1
  Ga  Ga4  1  0.999490  0.240192  0.500000  1
  Ga  Ga5  1  0.759298  0.759808  0.500000  1
  Ga  Ga6  1  0.335322  0.668316  0.500000  1
  Ga  Ga7  1  0.667007  0.331684  0.500000  1
  Ni  Ni8  1  0.995539  0.000000  0.000000  1
