# generated using pymatgen
data_Th3Sn2Ir2RhAu
_symmetry_space_group_name_H-M   'P 1'
_cell_length_a   7.60121803
_cell_length_b   7.60121759
_cell_length_c   3.97254500
_cell_angle_alpha   90.00000000
_cell_angle_beta   90.00000000
_cell_angle_gamma   117.88592780
_symmetry_Int_Tables_number   1
_chemical_formula_structural   Th3Sn2Ir2RhAu
_chemical_formula_sum   'Th3 Sn2 Ir2 Rh1 Au1'
_cell_volume   202.87510020
_cell_formula_units_Z   1
loop_
 _symmetry_equiv_pos_site_id
 _symmetry_equiv_pos_as_xyz
  1  'x, y, z'
loop_
 _atom_site_type_symbol
 _atom_site_label
 _atom_site_symmetry_multiplicity
 _atom_site_fract_x
 _atom_site_fract_y
 _atom_site_fract_z
 _atom_site_occupancy
  Th  Th0  1  0.420290  0.420290  0.500000  1
  Th  Th1  1  0.598647  0.991277  0.500000  1
  Th  Th2  1  0.991277  0.598647  0.500000  1
  Sn  Sn3  1  0.254740  0.002911  0.000000  1
  Sn  Sn4  1  0.002911  0.254740  0.000000  1
  Ir  Ir5  1  0.658390  0.312953  0.000000  1
  Ir  Ir6  1  0.312953  0.658390  0.000000  1
  Rh  Rh7  1  0.021035  0.021035  0.500000  1
  Au  Au8  1  0.739757  0.739757  0.000000  1
