# generated using pymatgen
data_Nd2TmLuPt2
_symmetry_space_group_name_H-M   'P 1'
_cell_length_a   4.82854600
_cell_length_b   7.23926100
_cell_length_c   8.80069100
_cell_angle_alpha   90.00000000
_cell_angle_beta   90.00000000
_cell_angle_gamma   90.00000000
_symmetry_Int_Tables_number   1
_chemical_formula_structural   Nd2TmLuPt2
_chemical_formula_sum   'Nd4 Tm2 Lu2 Pt4'
_cell_volume   307.62907573
_cell_formula_units_Z   2
loop_
 _symmetry_equiv_pos_site_id
 _symmetry_equiv_pos_as_xyz
  1  'x, y, z'
loop_
 _atom_site_type_symbol
 _atom_site_label
 _atom_site_symmetry_multiplicity
 _atom_site_fract_x
 _atom_site_fract_y
 _atom_site_fract_z
 _atom_site_occupancy
  Nd  Nd0  1  0.750000  0.489902  0.174147  1
  Nd  Nd1  1  0.250000  0.010098  0.674147  1
  Nd  Nd2  1  0.750000  0.990778  0.325305  1
  Nd  Nd3  1  0.250000  0.509222  0.825305  1
  Tm  Tm4  1  0.750000  0.359913  0.578746  1
  Tm  Tm5  1  0.250000  0.140087  0.078746  1
  Lu  Lu6  1  0.750000  0.856031  0.921525  1
  Lu  Lu7  1  0.250000  0.643969  0.421525  1
  Pt  Pt8  1  0.750000  0.748070  0.588405  1
  Pt  Pt9  1  0.750000  0.242072  0.911875  1
  Pt  Pt10  1  0.250000  0.257928  0.411875  1
  Pt  Pt11  1  0.250000  0.751930  0.088405  1
