# generated using pymatgen
data_Tm2SiB2Rh5
_symmetry_space_group_name_H-M   'P 1'
_cell_length_a   3.21754200
_cell_length_b   9.30634500
_cell_length_c   9.30634500
_cell_angle_alpha   90.00000000
_cell_angle_beta   90.00000000
_cell_angle_gamma   90.00000000
_symmetry_Int_Tables_number   1
_chemical_formula_structural   Tm2SiB2Rh5
_chemical_formula_sum   'Tm4 Si2 B4 Rh10'
_cell_volume   278.66506177
_cell_formula_units_Z   2
loop_
 _symmetry_equiv_pos_site_id
 _symmetry_equiv_pos_as_xyz
  1  'x, y, z'
loop_
 _atom_site_type_symbol
 _atom_site_label
 _atom_site_symmetry_multiplicity
 _atom_site_fract_x
 _atom_site_fract_y
 _atom_site_fract_z
 _atom_site_occupancy
  Tm  Tm0  1  0.000000  0.824898  0.175102  1
  Tm  Tm1  1  0.000000  0.324898  0.324898  1
  Tm  Tm2  1  0.000000  0.675102  0.675102  1
  Tm  Tm3  1  0.000000  0.175102  0.824898  1
  Si  Si4  1  0.000000  0.499999  0.000000  1
  Si  Si5  1  0.000000  0.000000  0.499999  1
  B  B6  1  0.000000  0.122440  0.122440  1
  B  B7  1  0.000000  0.622440  0.377562  1
  B  B8  1  0.000000  0.377562  0.622440  1
  B  B9  1  0.000000  0.877562  0.877562  1
  Rh  Rh10  1  0.500001  0.000000  0.000000  1
  Rh  Rh11  1  0.500001  0.286199  0.069727  1
  Rh  Rh12  1  0.500001  0.569726  0.213801  1
  Rh  Rh13  1  0.500001  0.069727  0.286199  1
  Rh  Rh14  1  0.500001  0.786200  0.430275  1
  Rh  Rh15  1  0.500001  0.500000  0.500000  1
  Rh  Rh16  1  0.500001  0.213801  0.569726  1
  Rh  Rh17  1  0.500001  0.930274  0.713802  1
  Rh  Rh18  1  0.500001  0.430275  0.786200  1
  Rh  Rh19  1  0.500001  0.713802  0.930274  1
