# generated using pymatgen
data_LiTm3(Ni4P3)2
_symmetry_space_group_name_H-M   'P 1'
_cell_length_a   3.74840500
_cell_length_b   10.53673900
_cell_length_c   12.23273600
_cell_angle_alpha   90.00000000
_cell_angle_beta   90.00000000
_cell_angle_gamma   90.00000000
_symmetry_Int_Tables_number   1
_chemical_formula_structural   LiTm3(Ni4P3)2
_chemical_formula_sum   'Li2 Tm6 Ni16 P12'
_cell_volume   483.14371476
_cell_formula_units_Z   2
loop_
 _symmetry_equiv_pos_site_id
 _symmetry_equiv_pos_as_xyz
  1  'x, y, z'
loop_
 _atom_site_type_symbol
 _atom_site_label
 _atom_site_symmetry_multiplicity
 _atom_site_fract_x
 _atom_site_fract_y
 _atom_site_fract_z
 _atom_site_occupancy
  Li  Li0  1  0.500000  0.500000  0.153592  1
  Li  Li1  1  0.000000  0.000000  0.846408  1
  Tm  Tm2  1  0.000000  0.500000  0.524660  1
  Tm  Tm3  1  0.500000  0.000000  0.475340  1
  Tm  Tm4  1  0.500000  0.819243  0.204753  1
  Tm  Tm5  1  0.500000  0.180757  0.204753  1
  Tm  Tm6  1  0.000000  0.680757  0.795247  1
  Tm  Tm7  1  0.000000  0.319243  0.795247  1
  Ni  Ni8  1  0.500000  0.500000  0.702125  1
  Ni  Ni9  1  0.000000  0.000000  0.297875  1
  Ni  Ni10  1  0.000000  0.500000  0.987923  1
  Ni  Ni11  1  0.500000  0.000000  0.012077  1
  Ni  Ni12  1  0.500000  0.331993  0.997588  1
  Ni  Ni13  1  0.500000  0.668007  0.997588  1
  Ni  Ni14  1  0.000000  0.168007  0.002412  1
  Ni  Ni15  1  0.000000  0.831993  0.002412  1
  Ni  Ni16  1  0.500000  0.300119  0.430884  1
  Ni  Ni17  1  0.500000  0.699881  0.430884  1
  Ni  Ni18  1  0.000000  0.199881  0.569116  1
  Ni  Ni19  1  0.000000  0.800119  0.569116  1
  Ni  Ni20  1  0.500000  0.879565  0.708648  1
  Ni  Ni21  1  0.500000  0.120435  0.708648  1
  Ni  Ni22  1  0.000000  0.620435  0.291352  1
  Ni  Ni23  1  0.000000  0.379565  0.291352  1
  P  P24  1  0.500000  0.500000  0.880725  1
  P  P25  1  0.000000  0.000000  0.119275  1
  P  P26  1  0.500000  0.500000  0.351557  1
  P  P27  1  0.000000  0.000000  0.648443  1
  P  P28  1  0.500000  0.314525  0.616247  1
  P  P29  1  0.500000  0.685475  0.616247  1
  P  P30  1  0.000000  0.185475  0.383753  1
  P  P31  1  0.000000  0.814525  0.383753  1
  P  P32  1  0.500000  0.841784  0.891760  1
  P  P33  1  0.500000  0.158216  0.891760  1
  P  P34  1  0.000000  0.658216  0.108240  1
  P  P35  1  0.000000  0.341784  0.108240  1
