# generated using pymatgen
data_V5As6RhO24
_symmetry_space_group_name_H-M   'P 1'
_cell_length_a   9.42728512
_cell_length_b   9.42728442
_cell_length_c   9.41955189
_cell_angle_alpha   138.62405415
_cell_angle_beta   109.37708913
_cell_angle_gamma   85.33756908
_symmetry_Int_Tables_number   1
_chemical_formula_structural   V5As6RhO24
_chemical_formula_sum   'V5 As6 Rh1 O24'
_cell_volume   502.78085907
_cell_formula_units_Z   1
loop_
 _symmetry_equiv_pos_site_id
 _symmetry_equiv_pos_as_xyz
  1  'x, y, z'
loop_
 _atom_site_type_symbol
 _atom_site_label
 _atom_site_symmetry_multiplicity
 _atom_site_fract_x
 _atom_site_fract_y
 _atom_site_fract_z
 _atom_site_occupancy
  V  V0  1  0.000122  0.499310  0.498884  1
  V  V1  1  0.500426  0.001239  0.501116  1
  V  V2  1  0.885070  0.885070  0.500000  1
  V  V3  1  0.613297  0.113297  0.000000  1
  V  V4  1  0.114500  0.114500  0.500000  1
  As  As5  1  0.249329  0.812421  0.563619  1
  As  As6  1  0.748802  0.185710  0.436381  1
  As  As7  1  0.823389  0.323389  0.000000  1
  As  As8  1  0.676889  0.676889  0.500000  1
  As  As9  1  0.174208  0.674208  0.000000  1
  As  As10  1  0.324707  0.324707  0.500000  1
  Rh  Rh11  1  0.382467  0.882467  0.000000  1
  O  O12  1  0.121948  0.972729  0.595176  1
  O  O13  1  0.380024  0.969901  0.851207  1
  O  O14  1  0.618693  0.028817  0.148793  1
  O  O15  1  0.877555  0.026774  0.404824  1
  O  O16  1  0.145147  0.574238  0.428708  1
  O  O17  1  0.355152  0.786406  0.433186  1
  O  O18  1  0.853221  0.421966  0.566814  1
  O  O19  1  0.645529  0.216439  0.571292  1
  O  O20  1  0.139640  0.403139  0.828490  1
  O  O21  1  0.354355  0.193861  0.260319  1
  O  O22  1  0.433541  0.594035  0.739681  1
  O  O23  1  0.074649  0.811151  0.171510  1
  O  O24  1  0.653201  0.812187  0.431599  1
  O  O25  1  0.847508  0.276717  0.157377  1
  O  O26  1  0.619340  0.190132  0.842623  1
  O  O27  1  0.880589  0.721603  0.568401  1
  O  O28  1  0.345596  0.185455  0.565058  1
  O  O29  1  0.150547  0.727932  0.847421  1
  O  O30  1  0.380509  0.803126  0.152579  1
  O  O31  1  0.120398  0.280539  0.434942  1
  O  O32  1  0.923338  0.186801  0.828722  1
  O  O33  1  0.574079  0.407825  0.253672  1
  O  O34  1  0.654152  0.820408  0.746328  1
  O  O35  1  0.858078  0.594616  0.171278  1
