# generated using pymatgen
data_Y6Sn7Pd16Br
_symmetry_space_group_name_H-M   'P 1'
_cell_length_a   9.34555025
_cell_length_b   9.34554952
_cell_length_c   9.34555000
_cell_angle_alpha   59.99999830
_cell_angle_beta   60.00000088
_cell_angle_gamma   59.99999801
_symmetry_Int_Tables_number   1
_chemical_formula_structural   Y6Sn7Pd16Br
_chemical_formula_sum   'Y6 Sn7 Pd16 Br1'
_cell_volume   577.16445677
_cell_formula_units_Z   1
loop_
 _symmetry_equiv_pos_site_id
 _symmetry_equiv_pos_as_xyz
  1  'x, y, z'
loop_
 _atom_site_type_symbol
 _atom_site_label
 _atom_site_symmetry_multiplicity
 _atom_site_fract_x
 _atom_site_fract_y
 _atom_site_fract_z
 _atom_site_occupancy
  Y  Y0  1  0.722541  0.277459  0.277459  1
  Y  Y1  1  0.277459  0.722541  0.722541  1
  Y  Y2  1  0.277459  0.722541  0.277459  1
  Y  Y3  1  0.722541  0.277459  0.722541  1
  Y  Y4  1  0.277459  0.277459  0.722541  1
  Y  Y5  1  0.722541  0.722541  0.277459  1
  Sn  Sn6  1  0.000000  0.000000  0.000000  1
  Sn  Sn7  1  0.500000  0.000000  0.000000  1
  Sn  Sn8  1  0.000000  0.500000  0.500000  1
  Sn  Sn9  1  0.000000  0.500000  0.000000  1
  Sn  Sn10  1  0.500000  0.000000  0.500000  1
  Sn  Sn11  1  0.000000  0.000000  0.500000  1
  Sn  Sn12  1  0.500000  0.500000  0.000000  1
  Pd  Pd13  1  0.119405  0.119405  0.119405  1
  Pd  Pd14  1  0.880595  0.880595  0.880595  1
  Pd  Pd15  1  0.119405  0.119405  0.641783  1
  Pd  Pd16  1  0.119405  0.641783  0.119405  1
  Pd  Pd17  1  0.880595  0.880595  0.358217  1
  Pd  Pd18  1  0.880595  0.358217  0.880595  1
  Pd  Pd19  1  0.641783  0.119405  0.119405  1
  Pd  Pd20  1  0.358217  0.880595  0.880595  1
  Pd  Pd21  1  0.334723  0.334723  0.334723  1
  Pd  Pd22  1  0.665277  0.665277  0.665277  1
  Pd  Pd23  1  0.334723  0.334723  0.995830  1
  Pd  Pd24  1  0.334723  0.995830  0.334723  1
  Pd  Pd25  1  0.665277  0.665277  0.004170  1
  Pd  Pd26  1  0.665277  0.004170  0.665277  1
  Pd  Pd27  1  0.995830  0.334723  0.334723  1
  Pd  Pd28  1  0.004170  0.665277  0.665277  1
  Br  Br29  1  0.500000  0.500000  0.500000  1
