# generated using pymatgen
data_LaNdCu2Ni7Ir
_symmetry_space_group_name_H-M   'P 1'
_cell_length_a   4.02226300
_cell_length_b   5.00545800
_cell_length_c   8.81690100
_cell_angle_alpha   90.00000000
_cell_angle_beta   90.00000000
_cell_angle_gamma   90.00000000
_symmetry_Int_Tables_number   1
_chemical_formula_structural   LaNdCu2Ni7Ir
_chemical_formula_sum   'La1 Nd1 Cu2 Ni7 Ir1'
_cell_volume   177.51303527
_cell_formula_units_Z   1
loop_
 _symmetry_equiv_pos_site_id
 _symmetry_equiv_pos_as_xyz
  1  'x, y, z'
loop_
 _atom_site_type_symbol
 _atom_site_label
 _atom_site_symmetry_multiplicity
 _atom_site_fract_x
 _atom_site_fract_y
 _atom_site_fract_z
 _atom_site_occupancy
  La  La0  1  0.000000  0.000000  0.000000  1
  Nd  Nd1  1  0.000000  0.500000  0.500000  1
  Cu  Cu2  1  0.000000  0.000000  0.333830  1
  Cu  Cu3  1  0.000000  0.000000  0.666170  1
  Ni  Ni4  1  0.000000  0.500000  0.824725  1
  Ni  Ni5  1  0.000000  0.500000  0.175275  1
  Ni  Ni6  1  0.500000  0.000000  0.500000  1
  Ni  Ni7  1  0.500000  0.250482  0.254786  1
  Ni  Ni8  1  0.500000  0.749518  0.745214  1
  Ni  Ni9  1  0.500000  0.749518  0.254786  1
  Ni  Ni10  1  0.500000  0.250482  0.745214  1
  Ir  Ir11  1  0.500000  0.500000  0.000000  1
