# generated using pymatgen
data_Y16TlIn5TcOs
_symmetry_space_group_name_H-M   'P 1'
_cell_length_a   10.44409907
_cell_length_b   10.44410148
_cell_length_c   7.15624506
_cell_angle_alpha   89.98860653
_cell_angle_beta   90.01143379
_cell_angle_gamma   120.02639855
_symmetry_Int_Tables_number   1
_chemical_formula_structural   Y16TlIn5TcOs
_chemical_formula_sum   'Y16 Tl1 In5 Tc1 Os1'
_cell_volume   675.83752591
_cell_formula_units_Z   1
loop_
 _symmetry_equiv_pos_site_id
 _symmetry_equiv_pos_as_xyz
  1  'x, y, z'
loop_
 _atom_site_type_symbol
 _atom_site_label
 _atom_site_symmetry_multiplicity
 _atom_site_fract_x
 _atom_site_fract_y
 _atom_site_fract_z
 _atom_site_occupancy
  Y  Y0  1  0.465957  0.534044  0.479845  1
  Y  Y1  1  0.068315  0.534136  0.480184  1
  Y  Y2  1  0.465864  0.931685  0.480184  1
  Y  Y3  1  0.534341  0.465659  0.977581  1
  Y  Y4  1  0.930749  0.464707  0.976668  1
  Y  Y5  1  0.535293  0.069250  0.976669  1
  Y  Y6  1  0.824005  0.175995  0.276945  1
  Y  Y7  1  0.351567  0.175506  0.276724  1
  Y  Y8  1  0.824494  0.648434  0.276724  1
  Y  Y9  1  0.177076  0.822923  0.777997  1
  Y  Y10  1  0.646038  0.822853  0.776483  1
  Y  Y11  1  0.177147  0.353962  0.776483  1
  Y  Y12  1  0.333438  0.666562  0.102004  1
  Y  Y13  1  0.666564  0.333436  0.599795  1
  Y  Y14  1  0.999387  0.000613  0.496798  1
  Y  Y15  1  0.999423  0.000577  0.998383  1
  Tl  Tl16  1  0.163243  0.836757  0.232229  1
  In  In17  1  0.674044  0.836996  0.233996  1
  In  In18  1  0.163005  0.325956  0.233996  1
  In  In19  1  0.836712  0.163288  0.732808  1
  In  In20  1  0.326713  0.163341  0.733023  1
  In  In21  1  0.836659  0.673286  0.733023  1
  Tc  Tc22  1  0.666693  0.333307  0.209258  1
  Os  Os23  1  0.333273  0.666727  0.706751  1
