# generated using pymatgen
data_Pr17Er3(Ga2Sn)4
_symmetry_space_group_name_H-M   'P 1'
_cell_length_a   8.06743400
_cell_length_b   8.06743400
_cell_length_c   14.66654500
_cell_angle_alpha   90.00000000
_cell_angle_beta   90.00000000
_cell_angle_gamma   90.00000000
_symmetry_Int_Tables_number   1
_chemical_formula_structural   Pr17Er3(Ga2Sn)4
_chemical_formula_sum   'Pr17 Er3 Ga8 Sn4'
_cell_volume   954.54995456
_cell_formula_units_Z   1
loop_
 _symmetry_equiv_pos_site_id
 _symmetry_equiv_pos_as_xyz
  1  'x, y, z'
loop_
 _atom_site_type_symbol
 _atom_site_label
 _atom_site_symmetry_multiplicity
 _atom_site_fract_x
 _atom_site_fract_y
 _atom_site_fract_z
 _atom_site_occupancy
  Pr  Pr0  1  0.823095  0.839073  0.606387  1
  Pr  Pr1  1  0.175729  0.838878  0.107153  1
  Pr  Pr2  1  0.160896  0.823826  0.392826  1
  Pr  Pr3  1  0.839104  0.176174  0.392826  1
  Pr  Pr4  1  0.676174  0.660896  0.392826  1
  Pr  Pr5  1  0.660927  0.323095  0.606387  1
  Pr  Pr6  1  0.339073  0.676905  0.606387  1
  Pr  Pr7  1  0.661122  0.675729  0.107153  1
  Pr  Pr8  1  0.677123  0.340142  0.893363  1
  Pr  Pr9  1  0.840142  0.822877  0.893363  1
  Pr  Pr10  1  0.323826  0.339104  0.392826  1
  Pr  Pr11  1  0.176905  0.160927  0.606387  1
  Pr  Pr12  1  0.824271  0.161122  0.107153  1
  Pr  Pr13  1  0.322877  0.659858  0.893363  1
  Pr  Pr14  1  0.338878  0.324271  0.107153  1
  Pr  Pr15  1  0.159858  0.177123  0.893363  1
  Pr  Pr16  1  0.500000  0.000000  0.775125  1
  Er  Er17  1  0.000000  0.500000  0.728966  1
  Er  Er18  1  0.000000  0.500000  0.229340  1
  Er  Er19  1  0.500000  0.000000  0.269535  1
  Ga  Ga20  1  0.625586  0.374308  0.250250  1
  Ga  Ga21  1  0.120632  0.872613  0.748570  1
  Ga  Ga22  1  0.372613  0.379368  0.748570  1
  Ga  Ga23  1  0.374414  0.625692  0.250250  1
  Ga  Ga24  1  0.874308  0.874414  0.250250  1
  Ga  Ga25  1  0.627387  0.620632  0.748570  1
  Ga  Ga26  1  0.879368  0.127387  0.748570  1
  Ga  Ga27  1  0.125692  0.125586  0.250250  1
  Sn  Sn28  1  0.000000  0.500000  0.506467  1
  Sn  Sn29  1  0.500000  0.000000  0.491404  1
  Sn  Sn30  1  0.500000  0.000000  0.997982  1
  Sn  Sn31  1  0.000000  0.500000  0.006983  1
