# generated using pymatgen
data_YEr3Al24Pd8Au
_symmetry_space_group_name_H-M   'P 1'
_cell_length_a   7.55988810
_cell_length_b   7.58279305
_cell_length_c   13.15894201
_cell_angle_alpha   84.52787915
_cell_angle_beta   78.99660376
_cell_angle_gamma   59.91387636
_symmetry_Int_Tables_number   1
_chemical_formula_structural   YEr3Al24Pd8Au
_chemical_formula_sum   'Y1 Er3 Al24 Pd8 Au1'
_cell_volume   640.70802476
_cell_formula_units_Z   1
loop_
 _symmetry_equiv_pos_site_id
 _symmetry_equiv_pos_as_xyz
  1  'x, y, z'
loop_
 _atom_site_type_symbol
 _atom_site_label
 _atom_site_symmetry_multiplicity
 _atom_site_fract_x
 _atom_site_fract_y
 _atom_site_fract_z
 _atom_site_occupancy
  Y  Y0  1  0.391895  0.169562  0.809318  1
  Er  Er1  1  0.606518  0.831534  0.191695  1
  Er  Er2  1  0.734480  0.498283  0.808900  1
  Er  Er3  1  0.266732  0.501534  0.191293  1
  Al  Al4  1  0.683020  0.833770  0.945426  1
  Al  Al5  1  0.315833  0.166085  0.056287  1
  Al  Al6  1  0.146207  0.838989  0.560160  1
  Al  Al7  1  0.854836  0.166510  0.436271  1
  Al  Al8  1  0.487201  0.160274  0.557876  1
  Al  Al9  1  0.520654  0.833424  0.439280  1
  Al  Al10  1  0.218174  0.165203  0.328007  1
  Al  Al11  1  0.776780  0.839442  0.673712  1
  Al  Al12  1  0.440548  0.507295  0.674055  1
  Al  Al13  1  0.563530  0.493363  0.327551  1
  Al  Al14  1  0.108107  0.153602  0.672549  1
  Al  Al15  1  0.891091  0.839897  0.328862  1
  Al  Al16  1  0.354023  0.498999  0.945158  1
  Al  Al17  1  0.646723  0.500829  0.056050  1
  Al  Al18  1  0.014780  0.167760  0.954663  1
  Al  Al19  1  0.984201  0.832142  0.046954  1
  Al  Al20  1  0.188410  0.499765  0.435814  1
  Al  Al21  1  0.807283  0.499786  0.557883  1
  Al  Al22  1  0.733229  0.163683  0.183744  1
  Al  Al23  1  0.267981  0.835472  0.816731  1
  Al  Al24  1  0.060030  0.634453  0.818481  1
  Al  Al25  1  0.938254  0.369591  0.185098  1
  Al  Al26  1  0.853609  0.043407  0.816484  1
  Al  Al27  1  0.145378  0.957562  0.183930  1
  Pd  Pd28  1  0.879801  0.508253  0.361297  1
  Pd  Pd29  1  0.657042  0.171460  0.999728  1
  Pd  Pd30  1  0.343091  0.828165  0.999909  1
  Pd  Pd31  1  0.537569  0.166687  0.361481  1
  Pd  Pd32  1  0.462532  0.832747  0.637881  1
  Pd  Pd33  1  0.778713  0.175136  0.637259  1
  Pd  Pd34  1  0.221982  0.824575  0.361995  1
  Pd  Pd35  1  0.000023  0.499828  0.000155  1
  Au  Au36  1  0.119737  0.490931  0.638063  1
