# generated using pymatgen
data_ErTm2As4Pd7
_symmetry_space_group_name_H-M   'P 1'
_cell_length_a   8.09787357
_cell_length_b   8.09787462
_cell_length_c   9.63118500
_cell_angle_alpha   55.59070377
_cell_angle_beta   55.59069867
_cell_angle_gamma   29.48225505
_symmetry_Int_Tables_number   1
_chemical_formula_structural   ErTm2As4Pd7
_chemical_formula_sum   'Er1 Tm2 As4 Pd7'
_cell_volume   252.24256175
_cell_formula_units_Z   1
loop_
 _symmetry_equiv_pos_site_id
 _symmetry_equiv_pos_as_xyz
  1  'x, y, z'
loop_
 _atom_site_type_symbol
 _atom_site_label
 _atom_site_symmetry_multiplicity
 _atom_site_fract_x
 _atom_site_fract_y
 _atom_site_fract_z
 _atom_site_occupancy
  Er  Er0  1  0.177493  0.177493  0.828426  1
  Tm  Tm1  1  0.500042  0.500042  0.499991  1
  Tm  Tm2  1  0.822715  0.822715  0.171257  1
  As  As3  1  0.394252  0.394252  0.322856  1
  As  As4  1  0.605731  0.605731  0.676966  1
  As  As5  1  0.841896  0.841896  0.748727  1
  As  As6  1  0.158239  0.158239  0.251106  1
  Pd  Pd7  1  0.668564  0.668564  0.070420  1
  Pd  Pd8  1  0.012838  0.012838  0.203256  1
  Pd  Pd9  1  0.986901  0.986901  0.797031  1
  Pd  Pd10  1  0.499581  0.499581  0.000360  1
  Pd  Pd11  1  0.194603  0.194603  0.473736  1
  Pd  Pd12  1  0.805732  0.805732  0.525717  1
  Pd  Pd13  1  0.331415  0.331415  0.930152  1
