# generated using pymatgen
data_Gd6UO12
_symmetry_space_group_name_H-M   'P 1'
_cell_length_a   6.67529193
_cell_length_b   6.67529062
_cell_length_c   6.67529084
_cell_angle_alpha   98.96917070
_cell_angle_beta   98.96917423
_cell_angle_gamma   98.96917129
_symmetry_Int_Tables_number   1
_chemical_formula_structural   Gd6UO12
_chemical_formula_sum   'Gd6 U1 O12'
_cell_volume   285.22491630
_cell_formula_units_Z   1
loop_
 _symmetry_equiv_pos_site_id
 _symmetry_equiv_pos_as_xyz
  1  'x, y, z'
loop_
 _atom_site_type_symbol
 _atom_site_label
 _atom_site_symmetry_multiplicity
 _atom_site_fract_x
 _atom_site_fract_y
 _atom_site_fract_z
 _atom_site_occupancy
  Gd  Gd0  1  0.390802  0.681287  0.855242  1
  Gd  Gd1  1  0.855242  0.390802  0.681287  1
  Gd  Gd2  1  0.681287  0.855242  0.390802  1
  Gd  Gd3  1  0.609198  0.318713  0.144758  1
  Gd  Gd4  1  0.144758  0.609198  0.318713  1
  Gd  Gd5  1  0.318713  0.144758  0.609198  1
  U  U6  1  0.000000  0.000000  0.000000  1
  O  O7  1  0.177634  0.430030  0.588508  1
  O  O8  1  0.588508  0.177634  0.430030  1
  O  O9  1  0.430030  0.588508  0.177634  1
  O  O10  1  0.822366  0.569970  0.411492  1
  O  O11  1  0.411492  0.822366  0.569970  1
  O  O12  1  0.569970  0.411492  0.822366  1
  O  O13  1  0.922374  0.046217  0.695223  1
  O  O14  1  0.953783  0.304777  0.077626  1
  O  O15  1  0.304777  0.077626  0.953783  1
  O  O16  1  0.077626  0.953783  0.304777  1
  O  O17  1  0.046217  0.695223  0.922374  1
  O  O18  1  0.695223  0.922374  0.046217  1
