# generated using pymatgen
data_Y8Er2(IrRh)3
_symmetry_space_group_name_H-M   'P 1'
_cell_length_a   10.91525745
_cell_length_b   10.90756855
_cell_length_c   6.41704716
_cell_angle_alpha   89.77972875
_cell_angle_beta   89.80387571
_cell_angle_gamma   89.89712243
_symmetry_Int_Tables_number   1
_chemical_formula_structural   Y8Er2(IrRh)3
_chemical_formula_sum   'Y16 Er4 Ir6 Rh6'
_cell_volume   763.99536159
_cell_formula_units_Z   2
loop_
 _symmetry_equiv_pos_site_id
 _symmetry_equiv_pos_as_xyz
  1  'x, y, z'
loop_
 _atom_site_type_symbol
 _atom_site_label
 _atom_site_symmetry_multiplicity
 _atom_site_fract_x
 _atom_site_fract_y
 _atom_site_fract_z
 _atom_site_occupancy
  Y  Y0  1  0.289298  0.088893  0.382812  1
  Y  Y1  1  0.289286  0.911158  0.882943  1
  Y  Y2  1  0.708114  0.091064  0.882217  1
  Y  Y3  1  0.708049  0.909082  0.382337  1
  Y  Y4  1  0.587208  0.789576  0.883687  1
  Y  Y5  1  0.586959  0.210502  0.383589  1
  Y  Y6  1  0.409920  0.790099  0.382870  1
  Y  Y7  1  0.410024  0.209875  0.882746  1
  Y  Y8  1  0.210658  0.410254  0.616534  1
  Y  Y9  1  0.210795  0.589508  0.116581  1
  Y  Y10  1  0.790209  0.412229  0.118382  1
  Y  Y11  1  0.790139  0.587565  0.618302  1
  Y  Y12  1  0.911710  0.709626  0.117074  1
  Y  Y13  1  0.911778  0.290426  0.617159  1
  Y  Y14  1  0.091456  0.709112  0.616774  1
  Y  Y15  1  0.091269  0.290879  0.116687  1
  Er  Er16  1  0.999399  0.999212  0.499281  1
  Er  Er17  1  0.999640  0.000947  0.999247  1
  Er  Er18  1  0.500818  0.499224  0.000544  1
  Er  Er19  1  0.500703  0.500658  0.500385  1
  Ir  Ir20  1  0.150538  0.152253  0.748682  1
  Ir  Ir21  1  0.150409  0.847933  0.248999  1
  Ir  Ir22  1  0.653434  0.347992  0.749822  1
  Ir  Ir23  1  0.653612  0.652076  0.249971  1
  Ir  Ir24  1  0.348848  0.347517  0.250497  1
  Ir  Ir25  1  0.349083  0.652342  0.750759  1
  Rh  Rh26  1  0.848118  0.150326  0.250182  1
  Rh  Rh27  1  0.847933  0.849705  0.750554  1
  Rh  Rh28  1  0.500079  0.000264  0.131689  1
  Rh  Rh29  1  0.500031  0.999891  0.631759  1
  Rh  Rh30  1  0.000402  0.500490  0.868536  1
  Rh  Rh31  1  0.000079  0.499324  0.368399  1
