# generated using pymatgen
data_Nd3HfZn2Ir3
_symmetry_space_group_name_H-M   'P 1'
_cell_length_a   7.29568300
_cell_length_b   7.38096469
_cell_length_c   4.13348100
_cell_angle_alpha   90.00000000
_cell_angle_beta   90.00000000
_cell_angle_gamma   119.61851364
_symmetry_Int_Tables_number   1
_chemical_formula_structural   Nd3HfZn2Ir3
_chemical_formula_sum   'Nd3 Hf1 Zn2 Ir3'
_cell_volume   193.50060772
_cell_formula_units_Z   1
loop_
 _symmetry_equiv_pos_site_id
 _symmetry_equiv_pos_as_xyz
  1  'x, y, z'
loop_
 _atom_site_type_symbol
 _atom_site_label
 _atom_site_symmetry_multiplicity
 _atom_site_fract_x
 _atom_site_fract_y
 _atom_site_fract_z
 _atom_site_occupancy
  Nd  Nd0  1  0.613868  0.000000  0.000000  1
  Nd  Nd1  1  0.980737  0.561780  0.000000  1
  Nd  Nd2  1  0.418957  0.438220  0.000000  1
  Hf  Hf3  1  0.237141  0.000000  0.500000  1
  Zn  Zn4  1  0.005783  0.244701  0.500000  1
  Zn  Zn5  1  0.761081  0.755299  0.500000  1
  Ir  Ir6  1  0.324514  0.682662  0.500000  1
  Ir  Ir7  1  0.641853  0.317338  0.500000  1
  Ir  Ir8  1  0.016067  0.000000  0.000000  1
