# generated using pymatgen
data_Yb3(GeAs2)2
_symmetry_space_group_name_H-M   'P 1'
_cell_length_a   17.89193500
_cell_length_b   7.31284569
_cell_length_c   7.30694590
_cell_angle_alpha   68.54884694
_cell_angle_beta   90.00000000
_cell_angle_gamma   90.00000000
_symmetry_Int_Tables_number   1
_chemical_formula_structural   Yb3(GeAs2)2
_chemical_formula_sum   'Yb12 Ge8 As16'
_cell_volume   889.82208276
_cell_formula_units_Z   4
loop_
 _symmetry_equiv_pos_site_id
 _symmetry_equiv_pos_as_xyz
  1  'x, y, z'
loop_
 _atom_site_type_symbol
 _atom_site_label
 _atom_site_symmetry_multiplicity
 _atom_site_fract_x
 _atom_site_fract_y
 _atom_site_fract_z
 _atom_site_occupancy
  Yb  Yb0  1  0.316651  0.487180  0.220876  1
  Yb  Yb1  1  0.816651  0.012820  0.779124  1
  Yb  Yb2  1  0.683349  0.512820  0.779124  1
  Yb  Yb3  1  0.183349  0.987180  0.220876  1
  Yb  Yb4  1  0.058943  0.488132  0.254814  1
  Yb  Yb5  1  0.558943  0.011868  0.745186  1
  Yb  Yb6  1  0.941057  0.511868  0.745186  1
  Yb  Yb7  1  0.441057  0.988132  0.254814  1
  Yb  Yb8  1  0.561946  0.500162  0.261618  1
  Yb  Yb9  1  0.061946  0.999838  0.738382  1
  Yb  Yb10  1  0.438054  0.499838  0.738382  1
  Yb  Yb11  1  0.938054  0.000162  0.261618  1
  Ge  Ge12  1  0.874688  0.469020  0.207389  1
  Ge  Ge13  1  0.374688  0.030980  0.792611  1
  Ge  Ge14  1  0.125312  0.530980  0.792611  1
  Ge  Ge15  1  0.625312  0.969020  0.207389  1
  Ge  Ge16  1  0.741015  0.082523  0.316419  1
  Ge  Ge17  1  0.241015  0.417477  0.683581  1
  Ge  Ge18  1  0.258985  0.917477  0.683581  1
  Ge  Ge19  1  0.758985  0.582523  0.316419  1
  As  As20  1  0.557449  0.258132  0.000200  1
  As  As21  1  0.057449  0.241868  0.999800  1
  As  As22  1  0.442551  0.741868  0.999800  1
  As  As23  1  0.942551  0.758132  0.000200  1
  As  As24  1  0.814768  0.277185  0.022511  1
  As  As25  1  0.314768  0.222815  0.977489  1
  As  As26  1  0.185232  0.722815  0.977489  1
  As  As27  1  0.685232  0.777185  0.022511  1
  As  As28  1  0.935620  0.252071  0.507001  1
  As  As29  1  0.435620  0.247929  0.492999  1
  As  As30  1  0.064380  0.747929  0.492999  1
  As  As31  1  0.564380  0.752071  0.507001  1
  As  As32  1  0.693816  0.271384  0.515961  1
  As  As33  1  0.193816  0.228616  0.484039  1
  As  As34  1  0.306184  0.728616  0.484039  1
  As  As35  1  0.806184  0.771384  0.515961  1
