# generated using pymatgen
data_Hf4V3Re5
_symmetry_space_group_name_H-M   'P 1'
_cell_length_a   5.25027500
_cell_length_b   5.22217623
_cell_length_c   8.60122100
_cell_angle_alpha   90.00000000
_cell_angle_beta   90.00000000
_cell_angle_gamma   120.17814476
_symmetry_Int_Tables_number   1
_chemical_formula_structural   Hf4V3Re5
_chemical_formula_sum   'Hf4 V3 Re5'
_cell_volume   203.86464103
_cell_formula_units_Z   1
loop_
 _symmetry_equiv_pos_site_id
 _symmetry_equiv_pos_as_xyz
  1  'x, y, z'
loop_
 _atom_site_type_symbol
 _atom_site_label
 _atom_site_symmetry_multiplicity
 _atom_site_fract_x
 _atom_site_fract_y
 _atom_site_fract_z
 _atom_site_occupancy
  Hf  Hf0  1  0.333787  0.667574  0.060419  1
  Hf  Hf1  1  0.667709  0.335417  0.559793  1
  Hf  Hf2  1  0.667709  0.335417  0.940207  1
  Hf  Hf3  1  0.333787  0.667574  0.439581  1
  V  V4  1  0.830397  0.660794  0.250000  1
  V  V5  1  0.169819  0.828466  0.750000  1
  V  V6  1  0.658648  0.828466  0.750000  1
  Re  Re7  1  0.998736  0.997472  0.996168  1
  Re  Re8  1  0.998736  0.997472  0.503832  1
  Re  Re9  1  0.340497  0.169607  0.250000  1
  Re  Re10  1  0.829109  0.169607  0.250000  1
  Re  Re11  1  0.171068  0.342135  0.750000  1
