# generated using pymatgen
data_Cs3KCoO4
_symmetry_space_group_name_H-M   'P 1'
_cell_length_a   6.78071400
_cell_length_b   11.26024982
_cell_length_c   11.50787700
_cell_angle_alpha   68.90056718
_cell_angle_beta   90.00000000
_cell_angle_gamma   90.00000000
_symmetry_Int_Tables_number   1
_chemical_formula_structural   Cs3KCoO4
_chemical_formula_sum   'Cs12 K4 Co4 O16'
_cell_volume   819.74794673
_cell_formula_units_Z   4
loop_
 _symmetry_equiv_pos_site_id
 _symmetry_equiv_pos_as_xyz
  1  'x, y, z'
loop_
 _atom_site_type_symbol
 _atom_site_label
 _atom_site_symmetry_multiplicity
 _atom_site_fract_x
 _atom_site_fract_y
 _atom_site_fract_z
 _atom_site_occupancy
  Cs  Cs0  1  0.656752  0.050990  0.319939  1
  Cs  Cs1  1  0.117105  0.327536  0.596476  1
  Cs  Cs2  1  0.392249  0.549493  0.309508  1
  Cs  Cs3  1  0.107751  0.549493  0.809508  1
  Cs  Cs4  1  0.843248  0.050990  0.819939  1
  Cs  Cs5  1  0.607751  0.450507  0.690492  1
  Cs  Cs6  1  0.882895  0.672464  0.403524  1
  Cs  Cs7  1  0.156752  0.949010  0.180061  1
  Cs  Cs8  1  0.617105  0.672464  0.903524  1
  Cs  Cs9  1  0.382895  0.327536  0.096476  1
  Cs  Cs10  1  0.343248  0.949010  0.680061  1
  Cs  Cs11  1  0.892249  0.450507  0.190492  1
  K  K12  1  0.629329  0.866993  0.111997  1
  K  K13  1  0.370671  0.133007  0.888003  1
  K  K14  1  0.870671  0.866993  0.611997  1
  K  K15  1  0.129329  0.133007  0.388003  1
  Co  Co16  1  0.365813  0.752811  0.492820  1
  Co  Co17  1  0.634187  0.247189  0.507180  1
  Co  Co18  1  0.865813  0.247189  0.007180  1
  Co  Co19  1  0.134187  0.752811  0.992820  1
  O  O20  1  0.990184  0.209451  0.156784  1
  O  O21  1  0.490184  0.790549  0.343216  1
  O  O22  1  0.246584  0.595619  0.037231  1
  O  O23  1  0.176185  0.874979  0.469338  1
  O  O24  1  0.753416  0.404381  0.962769  1
  O  O25  1  0.459385  0.250942  0.385413  1
  O  O26  1  0.676185  0.125021  0.030662  1
  O  O27  1  0.009816  0.790549  0.843216  1
  O  O28  1  0.746584  0.404381  0.462769  1
  O  O29  1  0.040615  0.250942  0.885413  1
  O  O30  1  0.323815  0.874979  0.969338  1
  O  O31  1  0.823815  0.125021  0.530662  1
  O  O32  1  0.540615  0.749058  0.614587  1
  O  O33  1  0.253416  0.595619  0.537231  1
  O  O34  1  0.509816  0.209451  0.656784  1
  O  O35  1  0.959385  0.749058  0.114587  1
