# generated using pymatgen
data_Er2TmLu(B6Rh)2
_symmetry_space_group_name_H-M   'P 1'
_cell_length_a   3.61787200
_cell_length_b   9.10741325
_cell_length_c   11.44239132
_cell_angle_alpha   89.97302211
_cell_angle_beta   90.00000000
_cell_angle_gamma   90.00000000
_symmetry_Int_Tables_number   1
_chemical_formula_structural   Er2TmLu(B6Rh)2
_chemical_formula_sum   'Er4 Tm2 Lu2 B24 Rh4'
_cell_volume   377.02052056
_cell_formula_units_Z   2
loop_
 _symmetry_equiv_pos_site_id
 _symmetry_equiv_pos_as_xyz
  1  'x, y, z'
loop_
 _atom_site_type_symbol
 _atom_site_label
 _atom_site_symmetry_multiplicity
 _atom_site_fract_x
 _atom_site_fract_y
 _atom_site_fract_z
 _atom_site_occupancy
  Er  Er0  1  0.500000  0.321366  0.413918  1
  Er  Er1  1  0.500000  0.678634  0.586082  1
  Er  Er2  1  0.500000  0.177947  0.913688  1
  Er  Er3  1  0.500000  0.822053  0.086312  1
  Tm  Tm4  1  0.500000  0.444226  0.126914  1
  Tm  Tm5  1  0.500000  0.555774  0.873086  1
  Lu  Lu6  1  0.500000  0.055667  0.626572  1
  Lu  Lu7  1  0.500000  0.944333  0.373428  1
  B  B8  1  0.000000  0.106598  0.471169  1
  B  B9  1  0.000000  0.893402  0.528831  1
  B  B10  1  0.000000  0.391521  0.970687  1
  B  B11  1  0.000000  0.608479  0.029313  1
  B  B12  1  0.000000  0.132114  0.316946  1
  B  B13  1  0.000000  0.867886  0.683054  1
  B  B14  1  0.000000  0.367074  0.816363  1
  B  B15  1  0.000000  0.632926  0.183637  1
  B  B16  1  0.000000  0.053855  0.065382  1
  B  B17  1  0.000000  0.946145  0.934618  1
  B  B18  1  0.000000  0.445822  0.565266  1
  B  B19  1  0.000000  0.554178  0.434734  1
  B  B20  1  0.000000  0.482413  0.286895  1
  B  B21  1  0.000000  0.517587  0.713105  1
  B  B22  1  0.000000  0.017899  0.786214  1
  B  B23  1  0.000000  0.982101  0.213786  1
  B  B24  1  0.000000  0.249925  0.079569  1
  B  B25  1  0.000000  0.750075  0.920431  1
  B  B26  1  0.000000  0.249052  0.579413  1
  B  B27  1  0.000000  0.750948  0.420587  1
  B  B28  1  0.000000  0.294255  0.236479  1
  B  B29  1  0.000000  0.705745  0.763521  1
  B  B30  1  0.000000  0.204910  0.735851  1
  B  B31  1  0.000000  0.795090  0.264149  1
  Rh  Rh32  1  0.500000  0.139354  0.179637  1
  Rh  Rh33  1  0.500000  0.860646  0.820363  1
  Rh  Rh34  1  0.500000  0.359479  0.679154  1
  Rh  Rh35  1  0.500000  0.640521  0.320846  1
