# generated using pymatgen
data_Li8SmU4Ta3N16
_symmetry_space_group_name_H-M   'P 1'
_cell_length_a   20.94965807
_cell_length_b   4.31067703
_cell_length_c   4.31409503
_cell_angle_alpha   89.99666403
_cell_angle_beta   90.00331865
_cell_angle_gamma   90.00393831
_symmetry_Int_Tables_number   1
_chemical_formula_structural   Li8SmU4Ta3N16
_chemical_formula_sum   'Li8 Sm1 U4 Ta3 N16'
_cell_volume   389.59388353
_cell_formula_units_Z   1
loop_
 _symmetry_equiv_pos_site_id
 _symmetry_equiv_pos_as_xyz
  1  'x, y, z'
loop_
 _atom_site_type_symbol
 _atom_site_label
 _atom_site_symmetry_multiplicity
 _atom_site_fract_x
 _atom_site_fract_y
 _atom_site_fract_z
 _atom_site_occupancy
  Li  Li0  1  0.191089  0.999884  0.748130  1
  Li  Li1  1  0.797746  0.000749  0.252455  1
  Li  Li2  1  0.280834  0.999969  0.248217  1
  Li  Li3  1  0.698425  0.999887  0.751936  1
  Li  Li4  1  0.078338  0.499602  0.748631  1
  Li  Li5  1  0.908238  0.499818  0.250252  1
  Li  Li6  1  0.441152  0.499787  0.249743  1
  Li  Li7  1  0.601989  0.499227  0.750890  1
  Sm  Sm8  1  0.441204  0.000384  0.749790  1
  U  U9  1  0.578101  0.999926  0.250325  1
  U  U10  1  0.060615  0.999877  0.248962  1
  U  U11  1  0.928679  0.000711  0.749527  1
  U  U12  1  0.303380  0.500073  0.748406  1
  Ta  Ta13  1  0.700018  0.512249  0.254159  1
  Ta  Ta14  1  0.181989  0.499638  0.248194  1
  Ta  Ta15  1  0.806741  0.513668  0.755286  1
  N  N16  1  0.308074  0.000075  0.748502  1
  N  N17  1  0.688208  0.990269  0.252104  1
  N  N18  1  0.169235  0.000090  0.248450  1
  N  N19  1  0.820598  0.989710  0.751999  1
  N  N20  1  0.402149  0.500312  0.749057  1
  N  N21  1  0.601456  0.500712  0.250413  1
  N  N22  1  0.081932  0.499949  0.248762  1
  N  N23  1  0.907363  0.500896  0.749768  1
  N  N24  1  0.040602  0.000693  0.748966  1
  N  N25  1  0.948937  0.000604  0.249509  1
  N  N26  1  0.479199  0.001911  0.249864  1
  N  N27  1  0.571827  0.000022  0.750290  1
  N  N28  1  0.194339  0.499921  0.748532  1
  N  N29  1  0.799779  0.495217  0.249993  1
  N  N30  1  0.279860  0.499968  0.248395  1
  N  N31  1  0.707907  0.494201  0.750490  1
