# generated using pymatgen
data_Lu2Fe9P7Ru3
_symmetry_space_group_name_H-M   'P 1'
_cell_length_a   8.96098900
_cell_length_b   8.96098915
_cell_length_c   3.69499500
_cell_angle_alpha   90.00000000
_cell_angle_beta   90.00000000
_cell_angle_gamma   120.00000314
_symmetry_Int_Tables_number   1
_chemical_formula_structural   Lu2Fe9P7Ru3
_chemical_formula_sum   'Lu2 Fe9 P7 Ru3'
_cell_volume   256.95458331
_cell_formula_units_Z   1
loop_
 _symmetry_equiv_pos_site_id
 _symmetry_equiv_pos_as_xyz
  1  'x, y, z'
loop_
 _atom_site_type_symbol
 _atom_site_label
 _atom_site_symmetry_multiplicity
 _atom_site_fract_x
 _atom_site_fract_y
 _atom_site_fract_z
 _atom_site_occupancy
  Lu  Lu0  1  0.666667  0.333333  0.000000  1
  Lu  Lu1  1  0.000000  0.000000  0.500000  1
  Fe  Fe2  1  0.760751  0.724284  0.000000  1
  Fe  Fe3  1  0.275716  0.036468  0.000000  1
  Fe  Fe4  1  0.963532  0.239249  0.000000  1
  Fe  Fe5  1  0.490524  0.944180  0.000000  1
  Fe  Fe6  1  0.055820  0.546343  0.000000  1
  Fe  Fe7  1  0.453657  0.509476  0.000000  1
  Fe  Fe8  1  0.719631  0.104772  0.500000  1
  Fe  Fe9  1  0.895228  0.614860  0.500000  1
  Fe  Fe10  1  0.385140  0.280369  0.500000  1
  P  P11  1  0.452721  0.075974  0.500000  1
  P  P12  1  0.924026  0.376748  0.500000  1
  P  P13  1  0.623252  0.547279  0.500000  1
  P  P14  1  0.749629  0.970255  0.000000  1
  P  P15  1  0.029745  0.779374  0.000000  1
  P  P16  1  0.220626  0.250371  0.000000  1
  P  P17  1  0.333333  0.666667  0.000000  1
  Ru  Ru18  1  0.551013  0.764042  0.500000  1
  Ru  Ru19  1  0.235958  0.786972  0.500000  1
  Ru  Ru20  1  0.213028  0.448987  0.500000  1
