# generated using pymatgen
data_Li7Tb6Dy2CdSn8
_symmetry_space_group_name_H-M   'P 1'
_cell_length_a   9.46494600
_cell_length_b   9.45307039
_cell_length_c   7.32153410
_cell_angle_alpha   90.08196744
_cell_angle_beta   90.00000000
_cell_angle_gamma   120.04156579
_symmetry_Int_Tables_number   1
_chemical_formula_structural   Li7Tb6Dy2CdSn8
_chemical_formula_sum   'Li7 Tb6 Dy2 Cd1 Sn8'
_cell_volume   567.07578962
_cell_formula_units_Z   1
loop_
 _symmetry_equiv_pos_site_id
 _symmetry_equiv_pos_as_xyz
  1  'x, y, z'
loop_
 _atom_site_type_symbol
 _atom_site_label
 _atom_site_symmetry_multiplicity
 _atom_site_fract_x
 _atom_site_fract_y
 _atom_site_fract_z
 _atom_site_occupancy
  Li  Li0  1  0.164253  0.832310  0.289975  1
  Li  Li1  1  0.668057  0.832310  0.289975  1
  Li  Li2  1  0.833239  0.666480  0.791169  1
  Li  Li3  1  0.831914  0.165894  0.788712  1
  Li  Li4  1  0.333980  0.165894  0.788712  1
  Li  Li5  1  0.333321  0.666644  0.675040  1
  Li  Li6  1  0.668890  0.337780  0.172159  1
  Tb  Tb7  1  0.511507  0.023013  0.497324  1
  Tb  Tb8  1  0.516411  0.490037  0.494869  1
  Tb  Tb9  1  0.973627  0.490037  0.494869  1
  Tb  Tb10  1  0.488669  0.977338  0.988770  1
  Tb  Tb11  1  0.488558  0.512146  0.992595  1
  Tb  Tb12  1  0.023588  0.512146  0.992595  1
  Dy  Dy13  1  0.996817  0.993635  0.502816  1
  Dy  Dy14  1  0.000564  0.001130  0.999542  1
  Cd  Cd15  1  0.166487  0.332972  0.296985  1
  Sn  Sn16  1  0.165946  0.331890  0.735124  1
  Sn  Sn17  1  0.165673  0.832472  0.728211  1
  Sn  Sn18  1  0.666799  0.832472  0.728211  1
  Sn  Sn19  1  0.833998  0.667994  0.229938  1
  Sn  Sn20  1  0.822895  0.161596  0.224248  1
  Sn  Sn21  1  0.338701  0.161596  0.224248  1
  Sn  Sn22  1  0.339192  0.678385  0.255876  1
  Sn  Sn23  1  0.666917  0.333833  0.760033  1
