# generated using pymatgen
data_AcNdRh2F14
_symmetry_space_group_name_H-M   'P 1'
_cell_length_a   5.82898516
_cell_length_b   6.22531108
_cell_length_c   8.55733753
_cell_angle_alpha   101.87653532
_cell_angle_beta   90.13089424
_cell_angle_gamma   89.89539667
_symmetry_Int_Tables_number   1
_chemical_formula_structural   AcNdRh2F14
_chemical_formula_sum   'Ac1 Nd1 Rh2 F14'
_cell_volume   303.87388685
_cell_formula_units_Z   1
loop_
 _symmetry_equiv_pos_site_id
 _symmetry_equiv_pos_as_xyz
  1  'x, y, z'
loop_
 _atom_site_type_symbol
 _atom_site_label
 _atom_site_symmetry_multiplicity
 _atom_site_fract_x
 _atom_site_fract_y
 _atom_site_fract_z
 _atom_site_occupancy
  Ac  Ac0  1  0.704239  0.656948  0.686176  1
  Nd  Nd1  1  0.200249  0.337349  0.301849  1
  Rh  Rh2  1  0.710924  0.812739  0.223600  1
  Rh  Rh3  1  0.211297  0.190725  0.780009  1
  F  F4  1  0.894838  0.430810  0.465396  1
  F  F5  1  0.376564  0.546197  0.514018  1
  F  F6  1  0.406342  0.937904  0.776039  1
  F  F7  1  0.921981  0.055623  0.226578  1
  F  F8  1  0.943620  0.995983  0.765953  1
  F  F9  1  0.450300  0.022832  0.240632  1
  F  F10  1  0.016597  0.446986  0.791976  1
  F  F11  1  0.503224  0.563812  0.213916  1
  F  F12  1  0.702958  0.764740  0.994404  1
  F  F13  1  0.204437  0.238650  0.011315  1
  F  F14  1  0.720241  0.868093  0.453981  1
  F  F15  1  0.219804  0.138504  0.550004  1
  F  F16  1  0.484979  0.377182  0.795522  1
  F  F17  1  0.980125  0.614922  0.208633  1
