# generated using pymatgen
data_Pr15ThCd4Co3Ir
_symmetry_space_group_name_H-M   'P 1'
_cell_length_a   9.98111788
_cell_length_b   9.95059548
_cell_length_c   9.95059526
_cell_angle_alpha   59.65314821
_cell_angle_beta   59.84540087
_cell_angle_gamma   59.84540055
_symmetry_Int_Tables_number   1
_chemical_formula_structural   Pr15ThCd4Co3Ir
_chemical_formula_sum   'Pr15 Th1 Cd4 Co3 Ir1'
_cell_volume   695.34038489
_cell_formula_units_Z   1
loop_
 _symmetry_equiv_pos_site_id
 _symmetry_equiv_pos_as_xyz
  1  'x, y, z'
loop_
 _atom_site_type_symbol
 _atom_site_label
 _atom_site_symmetry_multiplicity
 _atom_site_fract_x
 _atom_site_fract_y
 _atom_site_fract_z
 _atom_site_occupancy
  Pr  Pr0  1  0.342345  0.349764  0.958179  1
  Pr  Pr1  1  0.342345  0.958179  0.349764  1
  Pr  Pr2  1  0.960042  0.346992  0.346992  1
  Pr  Pr3  1  0.815870  0.189467  0.189467  1
  Pr  Pr4  1  0.191278  0.809311  0.809311  1
  Pr  Pr5  1  0.190487  0.809883  0.188342  1
  Pr  Pr6  1  0.814111  0.189381  0.804231  1
  Pr  Pr7  1  0.190487  0.188342  0.809883  1
  Pr  Pr8  1  0.814111  0.804231  0.189381  1
  Pr  Pr9  1  0.939223  0.562650  0.562650  1
  Pr  Pr10  1  0.558974  0.940604  0.940604  1
  Pr  Pr11  1  0.561686  0.942938  0.558600  1
  Pr  Pr12  1  0.937707  0.559777  0.938090  1
  Pr  Pr13  1  0.561686  0.558600  0.942938  1
  Pr  Pr14  1  0.937707  0.938090  0.559777  1
  Th  Th15  1  0.334342  0.345493  0.345493  1
  Cd  Cd16  1  0.579520  0.579030  0.579030  1
  Cd  Cd17  1  0.578667  0.578610  0.261391  1
  Cd  Cd18  1  0.578667  0.261391  0.578610  1
  Cd  Cd19  1  0.260193  0.578940  0.578940  1
  Co  Co20  1  0.139908  0.141745  0.141745  1
  Co  Co21  1  0.149341  0.150904  0.569585  1
  Co  Co22  1  0.149341  0.569585  0.150904  1
  Ir  Ir23  1  0.571955  0.146088  0.146088  1
