# generated using pymatgen
data_HoMnNi4P3
_symmetry_space_group_name_H-M   'P 1'
_cell_length_a   3.67166700
_cell_length_b   10.38974000
_cell_length_c   11.90497800
_cell_angle_alpha   90.00000000
_cell_angle_beta   90.00000000
_cell_angle_gamma   90.00000000
_symmetry_Int_Tables_number   1
_chemical_formula_structural   HoMnNi4P3
_chemical_formula_sum   'Ho4 Mn4 Ni16 P12'
_cell_volume   454.14711849
_cell_formula_units_Z   4
loop_
 _symmetry_equiv_pos_site_id
 _symmetry_equiv_pos_as_xyz
  1  'x, y, z'
loop_
 _atom_site_type_symbol
 _atom_site_label
 _atom_site_symmetry_multiplicity
 _atom_site_fract_x
 _atom_site_fract_y
 _atom_site_fract_z
 _atom_site_occupancy
  Ho  Ho0  1  0.250000  0.582561  0.705176  1
  Ho  Ho1  1  0.250000  0.917439  0.205176  1
  Ho  Ho2  1  0.750000  0.417439  0.294824  1
  Ho  Ho3  1  0.750000  0.082561  0.794824  1
  Mn  Mn4  1  0.250000  0.708235  0.987240  1
  Mn  Mn5  1  0.250000  0.791765  0.487240  1
  Mn  Mn6  1  0.750000  0.291765  0.012760  1
  Mn  Mn7  1  0.750000  0.208235  0.512760  1
  Ni  Ni8  1  0.250000  0.407945  0.487454  1
  Ni  Ni9  1  0.250000  0.092055  0.987454  1
  Ni  Ni10  1  0.750000  0.592055  0.512546  1
  Ni  Ni11  1  0.750000  0.907945  0.012546  1
  Ni  Ni12  1  0.250000  0.219905  0.177580  1
  Ni  Ni13  1  0.250000  0.280095  0.677580  1
  Ni  Ni14  1  0.750000  0.780095  0.822420  1
  Ni  Ni15  1  0.750000  0.719905  0.322420  1
  Ni  Ni16  1  0.250000  0.882451  0.701197  1
  Ni  Ni17  1  0.250000  0.617549  0.201197  1
  Ni  Ni18  1  0.750000  0.117549  0.298803  1
  Ni  Ni19  1  0.750000  0.382451  0.798803  1
  Ni  Ni20  1  0.250000  0.466611  0.931424  1
  Ni  Ni21  1  0.250000  0.033389  0.431424  1
  Ni  Ni22  1  0.750000  0.533389  0.068576  1
  Ni  Ni23  1  0.750000  0.966611  0.568576  1
  P  P24  1  0.250000  0.417329  0.113706  1
  P  P25  1  0.250000  0.082671  0.613706  1
  P  P26  1  0.750000  0.582671  0.886294  1
  P  P27  1  0.750000  0.917329  0.386294  1
  P  P28  1  0.250000  0.267821  0.869747  1
  P  P29  1  0.250000  0.232179  0.369747  1
  P  P30  1  0.750000  0.732179  0.130253  1
  P  P31  1  0.750000  0.767821  0.630253  1
  P  P32  1  0.250000  0.600964  0.391369  1
  P  P33  1  0.250000  0.899036  0.891369  1
  P  P34  1  0.750000  0.399036  0.608631  1
  P  P35  1  0.750000  0.100964  0.108631  1
