# generated using pymatgen
data_Er4Tm4Tc3B24Rh
_symmetry_space_group_name_H-M   'P 1'
_cell_length_a   3.64391200
_cell_length_b   9.09470131
_cell_length_c   11.46945703
_cell_angle_alpha   90.11966161
_cell_angle_beta   90.00000000
_cell_angle_gamma   90.00000000
_symmetry_Int_Tables_number   1
_chemical_formula_structural   Er4Tm4Tc3B24Rh
_chemical_formula_sum   'Er4 Tm4 Tc3 B24 Rh1'
_cell_volume   380.10031749
_cell_formula_units_Z   1
loop_
 _symmetry_equiv_pos_site_id
 _symmetry_equiv_pos_as_xyz
  1  'x, y, z'
loop_
 _atom_site_type_symbol
 _atom_site_label
 _atom_site_symmetry_multiplicity
 _atom_site_fract_x
 _atom_site_fract_y
 _atom_site_fract_z
 _atom_site_occupancy
  Er  Er0  1  0.500000  0.318068  0.415907  1
  Er  Er1  1  0.500000  0.678326  0.591164  1
  Er  Er2  1  0.500000  0.177437  0.912789  1
  Er  Er3  1  0.500000  0.827038  0.081085  1
  Tm  Tm4  1  0.500000  0.440510  0.128823  1
  Tm  Tm5  1  0.500000  0.557095  0.870982  1
  Tm  Tm6  1  0.500000  0.056170  0.629594  1
  Tm  Tm7  1  0.500000  0.943902  0.369827  1
  Tc  Tc8  1  0.500000  0.138804  0.180512  1
  Tc  Tc9  1  0.500000  0.861225  0.820295  1
  Tc  Tc10  1  0.500000  0.362414  0.678143  1
  B  B11  1  0.000000  0.100962  0.471565  1
  B  B12  1  0.000000  0.895963  0.527983  1
  B  B13  1  0.000000  0.397809  0.972166  1
  B  B14  1  0.000000  0.603264  0.029048  1
  B  B15  1  0.000000  0.130467  0.315453  1
  B  B16  1  0.000000  0.868793  0.685002  1
  B  B17  1  0.000000  0.369631  0.814673  1
  B  B18  1  0.000000  0.631304  0.183670  1
  B  B19  1  0.000000  0.053604  0.066363  1
  B  B20  1  0.000000  0.947324  0.932762  1
  B  B21  1  0.000000  0.446427  0.566408  1
  B  B22  1  0.000000  0.553950  0.433998  1
  B  B23  1  0.000000  0.482579  0.287851  1
  B  B24  1  0.000000  0.518525  0.712436  1
  B  B25  1  0.000000  0.018051  0.787027  1
  B  B26  1  0.000000  0.982269  0.212022  1
  B  B27  1  0.000000  0.249744  0.081105  1
  B  B28  1  0.000000  0.751247  0.919033  1
  B  B29  1  0.000000  0.249768  0.580842  1
  B  B30  1  0.000000  0.749520  0.420372  1
  B  B31  1  0.000000  0.292180  0.235649  1
  B  B32  1  0.000000  0.707875  0.765514  1
  B  B33  1  0.000000  0.208094  0.734522  1
  B  B34  1  0.000000  0.791531  0.264663  1
  Rh  Rh35  1  0.500000  0.638127  0.320750  1
