# generated using pymatgen
data_Ho2Pa2TlPd4Pb
_symmetry_space_group_name_H-M   'P 1'
_cell_length_a   7.93882401
_cell_length_b   7.87014901
_cell_length_c   3.61709300
_cell_angle_alpha   90.00000000
_cell_angle_beta   90.00000000
_cell_angle_gamma   90.00546441
_symmetry_Int_Tables_number   1
_chemical_formula_structural   Ho2Pa2TlPd4Pb
_chemical_formula_sum   'Ho2 Pa2 Tl1 Pd4 Pb1'
_cell_volume   225.99498543
_cell_formula_units_Z   1
loop_
 _symmetry_equiv_pos_site_id
 _symmetry_equiv_pos_as_xyz
  1  'x, y, z'
loop_
 _atom_site_type_symbol
 _atom_site_label
 _atom_site_symmetry_multiplicity
 _atom_site_fract_x
 _atom_site_fract_y
 _atom_site_fract_z
 _atom_site_occupancy
  Ho  Ho0  1  0.828480  0.673637  0.500000  1
  Ho  Ho1  1  0.325551  0.828792  0.500000  1
  Pa  Pa2  1  0.670494  0.168555  0.500000  1
  Pa  Pa3  1  0.170908  0.331283  0.500000  1
  Tl  Tl4  1  0.002104  0.989290  0.000000  1
  Pd  Pd5  1  0.370996  0.137303  0.000000  1
  Pd  Pd6  1  0.126461  0.612617  0.000000  1
  Pd  Pd7  1  0.626784  0.888352  0.000000  1
  Pd  Pd8  1  0.874308  0.359772  0.000000  1
  Pb  Pb9  1  0.503914  0.510399  0.000000  1
