# generated using pymatgen
data_Er4TaReOs6
_symmetry_space_group_name_H-M   'P 1'
_cell_length_a   5.25707528
_cell_length_b   5.25707634
_cell_length_c   8.95471100
_cell_angle_alpha   90.00000000
_cell_angle_beta   90.00000000
_cell_angle_gamma   116.57719365
_symmetry_Int_Tables_number   1
_chemical_formula_structural   Er4TaReOs6
_chemical_formula_sum   'Er4 Ta1 Re1 Os6'
_cell_volume   221.32935364
_cell_formula_units_Z   1
loop_
 _symmetry_equiv_pos_site_id
 _symmetry_equiv_pos_as_xyz
  1  'x, y, z'
loop_
 _atom_site_type_symbol
 _atom_site_label
 _atom_site_symmetry_multiplicity
 _atom_site_fract_x
 _atom_site_fract_y
 _atom_site_fract_z
 _atom_site_occupancy
  Er  Er0  1  0.328435  0.671565  0.438976  1
  Er  Er1  1  0.667670  0.332330  0.567058  1
  Er  Er2  1  0.667670  0.332330  0.932942  1
  Er  Er3  1  0.328435  0.671565  0.061024  1
  Ta  Ta4  1  0.837459  0.162541  0.250000  1
  Re  Re5  1  0.171260  0.828740  0.750000  1
  Os  Os6  1  0.000465  0.999535  0.505070  1
  Os  Os7  1  0.000465  0.999535  0.994930  1
  Os  Os8  1  0.822303  0.652063  0.250000  1
  Os  Os9  1  0.347937  0.177697  0.250000  1
  Os  Os10  1  0.172911  0.345010  0.750000  1
  Os  Os11  1  0.654990  0.827089  0.750000  1
