# generated using pymatgen
data_Pu5TaO20
_symmetry_space_group_name_H-M   'P 1'
_cell_length_a   7.94412556
_cell_length_b   7.95817907
_cell_length_c   7.81557700
_cell_angle_alpha   88.92271660
_cell_angle_beta   90.96321807
_cell_angle_gamma   119.41529941
_symmetry_Int_Tables_number   1
_chemical_formula_structural   Pu5TaO20
_chemical_formula_sum   'Pu5 Ta1 O20'
_cell_volume   430.31554475
_cell_formula_units_Z   1
loop_
 _symmetry_equiv_pos_site_id
 _symmetry_equiv_pos_as_xyz
  1  'x, y, z'
loop_
 _atom_site_type_symbol
 _atom_site_label
 _atom_site_symmetry_multiplicity
 _atom_site_fract_x
 _atom_site_fract_y
 _atom_site_fract_z
 _atom_site_occupancy
  Pu  Pu0  1  0.013460  0.987822  0.491796  1
  Pu  Pu1  1  0.519343  0.479104  0.006877  1
  Pu  Pu2  1  0.269321  0.735365  0.749157  1
  Pu  Pu3  1  0.262347  0.730714  0.248920  1
  Pu  Pu4  1  0.770764  0.234090  0.753046  1
  Ta  Ta5  1  0.761671  0.230210  0.252723  1
  O  O6  1  0.130453  0.862873  0.290459  1
  O  O7  1  0.122862  0.884313  0.672385  1
  O  O8  1  0.622113  0.369938  0.191937  1
  O  O9  1  0.638888  0.366579  0.794193  1
  O  O10  1  0.904470  0.103411  0.711454  1
  O  O11  1  0.904430  0.091393  0.308432  1
  O  O12  1  0.417437  0.587039  0.823774  1
  O  O13  1  0.392970  0.597751  0.205898  1
  O  O14  1  0.030436  0.496184  0.748275  1
  O  O15  1  0.513427  0.981139  0.248527  1
  O  O16  1  0.509598  0.973278  0.752640  1
  O  O17  1  0.012800  0.482548  0.250600  1
  O  O18  1  0.312792  0.693086  0.517619  1
  O  O19  1  0.801217  0.204193  0.006450  1
  O  O20  1  0.736678  0.262496  0.497903  1
  O  O21  1  0.222573  0.776715  0.980038  1
  O  O22  1  0.235557  0.208541  0.487181  1
  O  O23  1  0.791337  0.767171  0.496675  1
  O  O24  1  0.740474  0.700767  0.011247  1
  O  O25  1  0.298582  0.257280  0.001794  1
