# generated using pymatgen
data_Lu3Ta2B4Ru10W
_symmetry_space_group_name_H-M   'P 1'
_cell_length_a   9.53055130
_cell_length_b   9.52427403
_cell_length_c   3.09608300
_cell_angle_alpha   90.00000000
_cell_angle_beta   90.00000000
_cell_angle_gamma   90.17344862
_symmetry_Int_Tables_number   1
_chemical_formula_structural   Lu3Ta2B4Ru10W
_chemical_formula_sum   'Lu3 Ta2 B4 Ru10 W1'
_cell_volume   281.03506487
_cell_formula_units_Z   1
loop_
 _symmetry_equiv_pos_site_id
 _symmetry_equiv_pos_as_xyz
  1  'x, y, z'
loop_
 _atom_site_type_symbol
 _atom_site_label
 _atom_site_symmetry_multiplicity
 _atom_site_fract_x
 _atom_site_fract_y
 _atom_site_fract_z
 _atom_site_occupancy
  Lu  Lu0  1  0.824976  0.674941  0.000000  1
  Lu  Lu1  1  0.174936  0.324229  0.000000  1
  Lu  Lu2  1  0.324798  0.825585  0.000000  1
  Ta  Ta3  1  0.676629  0.175206  0.000000  1
  Ta  Ta4  1  0.003467  0.997954  0.000000  1
  B  B5  1  0.624104  0.880901  0.000000  1
  B  B6  1  0.379335  0.122846  0.000000  1
  B  B7  1  0.117251  0.619236  0.000000  1
  B  B8  1  0.878019  0.377193  0.000000  1
  Ru  Ru9  1  0.569897  0.718374  0.500000  1
  Ru  Ru10  1  0.440903  0.283179  0.500000  1
  Ru  Ru11  1  0.071072  0.780035  0.500000  1
  Ru  Ru12  1  0.915621  0.214075  0.500000  1
  Ru  Ru13  1  0.283598  0.567438  0.500000  1
  Ru  Ru14  1  0.711504  0.419859  0.500000  1
  Ru  Ru15  1  0.221579  0.072275  0.500000  1
  Ru  Ru16  1  0.780278  0.938361  0.500000  1
  Ru  Ru17  1  0.508030  0.008333  0.500000  1
  Ru  Ru18  1  0.996799  0.496028  0.500000  1
  W  W19  1  0.497203  0.503952  0.000000  1
