# generated using pymatgen
data_Cs8Sb4Pb
_symmetry_space_group_name_H-M   'P 1'
_cell_length_a   12.65057807
_cell_length_b   12.65057817
_cell_length_c   12.65057800
_cell_angle_alpha   60.00000044
_cell_angle_beta   60.00000018
_cell_angle_gamma   60.00000189
_symmetry_Int_Tables_number   1
_chemical_formula_structural   Cs8Sb4Pb
_chemical_formula_sum   'Cs16 Sb8 Pb2'
_cell_volume   1431.58165586
_cell_formula_units_Z   2
loop_
 _symmetry_equiv_pos_site_id
 _symmetry_equiv_pos_as_xyz
  1  'x, y, z'
loop_
 _atom_site_type_symbol
 _atom_site_label
 _atom_site_symmetry_multiplicity
 _atom_site_fract_x
 _atom_site_fract_y
 _atom_site_fract_z
 _atom_site_occupancy
  Cs  Cs0  1  0.625000  0.125000  0.625000  1
  Cs  Cs1  1  0.625000  0.625000  0.125000  1
  Cs  Cs2  1  0.125000  0.625000  0.625000  1
  Cs  Cs3  1  0.625000  0.625000  0.625000  1
  Cs  Cs4  1  0.022668  0.022668  0.477332  1
  Cs  Cs5  1  0.772668  0.227332  0.227332  1
  Cs  Cs6  1  0.227332  0.772668  0.772668  1
  Cs  Cs7  1  0.772668  0.772668  0.227332  1
  Cs  Cs8  1  0.772668  0.227332  0.772668  1
  Cs  Cs9  1  0.227332  0.772668  0.227332  1
  Cs  Cs10  1  0.477332  0.022668  0.477332  1
  Cs  Cs11  1  0.477332  0.022668  0.022668  1
  Cs  Cs12  1  0.022668  0.477332  0.477332  1
  Cs  Cs13  1  0.022668  0.477332  0.022668  1
  Cs  Cs14  1  0.227332  0.227332  0.772668  1
  Cs  Cs15  1  0.477332  0.477332  0.022668  1
  Sb  Sb16  1  0.400277  0.799170  0.400277  1
  Sb  Sb17  1  0.849723  0.849723  0.450830  1
  Sb  Sb18  1  0.450830  0.849723  0.849723  1
  Sb  Sb19  1  0.849723  0.849723  0.849723  1
  Sb  Sb20  1  0.799170  0.400277  0.400277  1
  Sb  Sb21  1  0.400277  0.400277  0.400277  1
  Sb  Sb22  1  0.400277  0.400277  0.799170  1
  Sb  Sb23  1  0.849723  0.450830  0.849723  1
  Pb  Pb24  1  0.750000  0.750000  0.750000  1
  Pb  Pb25  1  0.500000  0.500000  0.500000  1
