# generated using pymatgen
data_Tb3Ho5Hf11Si16Pd
_symmetry_space_group_name_H-M   'P 1'
_cell_length_a   7.27729528
_cell_length_b   7.27786351
_cell_length_c   13.24566513
_cell_angle_alpha   89.78684961
_cell_angle_beta   90.19570657
_cell_angle_gamma   89.89900703
_symmetry_Int_Tables_number   1
_chemical_formula_structural   Tb3Ho5Hf11Si16Pd
_chemical_formula_sum   'Tb3 Ho5 Hf11 Si16 Pd1'
_cell_volume   701.52225290
_cell_formula_units_Z   1
loop_
 _symmetry_equiv_pos_site_id
 _symmetry_equiv_pos_as_xyz
  1  'x, y, z'
loop_
 _atom_site_type_symbol
 _atom_site_label
 _atom_site_symmetry_multiplicity
 _atom_site_fract_x
 _atom_site_fract_y
 _atom_site_fract_z
 _atom_site_occupancy
  Tb  Tb0  1  0.494655  0.155718  0.535445  1
  Tb  Tb1  1  0.345547  0.997565  0.789592  1
  Tb  Tb2  1  0.653837  0.005483  0.282982  1
  Ho  Ho3  1  0.997912  0.346063  0.210680  1
  Ho  Ho4  1  0.005010  0.653348  0.716965  1
  Ho  Ho5  1  0.155123  0.495482  0.464494  1
  Ho  Ho6  1  0.499227  0.848416  0.032868  1
  Ho  Ho7  1  0.848494  0.499135  0.967162  1
  Hf  Hf8  1  0.825013  0.824444  0.500003  1
  Hf  Hf9  1  0.322097  0.676969  0.248414  1
  Hf  Hf10  1  0.677440  0.322608  0.751494  1
  Hf  Hf11  1  0.145791  0.996485  0.373189  1
  Hf  Hf12  1  0.856209  0.003146  0.879066  1
  Hf  Hf13  1  0.503663  0.646351  0.626375  1
  Hf  Hf14  1  0.355172  0.493570  0.877823  1
  Hf  Hf15  1  0.493416  0.355160  0.122175  1
  Hf  Hf16  1  0.646391  0.503436  0.373579  1
  Hf  Hf17  1  0.996943  0.145883  0.626801  1
  Hf  Hf18  1  0.003062  0.855834  0.120907  1
  Si  Si19  1  0.357876  0.296922  0.315554  1
  Si  Si20  1  0.641133  0.704127  0.819993  1
  Si  Si21  1  0.206283  0.860047  0.568605  1
  Si  Si22  1  0.133332  0.779809  0.928808  1
  Si  Si23  1  0.781674  0.134384  0.071119  1
  Si  Si24  1  0.862018  0.207799  0.431492  1
  Si  Si25  1  0.295294  0.359976  0.684496  1
  Si  Si26  1  0.705064  0.639726  0.179723  1
  Si  Si27  1  0.291885  0.055807  0.184669  1
  Si  Si28  1  0.705657  0.949275  0.686998  1
  Si  Si29  1  0.449445  0.795389  0.435155  1
  Si  Si30  1  0.208340  0.560066  0.063586  1
  Si  Si31  1  0.561186  0.209001  0.936588  1
  Si  Si32  1  0.796998  0.450697  0.564886  1
  Si  Si33  1  0.054953  0.293396  0.815030  1
  Si  Si34  1  0.950289  0.704182  0.313056  1
  Pd  Pd35  1  0.173572  0.174296  0.000229  1
