# generated using pymatgen
data_SrAl5SiPd
_symmetry_space_group_name_H-M   'P 1'
_cell_length_a   4.32065800
_cell_length_b   4.32065800
_cell_length_c   8.35319700
_cell_angle_alpha   90.00000000
_cell_angle_beta   90.00000000
_cell_angle_gamma   90.00000000
_symmetry_Int_Tables_number   1
_chemical_formula_structural   SrAl5SiPd
_chemical_formula_sum   'Sr1 Al5 Si1 Pd1'
_cell_volume   155.93819624
_cell_formula_units_Z   1
loop_
 _symmetry_equiv_pos_site_id
 _symmetry_equiv_pos_as_xyz
  1  'x, y, z'
loop_
 _atom_site_type_symbol
 _atom_site_label
 _atom_site_symmetry_multiplicity
 _atom_site_fract_x
 _atom_site_fract_y
 _atom_site_fract_z
 _atom_site_occupancy
  Sr  Sr0  1  0.000000  0.000000  0.497210  1
  Al  Al1  1  0.500000  0.500000  0.646007  1
  Al  Al2  1  0.000000  0.500000  0.169425  1
  Al  Al3  1  0.000000  0.500000  0.832779  1
  Al  Al4  1  0.500000  0.000000  0.169425  1
  Al  Al5  1  0.500000  0.000000  0.832779  1
  Si  Si6  1  0.500000  0.500000  0.347334  1
  Pd  Pd7  1  0.000000  0.000000  0.005041  1
