# generated using pymatgen
data_Er10In4Hg4Pd3Pt
_symmetry_space_group_name_H-M   'P 1'
_cell_length_a   3.59748300
_cell_length_b   7.99192960
_cell_length_c   18.19694964
_cell_angle_alpha   90.07242740
_cell_angle_beta   90.00000000
_cell_angle_gamma   90.00000000
_symmetry_Int_Tables_number   1
_chemical_formula_structural   Er10In4Hg4Pd3Pt
_chemical_formula_sum   'Er10 In4 Hg4 Pd3 Pt1'
_cell_volume   523.17700311
_cell_formula_units_Z   1
loop_
 _symmetry_equiv_pos_site_id
 _symmetry_equiv_pos_as_xyz
  1  'x, y, z'
loop_
 _atom_site_type_symbol
 _atom_site_label
 _atom_site_symmetry_multiplicity
 _atom_site_fract_x
 _atom_site_fract_y
 _atom_site_fract_z
 _atom_site_occupancy
  Er  Er0  1  0.000000  0.499185  0.500248  1
  Er  Er1  1  0.000000  0.998887  0.999674  1
  Er  Er2  1  0.000000  0.742989  0.284552  1
  Er  Er3  1  0.000000  0.253165  0.714481  1
  Er  Er4  1  0.000000  0.754168  0.785365  1
  Er  Er5  1  0.000000  0.251733  0.215183  1
  Er  Er6  1  0.000000  0.610983  0.085161  1
  Er  Er7  1  0.000000  0.390825  0.916131  1
  Er  Er8  1  0.000000  0.889356  0.583665  1
  Er  Er9  1  0.000000  0.108405  0.415932  1
  In  In10  1  0.500000  0.579689  0.649138  1
  In  In11  1  0.500000  0.419082  0.352463  1
  In  In12  1  0.500000  0.924135  0.149251  1
  In  In13  1  0.500000  0.080402  0.850770  1
  Hg  Hg14  1  0.500000  0.711481  0.933801  1
  Hg  Hg15  1  0.500000  0.286965  0.063870  1
  Hg  Hg16  1  0.500000  0.787736  0.434910  1
  Hg  Hg17  1  0.500000  0.210581  0.565489  1
  Pd  Pd18  1  0.500000  0.465631  0.801409  1
  Pd  Pd19  1  0.500000  0.964773  0.698112  1
  Pd  Pd20  1  0.500000  0.034596  0.301686  1
  Pt  Pt21  1  0.500000  0.535232  0.198709  1
