# generated using pymatgen
data_Dy2Re3Ir
_symmetry_space_group_name_H-M   'P 1'
_cell_length_a   5.27232500
_cell_length_b   5.27232528
_cell_length_c   9.29147900
_cell_angle_alpha   90.00000000
_cell_angle_beta   90.00000000
_cell_angle_gamma   119.99999196
_symmetry_Int_Tables_number   1
_chemical_formula_structural   Dy2Re3Ir
_chemical_formula_sum   'Dy4 Re6 Ir2'
_cell_volume   223.67625698
_cell_formula_units_Z   2
loop_
 _symmetry_equiv_pos_site_id
 _symmetry_equiv_pos_as_xyz
  1  'x, y, z'
loop_
 _atom_site_type_symbol
 _atom_site_label
 _atom_site_symmetry_multiplicity
 _atom_site_fract_x
 _atom_site_fract_y
 _atom_site_fract_z
 _atom_site_occupancy
  Dy  Dy0  1  0.666668  0.333333  0.062989  1
  Dy  Dy1  1  0.666668  0.333333  0.437011  1
  Dy  Dy2  1  0.333333  0.666667  0.562988  1
  Dy  Dy3  1  0.333333  0.666667  0.937012  1
  Re  Re4  1  0.170176  0.340353  0.250000  1
  Re  Re5  1  0.170178  0.829824  0.250000  1
  Re  Re6  1  0.659646  0.829824  0.250000  1
  Re  Re7  1  0.340353  0.170176  0.750000  1
  Re  Re8  1  0.829823  0.170176  0.750000  1
  Re  Re9  1  0.829825  0.659647  0.750000  1
  Ir  Ir10  1  0.000000  0.000000  0.000000  1
  Ir  Ir11  1  0.000000  0.000000  0.500000  1
