# generated using pymatgen
data_Nd2SiIrI
_symmetry_space_group_name_H-M   'P 1'
_cell_length_a   4.30659500
_cell_length_b   4.30659590
_cell_length_c   17.07753500
_cell_angle_alpha   90.00000000
_cell_angle_beta   90.00000000
_cell_angle_gamma   119.99998542
_symmetry_Int_Tables_number   1
_chemical_formula_structural   Nd2SiIrI
_chemical_formula_sum   'Nd4 Si2 Ir2 I2'
_cell_volume   274.29887973
_cell_formula_units_Z   2
loop_
 _symmetry_equiv_pos_site_id
 _symmetry_equiv_pos_as_xyz
  1  'x, y, z'
loop_
 _atom_site_type_symbol
 _atom_site_label
 _atom_site_symmetry_multiplicity
 _atom_site_fract_x
 _atom_site_fract_y
 _atom_site_fract_z
 _atom_site_occupancy
  Nd  Nd0  1  0.000000  0.000000  0.105026  1
  Nd  Nd1  1  0.000000  0.000000  0.899188  1
  Nd  Nd2  1  0.000000  0.000000  0.601111  1
  Nd  Nd3  1  0.000000  0.000000  0.394687  1
  Si  Si4  1  0.666667  0.333333  0.494595  1
  Si  Si5  1  0.666667  0.333333  0.005410  1
  Ir  Ir6  1  0.333333  0.666667  0.996478  1
  Ir  Ir7  1  0.333333  0.666667  0.503473  1
  I  I8  1  0.333333  0.666667  0.249284  1
  I  I9  1  0.666667  0.333333  0.750750  1
