# generated using pymatgen
data_ErTh7(Si3Tc)4
_symmetry_space_group_name_H-M   'P 1'
_cell_length_a   8.35449700
_cell_length_b   8.35449756
_cell_length_c   8.11028800
_cell_angle_alpha   90.00000000
_cell_angle_beta   90.00000000
_cell_angle_gamma   120.00000173
_symmetry_Int_Tables_number   1
_chemical_formula_structural   ErTh7(Si3Tc)4
_chemical_formula_sum   'Er1 Th7 Si12 Tc4'
_cell_volume   490.23864667
_cell_formula_units_Z   1
loop_
 _symmetry_equiv_pos_site_id
 _symmetry_equiv_pos_as_xyz
  1  'x, y, z'
loop_
 _atom_site_type_symbol
 _atom_site_label
 _atom_site_symmetry_multiplicity
 _atom_site_fract_x
 _atom_site_fract_y
 _atom_site_fract_z
 _atom_site_occupancy
  Er  Er0  1  0.000000  0.000000  0.750000  1
  Th  Th1  1  0.500716  0.001434  0.250000  1
  Th  Th2  1  0.499285  0.998570  0.750000  1
  Th  Th3  1  0.998566  0.499284  0.250000  1
  Th  Th4  1  0.001430  0.500715  0.750000  1
  Th  Th5  1  0.500716  0.499284  0.250000  1
  Th  Th6  1  0.499285  0.500715  0.750000  1
  Th  Th7  1  0.000000  0.000000  0.250000  1
  Si  Si8  1  0.164413  0.328826  0.997556  1
  Si  Si9  1  0.835661  0.671322  0.995827  1
  Si  Si10  1  0.671174  0.835587  0.997556  1
  Si  Si11  1  0.835661  0.671322  0.504173  1
  Si  Si12  1  0.328678  0.164339  0.995827  1
  Si  Si13  1  0.164413  0.328826  0.502444  1
  Si  Si14  1  0.164413  0.835587  0.997556  1
  Si  Si15  1  0.328678  0.164339  0.504173  1
  Si  Si16  1  0.835661  0.164339  0.995827  1
  Si  Si17  1  0.671174  0.835587  0.502444  1
  Si  Si18  1  0.835661  0.164339  0.504173  1
  Si  Si19  1  0.164413  0.835587  0.502444  1
  Tc  Tc20  1  0.333333  0.666667  0.004693  1
  Tc  Tc21  1  0.666667  0.333333  0.000118  1
  Tc  Tc22  1  0.666667  0.333333  0.499882  1
  Tc  Tc23  1  0.333333  0.666667  0.495307  1
