# generated using pymatgen
data_TbLuSn(PRh2)6
_symmetry_space_group_name_H-M   'P 1'
_cell_length_a   3.87054146
_cell_length_b   9.76566273
_cell_length_c   9.78077005
_cell_angle_alpha   119.99103701
_cell_angle_beta   89.96820294
_cell_angle_gamma   89.95862114
_symmetry_Int_Tables_number   1
_chemical_formula_structural   TbLuSn(PRh2)6
_chemical_formula_sum   'Tb1 Lu1 Sn1 P6 Rh12'
_cell_volume   320.19606162
_cell_formula_units_Z   1
loop_
 _symmetry_equiv_pos_site_id
 _symmetry_equiv_pos_as_xyz
  1  'x, y, z'
loop_
 _atom_site_type_symbol
 _atom_site_label
 _atom_site_symmetry_multiplicity
 _atom_site_fract_x
 _atom_site_fract_y
 _atom_site_fract_z
 _atom_site_occupancy
  Tb  Tb0  1  0.752338  0.333253  0.666575  1
  Lu  Lu1  1  0.247591  0.666619  0.333328  1
  Sn  Sn2  1  0.491637  0.999933  0.999954  1
  P  P3  1  0.746455  0.881535  0.593852  1
  P  P4  1  0.746469  0.406126  0.287720  1
  P  P5  1  0.746763  0.712285  0.118416  1
  P  P6  1  0.253927  0.118724  0.405783  1
  P  P7  1  0.253622  0.594116  0.712864  1
  P  P8  1  0.253462  0.287045  0.881287  1
  Rh  Rh9  1  0.758881  0.126146  0.838688  1
  Rh  Rh10  1  0.759588  0.161246  0.287381  1
  Rh  Rh11  1  0.758933  0.712646  0.873894  1
  Rh  Rh12  1  0.242219  0.873671  0.162520  1
  Rh  Rh13  1  0.241749  0.837619  0.711227  1
  Rh  Rh14  1  0.242454  0.288938  0.126307  1
  Rh  Rh15  1  0.747956  0.615239  0.543669  1
  Rh  Rh16  1  0.748374  0.456357  0.071506  1
  Rh  Rh17  1  0.748210  0.928474  0.384990  1
  Rh  Rh18  1  0.253282  0.387080  0.452856  1
  Rh  Rh19  1  0.252695  0.547034  0.934263  1
  Rh  Rh20  1  0.253393  0.065915  0.612919  1
