# generated using pymatgen
data_Lu4ReTc2Os5
_symmetry_space_group_name_H-M   'P 1'
_cell_length_a   5.40006837
_cell_length_b   5.24319161
_cell_length_c   8.82518400
_cell_angle_alpha   90.00000000
_cell_angle_beta   90.00000000
_cell_angle_gamma   121.52714105
_symmetry_Int_Tables_number   1
_chemical_formula_structural   Lu4ReTc2Os5
_chemical_formula_sum   'Lu4 Re1 Tc2 Os5'
_cell_volume   212.98960466
_cell_formula_units_Z   1
loop_
 _symmetry_equiv_pos_site_id
 _symmetry_equiv_pos_as_xyz
  1  'x, y, z'
loop_
 _atom_site_type_symbol
 _atom_site_label
 _atom_site_symmetry_multiplicity
 _atom_site_fract_x
 _atom_site_fract_y
 _atom_site_fract_z
 _atom_site_occupancy
  Lu  Lu0  1  0.334737  0.666197  0.437248  1
  Lu  Lu1  1  0.669845  0.340387  0.565507  1
  Lu  Lu2  1  0.669845  0.340387  0.934493  1
  Lu  Lu3  1  0.334737  0.666197  0.062752  1
  Re  Re4  1  0.163891  0.332088  0.750000  1
  Tc  Tc5  1  0.339601  0.169079  0.250000  1
  Tc  Tc6  1  0.821632  0.647095  0.250000  1
  Os  Os7  1  0.170735  0.824069  0.750000  1
  Os  Os8  1  0.648040  0.821612  0.750000  1
  Os  Os9  1  0.009807  0.011751  0.000359  1
  Os  Os10  1  0.827323  0.169390  0.250000  1
  Os  Os11  1  0.009807  0.011751  0.499641  1
