# generated using pymatgen
data_LuAlCu5
_symmetry_space_group_name_H-M   'P 1'
_cell_length_a   5.11215175
_cell_length_b   5.11215197
_cell_length_c   5.11215200
_cell_angle_alpha   103.19504589
_cell_angle_beta   103.19504646
_cell_angle_gamma   122.91994059
_symmetry_Int_Tables_number   1
_chemical_formula_structural   LuAlCu5
_chemical_formula_sum   'Lu1 Al1 Cu5'
_cell_volume   98.52121459
_cell_formula_units_Z   1
loop_
 _symmetry_equiv_pos_site_id
 _symmetry_equiv_pos_as_xyz
  1  'x, y, z'
loop_
 _atom_site_type_symbol
 _atom_site_label
 _atom_site_symmetry_multiplicity
 _atom_site_fract_x
 _atom_site_fract_y
 _atom_site_fract_z
 _atom_site_occupancy
  Lu  Lu0  1  0.000000  0.000000  0.000000  1
  Al  Al1  1  0.250000  0.750000  0.500000  1
  Cu  Cu2  1  0.692723  0.307277  0.000000  1
  Cu  Cu3  1  0.307277  0.692723  0.000000  1
  Cu  Cu4  1  0.307277  0.307277  0.614555  1
  Cu  Cu5  1  0.692723  0.692723  0.385445  1
  Cu  Cu6  1  0.750000  0.250000  0.500000  1
