# generated using pymatgen
data_ThAlFe4Re7
_symmetry_space_group_name_H-M   'P 1'
_cell_length_a   4.83175626
_cell_length_b   6.77355614
_cell_length_c   6.77355559
_cell_angle_alpha   81.78098605
_cell_angle_beta   69.10457251
_cell_angle_gamma   69.10457076
_symmetry_Int_Tables_number   1
_chemical_formula_structural   ThAlFe4Re7
_chemical_formula_sum   'Th1 Al1 Fe4 Re7'
_cell_volume   193.45416730
_cell_formula_units_Z   1
loop_
 _symmetry_equiv_pos_site_id
 _symmetry_equiv_pos_as_xyz
  1  'x, y, z'
loop_
 _atom_site_type_symbol
 _atom_site_label
 _atom_site_symmetry_multiplicity
 _atom_site_fract_x
 _atom_site_fract_y
 _atom_site_fract_z
 _atom_site_occupancy
  Th  Th0  1  0.995645  0.004355  0.004355  1
  Al  Al1  1  0.272946  0.227054  0.227054  1
  Fe  Fe2  1  0.003547  0.999315  0.490985  1
  Fe  Fe3  1  0.506153  0.999315  0.490985  1
  Fe  Fe4  1  0.506153  0.490985  0.999315  1
  Fe  Fe5  1  0.003547  0.490985  0.999315  1
  Re  Re6  1  0.999417  0.357465  0.643700  1
  Re  Re7  1  0.999417  0.643700  0.357465  1
  Re  Re8  1  0.634790  0.365210  0.365210  1
  Re  Re9  1  0.353349  0.646651  0.646651  1
  Re  Re10  1  0.504409  0.775825  0.215357  1
  Re  Re11  1  0.504409  0.215357  0.775825  1
  Re  Re12  1  0.716218  0.783782  0.783782  1
