# generated using pymatgen
data_Yb3(SiPd)2
_symmetry_space_group_name_H-M   'P 1'
_cell_length_a   5.57929300
_cell_length_b   8.00574200
_cell_length_c   13.26152000
_cell_angle_alpha   90.00000000
_cell_angle_beta   90.00000000
_cell_angle_gamma   90.00000000
_symmetry_Int_Tables_number   1
_chemical_formula_structural   Yb3(SiPd)2
_chemical_formula_sum   'Yb12 Si8 Pd8'
_cell_volume   592.34409568
_cell_formula_units_Z   4
loop_
 _symmetry_equiv_pos_site_id
 _symmetry_equiv_pos_as_xyz
  1  'x, y, z'
loop_
 _atom_site_type_symbol
 _atom_site_label
 _atom_site_symmetry_multiplicity
 _atom_site_fract_x
 _atom_site_fract_y
 _atom_site_fract_z
 _atom_site_occupancy
  Yb  Yb0  1  0.654453  0.248442  0.250000  1
  Yb  Yb1  1  0.345547  0.751558  0.750000  1
  Yb  Yb2  1  0.345547  0.748442  0.250000  1
  Yb  Yb3  1  0.654453  0.251558  0.750000  1
  Yb  Yb4  1  0.139977  0.391529  0.102723  1
  Yb  Yb5  1  0.860023  0.608471  0.897277  1
  Yb  Yb6  1  0.860023  0.608471  0.602723  1
  Yb  Yb7  1  0.860023  0.891529  0.397277  1
  Yb  Yb8  1  0.139977  0.391529  0.397277  1
  Yb  Yb9  1  0.139977  0.108471  0.602723  1
  Yb  Yb10  1  0.139977  0.108471  0.897277  1
  Yb  Yb11  1  0.860023  0.891529  0.102723  1
  Si  Si12  1  0.162532  0.099702  0.250000  1
  Si  Si13  1  0.837468  0.900298  0.750000  1
  Si  Si14  1  0.837468  0.599702  0.250000  1
  Si  Si15  1  0.162532  0.400298  0.750000  1
  Si  Si16  1  0.628676  0.250000  0.000000  1
  Si  Si17  1  0.371324  0.750000  0.000000  1
  Si  Si18  1  0.371324  0.750000  0.500000  1
  Si  Si19  1  0.628676  0.250000  0.500000  1
  Pd  Pd20  1  0.376107  0.032888  0.090231  1
  Pd  Pd21  1  0.623893  0.967112  0.909769  1
  Pd  Pd22  1  0.623893  0.967112  0.590231  1
  Pd  Pd23  1  0.623893  0.532888  0.409769  1
  Pd  Pd24  1  0.376107  0.032888  0.409769  1
  Pd  Pd25  1  0.376107  0.467112  0.590231  1
  Pd  Pd26  1  0.376107  0.467112  0.909769  1
  Pd  Pd27  1  0.623893  0.532888  0.090231  1
