# generated using pymatgen
data_Er5RuWC7
_symmetry_space_group_name_H-M   'P 1'
_cell_length_a   8.23387341
_cell_length_b   8.23387363
_cell_length_c   3.44129400
_cell_angle_alpha   90.00000000
_cell_angle_beta   90.00000000
_cell_angle_gamma   121.89243415
_symmetry_Int_Tables_number   1
_chemical_formula_structural   Er5RuWC7
_chemical_formula_sum   'Er5 Ru1 W1 C7'
_cell_volume   198.08840662
_cell_formula_units_Z   1
loop_
 _symmetry_equiv_pos_site_id
 _symmetry_equiv_pos_as_xyz
  1  'x, y, z'
loop_
 _atom_site_type_symbol
 _atom_site_label
 _atom_site_symmetry_multiplicity
 _atom_site_fract_x
 _atom_site_fract_y
 _atom_site_fract_z
 _atom_site_occupancy
  Er  Er0  1  0.502014  0.497986  0.000000  1
  Er  Er1  1  0.074224  0.334629  0.500000  1
  Er  Er2  1  0.920301  0.660146  0.500000  1
  Er  Er3  1  0.665371  0.925776  0.500000  1
  Er  Er4  1  0.339854  0.079699  0.500000  1
  Ru  Ru5  1  0.711034  0.288966  0.000000  1
  W  W6  1  0.286363  0.713637  0.000000  1
  C  C7  1  0.628184  0.371816  0.500000  1
  C  C8  1  0.376835  0.623165  0.500000  1
  C  C9  1  0.999228  0.000772  0.000000  1
  C  C10  1  0.169288  0.170210  0.000000  1
  C  C11  1  0.829790  0.830712  0.000000  1
  C  C12  1  0.001129  0.503613  0.000000  1
  C  C13  1  0.496387  0.998871  0.000000  1
