# generated using pymatgen
data_Dy5FeSb2
_symmetry_space_group_name_H-M   'P 1'
_cell_length_a   7.89520900
_cell_length_b   8.82740600
_cell_length_c   12.23261800
_cell_angle_alpha   90.00000000
_cell_angle_beta   90.00000000
_cell_angle_gamma   90.00000000
_symmetry_Int_Tables_number   1
_chemical_formula_structural   Dy5FeSb2
_chemical_formula_sum   'Dy20 Fe4 Sb8'
_cell_volume   852.54271255
_cell_formula_units_Z   4
loop_
 _symmetry_equiv_pos_site_id
 _symmetry_equiv_pos_as_xyz
  1  'x, y, z'
loop_
 _atom_site_type_symbol
 _atom_site_label
 _atom_site_symmetry_multiplicity
 _atom_site_fract_x
 _atom_site_fract_y
 _atom_site_fract_z
 _atom_site_occupancy
  Dy  Dy0  1  0.154783  0.750000  0.204087  1
  Dy  Dy1  1  0.345217  0.750000  0.704087  1
  Dy  Dy2  1  0.845217  0.250000  0.795913  1
  Dy  Dy3  1  0.654783  0.250000  0.295913  1
  Dy  Dy4  1  0.450372  0.750000  0.996210  1
  Dy  Dy5  1  0.049628  0.750000  0.496210  1
  Dy  Dy6  1  0.549628  0.250000  0.003790  1
  Dy  Dy7  1  0.950372  0.250000  0.503790  1
  Dy  Dy8  1  0.622230  0.750000  0.307477  1
  Dy  Dy9  1  0.877770  0.750000  0.807477  1
  Dy  Dy10  1  0.377770  0.250000  0.692523  1
  Dy  Dy11  1  0.122230  0.250000  0.192523  1
  Dy  Dy12  1  0.823442  0.534593  0.063794  1
  Dy  Dy13  1  0.676558  0.965407  0.563794  1
  Dy  Dy14  1  0.176558  0.034593  0.936206  1
  Dy  Dy15  1  0.323442  0.465407  0.436206  1
  Dy  Dy16  1  0.176558  0.465407  0.936206  1
  Dy  Dy17  1  0.323442  0.034593  0.436206  1
  Dy  Dy18  1  0.823442  0.965407  0.063794  1
  Dy  Dy19  1  0.676558  0.534593  0.563794  1
  Fe  Fe20  1  0.427778  0.750000  0.488926  1
  Fe  Fe21  1  0.072222  0.750000  0.988926  1
  Fe  Fe22  1  0.572222  0.250000  0.511074  1
  Fe  Fe23  1  0.927778  0.250000  0.011074  1
  Sb  Sb24  1  0.928377  0.507401  0.327701  1
  Sb  Sb25  1  0.571623  0.992599  0.827701  1
  Sb  Sb26  1  0.071623  0.007401  0.672299  1
  Sb  Sb27  1  0.428377  0.492599  0.172299  1
  Sb  Sb28  1  0.071623  0.492599  0.672299  1
  Sb  Sb29  1  0.428377  0.007401  0.172299  1
  Sb  Sb30  1  0.928377  0.992599  0.327701  1
  Sb  Sb31  1  0.571623  0.507401  0.827701  1
