# generated using pymatgen
data_Sr2Yb3Bi4
_symmetry_space_group_name_H-M   'P 1'
_cell_length_a   8.59533400
_cell_length_b   8.59000600
_cell_length_c   16.79524700
_cell_angle_alpha   90.00000000
_cell_angle_beta   90.00000000
_cell_angle_gamma   90.00000000
_symmetry_Int_Tables_number   1
_chemical_formula_structural   Sr2Yb3Bi4
_chemical_formula_sum   'Sr8 Yb12 Bi16'
_cell_volume   1240.05977376
_cell_formula_units_Z   4
loop_
 _symmetry_equiv_pos_site_id
 _symmetry_equiv_pos_as_xyz
  1  'x, y, z'
loop_
 _atom_site_type_symbol
 _atom_site_label
 _atom_site_symmetry_multiplicity
 _atom_site_fract_x
 _atom_site_fract_y
 _atom_site_fract_z
 _atom_site_occupancy
  Sr  Sr0  1  0.035753  0.179542  0.092884  1
  Sr  Sr1  1  0.535753  0.320458  0.407116  1
  Sr  Sr2  1  0.464247  0.679542  0.907116  1
  Sr  Sr3  1  0.964247  0.820458  0.592884  1
  Sr  Sr4  1  0.964247  0.820458  0.907116  1
  Sr  Sr5  1  0.464247  0.679542  0.592884  1
  Sr  Sr6  1  0.535753  0.320458  0.092884  1
  Sr  Sr7  1  0.035753  0.179542  0.407116  1
  Yb  Yb8  1  0.877758  0.652209  0.113594  1
  Yb  Yb9  1  0.377758  0.847791  0.386406  1
  Yb  Yb10  1  0.622242  0.152209  0.886406  1
  Yb  Yb11  1  0.122242  0.347791  0.613594  1
  Yb  Yb12  1  0.122242  0.347791  0.886406  1
  Yb  Yb13  1  0.622242  0.152209  0.613594  1
  Yb  Yb14  1  0.377758  0.847791  0.113594  1
  Yb  Yb15  1  0.877758  0.652209  0.386406  1
  Yb  Yb16  1  0.714383  0.990616  0.250000  1
  Yb  Yb17  1  0.214383  0.509384  0.250000  1
  Yb  Yb18  1  0.785617  0.490616  0.750000  1
  Yb  Yb19  1  0.285617  0.009384  0.750000  1
  Bi  Bi20  1  0.086284  0.882985  0.250000  1
  Bi  Bi21  1  0.586284  0.617015  0.250000  1
  Bi  Bi22  1  0.413716  0.382985  0.750000  1
  Bi  Bi23  1  0.913716  0.117015  0.750000  1
  Bi  Bi24  1  0.843710  0.360622  0.250000  1
  Bi  Bi25  1  0.343710  0.139378  0.250000  1
  Bi  Bi26  1  0.656290  0.860622  0.750000  1
  Bi  Bi27  1  0.156290  0.639378  0.750000  1
  Bi  Bi28  1  0.784755  0.460858  0.951059  1
  Bi  Bi29  1  0.284755  0.039142  0.548941  1
  Bi  Bi30  1  0.715245  0.960858  0.048941  1
  Bi  Bi31  1  0.215245  0.539142  0.451059  1
  Bi  Bi32  1  0.215245  0.539142  0.048941  1
  Bi  Bi33  1  0.715245  0.960858  0.451059  1
  Bi  Bi34  1  0.284755  0.039142  0.951059  1
  Bi  Bi35  1  0.784755  0.460858  0.548941  1
