# generated using pymatgen
data_LaTh(ReSi)4
_symmetry_space_group_name_H-M   'P 1'
_cell_length_a   4.15504509
_cell_length_b   4.23558790
_cell_length_c   10.86150683
_cell_angle_alpha   101.24365285
_cell_angle_beta   101.02581864
_cell_angle_gamma   89.99999983
_symmetry_Int_Tables_number   1
_chemical_formula_structural   LaTh(ReSi)4
_chemical_formula_sum   'La1 Th1 Re4 Si4'
_cell_volume   183.88464244
_cell_formula_units_Z   1
loop_
 _symmetry_equiv_pos_site_id
 _symmetry_equiv_pos_as_xyz
  1  'x, y, z'
loop_
 _atom_site_type_symbol
 _atom_site_label
 _atom_site_symmetry_multiplicity
 _atom_site_fract_x
 _atom_site_fract_y
 _atom_site_fract_z
 _atom_site_occupancy
  La  La0  1  0.164680  0.914673  0.829349  1
  Th  Th1  1  0.838062  0.088056  0.176111  1
  Re  Re2  1  0.458248  0.208251  0.416500  1
  Re  Re3  1  0.962703  0.712712  0.425424  1
  Re  Re4  1  0.035132  0.285132  0.570265  1
  Re  Re5  1  0.539337  0.789341  0.578684  1
  Si  Si6  1  0.279392  0.529404  0.058808  1
  Si  Si7  1  0.394628  0.644609  0.289219  1
  Si  Si8  1  0.604456  0.354456  0.708913  1
  Si  Si9  1  0.723368  0.473363  0.946725  1
