# generated using pymatgen
data_Lu6Np(WO9)2
_symmetry_space_group_name_H-M   'P 1'
_cell_length_a   9.11962900
_cell_length_b   9.11962884
_cell_length_c   5.04712000
_cell_angle_alpha   90.00000000
_cell_angle_beta   90.00000000
_cell_angle_gamma   120.00000316
_symmetry_Int_Tables_number   1
_chemical_formula_structural   Lu6Np(WO9)2
_chemical_formula_sum   'Lu6 Np1 W2 O18'
_cell_volume   363.52022870
_cell_formula_units_Z   1
loop_
 _symmetry_equiv_pos_site_id
 _symmetry_equiv_pos_as_xyz
  1  'x, y, z'
loop_
 _atom_site_type_symbol
 _atom_site_label
 _atom_site_symmetry_multiplicity
 _atom_site_fract_x
 _atom_site_fract_y
 _atom_site_fract_z
 _atom_site_occupancy
  Lu  Lu0  1  0.004885  0.631564  0.999019  1
  Lu  Lu1  1  0.005703  0.289786  0.497446  1
  Lu  Lu2  1  0.368436  0.373321  0.999019  1
  Lu  Lu3  1  0.284083  0.994297  0.497446  1
  Lu  Lu4  1  0.710214  0.715917  0.497446  1
  Lu  Lu5  1  0.626679  0.995115  0.999019  1
  Np  Np6  1  0.666667  0.333333  0.499998  1
  W  W7  1  0.333333  0.666667  0.502068  1
  W  W8  1  0.000000  0.000000  0.001401  1
  O  O9  1  0.083273  0.879853  0.784674  1
  O  O10  1  0.222918  0.761052  0.281837  1
  O  O11  1  0.130362  0.542516  0.718810  1
  O  O12  1  0.412155  0.869638  0.718810  1
  O  O13  1  0.238948  0.461865  0.281837  1
  O  O14  1  0.120147  0.203419  0.784674  1
  O  O15  1  0.202832  0.121363  0.218143  1
  O  O16  1  0.538135  0.777082  0.281837  1
  O  O17  1  0.457484  0.587845  0.718810  1
  O  O18  1  0.796581  0.916727  0.784674  1
  O  O19  1  0.448065  0.230021  0.725455  1
  O  O20  1  0.583030  0.466090  0.273462  1
  O  O21  1  0.533910  0.116940  0.273462  1
  O  O22  1  0.781957  0.551935  0.725455  1
  O  O23  1  0.918532  0.797168  0.218143  1
  O  O24  1  0.769979  0.218043  0.725455  1
  O  O25  1  0.883060  0.416970  0.273462  1
  O  O26  1  0.878637  0.081468  0.218143  1
