# generated using pymatgen
data_Mn8Tc3W
_symmetry_space_group_name_H-M   'P 1'
_cell_length_a   4.67181700
_cell_length_b   4.67181794
_cell_length_c   7.68075300
_cell_angle_alpha   90.00000000
_cell_angle_beta   90.00000000
_cell_angle_gamma   120.00000043
_symmetry_Int_Tables_number   1
_chemical_formula_structural   Mn8Tc3W
_chemical_formula_sum   'Mn8 Tc3 W1'
_cell_volume   145.17978926
_cell_formula_units_Z   1
loop_
 _symmetry_equiv_pos_site_id
 _symmetry_equiv_pos_as_xyz
  1  'x, y, z'
loop_
 _atom_site_type_symbol
 _atom_site_label
 _atom_site_symmetry_multiplicity
 _atom_site_fract_x
 _atom_site_fract_y
 _atom_site_fract_z
 _atom_site_occupancy
  Mn  Mn0  1  0.653341  0.826671  0.750999  1
  Mn  Mn1  1  0.346892  0.173446  0.248155  1
  Mn  Mn2  1  0.826554  0.173446  0.248155  1
  Mn  Mn3  1  0.173329  0.346659  0.750999  1
  Mn  Mn4  1  0.173329  0.826671  0.750999  1
  Mn  Mn5  1  0.826554  0.653108  0.248155  1
  Mn  Mn6  1  0.000000  0.000000  0.498743  1
  Mn  Mn7  1  0.000000  0.000000  0.999030  1
  Tc  Tc8  1  0.666667  0.333333  0.931786  1
  Tc  Tc9  1  0.666667  0.333333  0.569661  1
  Tc  Tc10  1  0.333333  0.666667  0.067342  1
  W  W11  1  0.333333  0.666667  0.435976  1
