# generated using pymatgen
data_Y7Tm(SiI6)2
_symmetry_space_group_name_H-M   'P 1'
_cell_length_a   4.20887100
_cell_length_b   14.04700301
_cell_length_c   14.80249054
_cell_angle_alpha   90.13679043
_cell_angle_beta   90.00000000
_cell_angle_gamma   90.00000000
_symmetry_Int_Tables_number   1
_chemical_formula_structural   Y7Tm(SiI6)2
_chemical_formula_sum   'Y7 Tm1 Si2 I12'
_cell_volume   875.15070127
_cell_formula_units_Z   1
loop_
 _symmetry_equiv_pos_site_id
 _symmetry_equiv_pos_as_xyz
  1  'x, y, z'
loop_
 _atom_site_type_symbol
 _atom_site_label
 _atom_site_symmetry_multiplicity
 _atom_site_fract_x
 _atom_site_fract_y
 _atom_site_fract_z
 _atom_site_occupancy
  Y  Y0  1  0.500000  0.114632  0.348502  1
  Y  Y1  1  0.500000  0.885437  0.651685  1
  Y  Y2  1  0.500000  0.614160  0.151023  1
  Y  Y3  1  0.000000  0.111061  0.575813  1
  Y  Y4  1  0.000000  0.889397  0.424750  1
  Y  Y5  1  0.000000  0.610363  0.925085  1
  Y  Y6  1  0.000000  0.389836  0.075191  1
  Tm  Tm7  1  0.500000  0.386267  0.849255  1
  Si  Si8  1  0.500000  0.000267  0.500259  1
  Si  Si9  1  0.500000  0.499273  0.999019  1
  I  I10  1  0.500000  0.246446  0.162590  1
  I  I11  1  0.500000  0.752873  0.836519  1
  I  I12  1  0.500000  0.746461  0.336578  1
  I  I13  1  0.500000  0.254318  0.665027  1
  I  I14  1  0.000000  0.258915  0.416106  1
  I  I15  1  0.000000  0.741044  0.584231  1
  I  I16  1  0.000000  0.758503  0.084220  1
  I  I17  1  0.000000  0.244336  0.912600  1
  I  I18  1  0.000000  0.000237  0.240244  1
  I  I19  1  0.000000  0.999872  0.760039  1
  I  I20  1  0.000000  0.500431  0.259543  1
  I  I21  1  0.000000  0.495872  0.741722  1
