# generated using pymatgen
data_Mn2NiRh3O8
_symmetry_space_group_name_H-M   'P 1'
_cell_length_a   6.09153779
_cell_length_b   6.09153822
_cell_length_c   6.09153777
_cell_angle_alpha   61.33096301
_cell_angle_beta   61.33095757
_cell_angle_gamma   61.33095962
_symmetry_Int_Tables_number   1
_chemical_formula_structural   Mn2NiRh3O8
_chemical_formula_sum   'Mn2 Ni1 Rh3 O8'
_cell_volume   164.61367616
_cell_formula_units_Z   1
loop_
 _symmetry_equiv_pos_site_id
 _symmetry_equiv_pos_as_xyz
  1  'x, y, z'
loop_
 _atom_site_type_symbol
 _atom_site_label
 _atom_site_symmetry_multiplicity
 _atom_site_fract_x
 _atom_site_fract_y
 _atom_site_fract_z
 _atom_site_occupancy
  Mn  Mn0  1  0.119771  0.119771  0.119771  1
  Mn  Mn1  1  0.880229  0.880229  0.880229  1
  Ni  Ni2  1  0.500000  0.500000  0.500000  1
  Rh  Rh3  1  0.500000  0.000000  0.500000  1
  Rh  Rh4  1  0.000000  0.500000  0.500000  1
  Rh  Rh5  1  0.500000  0.500000  0.000000  1
  O  O6  1  0.737737  0.737737  0.737737  1
  O  O7  1  0.740740  0.288299  0.740740  1
  O  O8  1  0.288299  0.740740  0.740740  1
  O  O9  1  0.740740  0.740740  0.288299  1
  O  O10  1  0.262263  0.262263  0.262263  1
  O  O11  1  0.259260  0.711701  0.259260  1
  O  O12  1  0.711701  0.259260  0.259260  1
  O  O13  1  0.259260  0.259260  0.711701  1
