# generated using pymatgen
data_Y10Ge3Pb3O2
_symmetry_space_group_name_H-M   'P 1'
_cell_length_a   8.86628485
_cell_length_b   8.86628501
_cell_length_c   8.83912400
_cell_angle_alpha   126.08816536
_cell_angle_beta   126.08815815
_cell_angle_gamma   79.95335013
_symmetry_Int_Tables_number   1
_chemical_formula_structural   Y10Ge3Pb3O2
_chemical_formula_sum   'Y10 Ge3 Pb3 O2'
_cell_volume   437.65155171
_cell_formula_units_Z   1
loop_
 _symmetry_equiv_pos_site_id
 _symmetry_equiv_pos_as_xyz
  1  'x, y, z'
loop_
 _atom_site_type_symbol
 _atom_site_label
 _atom_site_symmetry_multiplicity
 _atom_site_fract_x
 _atom_site_fract_y
 _atom_site_fract_z
 _atom_site_occupancy
  Y  Y0  1  0.008023  0.207771  0.500000  1
  Y  Y1  1  0.793675  0.302779  0.805783  1
  Y  Y2  1  0.503004  0.012108  0.805783  1
  Y  Y3  1  0.487892  0.996996  0.194217  1
  Y  Y4  1  0.000104  0.786955  0.500000  1
  Y  Y5  1  0.495718  0.493331  0.989048  1
  Y  Y6  1  0.197221  0.706325  0.194217  1
  Y  Y7  1  0.713045  0.499896  0.500000  1
  Y  Y8  1  0.292229  0.491977  0.500000  1
  Y  Y9  1  0.006669  0.004282  0.010952  1
  Ge  Ge10  1  0.851168  0.349994  0.201162  1
  Ge  Ge11  1  0.150006  0.648832  0.798838  1
  Ge  Ge12  1  0.351720  0.148280  0.500000  1
  Pb  Pb13  1  0.749185  0.750815  0.000000  1
  Pb  Pb14  1  0.646762  0.853238  0.500000  1
  Pb  Pb15  1  0.249185  0.250815  0.000000  1
  O  O16  1  0.751563  0.247171  0.500000  1
  O  O17  1  0.252829  0.748437  0.500000  1
