# generated using pymatgen
data_La2Al16MoPt8
_symmetry_space_group_name_H-M   'P 1'
_cell_length_a   11.27899767
_cell_length_b   11.27899866
_cell_length_c   11.27899850
_cell_angle_alpha   158.64584216
_cell_angle_beta   116.77723464
_cell_angle_gamma   67.55042131
_symmetry_Int_Tables_number   1
_chemical_formula_structural   La2Al16MoPt8
_chemical_formula_sum   'La2 Al16 Mo1 Pt8'
_cell_volume   463.30113298
_cell_formula_units_Z   1
loop_
 _symmetry_equiv_pos_site_id
 _symmetry_equiv_pos_as_xyz
  1  'x, y, z'
loop_
 _atom_site_type_symbol
 _atom_site_label
 _atom_site_symmetry_multiplicity
 _atom_site_fract_x
 _atom_site_fract_y
 _atom_site_fract_z
 _atom_site_occupancy
  La  La0  1  0.230486  0.231488  0.998997  1
  La  La1  1  0.767509  0.768512  0.998997  1
  Al  Al2  1  0.275341  0.393027  0.882313  1
  Al  Al3  1  0.091019  0.925074  0.165946  1
  Al  Al4  1  0.502486  0.200895  0.301591  1
  Al  Al5  1  0.240872  0.074926  0.165946  1
  Al  Al6  1  0.911013  0.417191  0.493823  1
  Al  Al7  1  0.721021  0.597363  0.123659  1
  Al  Al8  1  0.904060  0.209046  0.695015  1
  Al  Al9  1  0.485969  0.790954  0.695015  1
  Al  Al10  1  0.389093  0.000000  0.389093  1
  Al  Al11  1  0.627198  0.000000  0.627198  1
  Al  Al12  1  0.489286  0.606973  0.882313  1
  Al  Al13  1  0.100697  0.799105  0.301591  1
  Al  Al14  1  0.909699  0.087436  0.822263  1
  Al  Al15  1  0.734827  0.912564  0.822263  1
  Al  Al16  1  0.526295  0.402637  0.123659  1
  Al  Al17  1  0.076632  0.582809  0.493823  1
  Mo  Mo18  1  0.787752  0.500000  0.287752  1
  Pt  Pt19  1  0.026166  0.343854  0.682313  1
  Pt  Pt20  1  0.626344  0.124454  0.501890  1
  Pt  Pt21  1  0.256098  0.500000  0.756098  1
  Pt  Pt22  1  0.377437  0.875546  0.501890  1
  Pt  Pt23  1  0.984948  0.000000  0.984948  1
  Pt  Pt24  1  0.645245  0.335598  0.309647  1
  Pt  Pt25  1  0.338459  0.656146  0.682313  1
  Pt  Pt26  1  0.974049  0.664402  0.309647  1
