# generated using pymatgen
data_Lu5Sc15Bi7Sb5
_symmetry_space_group_name_H-M   'P 1'
_cell_length_a   7.76663585
_cell_length_b   8.99180826
_cell_length_c   11.44100102
_cell_angle_alpha   89.97562882
_cell_angle_beta   89.93419642
_cell_angle_gamma   90.01300425
_symmetry_Int_Tables_number   1
_chemical_formula_structural   Lu5Sc15Bi7Sb5
_chemical_formula_sum   'Lu5 Sc15 Bi7 Sb5'
_cell_volume   798.99427592
_cell_formula_units_Z   1
loop_
 _symmetry_equiv_pos_site_id
 _symmetry_equiv_pos_as_xyz
  1  'x, y, z'
loop_
 _atom_site_type_symbol
 _atom_site_label
 _atom_site_symmetry_multiplicity
 _atom_site_fract_x
 _atom_site_fract_y
 _atom_site_fract_z
 _atom_site_occupancy
  Lu  Lu0  1  0.854593  0.246722  0.217508  1
  Lu  Lu1  1  0.184689  0.250001  0.780666  1
  Lu  Lu2  1  0.819676  0.752827  0.218889  1
  Lu  Lu3  1  0.315412  0.753875  0.282954  1
  Lu  Lu4  1  0.682924  0.250178  0.717198  1
  Sc  Sc5  1  0.023471  0.247057  0.509878  1
  Sc  Sc6  1  0.977319  0.752788  0.487953  1
  Sc  Sc7  1  0.475537  0.750023  0.010862  1
  Sc  Sc8  1  0.522014  0.249905  0.987649  1
  Sc  Sc9  1  0.347565  0.246947  0.283854  1
  Sc  Sc10  1  0.648954  0.749981  0.716338  1
  Sc  Sc11  1  0.148785  0.749925  0.783749  1
  Sc  Sc12  1  0.187939  0.064711  0.061441  1
  Sc  Sc13  1  0.810489  0.934846  0.940352  1
  Sc  Sc14  1  0.309232  0.935766  0.558391  1
  Sc  Sc15  1  0.810628  0.565428  0.940413  1
  Sc  Sc16  1  0.691335  0.063272  0.441101  1
  Sc  Sc17  1  0.189448  0.434447  0.058928  1
  Sc  Sc18  1  0.689267  0.435595  0.441792  1
  Sc  Sc19  1  0.310554  0.565394  0.560340  1
  Bi  Bi20  1  0.935623  0.991678  0.673366  1
  Bi  Bi21  1  0.435502  0.991658  0.826889  1
  Bi  Bi22  1  0.936036  0.508309  0.672085  1
  Bi  Bi23  1  0.562263  0.006340  0.171992  1
  Bi  Bi24  1  0.067609  0.494701  0.329638  1
  Bi  Bi25  1  0.562349  0.493767  0.172913  1
  Bi  Bi26  1  0.435687  0.508451  0.826992  1
  Sb  Sb27  1  0.404361  0.249988  0.535314  1
  Sb  Sb28  1  0.594954  0.750040  0.464747  1
  Sb  Sb29  1  0.095056  0.749896  0.035226  1
  Sb  Sb30  1  0.904130  0.250003  0.959851  1
  Sb  Sb31  1  0.066600  0.005479  0.330734  1
