# generated using pymatgen
data_Tb3Ho(GaTc3)2
_symmetry_space_group_name_H-M   'P 1'
_cell_length_a   9.34832165
_cell_length_b   9.34832169
_cell_length_c   9.30238201
_cell_angle_alpha   34.10466293
_cell_angle_beta   34.10466048
_cell_angle_gamma   32.95480227
_symmetry_Int_Tables_number   1
_chemical_formula_structural   Tb3Ho(GaTc3)2
_chemical_formula_sum   'Tb3 Ho1 Ga2 Tc6'
_cell_volume   223.05311275
_cell_formula_units_Z   1
loop_
 _symmetry_equiv_pos_site_id
 _symmetry_equiv_pos_as_xyz
  1  'x, y, z'
loop_
 _atom_site_type_symbol
 _atom_site_label
 _atom_site_symmetry_multiplicity
 _atom_site_fract_x
 _atom_site_fract_y
 _atom_site_fract_z
 _atom_site_occupancy
  Tb  Tb0  1  0.182581  0.182581  0.195059  1
  Tb  Tb1  1  0.817296  0.817296  0.804993  1
  Tb  Tb2  1  0.317456  0.317456  0.304961  1
  Ho  Ho3  1  0.682151  0.682151  0.695813  1
  Ga  Ga4  1  0.249872  0.249872  0.749793  1
  Ga  Ga5  1  0.750104  0.750104  0.250217  1
  Tc  Tc6  1  0.000208  0.000208  0.999739  1
  Tc  Tc7  1  0.500025  0.500025  0.499886  1
  Tc  Tc8  1  0.749628  0.250014  0.249894  1
  Tc  Tc9  1  0.250584  0.750078  0.749874  1
  Tc  Tc10  1  0.250014  0.749628  0.249894  1
  Tc  Tc11  1  0.750078  0.250584  0.749874  1
