# generated using pymatgen
data_Tl2Si(PdS2)3
_symmetry_space_group_name_H-M   'P 1'
_cell_length_a   7.96415290
_cell_length_b   7.96415344
_cell_length_c   7.96415300
_cell_angle_alpha   50.75383038
_cell_angle_beta   50.75382722
_cell_angle_gamma   50.75383736
_symmetry_Int_Tables_number   1
_chemical_formula_structural   Tl2Si(PdS2)3
_chemical_formula_sum   'Tl2 Si1 Pd3 S6'
_cell_volume   279.29181169
_cell_formula_units_Z   1
loop_
 _symmetry_equiv_pos_site_id
 _symmetry_equiv_pos_as_xyz
  1  'x, y, z'
loop_
 _atom_site_type_symbol
 _atom_site_label
 _atom_site_symmetry_multiplicity
 _atom_site_fract_x
 _atom_site_fract_y
 _atom_site_fract_z
 _atom_site_occupancy
  Tl  Tl0  1  0.791978  0.791978  0.791978  1
  Tl  Tl1  1  0.208022  0.208022  0.208022  1
  Si  Si2  1  0.000000  0.000000  0.000000  1
  Pd  Pd3  1  0.500000  0.500000  0.000000  1
  Pd  Pd4  1  0.500000  0.000000  0.500000  1
  Pd  Pd5  1  0.000000  0.500000  0.500000  1
  S  S6  1  0.776247  0.776247  0.264398  1
  S  S7  1  0.264398  0.776247  0.776247  1
  S  S8  1  0.776247  0.264398  0.776247  1
  S  S9  1  0.735602  0.223753  0.223753  1
  S  S10  1  0.223753  0.223753  0.735602  1
  S  S11  1  0.223753  0.735602  0.223753  1
