# generated using pymatgen
data_La16Mg3CdOs4
_symmetry_space_group_name_H-M   'P 1'
_cell_length_a   10.12122168
_cell_length_b   10.10399050
_cell_length_c   10.12122300
_cell_angle_alpha   59.94356925
_cell_angle_beta   59.99999895
_cell_angle_gamma   59.94356960
_symmetry_Int_Tables_number   1
_chemical_formula_structural   La16Mg3CdOs4
_chemical_formula_sum   'La16 Mg3 Cd1 Os4'
_cell_volume   731.26182336
_cell_formula_units_Z   1
loop_
 _symmetry_equiv_pos_site_id
 _symmetry_equiv_pos_as_xyz
  1  'x, y, z'
loop_
 _atom_site_type_symbol
 _atom_site_label
 _atom_site_symmetry_multiplicity
 _atom_site_fract_x
 _atom_site_fract_y
 _atom_site_fract_z
 _atom_site_occupancy
  La  La0  1  0.941840  0.942027  0.558066  1
  La  La1  1  0.558066  0.942027  0.558066  1
  La  La2  1  0.558066  0.942027  0.941840  1
  La  La3  1  0.687652  0.687901  0.312224  1
  La  La4  1  0.155133  0.155495  0.534239  1
  La  La5  1  0.312224  0.687901  0.687652  1
  La  La6  1  0.155133  0.155495  0.155133  1
  La  La7  1  0.534239  0.155495  0.155133  1
  La  La8  1  0.312224  0.687901  0.312224  1
  La  La9  1  0.311069  0.311582  0.688675  1
  La  La10  1  0.688675  0.311582  0.688675  1
  La  La11  1  0.942222  0.556790  0.558765  1
  La  La12  1  0.558765  0.556790  0.942222  1
  La  La13  1  0.155687  0.532938  0.155687  1
  La  La14  1  0.688675  0.311582  0.311069  1
  La  La15  1  0.942222  0.556790  0.942222  1
  Mg  Mg16  1  0.234165  0.922609  0.921613  1
  Mg  Mg17  1  0.921613  0.922609  0.921613  1
  Mg  Mg18  1  0.921613  0.922609  0.234165  1
  Cd  Cd19  1  0.920932  0.237204  0.920932  1
  Os  Os20  1  0.912773  0.362848  0.362189  1
  Os  Os21  1  0.362189  0.362848  0.912773  1
  Os  Os22  1  0.362633  0.912101  0.362633  1
  Os  Os23  1  0.362189  0.362848  0.362189  1
