# generated using pymatgen
data_Nd2Er3Sb4
_symmetry_space_group_name_H-M   'P 1'
_cell_length_a   8.21696000
_cell_length_b   8.16568600
_cell_length_c   15.35161000
_cell_angle_alpha   90.00000000
_cell_angle_beta   90.00000000
_cell_angle_gamma   90.00000000
_symmetry_Int_Tables_number   1
_chemical_formula_structural   Nd2Er3Sb4
_chemical_formula_sum   'Nd8 Er12 Sb16'
_cell_volume   1030.04874521
_cell_formula_units_Z   4
loop_
 _symmetry_equiv_pos_site_id
 _symmetry_equiv_pos_as_xyz
  1  'x, y, z'
loop_
 _atom_site_type_symbol
 _atom_site_label
 _atom_site_symmetry_multiplicity
 _atom_site_fract_x
 _atom_site_fract_y
 _atom_site_fract_z
 _atom_site_occupancy
  Nd  Nd0  1  0.469265  0.675531  0.597553  1
  Nd  Nd1  1  0.969265  0.824469  0.902447  1
  Nd  Nd2  1  0.530735  0.324469  0.097553  1
  Nd  Nd3  1  0.030735  0.175531  0.402447  1
  Nd  Nd4  1  0.530735  0.324469  0.402447  1
  Nd  Nd5  1  0.030735  0.175531  0.097553  1
  Nd  Nd6  1  0.469265  0.675531  0.902447  1
  Nd  Nd7  1  0.969265  0.824469  0.597553  1
  Er  Er8  1  0.639616  0.151287  0.623293  1
  Er  Er9  1  0.139616  0.348713  0.876707  1
  Er  Er10  1  0.360384  0.848713  0.123293  1
  Er  Er11  1  0.860384  0.651287  0.376707  1
  Er  Er12  1  0.360384  0.848713  0.376707  1
  Er  Er13  1  0.860384  0.651287  0.123293  1
  Er  Er14  1  0.639616  0.151287  0.876707  1
  Er  Er15  1  0.139616  0.348713  0.623293  1
  Er  Er16  1  0.801788  0.501051  0.750000  1
  Er  Er17  1  0.301788  0.998949  0.750000  1
  Er  Er18  1  0.198212  0.498949  0.250000  1
  Er  Er19  1  0.698212  0.001051  0.250000  1
  Sb  Sb20  1  0.707875  0.961703  0.452757  1
  Sb  Sb21  1  0.207875  0.538297  0.047243  1
  Sb  Sb22  1  0.292125  0.038297  0.952757  1
  Sb  Sb23  1  0.792125  0.461703  0.547243  1
  Sb  Sb24  1  0.292125  0.038297  0.547243  1
  Sb  Sb25  1  0.792125  0.461703  0.952757  1
  Sb  Sb26  1  0.707875  0.961703  0.047243  1
  Sb  Sb27  1  0.207875  0.538297  0.452757  1
  Sb  Sb28  1  0.441943  0.365040  0.750000  1
  Sb  Sb29  1  0.941943  0.134960  0.750000  1
  Sb  Sb30  1  0.558057  0.634960  0.250000  1
  Sb  Sb31  1  0.058057  0.865040  0.250000  1
  Sb  Sb32  1  0.655910  0.849407  0.750000  1
  Sb  Sb33  1  0.155910  0.650593  0.750000  1
  Sb  Sb34  1  0.344090  0.150593  0.250000  1
  Sb  Sb35  1  0.844090  0.349407  0.250000  1
