# generated using pymatgen
data_Y3Ho9ZnCo4Bi
_symmetry_space_group_name_H-M   'P 1'
_cell_length_a   8.35309442
_cell_length_b   8.35309550
_cell_length_c   8.32730543
_cell_angle_alpha   109.71027937
_cell_angle_beta   111.37200129
_cell_angle_gamma   107.48646112
_symmetry_Int_Tables_number   1
_chemical_formula_structural   Y3Ho9ZnCo4Bi
_chemical_formula_sum   'Y3 Ho9 Zn1 Co4 Bi1'
_cell_volume   446.03328787
_cell_formula_units_Z   1
loop_
 _symmetry_equiv_pos_site_id
 _symmetry_equiv_pos_as_xyz
  1  'x, y, z'
loop_
 _atom_site_type_symbol
 _atom_site_label
 _atom_site_symmetry_multiplicity
 _atom_site_fract_x
 _atom_site_fract_y
 _atom_site_fract_z
 _atom_site_occupancy
  Y  Y0  1  0.284663  0.184162  0.468825  1
  Y  Y1  1  0.715673  0.816395  0.532066  1
  Y  Y2  1  0.284667  0.816207  0.100874  1
  Ho  Ho3  1  0.714663  0.182565  0.897229  1
  Ho  Ho4  1  0.622311  0.313722  0.307321  1
  Ho  Ho5  1  0.378706  0.686861  0.692205  1
  Ho  Ho6  1  0.005344  0.313499  0.692205  1
  Ho  Ho7  1  0.993598  0.685009  0.307321  1
  Ho  Ho8  1  0.217991  0.424846  0.205431  1
  Ho  Ho9  1  0.780746  0.573117  0.793645  1
  Ho  Ho10  1  0.220526  0.012899  0.793645  1
  Ho  Ho11  1  0.780585  0.987440  0.205431  1
  Zn  Zn12  1  0.998976  0.999829  0.998805  1
  Co  Co13  1  0.999658  0.376114  0.375771  1
  Co  Co14  1  0.999850  0.623704  0.623555  1
  Co  Co15  1  0.388331  0.888888  0.502723  1
  Co  Co16  1  0.613835  0.114392  0.502723  1
  Bi  Bi17  1  0.499874  0.500351  0.000225  1
