# generated using pymatgen
data_Sr4ErSc7Se16
_symmetry_space_group_name_H-M   'P 1'
_cell_length_a   3.99810100
_cell_length_b   12.34060945
_cell_length_c   14.44211126
_cell_angle_alpha   90.17626316
_cell_angle_beta   90.00000000
_cell_angle_gamma   90.00000000
_symmetry_Int_Tables_number   1
_chemical_formula_structural   Sr4ErSc7Se16
_chemical_formula_sum   'Sr4 Er1 Sc7 Se16'
_cell_volume   712.55599870
_cell_formula_units_Z   1
loop_
 _symmetry_equiv_pos_site_id
 _symmetry_equiv_pos_as_xyz
  1  'x, y, z'
loop_
 _atom_site_type_symbol
 _atom_site_label
 _atom_site_symmetry_multiplicity
 _atom_site_fract_x
 _atom_site_fract_y
 _atom_site_fract_z
 _atom_site_occupancy
  Sr  Sr0  1  0.250000  0.761817  0.330215  1
  Sr  Sr1  1  0.250000  0.261243  0.165631  1
  Sr  Sr2  1  0.750000  0.241826  0.672725  1
  Sr  Sr3  1  0.750000  0.738265  0.831890  1
  Er  Er4  1  0.750000  0.083545  0.404408  1
  Sc  Sc5  1  0.250000  0.444750  0.388792  1
  Sc  Sc6  1  0.250000  0.939703  0.107116  1
  Sc  Sc7  1  0.750000  0.558424  0.609872  1
  Sc  Sc8  1  0.750000  0.057634  0.889272  1
  Sc  Sc9  1  0.250000  0.419704  0.902965  1
  Sc  Sc10  1  0.250000  0.916142  0.599741  1
  Sc  Sc11  1  0.750000  0.581218  0.096607  1
  Se  Se12  1  0.250000  0.203397  0.841886  1
  Se  Se13  1  0.250000  0.701868  0.661697  1
  Se  Se14  1  0.750000  0.795815  0.158076  1
  Se  Se15  1  0.750000  0.302308  0.335676  1
  Se  Se16  1  0.250000  0.124926  0.537871  1
  Se  Se17  1  0.250000  0.623844  0.971541  1
  Se  Se18  1  0.750000  0.870811  0.475479  1
  Se  Se19  1  0.750000  0.376334  0.027623  1
  Se  Se20  1  0.250000  0.025614  0.279824  1
  Se  Se21  1  0.250000  0.530686  0.214241  1
  Se  Se22  1  0.750000  0.968703  0.716665  1
  Se  Se23  1  0.750000  0.471021  0.784955  1
  Se  Se24  1  0.250000  0.413026  0.573449  1
  Se  Se25  1  0.250000  0.911392  0.923522  1
  Se  Se26  1  0.750000  0.589159  0.425163  1
  Se  Se27  1  0.750000  0.086825  0.073101  1
