# generated using pymatgen
data_Y4Si10OsPt5
_symmetry_space_group_name_H-M   'P 1'
_cell_length_a   8.17513068
_cell_length_b   8.17513173
_cell_length_c   8.17513066
_cell_angle_alpha   137.35226059
_cell_angle_beta   104.04366521
_cell_angle_gamma   91.24948463
_symmetry_Int_Tables_number   1
_chemical_formula_structural   Y4Si10OsPt5
_chemical_formula_sum   'Y4 Si10 Os1 Pt5'
_cell_volume   342.01301155
_cell_formula_units_Z   1
loop_
 _symmetry_equiv_pos_site_id
 _symmetry_equiv_pos_as_xyz
  1  'x, y, z'
loop_
 _atom_site_type_symbol
 _atom_site_label
 _atom_site_symmetry_multiplicity
 _atom_site_fract_x
 _atom_site_fract_y
 _atom_site_fract_z
 _atom_site_occupancy
  Y  Y0  1  0.861176  0.630297  0.232442  1
  Y  Y1  1  0.138824  0.371267  0.769121  1
  Y  Y2  1  0.397854  0.128733  0.267558  1
  Y  Y3  1  0.602146  0.869703  0.730879  1
  Si  Si4  1  0.500000  0.750000  0.250000  1
  Si  Si5  1  0.500000  0.250000  0.750000  1
  Si  Si6  1  0.224308  0.974308  0.750000  1
  Si  Si7  1  0.775692  0.525692  0.750000  1
  Si  Si8  1  0.770521  0.020521  0.250000  1
  Si  Si9  1  0.229479  0.479479  0.250000  1
  Si  Si10  1  0.043629  0.885835  0.146671  1
  Si  Si11  1  0.956371  0.103042  0.842206  1
  Si  Si12  1  0.739163  0.396958  0.353329  1
  Si  Si13  1  0.260837  0.614165  0.657794  1
  Os  Os14  1  0.000000  0.750000  0.750000  1
  Pt  Pt15  1  0.000000  0.250000  0.250000  1
  Pt  Pt16  1  0.247860  0.864539  0.388122  1
  Pt  Pt17  1  0.752140  0.140261  0.616678  1
  Pt  Pt18  1  0.476418  0.359739  0.111878  1
  Pt  Pt19  1  0.523582  0.635461  0.883322  1
