# generated using pymatgen
data_USe27
_symmetry_space_group_name_H-M   'P 1'
_cell_length_a   14.03123179
_cell_length_b   14.03123268
_cell_length_c   14.03123200
_cell_angle_alpha   118.14115912
_cell_angle_beta   118.14116571
_cell_angle_gamma   118.14116195
_symmetry_Int_Tables_number   1
_chemical_formula_structural   USe27
_chemical_formula_sum   'U1 Se27'
_cell_volume   968.09209219
_cell_formula_units_Z   1
loop_
 _symmetry_equiv_pos_site_id
 _symmetry_equiv_pos_as_xyz
  1  'x, y, z'
loop_
 _atom_site_type_symbol
 _atom_site_label
 _atom_site_symmetry_multiplicity
 _atom_site_fract_x
 _atom_site_fract_y
 _atom_site_fract_z
 _atom_site_occupancy
  U  U0  1  0.144110  0.144110  0.144110  1
  Se  Se1  1  0.214396  0.811794  0.811794  1
  Se  Se2  1  0.811794  0.811794  0.214396  1
  Se  Se3  1  0.811794  0.214396  0.811794  1
  Se  Se4  1  0.387334  0.967908  0.813602  1
  Se  Se5  1  0.967908  0.813602  0.387334  1
  Se  Se6  1  0.813602  0.387334  0.967908  1
  Se  Se7  1  0.967908  0.387334  0.813602  1
  Se  Se8  1  0.387334  0.813602  0.967908  1
  Se  Se9  1  0.813602  0.967908  0.387334  1
  Se  Se10  1  0.122614  0.637792  0.428211  1
  Se  Se11  1  0.637792  0.428211  0.122614  1
  Se  Se12  1  0.428211  0.122614  0.637792  1
  Se  Se13  1  0.637792  0.122614  0.428211  1
  Se  Se14  1  0.122614  0.428211  0.637792  1
  Se  Se15  1  0.428211  0.637792  0.122614  1
  Se  Se16  1  0.320017  0.650758  0.490111  1
  Se  Se17  1  0.650758  0.490111  0.320017  1
  Se  Se18  1  0.490111  0.320017  0.650758  1
  Se  Se19  1  0.650758  0.320017  0.490111  1
  Se  Se20  1  0.320017  0.490111  0.650758  1
  Se  Se21  1  0.490111  0.650758  0.320017  1
  Se  Se22  1  0.103864  0.318915  0.318915  1
  Se  Se23  1  0.318915  0.318915  0.103864  1
  Se  Se24  1  0.318915  0.103864  0.318915  1
  Se  Se25  1  0.996312  0.845154  0.845154  1
  Se  Se26  1  0.845154  0.845154  0.996312  1
  Se  Se27  1  0.845154  0.996312  0.845154  1
