# generated using pymatgen
data_Al3CoBi4(TeO6)4
_symmetry_space_group_name_H-M   'P 1'
_cell_length_a   5.13497600
_cell_length_b   8.89181500
_cell_length_c   10.12613001
_cell_angle_alpha   89.99865424
_cell_angle_beta   89.99573369
_cell_angle_gamma   90.00078845
_symmetry_Int_Tables_number   1
_chemical_formula_structural   Al3CoBi4(TeO6)4
_chemical_formula_sum   'Al3 Co1 Bi4 Te4 O24'
_cell_volume   462.35156769
_cell_formula_units_Z   1
loop_
 _symmetry_equiv_pos_site_id
 _symmetry_equiv_pos_as_xyz
  1  'x, y, z'
loop_
 _atom_site_type_symbol
 _atom_site_label
 _atom_site_symmetry_multiplicity
 _atom_site_fract_x
 _atom_site_fract_y
 _atom_site_fract_z
 _atom_site_occupancy
  Al  Al0  1  0.499970  0.166755  0.250001  1
  Al  Al1  1  0.000031  0.333277  0.750001  1
  Al  Al2  1  0.999973  0.666733  0.249999  1
  Co  Co3  1  0.500035  0.833368  0.750000  1
  Bi  Bi4  1  0.002667  0.000634  0.500317  1
  Bi  Bi5  1  0.497490  0.499535  0.499761  1
  Bi  Bi6  1  0.997333  0.000634  0.999681  1
  Bi  Bi7  1  0.502512  0.499531  0.000238  1
  Te  Te8  1  0.500002  0.165316  0.749997  1
  Te  Te9  1  0.999975  0.667899  0.750000  1
  Te  Te10  1  0.999990  0.333639  0.250003  1
  Te  Te11  1  0.500000  0.833081  0.250001  1
  O  O12  1  0.631439  0.997318  0.644201  1
  O  O13  1  0.123613  0.498672  0.643216  1
  O  O14  1  0.689630  0.312627  0.644111  1
  O  O15  1  0.189033  0.816693  0.643287  1
  O  O16  1  0.184424  0.188086  0.643162  1
  O  O17  1  0.682508  0.686249  0.644177  1
  O  O18  1  0.189500  0.186076  0.144326  1
  O  O19  1  0.689413  0.685305  0.143872  1
  O  O20  1  0.127122  0.501942  0.144083  1
  O  O21  1  0.626383  0.001956  0.144121  1
  O  O22  1  0.683677  0.312684  0.143872  1
  O  O23  1  0.183984  0.812211  0.144339  1
  O  O24  1  0.872827  0.501941  0.355908  1
  O  O25  1  0.373570  0.001954  0.355870  1
  O  O26  1  0.810454  0.186070  0.355674  1
  O  O27  1  0.310538  0.685299  0.356123  1
  O  O28  1  0.316268  0.312684  0.356124  1
  O  O29  1  0.815962  0.812211  0.355654  1
  O  O30  1  0.310420  0.312617  0.855891  1
  O  O31  1  0.811020  0.816687  0.856715  1
  O  O32  1  0.368612  0.997316  0.855804  1
  O  O33  1  0.876439  0.498671  0.856793  1
  O  O34  1  0.815632  0.188085  0.856841  1
  O  O35  1  0.317552  0.686244  0.855831  1
