# generated using pymatgen
data_Sc6Ti4Al12Ir6Os
_symmetry_space_group_name_H-M   'P 1'
_cell_length_a   8.81525676
_cell_length_b   8.80084215
_cell_length_c   8.81525843
_cell_angle_alpha   60.05407475
_cell_angle_beta   59.83107984
_cell_angle_gamma   60.05407484
_symmetry_Int_Tables_number   1
_chemical_formula_structural   Sc6Ti4Al12Ir6Os
_chemical_formula_sum   'Sc6 Ti4 Al12 Ir6 Os1'
_cell_volume   483.36515033
_cell_formula_units_Z   1
loop_
 _symmetry_equiv_pos_site_id
 _symmetry_equiv_pos_as_xyz
  1  'x, y, z'
loop_
 _atom_site_type_symbol
 _atom_site_label
 _atom_site_symmetry_multiplicity
 _atom_site_fract_x
 _atom_site_fract_y
 _atom_site_fract_z
 _atom_site_occupancy
  Sc  Sc0  1  0.706455  0.702256  0.293584  1
  Sc  Sc1  1  0.291013  0.708987  0.291013  1
  Sc  Sc2  1  0.706455  0.297705  0.293584  1
  Sc  Sc3  1  0.293584  0.297705  0.706455  1
  Sc  Sc4  1  0.709982  0.290018  0.709982  1
  Sc  Sc5  1  0.293584  0.702256  0.706455  1
  Ti  Ti6  1  0.878916  0.880736  0.359612  1
  Ti  Ti7  1  0.881479  0.359970  0.881479  1
  Ti  Ti8  1  0.359612  0.880736  0.878916  1
  Ti  Ti9  1  0.881479  0.877074  0.881479  1
  Al  Al10  1  0.120905  0.119551  0.639992  1
  Al  Al11  1  0.119090  0.639933  0.119090  1
  Al  Al12  1  0.639992  0.119551  0.120905  1
  Al  Al13  1  0.119090  0.121885  0.119090  1
  Al  Al14  1  0.664237  0.665685  0.004394  1
  Al  Al15  1  0.664300  0.007645  0.664300  1
  Al  Al16  1  0.004394  0.665685  0.664237  1
  Al  Al17  1  0.664300  0.663751  0.664300  1
  Al  Al18  1  0.334263  0.333489  0.998758  1
  Al  Al19  1  0.334700  0.995819  0.334700  1
  Al  Al20  1  0.998758  0.333489  0.334263  1
  Al  Al21  1  0.334700  0.334783  0.334700  1
  Ir  Ir22  1  0.000107  0.999893  0.000107  1
  Ir  Ir23  1  0.999237  0.998740  0.500394  1
  Ir  Ir24  1  0.500944  0.999056  0.500944  1
  Ir  Ir25  1  0.999237  0.501630  0.500394  1
  Ir  Ir26  1  0.500394  0.501630  0.999237  1
  Ir  Ir27  1  0.500394  0.998740  0.999237  1
  Os  Os28  1  0.998400  0.501600  0.998400  1
