# generated using pymatgen
data_Na2CoBr4
_symmetry_space_group_name_H-M   'P 1'
_cell_length_a   6.79805300
_cell_length_b   8.71083400
_cell_length_c   14.68328100
_cell_angle_alpha   90.00000000
_cell_angle_beta   90.00000000
_cell_angle_gamma   90.00000000
_symmetry_Int_Tables_number   1
_chemical_formula_structural   Na2CoBr4
_chemical_formula_sum   'Na8 Co4 Br16'
_cell_volume   869.49561054
_cell_formula_units_Z   4
loop_
 _symmetry_equiv_pos_site_id
 _symmetry_equiv_pos_as_xyz
  1  'x, y, z'
loop_
 _atom_site_type_symbol
 _atom_site_label
 _atom_site_symmetry_multiplicity
 _atom_site_fract_x
 _atom_site_fract_y
 _atom_site_fract_z
 _atom_site_occupancy
  Na  Na0  1  0.000000  0.000000  0.000000  1
  Na  Na1  1  0.500000  0.000000  0.500000  1
  Na  Na2  1  0.000000  0.500000  0.000000  1
  Na  Na3  1  0.500000  0.500000  0.500000  1
  Na  Na4  1  0.016833  0.750000  0.271273  1
  Na  Na5  1  0.516833  0.250000  0.228727  1
  Na  Na6  1  0.983167  0.250000  0.728727  1
  Na  Na7  1  0.483167  0.750000  0.771273  1
  Co  Co8  1  0.597469  0.750000  0.090808  1
  Co  Co9  1  0.902531  0.750000  0.590808  1
  Co  Co10  1  0.402531  0.250000  0.909192  1
  Co  Co11  1  0.097469  0.250000  0.409192  1
  Br  Br12  1  0.756585  0.969633  0.665641  1
  Br  Br13  1  0.243415  0.469633  0.334359  1
  Br  Br14  1  0.743415  0.530367  0.165641  1
  Br  Br15  1  0.754696  0.250000  0.908370  1
  Br  Br16  1  0.245304  0.750000  0.091630  1
  Br  Br17  1  0.745304  0.250000  0.408370  1
  Br  Br18  1  0.233531  0.250000  0.561710  1
  Br  Br19  1  0.254696  0.750000  0.591630  1
  Br  Br20  1  0.766469  0.750000  0.438290  1
  Br  Br21  1  0.266469  0.250000  0.061710  1
  Br  Br22  1  0.756585  0.530367  0.665641  1
  Br  Br23  1  0.733531  0.750000  0.938290  1
  Br  Br24  1  0.743415  0.969633  0.165641  1
  Br  Br25  1  0.243415  0.030367  0.334359  1
  Br  Br26  1  0.256585  0.469633  0.834359  1
  Br  Br27  1  0.256585  0.030367  0.834359  1
