# generated using pymatgen
data_V10GeB4P
_symmetry_space_group_name_H-M   'P 1'
_cell_length_a   6.74777264
_cell_length_b   6.74777439
_cell_length_c   6.74777316
_cell_angle_alpha   129.25864306
_cell_angle_beta   129.25865866
_cell_angle_gamma   74.59475093
_symmetry_Int_Tables_number   1
_chemical_formula_structural   V10GeB4P
_chemical_formula_sum   'V10 Ge1 B4 P1'
_cell_volume   179.48521862
_cell_formula_units_Z   1
loop_
 _symmetry_equiv_pos_site_id
 _symmetry_equiv_pos_as_xyz
  1  'x, y, z'
loop_
 _atom_site_type_symbol
 _atom_site_label
 _atom_site_symmetry_multiplicity
 _atom_site_fract_x
 _atom_site_fract_y
 _atom_site_fract_z
 _atom_site_occupancy
  V  V0  1  0.199029  0.689387  0.163294  1
  V  V1  1  0.464265  0.973907  0.163294  1
  V  V2  1  0.999977  0.999977  0.000000  1
  V  V3  1  0.500023  0.500023  0.000000  1
  V  V4  1  0.526093  0.035735  0.836706  1
  V  V5  1  0.035735  0.199029  0.509641  1
  V  V6  1  0.689387  0.526093  0.490359  1
  V  V7  1  0.973907  0.810613  0.509641  1
  V  V8  1  0.300971  0.464265  0.490359  1
  V  V9  1  0.810613  0.300971  0.836706  1
  Ge  Ge10  1  0.750000  0.750000  0.000000  1
  B  B11  1  0.884090  0.384090  0.268179  1
  B  B12  1  0.384090  0.115910  0.500000  1
  B  B13  1  0.615910  0.884090  0.500000  1
  B  B14  1  0.115910  0.615910  0.731821  1
  P  P15  1  0.250000  0.250000  0.000000  1
