# generated using pymatgen
data_Er4Ga18PdRh5
_symmetry_space_group_name_H-M   'P 1'
_cell_length_a   7.57647439
_cell_length_b   7.57647433
_cell_length_c   9.49658853
_cell_angle_alpha   89.98084328
_cell_angle_beta   89.98084527
_cell_angle_gamma   119.85916375
_symmetry_Int_Tables_number   1
_chemical_formula_structural   Er4Ga18PdRh5
_chemical_formula_sum   'Er4 Ga18 Pd1 Rh5'
_cell_volume   472.76689446
_cell_formula_units_Z   1
loop_
 _symmetry_equiv_pos_site_id
 _symmetry_equiv_pos_as_xyz
  1  'x, y, z'
loop_
 _atom_site_type_symbol
 _atom_site_label
 _atom_site_symmetry_multiplicity
 _atom_site_fract_x
 _atom_site_fract_y
 _atom_site_fract_z
 _atom_site_occupancy
  Er  Er0  1  0.996746  0.668458  0.250576  1
  Er  Er1  1  0.003768  0.331866  0.749463  1
  Er  Er2  1  0.668134  0.996232  0.250537  1
  Er  Er3  1  0.331542  0.003254  0.749424  1
  Ga  Ga4  1  0.125451  0.125089  0.250152  1
  Ga  Ga5  1  0.874911  0.874549  0.749848  1
  Ga  Ga6  1  0.001937  0.334093  0.080452  1
  Ga  Ga7  1  0.002772  0.668255  0.919673  1
  Ga  Ga8  1  0.000717  0.665889  0.579298  1
  Ga  Ga9  1  0.334111  0.999283  0.420702  1
  Ga  Ga10  1  0.999271  0.333972  0.420557  1
  Ga  Ga11  1  0.666028  0.000729  0.579443  1
  Ga  Ga12  1  0.665907  0.998063  0.919548  1
  Ga  Ga13  1  0.331745  0.997228  0.080327  1
  Ga  Ga14  1  0.332720  0.332669  0.564600  1
  Ga  Ga15  1  0.667331  0.667280  0.435400  1
  Ga  Ga16  1  0.667105  0.669483  0.065775  1
  Ga  Ga17  1  0.330517  0.332895  0.934225  1
  Ga  Ga18  1  0.338797  0.547588  0.250199  1
  Ga  Ga19  1  0.661341  0.453559  0.747930  1
  Ga  Ga20  1  0.546441  0.338659  0.252070  1
  Ga  Ga21  1  0.452412  0.661203  0.749801  1
  Pd  Pd22  1  0.671728  0.328272  0.000000  1
  Rh  Rh23  1  0.328426  0.671574  0.000000  1
  Rh  Rh24  1  0.328137  0.671863  0.500000  1
  Rh  Rh25  1  0.671935  0.328065  0.500000  1
  Rh  Rh26  1  0.000096  0.999904  0.000000  1
  Rh  Rh27  1  0.999974  0.000026  0.500000  1
