# generated using pymatgen
data_Ti8CoMo3Ir4
_symmetry_space_group_name_H-M   'P 1'
_cell_length_a   6.22724900
_cell_length_b   4.39200700
_cell_length_c   8.78220700
_cell_angle_alpha   90.00000000
_cell_angle_beta   90.00009134
_cell_angle_gamma   90.00000000
_symmetry_Int_Tables_number   1
_chemical_formula_structural   Ti8CoMo3Ir4
_chemical_formula_sum   'Ti8 Co1 Mo3 Ir4'
_cell_volume   240.19442584
_cell_formula_units_Z   1
loop_
 _symmetry_equiv_pos_site_id
 _symmetry_equiv_pos_as_xyz
  1  'x, y, z'
loop_
 _atom_site_type_symbol
 _atom_site_label
 _atom_site_symmetry_multiplicity
 _atom_site_fract_x
 _atom_site_fract_y
 _atom_site_fract_z
 _atom_site_occupancy
  Ti  Ti0  1  0.999054  0.749999  0.124214  1
  Ti  Ti1  1  0.500947  0.749999  0.124216  1
  Ti  Ti2  1  0.999177  0.250000  0.375004  1
  Ti  Ti3  1  0.500820  0.250000  0.375004  1
  Ti  Ti4  1  0.999054  0.749999  0.625787  1
  Ti  Ti5  1  0.500947  0.749999  0.625784  1
  Ti  Ti6  1  0.998768  0.250000  0.875002  1
  Ti  Ti7  1  0.501243  0.250000  0.875001  1
  Co  Co8  1  0.250020  0.749999  0.874975  1
  Mo  Mo9  1  0.749986  0.250000  0.122518  1
  Mo  Mo10  1  0.250010  0.749999  0.374995  1
  Mo  Mo11  1  0.749985  0.250000  0.627486  1
  Ir  Ir12  1  0.249995  0.250000  0.120281  1
  Ir  Ir13  1  0.750004  0.749999  0.375008  1
  Ir  Ir14  1  0.249996  0.250000  0.629718  1
  Ir  Ir15  1  0.749993  0.749999  0.875007  1
