# generated using pymatgen
data_La20Si15Pt
_symmetry_space_group_name_H-M   'P 1'
_cell_length_a   8.00826040
_cell_length_b   8.01959936
_cell_length_c   15.52976700
_cell_angle_alpha   89.91074411
_cell_angle_beta   89.65831646
_cell_angle_gamma   90.12295777
_symmetry_Int_Tables_number   1
_chemical_formula_structural   La20Si15Pt
_chemical_formula_sum   'La20 Si15 Pt1'
_cell_volume   997.34758508
_cell_formula_units_Z   1
loop_
 _symmetry_equiv_pos_site_id
 _symmetry_equiv_pos_as_xyz
  1  'x, y, z'
loop_
 _atom_site_type_symbol
 _atom_site_label
 _atom_site_symmetry_multiplicity
 _atom_site_fract_x
 _atom_site_fract_y
 _atom_site_fract_z
 _atom_site_occupancy
  La  La0  1  0.304150  0.305019  0.998503  1
  La  La1  1  0.193783  0.807579  0.249942  1
  La  La2  1  0.814682  0.186995  0.751703  1
  La  La3  1  0.693403  0.687234  0.499161  1
  La  La4  1  0.374616  0.010032  0.447770  1
  La  La5  1  0.490789  0.872878  0.699126  1
  La  La6  1  0.510615  0.121519  0.197265  1
  La  La7  1  0.877067  0.487898  0.300326  1
  La  La8  1  0.122663  0.512834  0.800327  1
  La  La9  1  0.627419  0.988029  0.948646  1
  La  La10  1  0.003052  0.379247  0.551887  1
  La  La11  1  0.989808  0.625170  0.051853  1
  La  La12  1  0.135511  0.986486  0.875086  1
  La  La13  1  0.518011  0.630443  0.126381  1
  La  La14  1  0.474388  0.365516  0.628645  1
  La  La15  1  0.627834  0.518205  0.873688  1
  La  La16  1  0.371545  0.481390  0.372936  1
  La  La17  1  0.871504  0.021096  0.376361  1
  La  La18  1  0.980644  0.126636  0.124251  1
  La  La19  1  0.022775  0.878282  0.623763  1
  Si  Si20  1  0.333241  0.696462  0.952092  1
  Si  Si21  1  0.662081  0.301901  0.454163  1
  Si  Si22  1  0.697928  0.335469  0.048155  1
  Si  Si23  1  0.303487  0.668434  0.546791  1
  Si  Si24  1  0.806049  0.830477  0.204466  1
  Si  Si25  1  0.168013  0.196509  0.295940  1
  Si  Si26  1  0.835812  0.802739  0.797245  1
  Si  Si27  1  0.289463  0.920980  0.058263  1
  Si  Si28  1  0.580562  0.787886  0.309752  1
  Si  Si29  1  0.431308  0.206608  0.812142  1
  Si  Si30  1  0.786435  0.582285  0.690528  1
  Si  Si31  1  0.211260  0.420960  0.190199  1
  Si  Si32  1  0.702676  0.075469  0.558991  1
  Si  Si33  1  0.919207  0.290584  0.941855  1
  Si  Si34  1  0.080083  0.713817  0.441825  1
  Pt  Pt35  1  0.188139  0.176934  0.699972  1
