# generated using pymatgen
data_TbEr11InCo4Pd
_symmetry_space_group_name_H-M   'P 1'
_cell_length_a   8.25845606
_cell_length_b   8.25845495
_cell_length_c   8.25457657
_cell_angle_alpha   110.91816829
_cell_angle_beta   110.66489084
_cell_angle_gamma   106.88176821
_symmetry_Int_Tables_number   1
_chemical_formula_structural   TbEr11InCo4Pd
_chemical_formula_sum   'Tb1 Er11 In1 Co4 Pd1'
_cell_volume   432.60748795
_cell_formula_units_Z   1
loop_
 _symmetry_equiv_pos_site_id
 _symmetry_equiv_pos_as_xyz
  1  'x, y, z'
loop_
 _atom_site_type_symbol
 _atom_site_label
 _atom_site_symmetry_multiplicity
 _atom_site_fract_x
 _atom_site_fract_y
 _atom_site_fract_z
 _atom_site_occupancy
  Tb  Tb0  1  0.188277  0.294080  0.482358  1
  Er  Er1  1  0.812272  0.706112  0.518382  1
  Er  Er2  1  0.187847  0.706907  0.894754  1
  Er  Er3  1  0.810906  0.294563  0.105468  1
  Er  Er4  1  0.314570  0.618685  0.303832  1
  Er  Er5  1  0.686562  0.381500  0.696295  1
  Er  Er6  1  0.314795  0.009733  0.696295  1
  Er  Er7  1  0.685147  0.989261  0.303832  1
  Er  Er8  1  0.416999  0.215818  0.200144  1
  Er  Er9  1  0.588511  0.788049  0.801582  1
  Er  Er10  1  0.013533  0.213070  0.801582  1
  Er  Er11  1  0.984326  0.783146  0.200144  1
  In  In12  1  0.499309  0.500284  0.999593  1
  Co  Co13  1  0.110391  0.613357  0.498761  1
  Co  Co14  1  0.885404  0.388370  0.498761  1
  Co  Co15  1  0.378860  0.998528  0.377387  1
  Co  Co16  1  0.619149  0.999973  0.619122  1
  Pd  Pd17  1  0.003144  0.998567  0.001711  1
