# generated using pymatgen
data_Zr8Fe2Co5Si14Pd
_symmetry_space_group_name_H-M   'P 1'
_cell_length_a   9.55624333
_cell_length_b   9.55624389
_cell_length_c   9.54407335
_cell_angle_alpha   94.11661179
_cell_angle_beta   94.11660696
_cell_angle_gamma   148.73100363
_symmetry_Int_Tables_number   1
_chemical_formula_structural   Zr8Fe2Co5Si14Pd
_chemical_formula_sum   'Zr8 Fe2 Co5 Si14 Pd1'
_cell_volume   436.05557494
_cell_formula_units_Z   1
loop_
 _symmetry_equiv_pos_site_id
 _symmetry_equiv_pos_as_xyz
  1  'x, y, z'
loop_
 _atom_site_type_symbol
 _atom_site_label
 _atom_site_symmetry_multiplicity
 _atom_site_fract_x
 _atom_site_fract_y
 _atom_site_fract_z
 _atom_site_occupancy
  Zr  Zr0  1  0.696386  0.500497  0.194456  1
  Zr  Zr1  1  0.497226  0.695039  0.196032  1
  Zr  Zr2  1  0.499503  0.303614  0.805544  1
  Zr  Zr3  1  0.304961  0.502774  0.803968  1
  Zr  Zr4  1  0.864445  0.866000  0.725393  1
  Zr  Zr5  1  0.137189  0.862811  0.000000  1
  Zr  Zr6  1  0.861929  0.138071  0.000000  1
  Zr  Zr7  1  0.134000  0.135555  0.274607  1
  Fe  Fe8  1  0.900000  0.100000  0.500000  1
  Fe  Fe9  1  0.393360  0.606640  0.500000  1
  Co  Co10  1  0.903909  0.399901  0.799246  1
  Co  Co11  1  0.600099  0.096091  0.200754  1
  Co  Co12  1  0.102094  0.603555  0.208744  1
  Co  Co13  1  0.603126  0.396874  0.500000  1
  Co  Co14  1  0.396445  0.897906  0.791256  1
  Si  Si15  1  0.748676  0.749653  0.000059  1
  Si  Si16  1  0.250347  0.251324  0.999941  1
  Si  Si17  1  0.086439  0.493970  0.589712  1
  Si  Si18  1  0.538920  0.124166  0.597031  1
  Si  Si19  1  0.506030  0.913561  0.410288  1
  Si  Si20  1  0.875834  0.461080  0.402969  1
  Si  Si21  1  0.702093  0.003118  0.697492  1
  Si  Si22  1  0.991481  0.687877  0.706015  1
  Si  Si23  1  0.688436  0.695482  0.420213  1
  Si  Si24  1  0.289185  0.710815  0.000000  1
  Si  Si25  1  0.312123  0.008519  0.293985  1
  Si  Si26  1  0.710988  0.289012  0.000000  1
  Si  Si27  1  0.304518  0.311564  0.579787  1
  Si  Si28  1  0.996882  0.297907  0.302508  1
  Pd  Pd29  1  0.103376  0.896624  0.500000  1
