# generated using pymatgen
data_Ho10In5PbBr2
_symmetry_space_group_name_H-M   'P 1'
_cell_length_a   9.13914700
_cell_length_b   9.14276657
_cell_length_c   6.77643200
_cell_angle_alpha   90.00000000
_cell_angle_beta   90.00000000
_cell_angle_gamma   119.98690118
_symmetry_Int_Tables_number   1
_chemical_formula_structural   Ho10In5PbBr2
_chemical_formula_sum   'Ho10 In5 Pb1 Br2'
_cell_volume   490.42468202
_cell_formula_units_Z   1
loop_
 _symmetry_equiv_pos_site_id
 _symmetry_equiv_pos_as_xyz
  1  'x, y, z'
loop_
 _atom_site_type_symbol
 _atom_site_label
 _atom_site_symmetry_multiplicity
 _atom_site_fract_x
 _atom_site_fract_y
 _atom_site_fract_z
 _atom_site_occupancy
  Ho  Ho0  1  0.733443  0.734211  0.250000  1
  Ho  Ho1  1  0.997132  0.733115  0.750000  1
  Ho  Ho2  1  0.736476  0.000000  0.750000  1
  Ho  Ho3  1  0.333273  0.664575  0.498454  1
  Ho  Ho4  1  0.264017  0.266885  0.750000  1
  Ho  Ho5  1  0.999231  0.265789  0.250000  1
  Ho  Ho6  1  0.668699  0.335425  0.498454  1
  Ho  Ho7  1  0.264897  0.000000  0.250000  1
  Ho  Ho8  1  0.333273  0.664575  0.001546  1
  Ho  Ho9  1  0.668699  0.335425  0.001546  1
  In  In10  1  0.000076  0.607336  0.250000  1
  In  In11  1  0.607476  0.000000  0.250000  1
  In  In12  1  0.999905  0.392912  0.750000  1
  In  In13  1  0.392740  0.392664  0.250000  1
  In  In14  1  0.606993  0.607088  0.750000  1
  Pb  Pb15  1  0.392583  0.000000  0.750000  1
  Br  Br16  1  0.000543  0.000000  0.500535  1
  Br  Br17  1  0.000543  0.000000  0.999465  1
