# generated using pymatgen
data_Ni8B4Pt3Rh
_symmetry_space_group_name_H-M   'P 1'
_cell_length_a   4.50351750
_cell_length_b   5.44309124
_cell_length_c   6.91810000
_cell_angle_alpha   90.00000000
_cell_angle_beta   90.00000000
_cell_angle_gamma   90.01304868
_symmetry_Int_Tables_number   1
_chemical_formula_structural   Ni8B4Pt3Rh
_chemical_formula_sum   'Ni8 B4 Pt3 Rh1'
_cell_volume   169.58377277
_cell_formula_units_Z   1
loop_
 _symmetry_equiv_pos_site_id
 _symmetry_equiv_pos_as_xyz
  1  'x, y, z'
loop_
 _atom_site_type_symbol
 _atom_site_label
 _atom_site_symmetry_multiplicity
 _atom_site_fract_x
 _atom_site_fract_y
 _atom_site_fract_z
 _atom_site_occupancy
  Ni  Ni0  1  0.648682  0.822048  0.932475  1
  Ni  Ni1  1  0.147217  0.680205  0.065938  1
  Ni  Ni2  1  0.852668  0.320754  0.568181  1
  Ni  Ni3  1  0.350080  0.175342  0.435278  1
  Ni  Ni4  1  0.648682  0.822048  0.567525  1
  Ni  Ni5  1  0.147217  0.680205  0.434062  1
  Ni  Ni6  1  0.852668  0.320754  0.931819  1
  Ni  Ni7  1  0.350080  0.175342  0.064722  1
  B  B8  1  0.585967  0.111788  0.750000  1
  B  B9  1  0.087932  0.386029  0.250000  1
  B  B10  1  0.919560  0.618922  0.750000  1
  B  B11  1  0.412862  0.885574  0.250000  1
  Pt  Pt12  1  0.866079  0.032593  0.250000  1
  Pt  Pt13  1  0.366120  0.468553  0.750000  1
  Pt  Pt14  1  0.631006  0.530807  0.250000  1
  Rh  Rh15  1  0.133179  0.969040  0.750000  1
