# generated using pymatgen
data_Yb12Si8Ir3Pd5
_symmetry_space_group_name_H-M   'P 1'
_cell_length_a   5.65319994
_cell_length_b   7.83280605
_cell_length_c   13.28723920
_cell_angle_alpha   90.09361772
_cell_angle_beta   89.93800177
_cell_angle_gamma   90.65560420
_symmetry_Int_Tables_number   1
_chemical_formula_structural   Yb12Si8Ir3Pd5
_chemical_formula_sum   'Yb12 Si8 Ir3 Pd5'
_cell_volume   588.32488035
_cell_formula_units_Z   1
loop_
 _symmetry_equiv_pos_site_id
 _symmetry_equiv_pos_as_xyz
  1  'x, y, z'
loop_
 _atom_site_type_symbol
 _atom_site_label
 _atom_site_symmetry_multiplicity
 _atom_site_fract_x
 _atom_site_fract_y
 _atom_site_fract_z
 _atom_site_occupancy
  Yb  Yb0  1  0.649616  0.240798  0.249212  1
  Yb  Yb1  1  0.349318  0.761178  0.750396  1
  Yb  Yb2  1  0.354992  0.747256  0.247918  1
  Yb  Yb3  1  0.640761  0.254099  0.751382  1
  Yb  Yb4  1  0.138067  0.387777  0.099327  1
  Yb  Yb5  1  0.860391  0.615027  0.899833  1
  Yb  Yb6  1  0.863468  0.612626  0.599872  1
  Yb  Yb7  1  0.863438  0.891835  0.399713  1
  Yb  Yb8  1  0.139582  0.389022  0.398427  1
  Yb  Yb9  1  0.142082  0.103826  0.602003  1
  Yb  Yb10  1  0.139748  0.103234  0.899819  1
  Yb  Yb11  1  0.858638  0.895684  0.099723  1
  Si  Si12  1  0.156821  0.097927  0.247662  1
  Si  Si13  1  0.833648  0.908390  0.748286  1
  Si  Si14  1  0.845980  0.597233  0.249909  1
  Si  Si15  1  0.151986  0.404499  0.750389  1
  Si  Si16  1  0.618345  0.237820  0.998794  1
  Si  Si17  1  0.380261  0.761696  0.001427  1
  Si  Si18  1  0.381815  0.753615  0.502959  1
  Si  Si19  1  0.630426  0.243000  0.505422  1
  Ir  Ir20  1  0.370335  0.035423  0.092916  1
  Ir  Ir21  1  0.628844  0.964027  0.906898  1
  Ir  Ir22  1  0.628819  0.965033  0.589682  1
  Pd  Pd23  1  0.626601  0.528112  0.409775  1
  Pd  Pd24  1  0.372605  0.034456  0.407623  1
  Pd  Pd25  1  0.372723  0.467273  0.590770  1
  Pd  Pd26  1  0.371775  0.471187  0.910314  1
  Pd  Pd27  1  0.628916  0.527945  0.089551  1
