# generated using pymatgen
data_Tm8GePd23Pt
_symmetry_space_group_name_H-M   'P 1'
_cell_length_a   8.29303500
_cell_length_b   8.29791800
_cell_length_c   8.29791800
_cell_angle_alpha   90.00000000
_cell_angle_beta   90.00000000
_cell_angle_gamma   90.00000000
_symmetry_Int_Tables_number   1
_chemical_formula_structural   Tm8GePd23Pt
_chemical_formula_sum   'Tm8 Ge1 Pd23 Pt1'
_cell_volume   571.02059986
_cell_formula_units_Z   1
loop_
 _symmetry_equiv_pos_site_id
 _symmetry_equiv_pos_as_xyz
  1  'x, y, z'
loop_
 _atom_site_type_symbol
 _atom_site_label
 _atom_site_symmetry_multiplicity
 _atom_site_fract_x
 _atom_site_fract_y
 _atom_site_fract_z
 _atom_site_occupancy
  Tm  Tm0  1  0.253224  0.252878  0.252878  1
  Tm  Tm1  1  0.746575  0.746147  0.746147  1
  Tm  Tm2  1  0.746575  0.746147  0.253853  1
  Tm  Tm3  1  0.746575  0.253853  0.746147  1
  Tm  Tm4  1  0.253224  0.252878  0.747122  1
  Tm  Tm5  1  0.253224  0.747122  0.252878  1
  Tm  Tm6  1  0.253224  0.747122  0.747122  1
  Tm  Tm7  1  0.746575  0.253853  0.253853  1
  Ge  Ge8  1  0.001395  0.000000  0.000000  1
  Pd  Pd9  1  0.258906  0.500000  0.000000  1
  Pd  Pd10  1  0.740318  0.500000  0.000000  1
  Pd  Pd11  1  0.000046  0.259501  0.500000  1
  Pd  Pd12  1  0.500206  0.259789  0.000000  1
  Pd  Pd13  1  0.000046  0.740499  0.500000  1
  Pd  Pd14  1  0.500206  0.740211  0.000000  1
  Pd  Pd15  1  0.500206  0.000000  0.259789  1
  Pd  Pd16  1  0.258906  0.000000  0.500000  1
  Pd  Pd17  1  0.500206  0.000000  0.740211  1
  Pd  Pd18  1  0.740318  0.000000  0.500000  1
  Pd  Pd19  1  0.000046  0.500000  0.259501  1
  Pd  Pd20  1  0.000046  0.500000  0.740499  1
  Pd  Pd21  1  0.252714  0.500000  0.500000  1
  Pd  Pd22  1  0.747532  0.500000  0.500000  1
  Pd  Pd23  1  0.499947  0.252794  0.500000  1
  Pd  Pd24  1  0.499947  0.747206  0.500000  1
  Pd  Pd25  1  0.499947  0.500000  0.252794  1
  Pd  Pd26  1  0.499947  0.500000  0.747206  1
  Pd  Pd27  1  0.712864  0.000000  0.000000  1
  Pd  Pd28  1  0.999191  0.289085  0.000000  1
  Pd  Pd29  1  0.999191  0.710915  0.000000  1
  Pd  Pd30  1  0.999191  0.000000  0.289085  1
  Pd  Pd31  1  0.999191  0.000000  0.710915  1
  Pt  Pt32  1  0.290288  0.000000  0.000000  1
