# generated using pymatgen
data_K2CdIn3Au8
_symmetry_space_group_name_H-M   'P 1'
_cell_length_a   7.58919431
_cell_length_b   7.58919489
_cell_length_c   7.62407757
_cell_angle_alpha   107.81053040
_cell_angle_beta   107.81052665
_cell_angle_gamma   112.67153995
_symmetry_Int_Tables_number   1
_chemical_formula_structural   K2CdIn3Au8
_chemical_formula_sum   'K2 Cd1 In3 Au8'
_cell_volume   337.91762309
_cell_formula_units_Z   1
loop_
 _symmetry_equiv_pos_site_id
 _symmetry_equiv_pos_as_xyz
  1  'x, y, z'
loop_
 _atom_site_type_symbol
 _atom_site_label
 _atom_site_symmetry_multiplicity
 _atom_site_fract_x
 _atom_site_fract_y
 _atom_site_fract_z
 _atom_site_occupancy
  K  K0  1  0.750043  0.750043  0.000085  1
  K  K1  1  0.250043  0.250043  0.000085  1
  Cd  Cd2  1  0.852464  0.352464  0.204927  1
  In  In3  1  0.355566  0.143584  0.499149  1
  In  In4  1  0.643584  0.855566  0.499149  1
  In  In5  1  0.145646  0.645646  0.791292  1
  Au  Au6  1  0.685339  0.485362  0.500473  1
  Au  Au7  1  0.485999  0.985999  0.802677  1
  Au  Au8  1  0.985362  0.185339  0.500473  1
  Au  Au9  1  0.183071  0.683071  0.199033  1
  Au  Au10  1  0.515963  0.015963  0.199033  1
  Au  Au11  1  0.015111  0.815134  0.500473  1
  Au  Au12  1  0.315134  0.515111  0.500473  1
  Au  Au13  1  0.816676  0.316676  0.802677  1
