# generated using pymatgen
data_Ce2HRh6
_symmetry_space_group_name_H-M   'P 1'
_cell_length_a   5.78656966
_cell_length_b   5.78662747
_cell_length_c   5.78667800
_cell_angle_alpha   59.99905506
_cell_angle_beta   60.00005297
_cell_angle_gamma   60.00091012
_symmetry_Int_Tables_number   1
_chemical_formula_structural   Ce2HRh6
_chemical_formula_sum   'Ce2 H1 Rh6'
_cell_volume   137.01278311
_cell_formula_units_Z   1
loop_
 _symmetry_equiv_pos_site_id
 _symmetry_equiv_pos_as_xyz
  1  'x, y, z'
loop_
 _atom_site_type_symbol
 _atom_site_label
 _atom_site_symmetry_multiplicity
 _atom_site_fract_x
 _atom_site_fract_y
 _atom_site_fract_z
 _atom_site_occupancy
  Ce  Ce0  1  0.250000  0.250000  0.250000  1
  Ce  Ce1  1  0.750000  0.750000  0.750000  1
  H  H2  1  0.000000  0.000000  0.000000  1
  Rh  Rh3  1  0.748192  0.251808  0.251808  1
  Rh  Rh4  1  0.251809  0.748191  0.251809  1
  Rh  Rh5  1  0.748192  0.748192  0.251808  1
  Rh  Rh6  1  0.251808  0.251808  0.748192  1
  Rh  Rh7  1  0.748191  0.251809  0.748191  1
  Rh  Rh8  1  0.251808  0.748192  0.748192  1
