# generated using pymatgen
data_Na3Co4P6Rh5
_symmetry_space_group_name_H-M   'P 1'
_cell_length_a   3.75984600
_cell_length_b   10.89964400
_cell_length_c   12.37150400
_cell_angle_alpha   90.00000000
_cell_angle_beta   90.00000000
_cell_angle_gamma   90.00000000
_symmetry_Int_Tables_number   1
_chemical_formula_structural   Na3Co4P6Rh5
_chemical_formula_sum   'Na6 Co8 P12 Rh10'
_cell_volume   506.99639381
_cell_formula_units_Z   2
loop_
 _symmetry_equiv_pos_site_id
 _symmetry_equiv_pos_as_xyz
  1  'x, y, z'
loop_
 _atom_site_type_symbol
 _atom_site_label
 _atom_site_symmetry_multiplicity
 _atom_site_fract_x
 _atom_site_fract_y
 _atom_site_fract_z
 _atom_site_occupancy
  Na  Na0  1  0.000000  0.500000  0.525042  1
  Na  Na1  1  0.500000  0.000000  0.472837  1
  Na  Na2  1  0.500000  0.821859  0.199628  1
  Na  Na3  1  0.500000  0.178141  0.199628  1
  Na  Na4  1  0.000000  0.675840  0.801303  1
  Na  Na5  1  0.000000  0.324160  0.801303  1
  Co  Co6  1  0.000000  0.500000  0.990987  1
  Co  Co7  1  0.500000  0.000000  0.015766  1
  Co  Co8  1  0.000000  0.616748  0.282947  1
  Co  Co9  1  0.000000  0.383252  0.282947  1
  Co  Co10  1  0.500000  0.332165  0.997155  1
  Co  Co11  1  0.500000  0.667835  0.997155  1
  Co  Co12  1  0.000000  0.167910  0.010706  1
  Co  Co13  1  0.000000  0.832090  0.010706  1
  P  P14  1  0.500000  0.311719  0.619051  1
  P  P15  1  0.500000  0.688281  0.619051  1
  P  P16  1  0.000000  0.200285  0.367151  1
  P  P17  1  0.000000  0.799715  0.367151  1
  P  P18  1  0.500000  0.500000  0.891057  1
  P  P19  1  0.000000  0.000000  0.115400  1
  P  P20  1  0.500000  0.841936  0.905824  1
  P  P21  1  0.500000  0.158064  0.905824  1
  P  P22  1  0.000000  0.656492  0.104056  1
  P  P23  1  0.000000  0.343508  0.104056  1
  P  P24  1  0.500000  0.500000  0.335748  1
  P  P25  1  0.000000  0.000000  0.661470  1
  Rh  Rh26  1  0.500000  0.307530  0.425395  1
  Rh  Rh27  1  0.500000  0.692470  0.425395  1
  Rh  Rh28  1  0.000000  0.198463  0.561980  1
  Rh  Rh29  1  0.000000  0.801537  0.561980  1
  Rh  Rh30  1  0.500000  0.873039  0.716241  1
  Rh  Rh31  1  0.500000  0.126961  0.716241  1
  Rh  Rh32  1  0.500000  0.500000  0.153761  1
  Rh  Rh33  1  0.000000  0.000000  0.850176  1
  Rh  Rh34  1  0.500000  0.500000  0.703789  1
  Rh  Rh35  1  0.000000  0.000000  0.301092  1
