# generated using pymatgen
data_Ca8DyHoIr4
_symmetry_space_group_name_H-M   'P 1'
_cell_length_a   6.63453655
_cell_length_b   7.40296137
_cell_length_c   8.64442400
_cell_angle_alpha   97.46540859
_cell_angle_beta   112.56595113
_cell_angle_gamma   89.99999552
_symmetry_Int_Tables_number   1
_chemical_formula_structural   Ca8DyHoIr4
_chemical_formula_sum   'Ca8 Dy1 Ho1 Ir4'
_cell_volume   388.16664941
_cell_formula_units_Z   1
loop_
 _symmetry_equiv_pos_site_id
 _symmetry_equiv_pos_as_xyz
  1  'x, y, z'
loop_
 _atom_site_type_symbol
 _atom_site_label
 _atom_site_symmetry_multiplicity
 _atom_site_fract_x
 _atom_site_fract_y
 _atom_site_fract_z
 _atom_site_occupancy
  Ca  Ca0  1  0.975958  0.920368  0.172978  1
  Ca  Ca1  1  0.802982  0.579632  0.827022  1
  Ca  Ca2  1  0.024042  0.079632  0.827022  1
  Ca  Ca3  1  0.197018  0.420368  0.172978  1
  Ca  Ca4  1  0.641858  0.819827  0.436234  1
  Ca  Ca5  1  0.205624  0.680173  0.563766  1
  Ca  Ca6  1  0.358142  0.180173  0.563766  1
  Ca  Ca7  1  0.794376  0.319827  0.436234  1
  Dy  Dy8  1  0.437303  0.750000  0.000000  1
  Ho  Ho9  1  0.562697  0.250000  0.000000  1
  Ir  Ir10  1  0.806583  0.573422  0.207751  1
  Ir  Ir11  1  0.598833  0.926578  0.792249  1
  Ir  Ir12  1  0.193417  0.426578  0.792249  1
  Ir  Ir13  1  0.401167  0.073422  0.207751  1
