# generated using pymatgen
data_HoEr(NpGa5)3
_symmetry_space_group_name_H-M   'P 1'
_cell_length_a   12.41346612
_cell_length_b   12.41346641
_cell_length_c   12.41346600
_cell_angle_alpha   28.66393121
_cell_angle_beta   28.66392876
_cell_angle_gamma   28.66393070
_symmetry_Int_Tables_number   1
_chemical_formula_structural   HoEr(NpGa5)3
_chemical_formula_sum   'Ho1 Er1 Np3 Ga15'
_cell_volume   389.09097770
_cell_formula_units_Z   1
loop_
 _symmetry_equiv_pos_site_id
 _symmetry_equiv_pos_as_xyz
  1  'x, y, z'
loop_
 _atom_site_type_symbol
 _atom_site_label
 _atom_site_symmetry_multiplicity
 _atom_site_fract_x
 _atom_site_fract_y
 _atom_site_fract_z
 _atom_site_occupancy
  Ho  Ho0  1  0.599547  0.599547  0.599547  1
  Er  Er1  1  0.400729  0.400729  0.400729  1
  Np  Np2  1  0.129829  0.129829  0.129829  1
  Np  Np3  1  0.870153  0.870153  0.870153  1
  Np  Np4  1  0.999832  0.999832  0.999832  1
  Ga  Ga5  1  0.430576  0.883515  0.883515  1
  Ga  Ga6  1  0.883515  0.883515  0.430576  1
  Ga  Ga7  1  0.883515  0.430576  0.883515  1
  Ga  Ga8  1  0.115670  0.570780  0.115670  1
  Ga  Ga9  1  0.115670  0.115670  0.570780  1
  Ga  Ga10  1  0.570780  0.115670  0.115670  1
  Ga  Ga11  1  0.127207  0.637259  0.637259  1
  Ga  Ga12  1  0.637259  0.637259  0.127207  1
  Ga  Ga13  1  0.637259  0.127207  0.637259  1
  Ga  Ga14  1  0.362877  0.872830  0.362877  1
  Ga  Ga15  1  0.362877  0.362877  0.872830  1
  Ga  Ga16  1  0.872830  0.362877  0.362877  1
  Ga  Ga17  1  0.499282  0.499282  0.001312  1
  Ga  Ga18  1  0.499282  0.001312  0.499282  1
  Ga  Ga19  1  0.001312  0.499282  0.499282  1
