# generated using pymatgen
data_Cs2Ca(PtO2)3
_symmetry_space_group_name_H-M   'P 1'
_cell_length_a   10.24078943
_cell_length_b   9.08939820
_cell_length_c   7.95634668
_cell_angle_alpha   73.51330987
_cell_angle_beta   58.32893093
_cell_angle_gamma   48.15773974
_symmetry_Int_Tables_number   1
_chemical_formula_structural   Cs2Ca(PtO2)3
_chemical_formula_sum   'Cs4 Ca2 Pt6 O12'
_cell_volume   466.98102962
_cell_formula_units_Z   2
loop_
 _symmetry_equiv_pos_site_id
 _symmetry_equiv_pos_as_xyz
  1  'x, y, z'
loop_
 _atom_site_type_symbol
 _atom_site_label
 _atom_site_symmetry_multiplicity
 _atom_site_fract_x
 _atom_site_fract_y
 _atom_site_fract_z
 _atom_site_occupancy
  Cs  Cs0  1  0.750000  0.750000  0.750000  1
  Cs  Cs1  1  0.250000  0.250000  0.250000  1
  Cs  Cs2  1  0.222962  0.777038  0.222962  1
  Cs  Cs3  1  0.777038  0.222962  0.777038  1
  Ca  Ca4  1  0.669294  0.669294  0.330706  1
  Ca  Ca5  1  0.330706  0.330706  0.669294  1
  Pt  Pt6  1  0.700249  0.004528  0.299751  1
  Pt  Pt7  1  0.995472  0.299751  0.004528  1
  Pt  Pt8  1  0.004528  0.700249  0.995472  1
  Pt  Pt9  1  0.299751  0.995472  0.700249  1
  Pt  Pt10  1  0.307736  0.692264  0.692264  1
  Pt  Pt11  1  0.692264  0.307736  0.307736  1
  O  O12  1  0.304231  0.494630  0.889783  1
  O  O13  1  0.311356  0.889783  0.494630  1
  O  O14  1  0.889783  0.311356  0.304231  1
  O  O15  1  0.494630  0.304231  0.311356  1
  O  O16  1  0.695769  0.505370  0.110217  1
  O  O17  1  0.688644  0.110217  0.505370  1
  O  O18  1  0.705243  0.898994  0.101006  1
  O  O19  1  0.505370  0.695769  0.688644  1
  O  O20  1  0.898994  0.705243  0.294757  1
  O  O21  1  0.101006  0.294757  0.705243  1
  O  O22  1  0.294757  0.101006  0.898994  1
  O  O23  1  0.110217  0.688644  0.695769  1
