# generated using pymatgen
data_Tb16In4NiIrRh2
_symmetry_space_group_name_H-M   'P 1'
_cell_length_a   9.68989920
_cell_length_b   9.69149132
_cell_length_c   9.68989870
_cell_angle_alpha   60.08262144
_cell_angle_beta   60.14085904
_cell_angle_gamma   60.08262399
_symmetry_Int_Tables_number   1
_chemical_formula_structural   Tb16In4NiIrRh2
_chemical_formula_sum   'Tb16 In4 Ni1 Ir1 Rh2'
_cell_volume   644.93611065
_cell_formula_units_Z   1
loop_
 _symmetry_equiv_pos_site_id
 _symmetry_equiv_pos_as_xyz
  1  'x, y, z'
loop_
 _atom_site_type_symbol
 _atom_site_label
 _atom_site_symmetry_multiplicity
 _atom_site_fract_x
 _atom_site_fract_y
 _atom_site_fract_z
 _atom_site_occupancy
  Tb  Tb0  1  0.809393  0.810764  0.190064  1
  Tb  Tb1  1  0.810709  0.190596  0.810709  1
  Tb  Tb2  1  0.188772  0.190673  0.811007  1
  Tb  Tb3  1  0.649252  0.049652  0.649252  1
  Tb  Tb4  1  0.059975  0.059714  0.440891  1
  Tb  Tb5  1  0.435808  0.438212  0.062229  1
  Tb  Tb6  1  0.653577  0.650108  0.653577  1
  Tb  Tb7  1  0.811007  0.190673  0.188772  1
  Tb  Tb8  1  0.190064  0.810764  0.809393  1
  Tb  Tb9  1  0.047556  0.648372  0.651059  1
  Tb  Tb10  1  0.440891  0.059714  0.059975  1
  Tb  Tb11  1  0.437724  0.060992  0.437724  1
  Tb  Tb12  1  0.061047  0.440736  0.061047  1
  Tb  Tb13  1  0.651059  0.648372  0.047556  1
  Tb  Tb14  1  0.189873  0.811244  0.189873  1
  Tb  Tb15  1  0.062229  0.438212  0.435808  1
  In  In16  1  0.416952  0.417912  0.416952  1
  In  In17  1  0.417915  0.418277  0.747290  1
  In  In18  1  0.418122  0.746030  0.418122  1
  In  In19  1  0.747290  0.418277  0.417915  1
  Ni  Ni20  1  0.858689  0.425544  0.858689  1
  Ir  Ir21  1  0.857695  0.857848  0.857695  1
  Rh  Rh22  1  0.858453  0.858658  0.425946  1
  Rh  Rh23  1  0.425946  0.858658  0.858453  1
