# generated using pymatgen
data_Er4IrPb2Au3
_symmetry_space_group_name_H-M   'P 1'
_cell_length_a   8.07843349
_cell_length_b   8.07843326
_cell_length_c   3.59414000
_cell_angle_alpha   90.00000000
_cell_angle_beta   90.00000000
_cell_angle_gamma   90.19571038
_symmetry_Int_Tables_number   1
_chemical_formula_structural   Er4IrPb2Au3
_chemical_formula_sum   'Er4 Ir1 Pb2 Au3'
_cell_volume   234.55611034
_cell_formula_units_Z   1
loop_
 _symmetry_equiv_pos_site_id
 _symmetry_equiv_pos_as_xyz
  1  'x, y, z'
loop_
 _atom_site_type_symbol
 _atom_site_label
 _atom_site_symmetry_multiplicity
 _atom_site_fract_x
 _atom_site_fract_y
 _atom_site_fract_z
 _atom_site_occupancy
  Er  Er0  1  0.683548  0.183548  0.500000  1
  Er  Er1  1  0.146979  0.327501  0.500000  1
  Er  Er2  1  0.827501  0.646979  0.500000  1
  Er  Er3  1  0.334259  0.834259  0.500000  1
  Ir  Ir4  1  0.875512  0.375512  0.000000  1
  Pb  Pb5  1  0.997142  0.000827  0.000000  1
  Pb  Pb6  1  0.500827  0.497142  0.000000  1
  Au  Au7  1  0.376591  0.129045  0.000000  1
  Au  Au8  1  0.128596  0.628596  0.000000  1
  Au  Au9  1  0.629045  0.876591  0.000000  1
