# generated using pymatgen
data_HoTh2Ir9
_symmetry_space_group_name_H-M   'P 1'
_cell_length_a   9.38951686
_cell_length_b   9.38951693
_cell_length_c   9.38951800
_cell_angle_alpha   33.10459298
_cell_angle_beta   33.10459231
_cell_angle_gamma   33.10459124
_symmetry_Int_Tables_number   1
_chemical_formula_structural   HoTh2Ir9
_chemical_formula_sum   'Ho1 Th2 Ir9'
_cell_volume   219.78884544
_cell_formula_units_Z   1
loop_
 _symmetry_equiv_pos_site_id
 _symmetry_equiv_pos_as_xyz
  1  'x, y, z'
loop_
 _atom_site_type_symbol
 _atom_site_label
 _atom_site_symmetry_multiplicity
 _atom_site_fract_x
 _atom_site_fract_y
 _atom_site_fract_z
 _atom_site_occupancy
  Ho  Ho0  1  0.138068  0.138068  0.138068  1
  Th  Th1  1  0.001767  0.001767  0.001767  1
  Th  Th2  1  0.859879  0.859879  0.859879  1
  Ir  Ir3  1  0.499434  0.499434  0.499434  1
  Ir  Ir4  1  0.666878  0.666878  0.666878  1
  Ir  Ir5  1  0.333100  0.333100  0.333100  1
  Ir  Ir6  1  0.417930  0.918039  0.417930  1
  Ir  Ir7  1  0.417930  0.417930  0.918039  1
  Ir  Ir8  1  0.918039  0.417930  0.417930  1
  Ir  Ir9  1  0.582164  0.082643  0.582164  1
  Ir  Ir10  1  0.582164  0.582164  0.082643  1
  Ir  Ir11  1  0.082643  0.582164  0.582164  1
