# generated using pymatgen
data_Li2U(Br2O)2
_symmetry_space_group_name_H-M   'P 1'
_cell_length_a   7.74692101
_cell_length_b   10.43832800
_cell_length_c   5.83398315
_cell_angle_alpha   90.00000000
_cell_angle_beta   88.51709834
_cell_angle_gamma   90.00000000
_symmetry_Int_Tables_number   1
_chemical_formula_structural   Li2U(Br2O)2
_chemical_formula_sum   'Li4 U2 Br8 O4'
_cell_volume   471.60648123
_cell_formula_units_Z   2
loop_
 _symmetry_equiv_pos_site_id
 _symmetry_equiv_pos_as_xyz
  1  'x, y, z'
loop_
 _atom_site_type_symbol
 _atom_site_label
 _atom_site_symmetry_multiplicity
 _atom_site_fract_x
 _atom_site_fract_y
 _atom_site_fract_z
 _atom_site_occupancy
  Li  Li0  1  0.258436  0.702291  0.432634  1
  Li  Li1  1  0.758437  0.797710  0.432635  1
  Li  Li2  1  0.241564  0.202291  0.567366  1
  Li  Li3  1  0.741565  0.297710  0.567366  1
  U  U4  1  0.000000  0.000000  0.000000  1
  U  U5  1  0.500000  0.500000  0.000000  1
  Br  Br6  1  0.296201  0.921066  0.225585  1
  Br  Br7  1  0.796201  0.578934  0.225586  1
  Br  Br8  1  0.493156  0.275482  0.278789  1
  Br  Br9  1  0.993156  0.224518  0.278790  1
  Br  Br10  1  0.506844  0.724518  0.721210  1
  Br  Br11  1  0.006843  0.775482  0.721210  1
  Br  Br12  1  0.703799  0.078934  0.774414  1
  Br  Br13  1  0.203799  0.421066  0.774415  1
  O  O14  1  0.360388  0.585050  0.205484  1
  O  O15  1  0.860388  0.914949  0.205484  1
  O  O16  1  0.639612  0.414950  0.794516  1
  O  O17  1  0.139612  0.085050  0.794517  1
