# generated using pymatgen
data_Sc5TiH18
_symmetry_space_group_name_H-M   'P 1'
_cell_length_a   5.72427400
_cell_length_b   5.72726770
_cell_length_c   6.01728137
_cell_angle_alpha   89.63856322
_cell_angle_beta   89.99958708
_cell_angle_gamma   119.98256656
_symmetry_Int_Tables_number   1
_chemical_formula_structural   Sc5TiH18
_chemical_formula_sum   'Sc5 Ti1 H18'
_cell_volume   170.86912041
_cell_formula_units_Z   1
loop_
 _symmetry_equiv_pos_site_id
 _symmetry_equiv_pos_as_xyz
  1  'x, y, z'
loop_
 _atom_site_type_symbol
 _atom_site_label
 _atom_site_symmetry_multiplicity
 _atom_site_fract_x
 _atom_site_fract_y
 _atom_site_fract_z
 _atom_site_occupancy
  Sc  Sc0  1  0.663020  0.999999  0.750002  1
  Sc  Sc1  1  0.335512  0.334964  0.748475  1
  Sc  Sc2  1  0.000539  0.665028  0.751524  1
  Sc  Sc3  1  0.665550  0.664569  0.249656  1
  Sc  Sc4  1  0.000987  0.335442  0.250354  1
  Ti  Ti5  1  0.339528  0.000005  0.250002  1
  H  H6  1  0.322400  0.976524  0.920684  1
  H  H7  1  0.648897  0.674389  0.910042  1
  H  H8  1  0.026122  0.346595  0.910673  1
  H  H9  1  0.325428  0.349831  0.406405  1
  H  H10  1  0.044530  0.695721  0.401385  1
  H  H11  1  0.640104  0.977653  0.402862  1
  H  H12  1  0.662452  0.022346  0.097137  1
  H  H13  1  0.348811  0.304281  0.098613  1
  H  H14  1  0.975590  0.650165  0.093593  1
  H  H15  1  0.679525  0.653403  0.589323  1
  H  H16  1  0.974508  0.325608  0.589954  1
  H  H17  1  0.345877  0.023478  0.579317  1
  H  H18  1  0.998971  0.000001  0.750002  1
  H  H19  1  0.015626  0.999999  0.250000  1
  H  H20  1  0.666894  0.333435  0.803411  1
  H  H21  1  0.651415  0.317154  0.306289  1
  H  H22  1  0.334261  0.682849  0.193711  1
  H  H23  1  0.333455  0.666564  0.696589  1
