# generated using pymatgen
data_Dy2Ho9ErIr4
_symmetry_space_group_name_H-M   'P 1'
_cell_length_a   6.36835527
_cell_length_b   7.22693624
_cell_length_c   9.16496611
_cell_angle_alpha   89.99386640
_cell_angle_beta   90.01680960
_cell_angle_gamma   90.02909914
_symmetry_Int_Tables_number   1
_chemical_formula_structural   Dy2Ho9ErIr4
_chemical_formula_sum   'Dy2 Ho9 Er1 Ir4'
_cell_volume   421.80555332
_cell_formula_units_Z   1
loop_
 _symmetry_equiv_pos_site_id
 _symmetry_equiv_pos_as_xyz
  1  'x, y, z'
loop_
 _atom_site_type_symbol
 _atom_site_label
 _atom_site_symmetry_multiplicity
 _atom_site_fract_x
 _atom_site_fract_y
 _atom_site_fract_z
 _atom_site_occupancy
  Dy  Dy0  1  0.869780  0.534172  0.249940  1
  Dy  Dy1  1  0.630280  0.034414  0.249869  1
  Ho  Ho2  1  0.328526  0.677086  0.062115  1
  Ho  Ho3  1  0.171484  0.177106  0.437652  1
  Ho  Ho4  1  0.671744  0.322796  0.562766  1
  Ho  Ho5  1  0.828403  0.822918  0.937336  1
  Ho  Ho6  1  0.671779  0.322708  0.937385  1
  Ho  Ho7  1  0.828328  0.822826  0.562729  1
  Ho  Ho8  1  0.328585  0.677057  0.437809  1
  Ho  Ho9  1  0.130616  0.465587  0.750083  1
  Ho  Ho10  1  0.369366  0.965714  0.750139  1
  Er  Er11  1  0.171345  0.176913  0.062417  1
  Ir  Ir12  1  0.046706  0.883195  0.249790  1
  Ir  Ir13  1  0.452907  0.382718  0.249762  1
  Ir  Ir14  1  0.955323  0.117408  0.750216  1
  Ir  Ir15  1  0.544828  0.617379  0.749992  1
