# generated using pymatgen
data_H9W2
_symmetry_space_group_name_H-M   'P 1'
_cell_length_a   3.00172546
_cell_length_b   4.30284783
_cell_length_c   10.94342354
_cell_angle_alpha   103.53042130
_cell_angle_beta   94.55325011
_cell_angle_gamma   134.12298962
_symmetry_Int_Tables_number   1
_chemical_formula_structural   H9W2
_chemical_formula_sum   'H9 W2'
_cell_volume   92.51376635
_cell_formula_units_Z   1
loop_
 _symmetry_equiv_pos_site_id
 _symmetry_equiv_pos_as_xyz
  1  'x, y, z'
loop_
 _atom_site_type_symbol
 _atom_site_label
 _atom_site_symmetry_multiplicity
 _atom_site_fract_x
 _atom_site_fract_y
 _atom_site_fract_z
 _atom_site_occupancy
  H  H0  1  0.532758  0.306352  0.850467  1
  H  H1  1  0.146668  0.402809  0.916582  1
  H  H2  1  0.569489  0.206603  0.112198  1
  H  H3  1  0.504909  0.138262  0.170629  1
  H  H4  1  0.851600  0.734423  0.439944  1
  H  H5  1  0.525865  0.803393  0.844005  1
  H  H6  1  0.222920  0.136588  0.371662  1
  H  H7  1  0.642420  0.987720  0.558823  1
  H  H8  1  0.868870  0.260477  0.434434  1
  W  W9  1  0.852799  0.157493  0.744106  1
  W  W10  1  0.516437  0.376867  0.543851  1
