# generated using pymatgen
data_LaNdHo4(RuO7)2
_symmetry_space_group_name_H-M   'P 1'
_cell_length_a   6.44803479
_cell_length_b   6.44803454
_cell_length_c   7.51004206
_cell_angle_alpha   90.00805099
_cell_angle_beta   90.00804867
_cell_angle_gamma   110.01843946
_symmetry_Int_Tables_number   1
_chemical_formula_structural   LaNdHo4(RuO7)2
_chemical_formula_sum   'La1 Nd1 Ho4 Ru2 O14'
_cell_volume   293.38101192
_cell_formula_units_Z   1
loop_
 _symmetry_equiv_pos_site_id
 _symmetry_equiv_pos_as_xyz
  1  'x, y, z'
loop_
 _atom_site_type_symbol
 _atom_site_label
 _atom_site_symmetry_multiplicity
 _atom_site_fract_x
 _atom_site_fract_y
 _atom_site_fract_z
 _atom_site_occupancy
  La  La0  1  0.000000  0.000000  0.500000  1
  Nd  Nd1  1  0.000000  0.000000  0.000000  1
  Ho  Ho2  1  0.481991  0.930914  0.750256  1
  Ho  Ho3  1  0.518009  0.069086  0.249744  1
  Ho  Ho4  1  0.930914  0.481991  0.750256  1
  Ho  Ho5  1  0.069086  0.518009  0.249744  1
  Ru  Ru6  1  0.500000  0.500000  0.500000  1
  Ru  Ru7  1  0.500000  0.500000  0.000000  1
  O  O8  1  0.590106  0.590106  0.749875  1
  O  O9  1  0.409894  0.409894  0.250125  1
  O  O10  1  0.836436  0.118286  0.751918  1
  O  O11  1  0.163564  0.881714  0.248082  1
  O  O12  1  0.118286  0.836436  0.751918  1
  O  O13  1  0.881714  0.163564  0.248082  1
  O  O14  1  0.440251  0.181289  0.963012  1
  O  O15  1  0.557430  0.818219  0.462808  1
  O  O16  1  0.181289  0.440251  0.963012  1
  O  O17  1  0.818219  0.557430  0.462808  1
  O  O18  1  0.442570  0.181781  0.537192  1
  O  O19  1  0.559749  0.818711  0.036988  1
  O  O20  1  0.818711  0.559749  0.036988  1
  O  O21  1  0.181781  0.442570  0.537192  1
