# generated using pymatgen
data_Y6Co17Si12Os
_symmetry_space_group_name_H-M   'P 1'
_cell_length_a   3.79488000
_cell_length_b   10.65511800
_cell_length_c   12.40701500
_cell_angle_alpha   90.00000000
_cell_angle_beta   90.00000000
_cell_angle_gamma   90.00000000
_symmetry_Int_Tables_number   1
_chemical_formula_structural   Y6Co17Si12Os
_chemical_formula_sum   'Y6 Co17 Si12 Os1'
_cell_volume   501.67633881
_cell_formula_units_Z   1
loop_
 _symmetry_equiv_pos_site_id
 _symmetry_equiv_pos_as_xyz
  1  'x, y, z'
loop_
 _atom_site_type_symbol
 _atom_site_label
 _atom_site_symmetry_multiplicity
 _atom_site_fract_x
 _atom_site_fract_y
 _atom_site_fract_z
 _atom_site_occupancy
  Y  Y0  1  0.000000  0.500000  0.525996  1
  Y  Y1  1  0.500000  0.000000  0.474131  1
  Y  Y2  1  0.500000  0.817265  0.206082  1
  Y  Y3  1  0.500000  0.182735  0.206082  1
  Y  Y4  1  0.000000  0.683165  0.796002  1
  Y  Y5  1  0.000000  0.316835  0.796002  1
  Co  Co6  1  0.000000  0.000000  0.847165  1
  Co  Co7  1  0.500000  0.500000  0.696859  1
  Co  Co8  1  0.000000  0.000000  0.302481  1
  Co  Co9  1  0.000000  0.500000  0.981771  1
  Co  Co10  1  0.500000  0.000000  0.018158  1
  Co  Co11  1  0.500000  0.328949  0.992349  1
  Co  Co12  1  0.500000  0.671051  0.992349  1
  Co  Co13  1  0.000000  0.167902  0.005034  1
  Co  Co14  1  0.000000  0.832098  0.005034  1
  Co  Co15  1  0.500000  0.300835  0.430727  1
  Co  Co16  1  0.500000  0.699165  0.430727  1
  Co  Co17  1  0.000000  0.198305  0.571109  1
  Co  Co18  1  0.000000  0.801695  0.571109  1
  Co  Co19  1  0.500000  0.883135  0.708116  1
  Co  Co20  1  0.500000  0.116865  0.708116  1
  Co  Co21  1  0.000000  0.618415  0.291860  1
  Co  Co22  1  0.000000  0.381585  0.291860  1
  Si  Si23  1  0.500000  0.500000  0.882708  1
  Si  Si24  1  0.000000  0.000000  0.116329  1
  Si  Si25  1  0.500000  0.500000  0.341856  1
  Si  Si26  1  0.000000  0.000000  0.661840  1
  Si  Si27  1  0.500000  0.303684  0.614547  1
  Si  Si28  1  0.500000  0.696316  0.614547  1
  Si  Si29  1  0.000000  0.196178  0.386873  1
  Si  Si30  1  0.000000  0.803822  0.386873  1
  Si  Si31  1  0.500000  0.854510  0.892922  1
  Si  Si32  1  0.500000  0.145490  0.892922  1
  Si  Si33  1  0.000000  0.650140  0.104832  1
  Si  Si34  1  0.000000  0.349860  0.104832  1
  Os  Os35  1  0.500000  0.500000  0.149796  1
