# generated using pymatgen
data_K3HO7
_symmetry_space_group_name_H-M   'P 1'
_cell_length_a   8.15624712
_cell_length_b   4.83838437
_cell_length_c   8.14576205
_cell_angle_alpha   105.30885135
_cell_angle_beta   111.85987410
_cell_angle_gamma   116.09874056
_symmetry_Int_Tables_number   1
_chemical_formula_structural   K3HO7
_chemical_formula_sum   'K3 H1 O7'
_cell_volume   229.93363445
_cell_formula_units_Z   1
loop_
 _symmetry_equiv_pos_site_id
 _symmetry_equiv_pos_as_xyz
  1  'x, y, z'
loop_
 _atom_site_type_symbol
 _atom_site_label
 _atom_site_symmetry_multiplicity
 _atom_site_fract_x
 _atom_site_fract_y
 _atom_site_fract_z
 _atom_site_occupancy
  K  K0  1  0.982511  0.135455  0.844619  1
  K  K1  1  0.400158  0.970790  0.617874  1
  K  K2  1  0.648299  0.011949  0.224127  1
  H  H3  1  0.514013  0.595048  0.408799  1
  O  O4  1  0.981334  0.684905  0.276970  1
  O  O5  1  0.633369  0.851065  0.498626  1
  O  O6  1  0.352722  0.141126  0.979956  1
  O  O7  1  0.025879  0.462490  0.221129  1
  O  O8  1  0.233548  0.899308  0.012266  1
  O  O9  1  0.293749  0.425755  0.732626  1
  O  O10  1  0.509736  0.636628  0.823067  1
