# generated using pymatgen
data_Nd2HoEr7Pt8
_symmetry_space_group_name_H-M   'P 1'
_cell_length_a   7.47682991
_cell_length_b   7.55745941
_cell_length_c   14.75649502
_cell_angle_alpha   90.00954674
_cell_angle_beta   90.02545905
_cell_angle_gamma   89.98542478
_symmetry_Int_Tables_number   1
_chemical_formula_structural   Nd2HoEr7Pt8
_chemical_formula_sum   'Nd4 Ho2 Er14 Pt16'
_cell_volume   833.82800464
_cell_formula_units_Z   2
loop_
 _symmetry_equiv_pos_site_id
 _symmetry_equiv_pos_as_xyz
  1  'x, y, z'
loop_
 _atom_site_type_symbol
 _atom_site_label
 _atom_site_symmetry_multiplicity
 _atom_site_fract_x
 _atom_site_fract_y
 _atom_site_fract_z
 _atom_site_occupancy
  Nd  Nd0  1  0.502110  0.323692  0.092364  1
  Nd  Nd1  1  0.001898  0.176318  0.407687  1
  Nd  Nd2  1  0.502091  0.323937  0.407645  1
  Nd  Nd3  1  0.001991  0.175861  0.092130  1
  Ho  Ho4  1  0.500286  0.680941  0.906161  1
  Ho  Ho5  1  0.000281  0.818911  0.593881  1
  Er  Er6  1  0.655385  0.166943  0.623548  1
  Er  Er7  1  0.155515  0.333116  0.876526  1
  Er  Er8  1  0.346483  0.831493  0.122179  1
  Er  Er9  1  0.846648  0.668256  0.377690  1
  Er  Er10  1  0.346829  0.831470  0.377864  1
  Er  Er11  1  0.846880  0.668597  0.122059  1
  Er  Er12  1  0.655748  0.166917  0.876623  1
  Er  Er13  1  0.155587  0.333401  0.623495  1
  Er  Er14  1  0.500556  0.681236  0.594062  1
  Er  Er15  1  0.000601  0.818902  0.906127  1
  Er  Er16  1  0.817035  0.511086  0.750081  1
  Er  Er17  1  0.317016  0.989102  0.750107  1
  Er  Er18  1  0.182005  0.490214  0.249884  1
  Er  Er19  1  0.681675  0.009688  0.249920  1
  Pt  Pt20  1  0.681163  0.959466  0.460931  1
  Pt  Pt21  1  0.181326  0.540542  0.039010  1
  Pt  Pt22  1  0.315121  0.028226  0.955601  1
  Pt  Pt23  1  0.815055  0.471908  0.544503  1
  Pt  Pt24  1  0.315806  0.028034  0.544696  1
  Pt  Pt25  1  0.816123  0.471837  0.955453  1
  Pt  Pt26  1  0.681291  0.959312  0.038861  1
  Pt  Pt27  1  0.181628  0.540502  0.460900  1
  Pt  Pt28  1  0.451230  0.386297  0.749975  1
  Pt  Pt29  1  0.951232  0.113727  0.750160  1
  Pt  Pt30  1  0.548904  0.619795  0.249875  1
  Pt  Pt31  1  0.048530  0.880342  0.249990  1
  Pt  Pt32  1  0.679244  0.856423  0.749983  1
  Pt  Pt33  1  0.179114  0.643862  0.750399  1
  Pt  Pt34  1  0.318534  0.139102  0.249854  1
  Pt  Pt35  1  0.819077  0.360546  0.249773  1
