# generated using pymatgen
data_Nd9SmSe10
_symmetry_space_group_name_H-M   'P 1'
_cell_length_a   7.31846700
_cell_length_b   8.40403914
_cell_length_c   9.52083585
_cell_angle_alpha   103.29661438
_cell_angle_beta   96.73306403
_cell_angle_gamma   106.90691656
_symmetry_Int_Tables_number   1
_chemical_formula_structural   Nd9SmSe10
_chemical_formula_sum   'Nd9 Sm1 Se10'
_cell_volume   534.48001437
_cell_formula_units_Z   1
loop_
 _symmetry_equiv_pos_site_id
 _symmetry_equiv_pos_as_xyz
  1  'x, y, z'
loop_
 _atom_site_type_symbol
 _atom_site_label
 _atom_site_symmetry_multiplicity
 _atom_site_fract_x
 _atom_site_fract_y
 _atom_site_fract_z
 _atom_site_occupancy
  Nd  Nd0  1  0.800442  0.599612  0.597616  1
  Nd  Nd1  1  0.595273  0.197905  0.199420  1
  Nd  Nd2  1  0.404727  0.802095  0.800580  1
  Nd  Nd3  1  0.599956  0.701288  0.201375  1
  Nd  Nd4  1  0.199558  0.400388  0.402384  1
  Nd  Nd5  1  0.400044  0.298712  0.798625  1
  Nd  Nd6  1  0.000000  0.000000  0.000000  1
  Nd  Nd7  1  0.201604  0.900835  0.400929  1
  Nd  Nd8  1  0.798396  0.099165  0.599071  1
  Sm  Sm9  1  0.000000  0.500000  0.000000  1
  Se  Se10  1  0.702448  0.648178  0.900524  1
  Se  Se11  1  0.500121  0.250679  0.499906  1
  Se  Se12  1  0.702972  0.153504  0.901351  1
  Se  Se13  1  0.297028  0.846496  0.098649  1
  Se  Se14  1  0.499879  0.749321  0.500094  1
  Se  Se15  1  0.099557  0.451204  0.703191  1
  Se  Se16  1  0.297552  0.351822  0.099476  1
  Se  Se17  1  0.900216  0.050673  0.299803  1
  Se  Se18  1  0.099784  0.949327  0.700197  1
  Se  Se19  1  0.900443  0.548796  0.296809  1
