# generated using pymatgen
data_Yb7Pr13Si15Pt
_symmetry_space_group_name_H-M   'P 1'
_cell_length_a   7.95056753
_cell_length_b   7.88420851
_cell_length_c   15.13253061
_cell_angle_alpha   89.75414991
_cell_angle_beta   89.67569367
_cell_angle_gamma   90.08036501
_symmetry_Int_Tables_number   1
_chemical_formula_structural   Yb7Pr13Si15Pt
_chemical_formula_sum   'Yb7 Pr13 Si15 Pt1'
_cell_volume   948.54162974
_cell_formula_units_Z   1
loop_
 _symmetry_equiv_pos_site_id
 _symmetry_equiv_pos_as_xyz
  1  'x, y, z'
loop_
 _atom_site_type_symbol
 _atom_site_label
 _atom_site_symmetry_multiplicity
 _atom_site_fract_x
 _atom_site_fract_y
 _atom_site_fract_z
 _atom_site_occupancy
  Yb  Yb0  1  0.311420  0.308075  0.001272  1
  Yb  Yb1  1  0.194175  0.814104  0.251731  1
  Yb  Yb2  1  0.814145  0.188982  0.746693  1
  Yb  Yb3  1  0.685445  0.694068  0.501258  1
  Yb  Yb4  1  0.377643  0.010524  0.449974  1
  Yb  Yb5  1  0.488698  0.881026  0.697999  1
  Yb  Yb6  1  0.511760  0.122848  0.200416  1
  Pr  Pr7  1  0.878671  0.491973  0.301581  1
  Pr  Pr8  1  0.121707  0.508231  0.801445  1
  Pr  Pr9  1  0.622077  0.994571  0.947047  1
  Pr  Pr10  1  0.000152  0.374788  0.551178  1
  Pr  Pr11  1  0.992102  0.622559  0.052158  1
  Pr  Pr12  1  0.131424  0.992336  0.873233  1
  Pr  Pr13  1  0.512458  0.626078  0.125440  1
  Pr  Pr14  1  0.480686  0.364218  0.628107  1
  Pr  Pr15  1  0.626099  0.512234  0.873699  1
  Pr  Pr16  1  0.374848  0.482055  0.375219  1
  Pr  Pr17  1  0.872824  0.013624  0.376051  1
  Pr  Pr18  1  0.986496  0.125069  0.124271  1
  Pr  Pr19  1  0.022873  0.879467  0.621998  1
  Si  Si20  1  0.330710  0.697426  0.948933  1
  Si  Si21  1  0.666079  0.302227  0.450921  1
  Si  Si22  1  0.704599  0.336028  0.051475  1
  Si  Si23  1  0.295112  0.659385  0.550258  1
  Si  Si24  1  0.801425  0.831845  0.199704  1
  Si  Si25  1  0.160102  0.204127  0.299645  1
  Si  Si26  1  0.838838  0.798026  0.800872  1
  Si  Si27  1  0.281925  0.915920  0.056810  1
  Si  Si28  1  0.584489  0.777958  0.308067  1
  Si  Si29  1  0.427176  0.212279  0.814426  1
  Si  Si30  1  0.789904  0.580621  0.690083  1
  Si  Si31  1  0.207314  0.426068  0.190593  1
  Si  Si32  1  0.714249  0.079567  0.557632  1
  Si  Si33  1  0.919989  0.288925  0.941009  1
  Si  Si34  1  0.077231  0.710023  0.440523  1
  Pt  Pt35  1  0.195155  0.172744  0.698282  1
