# generated using pymatgen
data_Ti3SiCl16
_symmetry_space_group_name_H-M   'P 1'
_cell_length_a   7.04563801
_cell_length_b   10.68893890
_cell_length_c   10.77704801
_cell_angle_alpha   77.11152522
_cell_angle_beta   89.99585289
_cell_angle_gamma   89.99779115
_symmetry_Int_Tables_number   1
_chemical_formula_structural   Ti3SiCl16
_chemical_formula_sum   'Ti3 Si1 Cl16'
_cell_volume   791.17574898
_cell_formula_units_Z   1
loop_
 _symmetry_equiv_pos_site_id
 _symmetry_equiv_pos_as_xyz
  1  'x, y, z'
loop_
 _atom_site_type_symbol
 _atom_site_label
 _atom_site_symmetry_multiplicity
 _atom_site_fract_x
 _atom_site_fract_y
 _atom_site_fract_z
 _atom_site_occupancy
  Ti  Ti0  1  0.928224  0.249712  0.643033  1
  Ti  Ti1  1  0.428355  0.750206  0.856952  1
  Ti  Ti2  1  0.071670  0.750335  0.356876  1
  Si  Si3  1  0.571769  0.249674  0.143098  1
  Cl  Cl4  1  0.075521  0.408972  0.698342  1
  Cl  Cl5  1  0.575432  0.591110  0.801613  1
  Cl  Cl6  1  0.924606  0.591053  0.301654  1
  Cl  Cl7  1  0.434482  0.398154  0.194598  1
  Cl  Cl8  1  0.931018  0.082615  0.802577  1
  Cl  Cl9  1  0.430945  0.917389  0.697396  1
  Cl  Cl10  1  0.069030  0.917268  0.197457  1
  Cl  Cl11  1  0.569294  0.093944  0.291796  1
  Cl  Cl12  1  0.072253  0.202131  0.480067  1
  Cl  Cl13  1  0.572248  0.797869  0.019979  1
  Cl  Cl14  1  0.927674  0.797907  0.520000  1
  Cl  Cl15  1  0.437425  0.205424  0.991066  1
  Cl  Cl16  1  0.635125  0.305247  0.591778  1
  Cl  Cl17  1  0.135119  0.694755  0.908245  1
  Cl  Cl18  1  0.364934  0.694754  0.408217  1
  Cl  Cl19  1  0.844875  0.301479  0.095256  1
