# generated using pymatgen
data_Er6Al24Ir3Os5
_symmetry_space_group_name_H-M   'P 1'
_cell_length_a   8.76485345
_cell_length_b   8.77589432
_cell_length_c   9.54783636
_cell_angle_alpha   90.00137723
_cell_angle_beta   89.83122144
_cell_angle_gamma   119.45443803
_symmetry_Int_Tables_number   1
_chemical_formula_structural   Er6Al24Ir3Os5
_chemical_formula_sum   'Er6 Al24 Ir3 Os5'
_cell_volume   639.48524967
_cell_formula_units_Z   1
loop_
 _symmetry_equiv_pos_site_id
 _symmetry_equiv_pos_as_xyz
  1  'x, y, z'
loop_
 _atom_site_type_symbol
 _atom_site_label
 _atom_site_symmetry_multiplicity
 _atom_site_fract_x
 _atom_site_fract_y
 _atom_site_fract_z
 _atom_site_occupancy
  Er  Er0  1  0.188583  0.386744  0.251469  1
  Er  Er1  1  0.811417  0.613256  0.748531  1
  Er  Er2  1  0.611357  0.811005  0.250250  1
  Er  Er3  1  0.388643  0.188995  0.749750  1
  Er  Er4  1  0.196060  0.807443  0.250887  1
  Er  Er5  1  0.803940  0.192557  0.749113  1
  Al  Al6  1  0.333666  0.668164  0.025642  1
  Al  Al7  1  0.666334  0.331836  0.974358  1
  Al  Al8  1  0.667617  0.332445  0.525095  1
  Al  Al9  1  0.332383  0.667555  0.474905  1
  Al  Al10  1  0.162653  0.326564  0.576758  1
  Al  Al11  1  0.837347  0.673436  0.423242  1
  Al  Al12  1  0.672879  0.836641  0.576107  1
  Al  Al13  1  0.835684  0.673755  0.077168  1
  Al  Al14  1  0.327121  0.163359  0.423893  1
  Al  Al15  1  0.164316  0.326245  0.922832  1
  Al  Al16  1  0.164173  0.835339  0.576143  1
  Al  Al17  1  0.326597  0.163161  0.076938  1
  Al  Al18  1  0.835827  0.164661  0.423857  1
  Al  Al19  1  0.673403  0.836839  0.923062  1
  Al  Al20  1  0.834088  0.162855  0.076108  1
  Al  Al21  1  0.165912  0.837145  0.923892  1
  Al  Al22  1  0.560820  0.125294  0.249746  1
  Al  Al23  1  0.439180  0.874706  0.750254  1
  Al  Al24  1  0.875566  0.439660  0.250517  1
  Al  Al25  1  0.124434  0.560340  0.749483  1
  Al  Al26  1  0.561144  0.438800  0.249748  1
  Al  Al27  1  0.438856  0.561200  0.750252  1
  Al  Al28  1  0.998922  0.001630  0.250039  1
  Al  Al29  1  0.001078  0.998370  0.749961  1
  Ir  Ir30  1  0.000000  0.500000  0.000000  1
  Ir  Ir31  1  0.500000  0.500000  0.000000  1
  Ir  Ir32  1  0.500000  0.500000  0.500000  1
  Os  Os33  1  0.500000  0.000000  0.000000  1
  Os  Os34  1  0.500000  0.000000  0.500000  1
  Os  Os35  1  0.000000  0.500000  0.500000  1
  Os  Os36  1  0.000000  0.000000  0.000000  1
  Os  Os37  1  0.000000  0.000000  0.500000  1
