# generated using pymatgen
data_Eu4MgPd
_symmetry_space_group_name_H-M   'P 1'
_cell_length_a   10.46847227
_cell_length_b   10.46847164
_cell_length_c   10.46847200
_cell_angle_alpha   59.99999886
_cell_angle_beta   60.00000085
_cell_angle_gamma   59.99999676
_symmetry_Int_Tables_number   1
_chemical_formula_structural   Eu4MgPd
_chemical_formula_sum   'Eu16 Mg4 Pd4'
_cell_volume   811.21294820
_cell_formula_units_Z   4
loop_
 _symmetry_equiv_pos_site_id
 _symmetry_equiv_pos_as_xyz
  1  'x, y, z'
loop_
 _atom_site_type_symbol
 _atom_site_label
 _atom_site_symmetry_multiplicity
 _atom_site_fract_x
 _atom_site_fract_y
 _atom_site_fract_z
 _atom_site_occupancy
  Eu  Eu0  1  0.690258  0.690258  0.309742  1
  Eu  Eu1  1  0.309742  0.690258  0.309742  1
  Eu  Eu2  1  0.690258  0.309742  0.309742  1
  Eu  Eu3  1  0.309742  0.309742  0.690258  1
  Eu  Eu4  1  0.690258  0.309742  0.690258  1
  Eu  Eu5  1  0.309742  0.690258  0.690258  1
  Eu  Eu6  1  0.057985  0.057985  0.442015  1
  Eu  Eu7  1  0.442015  0.057985  0.442015  1
  Eu  Eu8  1  0.057985  0.442015  0.442015  1
  Eu  Eu9  1  0.442015  0.442015  0.057985  1
  Eu  Eu10  1  0.057985  0.442015  0.057985  1
  Eu  Eu11  1  0.442015  0.057985  0.057985  1
  Eu  Eu12  1  0.903840  0.903840  0.288482  1
  Eu  Eu13  1  0.903840  0.288482  0.903840  1
  Eu  Eu14  1  0.288482  0.903840  0.903840  1
  Eu  Eu15  1  0.903840  0.903840  0.903840  1
  Mg  Mg16  1  0.672594  0.672594  0.982219  1
  Mg  Mg17  1  0.672594  0.982219  0.672594  1
  Mg  Mg18  1  0.982219  0.672594  0.672594  1
  Mg  Mg19  1  0.672594  0.672594  0.672594  1
  Pd  Pd20  1  0.109137  0.109137  0.672588  1
  Pd  Pd21  1  0.109137  0.672588  0.109137  1
  Pd  Pd22  1  0.672588  0.109137  0.109137  1
  Pd  Pd23  1  0.109137  0.109137  0.109137  1
