# generated using pymatgen
data_Y4Er4B24IrRu3
_symmetry_space_group_name_H-M   'P 1'
_cell_length_a   3.65167700
_cell_length_b   9.14340182
_cell_length_c   11.50453503
_cell_angle_alpha   90.03222758
_cell_angle_beta   90.00000000
_cell_angle_gamma   90.00000000
_symmetry_Int_Tables_number   1
_chemical_formula_structural   Y4Er4B24IrRu3
_chemical_formula_sum   'Y4 Er4 B24 Ir1 Ru3'
_cell_volume   384.12198473
_cell_formula_units_Z   1
loop_
 _symmetry_equiv_pos_site_id
 _symmetry_equiv_pos_as_xyz
  1  'x, y, z'
loop_
 _atom_site_type_symbol
 _atom_site_label
 _atom_site_symmetry_multiplicity
 _atom_site_fract_x
 _atom_site_fract_y
 _atom_site_fract_z
 _atom_site_occupancy
  Y  Y0  1  0.000000  0.318971  0.414343  1
  Y  Y1  1  0.000000  0.679080  0.589093  1
  Y  Y2  1  0.000000  0.823400  0.084233  1
  Y  Y3  1  0.000000  0.178703  0.913005  1
  Er  Er4  1  0.000000  0.945506  0.373110  1
  Er  Er5  1  0.000000  0.056134  0.626960  1
  Er  Er6  1  0.000000  0.441888  0.125692  1
  Er  Er7  1  0.000000  0.556050  0.873277  1
  B  B8  1  0.500000  0.553612  0.433591  1
  B  B9  1  0.500000  0.445924  0.567210  1
  B  B10  1  0.500000  0.054219  0.067027  1
  B  B11  1  0.500000  0.946236  0.932590  1
  B  B12  1  0.500000  0.749723  0.420921  1
  B  B13  1  0.500000  0.251190  0.580305  1
  B  B14  1  0.500000  0.248297  0.080076  1
  B  B15  1  0.500000  0.751792  0.919763  1
  B  B16  1  0.500000  0.792068  0.265792  1
  B  B17  1  0.500000  0.208875  0.733465  1
  B  B18  1  0.500000  0.291305  0.233902  1
  B  B19  1  0.500000  0.708674  0.766564  1
  B  B20  1  0.500000  0.631488  0.183735  1
  B  B21  1  0.500000  0.368908  0.814733  1
  B  B22  1  0.500000  0.131180  0.315012  1
  B  B23  1  0.500000  0.868625  0.685344  1
  B  B24  1  0.500000  0.983121  0.213134  1
  B  B25  1  0.500000  0.016955  0.786590  1
  B  B26  1  0.500000  0.481934  0.286620  1
  B  B27  1  0.500000  0.516911  0.713457  1
  B  B28  1  0.500000  0.608731  0.030221  1
  B  B29  1  0.500000  0.391365  0.970114  1
  B  B30  1  0.500000  0.107987  0.470212  1
  B  B31  1  0.500000  0.891223  0.529575  1
  Ir  Ir32  1  0.000000  0.637577  0.321333  1
  Ru  Ru33  1  0.000000  0.362266  0.678821  1
  Ru  Ru34  1  0.000000  0.138129  0.179474  1
  Ru  Ru35  1  0.000000  0.861949  0.820708  1
