# generated using pymatgen
data_Er8ReB24Rh2W
_symmetry_space_group_name_H-M   'P 1'
_cell_length_a   3.64773500
_cell_length_b   9.13534281
_cell_length_c   11.52869602
_cell_angle_alpha   90.42286535
_cell_angle_beta   90.00000000
_cell_angle_gamma   90.00000000
_symmetry_Int_Tables_number   1
_chemical_formula_structural   Er8ReB24Rh2W
_chemical_formula_sum   'Er8 Re1 B24 Rh2 W1'
_cell_volume   384.16384505
_cell_formula_units_Z   1
loop_
 _symmetry_equiv_pos_site_id
 _symmetry_equiv_pos_as_xyz
  1  'x, y, z'
loop_
 _atom_site_type_symbol
 _atom_site_label
 _atom_site_symmetry_multiplicity
 _atom_site_fract_x
 _atom_site_fract_y
 _atom_site_fract_z
 _atom_site_occupancy
  Er  Er0  1  0.000000  0.318222  0.411299  1
  Er  Er1  1  0.000000  0.681892  0.588971  1
  Er  Er2  1  0.000000  0.824917  0.082204  1
  Er  Er3  1  0.000000  0.173785  0.916518  1
  Er  Er4  1  0.000000  0.944466  0.372972  1
  Er  Er5  1  0.000000  0.054855  0.628931  1
  Er  Er6  1  0.000000  0.444228  0.126201  1
  Er  Er7  1  0.000000  0.557970  0.872738  1
  Re  Re8  1  0.000000  0.860824  0.819466  1
  B  B9  1  0.500000  0.553838  0.434582  1
  B  B10  1  0.500000  0.446249  0.565624  1
  B  B11  1  0.500000  0.050858  0.065063  1
  B  B12  1  0.500000  0.946781  0.932128  1
  B  B13  1  0.500000  0.749062  0.421397  1
  B  B14  1  0.500000  0.250781  0.578813  1
  B  B15  1  0.500000  0.250916  0.078911  1
  B  B16  1  0.500000  0.751432  0.918614  1
  B  B17  1  0.500000  0.791059  0.265848  1
  B  B18  1  0.500000  0.208779  0.734873  1
  B  B19  1  0.500000  0.295890  0.236497  1
  B  B20  1  0.500000  0.706843  0.764881  1
  B  B21  1  0.500000  0.632388  0.183914  1
  B  B22  1  0.500000  0.367910  0.816303  1
  B  B23  1  0.500000  0.132222  0.317309  1
  B  B24  1  0.500000  0.867928  0.684785  1
  B  B25  1  0.500000  0.978970  0.213481  1
  B  B26  1  0.500000  0.017301  0.786826  1
  B  B27  1  0.500000  0.483454  0.288148  1
  B  B28  1  0.500000  0.517072  0.711954  1
  B  B29  1  0.500000  0.606117  0.029031  1
  B  B30  1  0.500000  0.395243  0.969944  1
  B  B31  1  0.500000  0.107187  0.472091  1
  B  B32  1  0.500000  0.892468  0.529373  1
  Rh  Rh33  1  0.000000  0.637784  0.321925  1
  Rh  Rh34  1  0.000000  0.362061  0.678569  1
  W  W35  1  0.000000  0.138245  0.179814  1
