# generated using pymatgen
data_Er3TmIr8
_symmetry_space_group_name_H-M   'P 1'
_cell_length_a   5.34122900
_cell_length_b   5.34122875
_cell_length_c   8.67918000
_cell_angle_alpha   90.00000000
_cell_angle_beta   90.00000000
_cell_angle_gamma   119.99999536
_symmetry_Int_Tables_number   1
_chemical_formula_structural   Er3TmIr8
_chemical_formula_sum   'Er3 Tm1 Ir8'
_cell_volume   214.43305039
_cell_formula_units_Z   1
loop_
 _symmetry_equiv_pos_site_id
 _symmetry_equiv_pos_as_xyz
  1  'x, y, z'
loop_
 _atom_site_type_symbol
 _atom_site_label
 _atom_site_symmetry_multiplicity
 _atom_site_fract_x
 _atom_site_fract_y
 _atom_site_fract_z
 _atom_site_occupancy
  Er  Er0  1  0.333333  0.666667  0.067912  1
  Er  Er1  1  0.666667  0.333333  0.566385  1
  Er  Er2  1  0.666667  0.333333  0.932664  1
  Tm  Tm3  1  0.333333  0.666667  0.434223  1
  Ir  Ir4  1  0.000000  0.000000  0.999711  1
  Ir  Ir5  1  0.000000  0.000000  0.499710  1
  Ir  Ir6  1  0.829832  0.659664  0.250040  1
  Ir  Ir7  1  0.170212  0.829788  0.749759  1
  Ir  Ir8  1  0.659576  0.829788  0.749759  1
  Ir  Ir9  1  0.340336  0.170168  0.250040  1
  Ir  Ir10  1  0.829832  0.170168  0.250040  1
  Ir  Ir11  1  0.170212  0.340424  0.749759  1
