# generated using pymatgen
data_TiAgMo(PO4)3
_symmetry_space_group_name_H-M   'P 1'
_cell_length_a   8.70714658
_cell_length_b   8.70549318
_cell_length_c   9.03509657
_cell_angle_alpha   89.56431185
_cell_angle_beta   118.84541333
_cell_angle_gamma   120.00988437
_symmetry_Int_Tables_number   1
_chemical_formula_structural   TiAgMo(PO4)3
_chemical_formula_sum   'Ti2 Ag2 Mo2 P6 O24'
_cell_volume   494.19511079
_cell_formula_units_Z   2
loop_
 _symmetry_equiv_pos_site_id
 _symmetry_equiv_pos_as_xyz
  1  'x, y, z'
loop_
 _atom_site_type_symbol
 _atom_site_label
 _atom_site_symmetry_multiplicity
 _atom_site_fract_x
 _atom_site_fract_y
 _atom_site_fract_z
 _atom_site_occupancy
  Ti  Ti0  1  0.298426  0.644372  0.937515  1
  Ti  Ti1  1  0.715222  0.853800  0.561967  1
  Ag  Ag2  1  0.027488  0.527685  0.504695  1
  Ag  Ag3  1  0.992897  0.974184  0.994120  1
  Mo  Mo4  1  0.713186  0.351142  0.062937  1
  Mo  Mo5  1  0.298479  0.146675  0.436075  1
  P  P6  1  0.504437  0.030232  0.247681  1
  P  P7  1  0.797165  0.538430  0.748342  1
  P  P8  1  0.213807  0.249105  0.749969  1
  P  P9  1  0.788141  0.749172  0.249338  1
  P  P10  1  0.225631  0.468120  0.251830  1
  P  P11  1  0.509425  0.959301  0.750863  1
  O  O12  1  0.635432  0.996653  0.416787  1
  O  O13  1  0.346418  0.055215  0.259890  1
  O  O14  1  0.011599  0.075809  0.724699  1
  O  O15  1  0.610683  0.371001  0.580798  1
  O  O16  1  0.225694  0.501132  0.084367  1
  O  O17  1  0.664869  0.212992  0.235672  1
  O  O18  1  0.407371  0.271408  0.917268  1
  O  O19  1  0.003311  0.570276  0.780446  1
  O  O20  1  0.219862  0.225663  0.584491  1
  O  O21  1  0.801206  0.716397  0.724278  1
  O  O22  1  0.657190  0.127718  0.916961  1
  O  O23  1  0.212561  0.423946  0.774688  1
  O  O24  1  0.796480  0.576756  0.239567  1
  O  O25  1  0.373567  0.866204  0.080437  1
  O  O26  1  0.210961  0.283598  0.264248  1
  O  O27  1  0.790412  0.787088  0.417310  1
  O  O28  1  0.029869  0.446051  0.236266  1
  O  O29  1  0.586806  0.713566  0.080056  1
  O  O30  1  0.355540  0.782765  0.773780  1
  O  O31  1  0.789934  0.510819  0.915271  1
  O  O32  1  0.425379  0.630671  0.420206  1
  O  O33  1  0.981346  0.919834  0.260701  1
  O  O34  1  0.651595  0.924162  0.722109  1
  O  O35  1  0.366213  0.987156  0.581574  1
