# generated using pymatgen
data_Tb9Cd3(AgRh2)2
_symmetry_space_group_name_H-M   'P 1'
_cell_length_a   10.61267200
_cell_length_b   10.65941000
_cell_length_c   3.64427300
_cell_angle_alpha   90.00000000
_cell_angle_beta   90.00000000
_cell_angle_gamma   90.00000000
_symmetry_Int_Tables_number   1
_chemical_formula_structural   Tb9Cd3(AgRh2)2
_chemical_formula_sum   'Tb9 Cd3 Ag2 Rh4'
_cell_volume   412.25773460
_cell_formula_units_Z   1
loop_
 _symmetry_equiv_pos_site_id
 _symmetry_equiv_pos_as_xyz
  1  'x, y, z'
loop_
 _atom_site_type_symbol
 _atom_site_label
 _atom_site_symmetry_multiplicity
 _atom_site_fract_x
 _atom_site_fract_y
 _atom_site_fract_z
 _atom_site_occupancy
  Tb  Tb0  1  0.333990  0.327121  0.500000  1
  Tb  Tb1  1  0.668997  0.669104  0.500000  1
  Tb  Tb2  1  0.331003  0.669104  0.500000  1
  Tb  Tb3  1  0.666010  0.327121  0.500000  1
  Tb  Tb4  1  0.000000  0.288531  0.500000  1
  Tb  Tb5  1  0.000000  0.712076  0.500000  1
  Tb  Tb6  1  0.292914  0.002797  0.500000  1
  Tb  Tb7  1  0.707086  0.002797  0.500000  1
  Tb  Tb8  1  0.000000  0.999602  0.000000  1
  Cd  Cd9  1  0.500000  0.856167  0.000000  1
  Cd  Cd10  1  0.146024  0.498724  0.000000  1
  Cd  Cd11  1  0.853976  0.498724  0.000000  1
  Ag  Ag12  1  0.500000  0.145049  0.000000  1
  Ag  Ag13  1  0.500000  0.500451  0.000000  1
  Rh  Rh14  1  0.189164  0.190662  0.000000  1
  Rh  Rh15  1  0.807825  0.810655  0.000000  1
  Rh  Rh16  1  0.192175  0.810655  0.000000  1
  Rh  Rh17  1  0.810836  0.190662  0.000000  1
