# generated using pymatgen
data_DyLu2Zr3(SnIr)6
_symmetry_space_group_name_H-M   'P 1'
_cell_length_a   7.47311190
_cell_length_b   7.46074740
_cell_length_c   7.55918900
_cell_angle_alpha   90.00000000
_cell_angle_beta   90.00000000
_cell_angle_gamma   119.93763494
_symmetry_Int_Tables_number   1
_chemical_formula_structural   DyLu2Zr3(SnIr)6
_chemical_formula_sum   'Dy1 Lu2 Zr3 Sn6 Ir6'
_cell_volume   365.22646405
_cell_formula_units_Z   1
loop_
 _symmetry_equiv_pos_site_id
 _symmetry_equiv_pos_as_xyz
  1  'x, y, z'
loop_
 _atom_site_type_symbol
 _atom_site_label
 _atom_site_symmetry_multiplicity
 _atom_site_fract_x
 _atom_site_fract_y
 _atom_site_fract_z
 _atom_site_occupancy
  Dy  Dy0  1  0.000144  0.406591  0.250000  1
  Lu  Lu1  1  0.404979  0.999736  0.250000  1
  Lu  Lu2  1  0.594699  0.595067  0.250000  1
  Zr  Zr3  1  0.607042  0.607747  0.750000  1
  Zr  Zr4  1  0.000491  0.392533  0.750000  1
  Zr  Zr5  1  0.392435  0.999647  0.750000  1
  Sn  Sn6  1  0.266620  0.265696  0.503786  1
  Sn  Sn7  1  0.266620  0.265696  0.996214  1
  Sn  Sn8  1  0.733863  0.999965  0.996171  1
  Sn  Sn9  1  0.999522  0.733794  0.505380  1
  Sn  Sn10  1  0.733863  0.999965  0.503829  1
  Sn  Sn11  1  0.999522  0.733794  0.994620  1
  Ir  Ir12  1  0.665458  0.333086  0.529343  1
  Ir  Ir13  1  0.665458  0.333086  0.970657  1
  Ir  Ir14  1  0.334638  0.667686  0.971974  1
  Ir  Ir15  1  0.334638  0.667686  0.528026  1
  Ir  Ir16  1  0.000009  0.000658  0.750000  1
  Ir  Ir17  1  0.000002  0.997566  0.250000  1
