# generated using pymatgen
data_Tb3DyY(CoB3)2
_symmetry_space_group_name_H-M   'P 1'
_cell_length_a   5.40068821
_cell_length_b   5.40068720
_cell_length_c   8.42695849
_cell_angle_alpha   71.31039531
_cell_angle_beta   71.31039784
_cell_angle_gamma   59.99999418
_symmetry_Int_Tables_number   1
_chemical_formula_structural   Tb3DyY(CoB3)2
_chemical_formula_sum   'Tb3 Dy1 Y1 Co2 B6'
_cell_volume   197.75507295
_cell_formula_units_Z   1
loop_
 _symmetry_equiv_pos_site_id
 _symmetry_equiv_pos_as_xyz
  1  'x, y, z'
loop_
 _atom_site_type_symbol
 _atom_site_label
 _atom_site_symmetry_multiplicity
 _atom_site_fract_x
 _atom_site_fract_y
 _atom_site_fract_z
 _atom_site_occupancy
  Tb  Tb0  1  0.251160  0.251160  0.246519  1
  Tb  Tb1  1  0.748889  0.748889  0.753335  1
  Tb  Tb2  1  0.416612  0.416612  0.750163  1
  Dy  Dy3  1  0.582948  0.582948  0.251157  1
  Y  Y4  1  0.999809  0.999809  0.000574  1
  Co  Co5  1  0.119980  0.119980  0.640058  1
  Co  Co6  1  0.880083  0.880083  0.359752  1
  B  B7  1  0.168326  0.831878  0.499740  1
  B  B8  1  0.831878  0.500055  0.499740  1
  B  B9  1  0.500055  0.168326  0.499740  1
  B  B10  1  0.168326  0.500055  0.499740  1
  B  B11  1  0.500055  0.831878  0.499740  1
  B  B12  1  0.831878  0.168326  0.499740  1
