# generated using pymatgen
data_TmScCo3P7Ru9
_symmetry_space_group_name_H-M   'P 1'
_cell_length_a   9.29072900
_cell_length_b   9.29072846
_cell_length_c   3.79881600
_cell_angle_alpha   90.00000000
_cell_angle_beta   90.00000000
_cell_angle_gamma   119.99999836
_symmetry_Int_Tables_number   1
_chemical_formula_structural   TmScCo3P7Ru9
_chemical_formula_sum   'Tm1 Sc1 Co3 P7 Ru9'
_cell_volume   283.97392029
_cell_formula_units_Z   1
loop_
 _symmetry_equiv_pos_site_id
 _symmetry_equiv_pos_as_xyz
  1  'x, y, z'
loop_
 _atom_site_type_symbol
 _atom_site_label
 _atom_site_symmetry_multiplicity
 _atom_site_fract_x
 _atom_site_fract_y
 _atom_site_fract_z
 _atom_site_occupancy
  Tm  Tm0  1  0.666667  0.333333  0.000000  1
  Sc  Sc1  1  0.000000  0.000000  0.500000  1
  Co  Co2  1  0.492428  0.937845  0.000000  1
  Co  Co3  1  0.062155  0.554583  0.000000  1
  Co  Co4  1  0.445417  0.507572  0.000000  1
  P  P5  1  0.333333  0.666667  0.000000  1
  P  P6  1  0.450239  0.067878  0.500000  1
  P  P7  1  0.932122  0.382361  0.500000  1
  P  P8  1  0.617639  0.549761  0.500000  1
  P  P9  1  0.748286  0.969141  0.000000  1
  P  P10  1  0.030859  0.779145  0.000000  1
  P  P11  1  0.220855  0.251714  0.000000  1
  Ru  Ru12  1  0.761323  0.732221  0.000000  1
  Ru  Ru13  1  0.267779  0.029101  0.000000  1
  Ru  Ru14  1  0.970899  0.238677  0.000000  1
  Ru  Ru15  1  0.717982  0.102936  0.500000  1
  Ru  Ru16  1  0.897064  0.615045  0.500000  1
  Ru  Ru17  1  0.384955  0.282018  0.500000  1
  Ru  Ru18  1  0.539211  0.752051  0.500000  1
  Ru  Ru19  1  0.247949  0.787160  0.500000  1
  Ru  Ru20  1  0.212840  0.460789  0.500000  1
