# generated using pymatgen
data_Yb8Si12IrPd3
_symmetry_space_group_name_H-M   'P 1'
_cell_length_a   8.23920000
_cell_length_b   8.23920093
_cell_length_c   8.22932000
_cell_angle_alpha   90.00000000
_cell_angle_beta   90.00000000
_cell_angle_gamma   120.00000431
_symmetry_Int_Tables_number   1
_chemical_formula_structural   Yb8Si12IrPd3
_chemical_formula_sum   'Yb8 Si12 Ir1 Pd3'
_cell_volume   483.79870589
_cell_formula_units_Z   1
loop_
 _symmetry_equiv_pos_site_id
 _symmetry_equiv_pos_as_xyz
  1  'x, y, z'
loop_
 _atom_site_type_symbol
 _atom_site_label
 _atom_site_symmetry_multiplicity
 _atom_site_fract_x
 _atom_site_fract_y
 _atom_site_fract_z
 _atom_site_occupancy
  Yb  Yb0  1  0.501310  0.498690  0.751229  1
  Yb  Yb1  1  0.502430  0.497570  0.248819  1
  Yb  Yb2  1  0.997380  0.498690  0.751229  1
  Yb  Yb3  1  0.995142  0.497570  0.248819  1
  Yb  Yb4  1  0.501310  0.002620  0.751229  1
  Yb  Yb5  1  0.502430  0.004858  0.248819  1
  Yb  Yb6  1  0.000000  0.000000  0.749141  1
  Yb  Yb7  1  0.000000  0.000000  0.250463  1
  Si  Si8  1  0.832993  0.167007  0.000096  1
  Si  Si9  1  0.163672  0.836328  0.999830  1
  Si  Si10  1  0.334014  0.167007  0.000096  1
  Si  Si11  1  0.164210  0.835790  0.500341  1
  Si  Si12  1  0.672656  0.836328  0.999830  1
  Si  Si13  1  0.836271  0.163729  0.499465  1
  Si  Si14  1  0.832993  0.665986  0.000096  1
  Si  Si15  1  0.671580  0.835790  0.500341  1
  Si  Si16  1  0.163672  0.327344  0.999830  1
  Si  Si17  1  0.327458  0.163729  0.499465  1
  Si  Si18  1  0.164210  0.328420  0.500341  1
  Si  Si19  1  0.836271  0.672542  0.499465  1
  Ir  Ir20  1  0.666667  0.333333  0.997913  1
  Pd  Pd21  1  0.333333  0.666667  0.002971  1
  Pd  Pd22  1  0.333333  0.666667  0.497392  1
  Pd  Pd23  1  0.666667  0.333333  0.502782  1
