# generated using pymatgen
data_TmTh(Co3Si2)2
_symmetry_space_group_name_H-M   'P 1'
_cell_length_a   6.29012648
_cell_length_b   6.29012619
_cell_length_c   6.29012648
_cell_angle_alpha   130.37106146
_cell_angle_beta   113.48458626
_cell_angle_gamma   87.34983282
_symmetry_Int_Tables_number   1
_chemical_formula_structural   TmTh(Co3Si2)2
_chemical_formula_sum   'Tm1 Th1 Co6 Si4'
_cell_volume   165.71426193
_cell_formula_units_Z   1
loop_
 _symmetry_equiv_pos_site_id
 _symmetry_equiv_pos_as_xyz
  1  'x, y, z'
loop_
 _atom_site_type_symbol
 _atom_site_label
 _atom_site_symmetry_multiplicity
 _atom_site_fract_x
 _atom_site_fract_y
 _atom_site_fract_z
 _atom_site_occupancy
  Tm  Tm0  1  0.750000  0.457813  0.707813  1
  Th  Th1  1  0.250000  0.534699  0.284699  1
  Co  Co2  1  0.012017  0.001528  0.513545  1
  Co  Co3  1  0.487983  0.001528  0.989513  1
  Co  Co4  1  0.722879  0.000827  0.721700  1
  Co  Co5  1  0.220873  0.498821  0.721700  1
  Co  Co6  1  0.279127  0.000827  0.277948  1
  Co  Co7  1  0.777121  0.498821  0.277948  1
  Si  Si8  1  0.070627  0.868366  0.797739  1
  Si  Si9  1  0.907312  0.112140  0.204827  1
  Si  Si10  1  0.592688  0.797516  0.204827  1
  Si  Si11  1  0.429373  0.227112  0.797739  1
