# generated using pymatgen
data_CeTmNbB2Ru5
_symmetry_space_group_name_H-M   'P 1'
_cell_length_a   9.67361373
_cell_length_b   9.67361373
_cell_length_c   3.14531300
_cell_angle_alpha   90.00000000
_cell_angle_beta   90.00000000
_cell_angle_gamma   89.70648479
_symmetry_Int_Tables_number   1
_chemical_formula_structural   CeTmNbB2Ru5
_chemical_formula_sum   'Ce2 Tm2 Nb2 B4 Ru10'
_cell_volume   294.33076241
_cell_formula_units_Z   2
loop_
 _symmetry_equiv_pos_site_id
 _symmetry_equiv_pos_as_xyz
  1  'x, y, z'
loop_
 _atom_site_type_symbol
 _atom_site_label
 _atom_site_symmetry_multiplicity
 _atom_site_fract_x
 _atom_site_fract_y
 _atom_site_fract_z
 _atom_site_occupancy
  Ce  Ce0  1  0.323923  0.823923  0.000000  1
  Ce  Ce1  1  0.676077  0.176077  0.000000  1
  Tm  Tm2  1  0.825345  0.674655  0.000000  1
  Tm  Tm3  1  0.174655  0.325345  0.000000  1
  Nb  Nb4  1  0.500000  0.500000  0.000000  1
  Nb  Nb5  1  0.000000  0.000000  0.000000  1
  B  B6  1  0.624146  0.875854  0.000000  1
  B  B7  1  0.375854  0.124146  0.000000  1
  B  B8  1  0.118097  0.618097  0.000000  1
  B  B9  1  0.881903  0.381903  0.000000  1
  Ru  Ru10  1  0.570711  0.718516  0.500000  1
  Ru  Ru11  1  0.429289  0.281484  0.500000  1
  Ru  Ru12  1  0.070806  0.780967  0.500000  1
  Ru  Ru13  1  0.929194  0.219033  0.500000  1
  Ru  Ru14  1  0.280967  0.570806  0.500000  1
  Ru  Ru15  1  0.719033  0.429194  0.500000  1
  Ru  Ru16  1  0.218516  0.070711  0.500000  1
  Ru  Ru17  1  0.781484  0.929289  0.500000  1
  Ru  Ru18  1  0.500000  0.000000  0.500000  1
  Ru  Ru19  1  0.000000  0.500000  0.500000  1
