# generated using pymatgen
data_Nb6Ga8CuNi3
_symmetry_space_group_name_H-M   'P 1'
_cell_length_a   8.77149100
_cell_length_b   8.79278517
_cell_length_c   8.15863100
_cell_angle_alpha   90.00000000
_cell_angle_beta   90.00000000
_cell_angle_gamma   121.04324154
_symmetry_Int_Tables_number   1
_chemical_formula_structural   Nb6Ga8CuNi3
_chemical_formula_sum   'Nb12 Ga16 Cu2 Ni6'
_cell_volume   539.12027039
_cell_formula_units_Z   2
loop_
 _symmetry_equiv_pos_site_id
 _symmetry_equiv_pos_as_xyz
  1  'x, y, z'
loop_
 _atom_site_type_symbol
 _atom_site_label
 _atom_site_symmetry_multiplicity
 _atom_site_fract_x
 _atom_site_fract_y
 _atom_site_fract_z
 _atom_site_occupancy
  Nb  Nb0  1  0.329519  0.993271  0.066646  1
  Nb  Nb1  1  0.670481  0.006729  0.933354  1
  Nb  Nb2  1  0.998041  0.328985  0.068502  1
  Nb  Nb3  1  0.670481  0.006729  0.566646  1
  Nb  Nb4  1  0.998041  0.328985  0.431498  1
  Nb  Nb5  1  0.001959  0.671015  0.931498  1
  Nb  Nb6  1  0.329519  0.993271  0.433354  1
  Nb  Nb7  1  0.001959  0.671015  0.568502  1
  Nb  Nb8  1  0.666910  0.662798  0.068275  1
  Nb  Nb9  1  0.333090  0.337202  0.931725  1
  Nb  Nb10  1  0.333090  0.337202  0.568275  1
  Nb  Nb11  1  0.666910  0.662798  0.431725  1
  Ga  Ga12  1  0.346772  0.848275  0.750000  1
  Ga  Ga13  1  0.651788  0.504999  0.750000  1
  Ga  Ga14  1  0.653228  0.151725  0.250000  1
  Ga  Ga15  1  0.348212  0.495001  0.250000  1
  Ga  Ga16  1  0.847094  0.343358  0.750000  1
  Ga  Ga17  1  0.152906  0.656642  0.250000  1
  Ga  Ga18  1  0.342309  0.665778  0.506684  1
  Ga  Ga19  1  0.657691  0.334222  0.493316  1
  Ga  Ga20  1  0.657691  0.334222  0.006684  1
  Ga  Ga21  1  0.342309  0.665778  0.993316  1
  Ga  Ga22  1  0.185950  0.011917  0.750000  1
  Ga  Ga23  1  0.814050  0.988083  0.250000  1
  Ga  Ga24  1  0.012243  0.185953  0.750000  1
  Ga  Ga25  1  0.987757  0.814047  0.250000  1
  Ga  Ga26  1  0.820949  0.832817  0.750000  1
  Ga  Ga27  1  0.179051  0.167183  0.250000  1
  Cu  Cu28  1  0.000000  0.000000  0.500000  1
  Cu  Cu29  1  0.000000  0.000000  0.000000  1
  Ni  Ni30  1  0.166884  0.504351  0.750000  1
  Ni  Ni31  1  0.833116  0.495649  0.250000  1
  Ni  Ni32  1  0.504623  0.669541  0.750000  1
  Ni  Ni33  1  0.508452  0.171883  0.750000  1
  Ni  Ni34  1  0.495377  0.330459  0.250000  1
  Ni  Ni35  1  0.491548  0.828117  0.250000  1
