# generated using pymatgen
data_K4Ba2HfP4
_symmetry_space_group_name_H-M   'P 1'
_cell_length_a   10.39680151
_cell_length_b   10.39680175
_cell_length_c   7.95555983
_cell_angle_alpha   89.12473550
_cell_angle_beta   89.12473491
_cell_angle_gamma   119.97661593
_symmetry_Int_Tables_number   1
_chemical_formula_structural   K4Ba2HfP4
_chemical_formula_sum   'K8 Ba4 Hf2 P8'
_cell_volume   744.56144958
_cell_formula_units_Z   2
loop_
 _symmetry_equiv_pos_site_id
 _symmetry_equiv_pos_as_xyz
  1  'x, y, z'
loop_
 _atom_site_type_symbol
 _atom_site_label
 _atom_site_symmetry_multiplicity
 _atom_site_fract_x
 _atom_site_fract_y
 _atom_site_fract_z
 _atom_site_occupancy
  K  K0  1  0.059878  0.529048  0.615623  1
  K  K1  1  0.529048  0.059878  0.115623  1
  K  K2  1  0.275599  0.133950  0.810685  1
  K  K3  1  0.869080  0.725055  0.773801  1
  K  K4  1  0.862198  0.144212  0.792518  1
  K  K5  1  0.725055  0.869080  0.273801  1
  K  K6  1  0.133950  0.275599  0.310685  1
  K  K7  1  0.144212  0.862198  0.292518  1
  Ba  Ba8  1  0.464932  0.936225  0.609201  1
  Ba  Ba9  1  0.463364  0.525236  0.615681  1
  Ba  Ba10  1  0.936225  0.464932  0.109201  1
  Ba  Ba11  1  0.525236  0.463364  0.115681  1
  Hf  Hf12  1  0.669079  0.336294  0.510367  1
  Hf  Hf13  1  0.336294  0.669079  0.010367  1
  P  P14  1  0.669335  0.346330  0.830007  1
  P  P15  1  0.346330  0.669335  0.330007  1
  P  P16  1  0.597642  0.793161  0.885470  1
  P  P17  1  0.204122  0.400007  0.919434  1
  P  P18  1  0.199481  0.795770  0.905961  1
  P  P19  1  0.400007  0.204122  0.419434  1
  P  P20  1  0.793161  0.597642  0.385470  1
  P  P21  1  0.795770  0.199481  0.405961  1
