# generated using pymatgen
data_Dy2Mg(Al3Cu4)3
_symmetry_space_group_name_H-M   'P 1'
_cell_length_a   10.40653813
_cell_length_b   8.24026677
_cell_length_c   7.87802403
_cell_angle_alpha   80.39239709
_cell_angle_beta   51.32739028
_cell_angle_gamma   48.28019733
_symmetry_Int_Tables_number   1
_chemical_formula_structural   Dy2Mg(Al3Cu4)3
_chemical_formula_sum   'Dy2 Mg1 Al9 Cu12'
_cell_volume   355.94847120
_cell_formula_units_Z   1
loop_
 _symmetry_equiv_pos_site_id
 _symmetry_equiv_pos_as_xyz
  1  'x, y, z'
loop_
 _atom_site_type_symbol
 _atom_site_label
 _atom_site_symmetry_multiplicity
 _atom_site_fract_x
 _atom_site_fract_y
 _atom_site_fract_z
 _atom_site_occupancy
  Dy  Dy0  1  0.000000  0.000000  0.000000  1
  Dy  Dy1  1  0.250000  0.250000  0.250000  1
  Mg  Mg2  1  0.500000  0.500000  0.500000  1
  Al  Al3  1  0.750000  0.750000  0.750000  1
  Al  Al4  1  0.756320  0.070524  0.833670  1
  Al  Al5  1  0.833670  0.339488  0.756320  1
  Al  Al6  1  0.070524  0.756320  0.339488  1
  Al  Al7  1  0.339488  0.833670  0.070524  1
  Al  Al8  1  0.494597  0.178130  0.414513  1
  Al  Al9  1  0.414513  0.912759  0.494597  1
  Al  Al10  1  0.178130  0.494597  0.912759  1
  Al  Al11  1  0.912759  0.414513  0.178130  1
  Cu  Cu12  1  0.625518  0.122563  0.626904  1
  Cu  Cu13  1  0.626904  0.625015  0.625518  1
  Cu  Cu14  1  0.122563  0.625518  0.625015  1
  Cu  Cu15  1  0.625015  0.626904  0.122563  1
  Cu  Cu16  1  0.490602  0.434131  0.181236  1
  Cu  Cu17  1  0.181236  0.894031  0.490602  1
  Cu  Cu18  1  0.434131  0.490602  0.894031  1
  Cu  Cu19  1  0.894031  0.181236  0.434131  1
  Cu  Cu20  1  0.758421  0.815105  0.065944  1
  Cu  Cu21  1  0.065944  0.360530  0.758421  1
  Cu  Cu22  1  0.815105  0.758421  0.360530  1
  Cu  Cu23  1  0.360530  0.065944  0.815105  1
