# generated using pymatgen
data_Pa8Be4Si11B
_symmetry_space_group_name_H-M   'P 1'
_cell_length_a   7.73232900
_cell_length_b   7.75984930
_cell_length_c   8.15442800
_cell_angle_alpha   89.99957175
_cell_angle_beta   90.00000000
_cell_angle_gamma   119.88275619
_symmetry_Int_Tables_number   1
_chemical_formula_structural   Pa8Be4Si11B
_chemical_formula_sum   'Pa8 Be4 Si11 B1'
_cell_volume   424.22828487
_cell_formula_units_Z   1
loop_
 _symmetry_equiv_pos_site_id
 _symmetry_equiv_pos_as_xyz
  1  'x, y, z'
loop_
 _atom_site_type_symbol
 _atom_site_label
 _atom_site_symmetry_multiplicity
 _atom_site_fract_x
 _atom_site_fract_y
 _atom_site_fract_z
 _atom_site_occupancy
  Pa  Pa0  1  0.001199  0.002406  0.248700  1
  Pa  Pa1  1  0.001199  0.002410  0.751292  1
  Pa  Pa2  1  0.003451  0.499294  0.247416  1
  Pa  Pa3  1  0.495828  0.499290  0.247407  1
  Pa  Pa4  1  0.501202  0.002392  0.751349  1
  Pa  Pa5  1  0.501178  0.002348  0.248685  1
  Pa  Pa6  1  0.495873  0.499276  0.752599  1
  Pa  Pa7  1  0.003398  0.499260  0.752564  1
  Be  Be8  1  0.319044  0.638128  0.999861  1
  Be  Be9  1  0.333538  0.667097  0.500160  1
  Be  Be10  1  0.664563  0.329097  0.000162  1
  Be  Be11  1  0.667090  0.334164  0.499825  1
  Si  Si12  1  0.650138  0.828178  0.000019  1
  Si  Si13  1  0.173808  0.347673  0.500005  1
  Si  Si14  1  0.332049  0.185003  0.999973  1
  Si  Si15  1  0.178036  0.828151  0.000014  1
  Si  Si16  1  0.653401  0.827184  0.500013  1
  Si  Si17  1  0.826654  0.653261  0.999965  1
  Si  Si18  1  0.347317  0.174064  0.500008  1
  Si  Si19  1  0.173764  0.827144  0.499963  1
  Si  Si20  1  0.826503  0.652972  0.500008  1
  Si  Si21  1  0.852982  0.185042  0.000030  1
  Si  Si22  1  0.826756  0.174092  0.500024  1
  B  B23  1  0.171027  0.342075  0.999958  1
