# generated using pymatgen
data_Nd8Dy2B2Br15
_symmetry_space_group_name_H-M   'P 1'
_cell_length_a   9.34239504
_cell_length_b   10.13798374
_cell_length_c   11.00138099
_cell_angle_alpha   91.33866192
_cell_angle_beta   114.49179665
_cell_angle_gamma   110.75759131
_symmetry_Int_Tables_number   1
_chemical_formula_structural   Nd8Dy2B2Br15
_chemical_formula_sum   'Nd8 Dy2 B2 Br15'
_cell_volume   868.73220444
_cell_formula_units_Z   1
loop_
 _symmetry_equiv_pos_site_id
 _symmetry_equiv_pos_as_xyz
  1  'x, y, z'
loop_
 _atom_site_type_symbol
 _atom_site_label
 _atom_site_symmetry_multiplicity
 _atom_site_fract_x
 _atom_site_fract_y
 _atom_site_fract_z
 _atom_site_occupancy
  Nd  Nd0  1  0.801202  0.408664  0.275689  1
  Nd  Nd1  1  0.198798  0.591336  0.724311  1
  Nd  Nd2  1  0.675471  0.747550  0.821473  1
  Nd  Nd3  1  0.324529  0.252450  0.178527  1
  Nd  Nd4  1  0.526322  0.704900  0.096834  1
  Nd  Nd5  1  0.473678  0.295100  0.903166  1
  Nd  Nd6  1  0.586701  0.037688  0.324909  1
  Nd  Nd7  1  0.413299  0.962312  0.675091  1
  Dy  Dy8  1  0.717129  0.072843  0.046943  1
  Dy  Dy9  1  0.282871  0.927157  0.953057  1
  B  B10  1  0.467868  0.823862  0.879163  1
  B  B11  1  0.532132  0.176138  0.120837  1
  Br  Br12  1  0.000000  0.000000  0.000000  1
  Br  Br13  1  0.637093  0.882287  0.583150  1
  Br  Br14  1  0.362907  0.117713  0.416850  1
  Br  Br15  1  0.883833  0.299026  0.529042  1
  Br  Br16  1  0.116167  0.700974  0.470958  1
  Br  Br17  1  0.282477  0.765037  0.171268  1
  Br  Br18  1  0.717523  0.234963  0.828732  1
  Br  Br19  1  0.046029  0.332912  0.219564  1
  Br  Br20  1  0.159699  0.050885  0.709457  1
  Br  Br21  1  0.840301  0.949115  0.290543  1
  Br  Br22  1  0.229482  0.409735  0.943643  1
  Br  Br23  1  0.770518  0.590265  0.056357  1
  Br  Br24  1  0.408192  0.462931  0.658558  1
  Br  Br25  1  0.591808  0.537069  0.341442  1
  Br  Br26  1  0.953971  0.667088  0.780436  1
