# generated using pymatgen
data_K3Li2ZrBi3
_symmetry_space_group_name_H-M   'P 1'
_cell_length_a   13.89401098
_cell_length_b   13.89400942
_cell_length_c   13.89400910
_cell_angle_alpha   150.55801489
_cell_angle_beta   106.94085835
_cell_angle_gamma   80.66316030
_symmetry_Int_Tables_number   1
_chemical_formula_structural   K3Li2ZrBi3
_chemical_formula_sum   'K12 Li8 Zr4 Bi12'
_cell_volume   1237.06200047
_cell_formula_units_Z   4
loop_
 _symmetry_equiv_pos_site_id
 _symmetry_equiv_pos_as_xyz
  1  'x, y, z'
loop_
 _atom_site_type_symbol
 _atom_site_label
 _atom_site_symmetry_multiplicity
 _atom_site_fract_x
 _atom_site_fract_y
 _atom_site_fract_z
 _atom_site_occupancy
  K  K0  1  0.590272  0.948031  0.197007  1
  K  K1  1  0.073192  0.750000  0.823192  1
  K  K2  1  0.909728  0.106735  0.357758  1
  K  K3  1  0.409728  0.051969  0.802993  1
  K  K4  1  0.748977  0.606735  0.697007  1
  K  K5  1  0.251023  0.393265  0.302993  1
  K  K6  1  0.090272  0.893265  0.642242  1
  K  K7  1  0.426808  0.250000  0.676808  1
  K  K8  1  0.751023  0.448031  0.857758  1
  K  K9  1  0.248977  0.551969  0.142242  1
  K  K10  1  0.926808  0.250000  0.176808  1
  K  K11  1  0.573192  0.750000  0.323192  1
  Li  Li12  1  0.998943  0.248943  0.750000  1
  Li  Li13  1  0.665036  0.915036  0.750000  1
  Li  Li14  1  0.001057  0.751057  0.250000  1
  Li  Li15  1  0.501057  0.251057  0.250000  1
  Li  Li16  1  0.498943  0.748943  0.750000  1
  Li  Li17  1  0.165036  0.415036  0.750000  1
  Li  Li18  1  0.334964  0.084964  0.250000  1
  Li  Li19  1  0.834964  0.584964  0.250000  1
  Zr  Zr20  1  0.666337  0.416337  0.250000  1
  Zr  Zr21  1  0.166337  0.916337  0.250000  1
  Zr  Zr22  1  0.833663  0.083663  0.750000  1
  Zr  Zr23  1  0.333663  0.583663  0.750000  1
  Bi  Bi24  1  0.345924  0.750000  0.095924  1
  Bi  Bi25  1  0.487226  0.567843  0.381508  1
  Bi  Bi26  1  0.987226  0.605719  0.919384  1
  Bi  Bi27  1  0.512774  0.432157  0.618492  1
  Bi  Bi28  1  0.313665  0.894281  0.881508  1
  Bi  Bi29  1  0.686335  0.105719  0.118492  1
  Bi  Bi30  1  0.012774  0.394281  0.080616  1
  Bi  Bi31  1  0.654076  0.250000  0.904076  1
  Bi  Bi32  1  0.813665  0.932157  0.419384  1
  Bi  Bi33  1  0.154076  0.250000  0.404076  1
  Bi  Bi34  1  0.186335  0.067843  0.580616  1
  Bi  Bi35  1  0.845924  0.750000  0.595924  1
