# generated using pymatgen
data_Sm8Si(PdPt3)6
_symmetry_space_group_name_H-M   'P 1'
_cell_length_a   8.42485800
_cell_length_b   8.41347900
_cell_length_c   8.45126300
_cell_angle_alpha   90.00000000
_cell_angle_beta   90.00000000
_cell_angle_gamma   90.00000000
_symmetry_Int_Tables_number   1
_chemical_formula_structural   Sm8Si(PdPt3)6
_chemical_formula_sum   'Sm8 Si1 Pd6 Pt18'
_cell_volume   599.04551595
_cell_formula_units_Z   1
loop_
 _symmetry_equiv_pos_site_id
 _symmetry_equiv_pos_as_xyz
  1  'x, y, z'
loop_
 _atom_site_type_symbol
 _atom_site_label
 _atom_site_symmetry_multiplicity
 _atom_site_fract_x
 _atom_site_fract_y
 _atom_site_fract_z
 _atom_site_occupancy
  Sm  Sm0  1  0.252987  0.252824  0.253140  1
  Sm  Sm1  1  0.746908  0.746845  0.746860  1
  Sm  Sm2  1  0.747013  0.747176  0.253140  1
  Sm  Sm3  1  0.746908  0.253155  0.746860  1
  Sm  Sm4  1  0.253092  0.253155  0.746860  1
  Sm  Sm5  1  0.252987  0.747176  0.253140  1
  Sm  Sm6  1  0.253092  0.746845  0.746860  1
  Sm  Sm7  1  0.747013  0.252824  0.253140  1
  Si  Si8  1  0.000000  0.000000  0.000247  1
  Pd  Pd9  1  0.257895  0.000000  0.500036  1
  Pd  Pd10  1  0.500000  0.000000  0.742019  1
  Pd  Pd11  1  0.742105  0.000000  0.500036  1
  Pd  Pd12  1  0.000000  0.500000  0.257997  1
  Pd  Pd13  1  0.000000  0.500000  0.742036  1
  Pd  Pd14  1  0.500000  0.500000  0.747669  1
  Pt  Pt15  1  0.257602  0.500000  0.000025  1
  Pt  Pt16  1  0.742398  0.500000  0.000025  1
  Pt  Pt17  1  0.000000  0.257741  0.500154  1
  Pt  Pt18  1  0.500000  0.257704  0.000140  1
  Pt  Pt19  1  0.000000  0.742259  0.500154  1
  Pt  Pt20  1  0.500000  0.742296  0.000140  1
  Pt  Pt21  1  0.500000  0.000000  0.258112  1
  Pt  Pt22  1  0.251987  0.500000  0.499989  1
  Pt  Pt23  1  0.748013  0.500000  0.499989  1
  Pt  Pt24  1  0.500000  0.252190  0.499712  1
  Pt  Pt25  1  0.500000  0.747810  0.499712  1
  Pt  Pt26  1  0.500000  0.500000  0.252197  1
  Pt  Pt27  1  0.281887  0.000000  0.999784  1
  Pt  Pt28  1  0.718113  0.000000  0.999784  1
  Pt  Pt29  1  0.000000  0.281977  0.999875  1
  Pt  Pt30  1  0.000000  0.718023  0.999875  1
  Pt  Pt31  1  0.000000  0.000000  0.282066  1
  Pt  Pt32  1  0.000000  0.000000  0.718228  1
