# generated using pymatgen
data_Ho4Fe(CoSi2)5
_symmetry_space_group_name_H-M   'P 1'
_cell_length_a   5.48244988
_cell_length_b   7.88640640
_cell_length_c   7.88640565
_cell_angle_alpha   73.90606454
_cell_angle_beta   69.66010314
_cell_angle_gamma   69.66010326
_symmetry_Int_Tables_number   1
_chemical_formula_structural   Ho4Fe(CoSi2)5
_chemical_formula_sum   'Ho4 Fe1 Co5 Si10'
_cell_volume   295.00498807
_cell_formula_units_Z   1
loop_
 _symmetry_equiv_pos_site_id
 _symmetry_equiv_pos_as_xyz
  1  'x, y, z'
loop_
 _atom_site_type_symbol
 _atom_site_label
 _atom_site_symmetry_multiplicity
 _atom_site_fract_x
 _atom_site_fract_y
 _atom_site_fract_z
 _atom_site_occupancy
  Ho  Ho0  1  0.366464  0.868059  0.402230  1
  Ho  Ho1  1  0.636754  0.131941  0.597770  1
  Ho  Ho2  1  0.863246  0.402230  0.868059  1
  Ho  Ho3  1  0.133536  0.597770  0.131941  1
  Fe  Fe4  1  0.750000  0.000000  0.000000  1
  Co  Co5  1  0.250000  0.000000  0.000000  1
  Co  Co6  1  0.144069  0.254749  0.465854  1
  Co  Co7  1  0.864673  0.745251  0.534146  1
  Co  Co8  1  0.635327  0.465854  0.254749  1
  Co  Co9  1  0.355931  0.534146  0.745251  1
  Si  Si10  1  0.750000  0.500000  0.500000  1
  Si  Si11  1  0.250000  0.500000  0.500000  1
  Si  Si12  1  0.529176  0.220824  0.220824  1
  Si  Si13  1  0.970824  0.779176  0.779176  1
  Si  Si14  1  0.473770  0.776230  0.776230  1
  Si  Si15  1  0.026230  0.223770  0.223770  1
  Si  Si16  1  0.098677  0.062408  0.740928  1
  Si  Si17  1  0.902013  0.937592  0.259072  1
  Si  Si18  1  0.597987  0.740928  0.062408  1
  Si  Si19  1  0.401323  0.259072  0.937592  1
