# generated using pymatgen
data_ErTmGa10Tc2Os
_symmetry_space_group_name_H-M   'P 1'
_cell_length_a   9.03010400
_cell_length_b   9.03013300
_cell_length_c   6.27953100
_cell_angle_alpha   90.00000000
_cell_angle_beta   90.00000000
_cell_angle_gamma   90.00000000
_symmetry_Int_Tables_number   1
_chemical_formula_structural   ErTmGa10Tc2Os
_chemical_formula_sum   'Er2 Tm2 Ga20 Tc4 Os2'
_cell_volume   512.05204829
_cell_formula_units_Z   2
loop_
 _symmetry_equiv_pos_site_id
 _symmetry_equiv_pos_as_xyz
  1  'x, y, z'
loop_
 _atom_site_type_symbol
 _atom_site_label
 _atom_site_symmetry_multiplicity
 _atom_site_fract_x
 _atom_site_fract_y
 _atom_site_fract_z
 _atom_site_occupancy
  Er  Er0  1  0.183112  0.316892  0.000000  1
  Er  Er1  1  0.683112  0.183108  0.000000  1
  Tm  Tm2  1  0.816838  0.683146  0.000000  1
  Tm  Tm3  1  0.316838  0.816854  0.000000  1
  Ga  Ga4  1  0.499849  0.999902  0.284543  1
  Ga  Ga5  1  0.499849  0.999902  0.715457  1
  Ga  Ga6  1  0.294055  0.560403  0.708975  1
  Ga  Ga7  1  0.999849  0.500098  0.284543  1
  Ga  Ga8  1  0.999849  0.500098  0.715457  1
  Ga  Ga9  1  0.060305  0.793988  0.709098  1
  Ga  Ga10  1  0.206033  0.060117  0.291094  1
  Ga  Ga11  1  0.060305  0.793988  0.290902  1
  Ga  Ga12  1  0.706033  0.439883  0.708906  1
  Ga  Ga13  1  0.206033  0.060117  0.708906  1
  Ga  Ga14  1  0.939767  0.205964  0.708730  1
  Ga  Ga15  1  0.706033  0.439883  0.291094  1
  Ga  Ga16  1  0.560305  0.706012  0.290902  1
  Ga  Ga17  1  0.939767  0.205964  0.291270  1
  Ga  Ga18  1  0.560305  0.706012  0.709098  1
  Ga  Ga19  1  0.794055  0.939597  0.291025  1
  Ga  Ga20  1  0.439767  0.294036  0.708730  1
  Ga  Ga21  1  0.794055  0.939597  0.708975  1
  Ga  Ga22  1  0.439767  0.294036  0.291270  1
  Ga  Ga23  1  0.294055  0.560403  0.291025  1
  Tc  Tc24  1  0.179073  0.320881  0.500000  1
  Tc  Tc25  1  0.320843  0.820794  0.500000  1
  Tc  Tc26  1  0.820843  0.679206  0.500000  1
  Tc  Tc27  1  0.679073  0.179119  0.500000  1
  Os  Os28  1  0.000116  0.999714  0.000000  1
  Os  Os29  1  0.500116  0.500286  0.000000  1
