# generated using pymatgen
data_Dy6Ho10Cd4Ir3Pt
_symmetry_space_group_name_H-M   'P 1'
_cell_length_a   9.61965315
_cell_length_b   9.61965237
_cell_length_c   9.61965322
_cell_angle_alpha   60.13405577
_cell_angle_beta   60.13406134
_cell_angle_gamma   60.13405920
_symmetry_Int_Tables_number   1
_chemical_formula_structural   Dy6Ho10Cd4Ir3Pt
_chemical_formula_sum   'Dy6 Ho10 Cd4 Ir3 Pt1'
_cell_volume   631.36442360
_cell_formula_units_Z   1
loop_
 _symmetry_equiv_pos_site_id
 _symmetry_equiv_pos_as_xyz
  1  'x, y, z'
loop_
 _atom_site_type_symbol
 _atom_site_label
 _atom_site_symmetry_multiplicity
 _atom_site_fract_x
 _atom_site_fract_y
 _atom_site_fract_z
 _atom_site_occupancy
  Dy  Dy0  1  0.188615  0.812544  0.812544  1
  Dy  Dy1  1  0.813313  0.187763  0.187763  1
  Dy  Dy2  1  0.812544  0.188615  0.812544  1
  Dy  Dy3  1  0.187763  0.813313  0.187763  1
  Dy  Dy4  1  0.812544  0.812544  0.188615  1
  Dy  Dy5  1  0.187763  0.187763  0.813313  1
  Ho  Ho6  1  0.597841  0.597841  0.597841  1
  Ho  Ho7  1  0.602222  0.602222  0.199448  1
  Ho  Ho8  1  0.602222  0.199448  0.602222  1
  Ho  Ho9  1  0.199448  0.602222  0.602222  1
  Ho  Ho10  1  0.056164  0.440334  0.440334  1
  Ho  Ho11  1  0.437433  0.060616  0.060616  1
  Ho  Ho12  1  0.440334  0.056164  0.440334  1
  Ho  Ho13  1  0.060616  0.437433  0.060616  1
  Ho  Ho14  1  0.440334  0.440334  0.056164  1
  Ho  Ho15  1  0.060616  0.060616  0.437433  1
  Cd  Cd16  1  0.830767  0.830767  0.830767  1
  Cd  Cd17  1  0.830927  0.830927  0.506265  1
  Cd  Cd18  1  0.830927  0.506265  0.830927  1
  Cd  Cd19  1  0.506265  0.830927  0.830927  1
  Ir  Ir20  1  0.392009  0.392009  0.824554  1
  Ir  Ir21  1  0.392009  0.824554  0.392009  1
  Ir  Ir22  1  0.824554  0.392009  0.392009  1
  Pt  Pt23  1  0.392767  0.392767  0.392767  1
