# generated using pymatgen
data_Tm(GaNi)6
_symmetry_space_group_name_H-M   'P 1'
_cell_length_a   5.01000971
_cell_length_b   6.47861071
_cell_length_c   6.47861025
_cell_angle_alpha   78.67080505
_cell_angle_beta   67.25330515
_cell_angle_gamma   67.25330552
_symmetry_Int_Tables_number   1
_chemical_formula_structural   Tm(GaNi)6
_chemical_formula_sum   'Tm1 Ga6 Ni6'
_cell_volume   178.57142554
_cell_formula_units_Z   1
loop_
 _symmetry_equiv_pos_site_id
 _symmetry_equiv_pos_as_xyz
  1  'x, y, z'
loop_
 _atom_site_type_symbol
 _atom_site_label
 _atom_site_symmetry_multiplicity
 _atom_site_fract_x
 _atom_site_fract_y
 _atom_site_fract_z
 _atom_site_occupancy
  Tm  Tm0  1  0.000000  0.000000  0.000000  1
  Ga  Ga1  1  0.000000  0.657184  0.342816  1
  Ga  Ga2  1  0.000000  0.342816  0.657184  1
  Ga  Ga3  1  0.343603  0.656397  0.656397  1
  Ga  Ga4  1  0.656397  0.343603  0.343603  1
  Ga  Ga5  1  0.317925  0.182075  0.182075  1
  Ga  Ga6  1  0.682075  0.817925  0.817925  1
  Ni  Ni7  1  0.500000  0.238924  0.761076  1
  Ni  Ni8  1  0.500000  0.761076  0.238924  1
  Ni  Ni9  1  0.000000  0.500000  0.000000  1
  Ni  Ni10  1  0.500000  0.500000  0.000000  1
  Ni  Ni11  1  0.000000  0.000000  0.500000  1
  Ni  Ni12  1  0.500000  0.000000  0.500000  1
