# generated using pymatgen
data_Hf7Nb(TcOs)4
_symmetry_space_group_name_H-M   'P 1'
_cell_length_a   6.47535400
_cell_length_b   4.60212900
_cell_length_c   9.21453300
_cell_angle_alpha   90.00000000
_cell_angle_beta   89.99947340
_cell_angle_gamma   90.00000000
_symmetry_Int_Tables_number   1
_chemical_formula_structural   Hf7Nb(TcOs)4
_chemical_formula_sum   'Hf7 Nb1 Tc4 Os4'
_cell_volume   274.59690216
_cell_formula_units_Z   1
loop_
 _symmetry_equiv_pos_site_id
 _symmetry_equiv_pos_as_xyz
  1  'x, y, z'
loop_
 _atom_site_type_symbol
 _atom_site_label
 _atom_site_symmetry_multiplicity
 _atom_site_fract_x
 _atom_site_fract_y
 _atom_site_fract_z
 _atom_site_occupancy
  Hf  Hf0  1  0.499927  0.750001  0.125023  1
  Hf  Hf1  1  0.000014  0.250001  0.374961  1
  Hf  Hf2  1  0.500054  0.250001  0.374621  1
  Hf  Hf3  1  0.500228  0.750001  0.625016  1
  Hf  Hf4  1  0.999555  0.750001  0.625015  1
  Hf  Hf5  1  0.499967  0.250001  0.875353  1
  Hf  Hf6  1  0.999930  0.250001  0.875002  1
  Nb  Nb7  1  0.000559  0.750001  0.124980  1
  Tc  Tc8  1  0.755528  0.250001  0.125002  1
  Tc  Tc9  1  0.246983  0.750001  0.371227  1
  Tc  Tc10  1  0.749859  0.250001  0.624994  1
  Tc  Tc11  1  0.246916  0.750001  0.878790  1
  Os  Os12  1  0.246976  0.250001  0.125005  1
  Os  Os13  1  0.751664  0.750001  0.372144  1
  Os  Os14  1  0.250145  0.250001  0.625022  1
  Os  Os15  1  0.751595  0.750001  0.877843  1
