# generated using pymatgen
data_MgIr3F12
_symmetry_space_group_name_H-M   'P 1'
_cell_length_a   7.35221401
_cell_length_b   7.35221347
_cell_length_c   7.48402468
_cell_angle_alpha   60.58092236
_cell_angle_beta   60.58092390
_cell_angle_gamma   59.99999718
_symmetry_Int_Tables_number   1
_chemical_formula_structural   MgIr3F12
_chemical_formula_sum   'Mg1 Ir3 F12'
_cell_volume   288.54566089
_cell_formula_units_Z   1
loop_
 _symmetry_equiv_pos_site_id
 _symmetry_equiv_pos_as_xyz
  1  'x, y, z'
loop_
 _atom_site_type_symbol
 _atom_site_label
 _atom_site_symmetry_multiplicity
 _atom_site_fract_x
 _atom_site_fract_y
 _atom_site_fract_z
 _atom_site_occupancy
  Mg  Mg0  1  0.625000  0.625000  0.125000  1
  Ir  Ir1  1  0.625000  0.125000  0.625000  1
  Ir  Ir2  1  0.625000  0.625000  0.625000  1
  Ir  Ir3  1  0.125000  0.625000  0.625000  1
  F  F4  1  0.690706  0.306481  0.312108  1
  F  F5  1  0.690706  0.690706  0.312108  1
  F  F6  1  0.306481  0.690706  0.312108  1
  F  F7  1  0.549947  0.953065  0.543924  1
  F  F8  1  0.953065  0.953065  0.543924  1
  F  F9  1  0.953065  0.549947  0.543924  1
  F  F10  1  0.700053  0.296935  0.706076  1
  F  F11  1  0.559294  0.943519  0.937892  1
  F  F12  1  0.943519  0.559294  0.937892  1
  F  F13  1  0.296935  0.700053  0.706076  1
  F  F14  1  0.559294  0.559294  0.937892  1
  F  F15  1  0.296935  0.296935  0.706076  1
