# generated using pymatgen
data_Sc10ZnSiPb6
_symmetry_space_group_name_H-M   'P 1'
_cell_length_a   8.74376000
_cell_length_b   8.74375975
_cell_length_c   6.21573600
_cell_angle_alpha   90.00000000
_cell_angle_beta   90.00000000
_cell_angle_gamma   120.00000093
_symmetry_Int_Tables_number   1
_chemical_formula_structural   Sc10ZnSiPb6
_chemical_formula_sum   'Sc10 Zn1 Si1 Pb6'
_cell_volume   411.54718258
_cell_formula_units_Z   1
loop_
 _symmetry_equiv_pos_site_id
 _symmetry_equiv_pos_as_xyz
  1  'x, y, z'
loop_
 _atom_site_type_symbol
 _atom_site_label
 _atom_site_symmetry_multiplicity
 _atom_site_fract_x
 _atom_site_fract_y
 _atom_site_fract_z
 _atom_site_occupancy
  Sc  Sc0  1  0.666667  0.333333  0.500000  1
  Sc  Sc1  1  0.333333  0.666667  0.500000  1
  Sc  Sc2  1  0.333333  0.666667  0.000000  1
  Sc  Sc3  1  0.666667  0.333333  0.000000  1
  Sc  Sc4  1  0.745918  0.745918  0.234550  1
  Sc  Sc5  1  0.254082  0.000000  0.234550  1
  Sc  Sc6  1  0.000000  0.254082  0.234550  1
  Sc  Sc7  1  0.254082  0.254082  0.765450  1
  Sc  Sc8  1  0.745918  0.000000  0.765450  1
  Sc  Sc9  1  0.000000  0.745918  0.765450  1
  Zn  Zn10  1  0.000000  0.000000  0.500000  1
  Si  Si11  1  0.000000  0.000000  0.000000  1
  Pb  Pb12  1  0.390031  0.390031  0.251801  1
  Pb  Pb13  1  0.609969  0.000000  0.251801  1
  Pb  Pb14  1  0.000000  0.609969  0.251801  1
  Pb  Pb15  1  0.609969  0.609969  0.748199  1
  Pb  Pb16  1  0.390031  0.000000  0.748199  1
  Pb  Pb17  1  0.000000  0.390031  0.748199  1
