# generated using pymatgen
data_Tc2Ag6GeF18
_symmetry_space_group_name_H-M   'P 1'
_cell_length_a   9.90535825
_cell_length_b   9.90865890
_cell_length_c   5.33610000
_cell_angle_alpha   90.10735601
_cell_angle_beta   89.87322492
_cell_angle_gamma   119.97928037
_symmetry_Int_Tables_number   1
_chemical_formula_structural   Tc2Ag6GeF18
_chemical_formula_sum   'Tc2 Ag6 Ge1 F18'
_cell_volume   453.65850715
_cell_formula_units_Z   1
loop_
 _symmetry_equiv_pos_site_id
 _symmetry_equiv_pos_as_xyz
  1  'x, y, z'
loop_
 _atom_site_type_symbol
 _atom_site_label
 _atom_site_symmetry_multiplicity
 _atom_site_fract_x
 _atom_site_fract_y
 _atom_site_fract_z
 _atom_site_occupancy
  Tc  Tc0  1  0.333312  0.666759  0.501312  1
  Tc  Tc1  1  0.000041  0.000055  0.998046  1
  Ag  Ag2  1  0.993062  0.620069  0.001896  1
  Ag  Ag3  1  0.995742  0.292236  0.502479  1
  Ag  Ag4  1  0.380186  0.373549  0.001569  1
  Ag  Ag5  1  0.296842  0.004691  0.501184  1
  Ag  Ag6  1  0.707664  0.703031  0.502180  1
  Ag  Ag7  1  0.626598  0.006389  0.001046  1
  Ge  Ge8  1  0.666705  0.333277  0.499205  1
  F  F9  1  0.086308  0.895296  0.792420  1
  F  F10  1  0.223577  0.745638  0.291612  1
  F  F11  1  0.144735  0.553797  0.712392  1
  F  F12  1  0.408548  0.855227  0.712305  1
  F  F13  1  0.254500  0.477809  0.291440  1
  F  F14  1  0.104790  0.190675  0.792653  1
  F  F15  1  0.191117  0.105072  0.202989  1
  F  F16  1  0.446157  0.591429  0.712256  1
  F  F17  1  0.522252  0.776339  0.291248  1
  F  F18  1  0.491488  0.261085  0.697688  1
  F  F19  1  0.597018  0.437815  0.300032  1
  F  F20  1  0.809402  0.913953  0.792685  1
  F  F21  1  0.562213  0.158815  0.299804  1
  F  F22  1  0.769149  0.508199  0.697863  1
  F  F23  1  0.913716  0.808904  0.202894  1
  F  F24  1  0.738738  0.230624  0.697575  1
  F  F25  1  0.841332  0.402969  0.299940  1
  F  F26  1  0.894810  0.086298  0.203291  1
