# generated using pymatgen
data_Nd20Sn8Bi3Te5
_symmetry_space_group_name_H-M   'P 1'
_cell_length_a   8.37647157
_cell_length_b   8.43900041
_cell_length_c   16.02136100
_cell_angle_alpha   89.97202087
_cell_angle_beta   90.02114270
_cell_angle_gamma   90.04323167
_symmetry_Int_Tables_number   1
_chemical_formula_structural   Nd20Sn8Bi3Te5
_chemical_formula_sum   'Nd20 Sn8 Bi3 Te5'
_cell_volume   1132.53420625
_cell_formula_units_Z   1
loop_
 _symmetry_equiv_pos_site_id
 _symmetry_equiv_pos_as_xyz
  1  'x, y, z'
loop_
 _atom_site_type_symbol
 _atom_site_label
 _atom_site_symmetry_multiplicity
 _atom_site_fract_x
 _atom_site_fract_y
 _atom_site_fract_z
 _atom_site_occupancy
  Nd  Nd0  1  0.072647  0.167457  0.385668  1
  Nd  Nd1  1  0.407375  0.833843  0.118455  1
  Nd  Nd2  1  0.090634  0.335209  0.617139  1
  Nd  Nd3  1  0.429881  0.671623  0.885318  1
  Nd  Nd4  1  0.906860  0.664423  0.118612  1
  Nd  Nd5  1  0.089499  0.333058  0.881986  1
  Nd  Nd6  1  0.238974  0.498757  0.250128  1
  Nd  Nd7  1  0.738890  0.000159  0.249946  1
  Nd  Nd8  1  0.428060  0.668463  0.614193  1
  Nd  Nd9  1  0.261060  0.999972  0.748578  1
  Nd  Nd10  1  0.593430  0.166402  0.617101  1
  Nd  Nd11  1  0.760615  0.501366  0.749727  1
  Nd  Nd12  1  0.910141  0.666438  0.384593  1
  Nd  Nd13  1  0.072851  0.168634  0.115131  1
  Nd  Nd14  1  0.930051  0.830002  0.885280  1
  Nd  Nd15  1  0.589777  0.167775  0.882232  1
  Nd  Nd16  1  0.574224  0.331953  0.115442  1
  Nd  Nd17  1  0.408727  0.833843  0.382622  1
  Nd  Nd18  1  0.925444  0.831118  0.614195  1
  Nd  Nd19  1  0.570604  0.328589  0.387865  1
  Sn  Sn20  1  0.629069  0.868155  0.749742  1
  Sn  Sn21  1  0.871466  0.366037  0.252039  1
  Sn  Sn22  1  0.607755  0.627787  0.252406  1
  Sn  Sn23  1  0.392268  0.371795  0.749830  1
  Sn  Sn24  1  0.129433  0.634242  0.749504  1
  Sn  Sn25  1  0.892394  0.128103  0.750066  1
  Sn  Sn26  1  0.371870  0.133855  0.250849  1
  Sn  Sn27  1  0.106295  0.869958  0.251268  1
  Bi  Bi28  1  0.243917  0.505737  0.044964  1
  Bi  Bi29  1  0.256347  0.005927  0.545598  1
  Bi  Bi30  1  0.743442  0.993838  0.044867  1
  Te  Te31  1  0.755815  0.495651  0.548233  1
  Te  Te32  1  0.744307  0.994669  0.451880  1
  Te  Te33  1  0.244816  0.503942  0.451964  1
  Te  Te34  1  0.255603  0.005509  0.951376  1
  Te  Te35  1  0.755456  0.495713  0.951202  1
