# generated using pymatgen
data_HfTh2Ni11As7
_symmetry_space_group_name_H-M   'P 1'
_cell_length_a   3.93980200
_cell_length_b   9.49676446
_cell_length_c   9.56011165
_cell_angle_alpha   120.51585548
_cell_angle_beta   90.00000000
_cell_angle_gamma   90.00000000
_symmetry_Int_Tables_number   1
_chemical_formula_structural   HfTh2Ni11As7
_chemical_formula_sum   'Hf1 Th2 Ni11 As7'
_cell_volume   308.15030407
_cell_formula_units_Z   1
loop_
 _symmetry_equiv_pos_site_id
 _symmetry_equiv_pos_as_xyz
  1  'x, y, z'
loop_
 _atom_site_type_symbol
 _atom_site_label
 _atom_site_symmetry_multiplicity
 _atom_site_fract_x
 _atom_site_fract_y
 _atom_site_fract_z
 _atom_site_occupancy
  Hf  Hf0  1  0.500000  0.103758  0.897179  1
  Th  Th1  1  0.500000  0.333934  0.659543  1
  Th  Th2  1  0.000000  0.674686  0.343868  1
  Ni  Ni3  1  0.000000  0.866343  0.719350  1
  Ni  Ni4  1  0.000000  0.285861  0.150971  1
  Ni  Ni5  1  0.000000  0.839024  0.132460  1
  Ni  Ni6  1  0.500000  0.940706  0.560575  1
  Ni  Ni7  1  0.500000  0.433264  0.382407  1
  Ni  Ni8  1  0.500000  0.618363  0.042702  1
  Ni  Ni9  1  0.000000  0.370581  0.935128  1
  Ni  Ni10  1  0.000000  0.063006  0.430506  1
  Ni  Ni11  1  0.000000  0.559114  0.618149  1
  Ni  Ni12  1  0.500000  0.107187  0.221860  1
  Ni  Ni13  1  0.500000  0.797368  0.899801  1
  As  As14  1  0.500000  0.707924  0.611618  1
  As  As15  1  0.500000  0.417306  0.115531  1
  As  As16  1  0.500000  0.895276  0.291968  1
  As  As17  1  0.000000  0.994002  0.011701  1
  As  As18  1  0.000000  0.103768  0.693100  1
  As  As19  1  0.000000  0.291308  0.394413  1
  As  As20  1  0.000000  0.597222  0.887171  1
