# generated using pymatgen
data_Ho2Tm4ZnNi2
_symmetry_space_group_name_H-M   'P 1'
_cell_length_a   8.21969983
_cell_length_b   8.21970114
_cell_length_c   8.21969902
_cell_angle_alpha   106.24216392
_cell_angle_beta   109.65010155
_cell_angle_gamma   112.58335199
_symmetry_Int_Tables_number   1
_chemical_formula_structural   Ho2Tm4ZnNi2
_chemical_formula_sum   'Ho4 Tm8 Zn2 Ni4'
_cell_volume   426.20165650
_cell_formula_units_Z   2
loop_
 _symmetry_equiv_pos_site_id
 _symmetry_equiv_pos_as_xyz
  1  'x, y, z'
loop_
 _atom_site_type_symbol
 _atom_site_label
 _atom_site_symmetry_multiplicity
 _atom_site_fract_x
 _atom_site_fract_y
 _atom_site_fract_z
 _atom_site_occupancy
  Ho  Ho0  1  0.692919  0.261241  0.954159  1
  Ho  Ho1  1  0.307081  0.738759  0.045841  1
  Ho  Ho2  1  0.692919  0.738759  0.431678  1
  Ho  Ho3  1  0.307081  0.261241  0.568322  1
  Tm  Tm4  1  0.807681  0.134520  0.326839  1
  Tm  Tm5  1  0.807681  0.480844  0.673161  1
  Tm  Tm6  1  0.192319  0.865480  0.673161  1
  Tm  Tm7  1  0.192319  0.519156  0.326839  1
  Tm  Tm8  1  0.604920  0.783549  0.821372  1
  Tm  Tm9  1  0.962178  0.783549  0.178628  1
  Tm  Tm10  1  0.037822  0.216451  0.821372  1
  Tm  Tm11  1  0.395080  0.216451  0.178628  1
  Zn  Zn12  1  0.500000  0.500000  0.000000  1
  Zn  Zn13  1  0.500000  0.000000  0.500000  1
  Ni  Ni14  1  0.846205  0.500000  0.346205  1
  Ni  Ni15  1  0.153795  0.500000  0.653795  1
  Ni  Ni16  1  0.000000  0.121303  0.121303  1
  Ni  Ni17  1  0.000000  0.878697  0.878697  1
