# generated using pymatgen
data_Tb5Dy11(ErPb4)4
_symmetry_space_group_name_H-M   'P 1'
_cell_length_a   8.21024485
_cell_length_b   8.29691822
_cell_length_c   15.67351544
_cell_angle_alpha   90.00177515
_cell_angle_beta   89.96448779
_cell_angle_gamma   89.96164685
_symmetry_Int_Tables_number   1
_chemical_formula_structural   Tb5Dy11(ErPb4)4
_chemical_formula_sum   'Tb5 Dy11 Er4 Pb16'
_cell_volume   1067.67519595
_cell_formula_units_Z   1
loop_
 _symmetry_equiv_pos_site_id
 _symmetry_equiv_pos_as_xyz
  1  'x, y, z'
loop_
 _atom_site_type_symbol
 _atom_site_label
 _atom_site_symmetry_multiplicity
 _atom_site_fract_x
 _atom_site_fract_y
 _atom_site_fract_z
 _atom_site_occupancy
  Tb  Tb0  1  0.965593  0.823062  0.100006  1
  Tb  Tb1  1  0.465783  0.676716  0.099679  1
  Tb  Tb2  1  0.965570  0.823124  0.400241  1
  Tb  Tb3  1  0.534293  0.323191  0.599691  1
  Tb  Tb4  1  0.034149  0.176975  0.900259  1
  Dy  Dy5  1  0.376347  0.841210  0.879108  1
  Dy  Dy6  1  0.876698  0.658899  0.620863  1
  Dy  Dy7  1  0.623208  0.158967  0.379203  1
  Dy  Dy8  1  0.123401  0.341066  0.120818  1
  Dy  Dy9  1  0.623375  0.158945  0.120834  1
  Dy  Dy10  1  0.123307  0.340990  0.379344  1
  Dy  Dy11  1  0.376725  0.841157  0.620823  1
  Dy  Dy12  1  0.876390  0.658748  0.879042  1
  Dy  Dy13  1  0.534788  0.323282  0.899829  1
  Dy  Dy14  1  0.035007  0.176543  0.600203  1
  Dy  Dy15  1  0.465019  0.676479  0.399950  1
  Er  Er16  1  0.208420  0.504009  0.750007  1
  Er  Er17  1  0.708355  0.995959  0.749954  1
  Er  Er18  1  0.791525  0.495896  0.250131  1
  Er  Er19  1  0.291786  0.004243  0.250136  1
  Pb  Pb20  1  0.282195  0.034022  0.043055  1
  Pb  Pb21  1  0.781318  0.466751  0.456866  1
  Pb  Pb22  1  0.718676  0.966764  0.543176  1
  Pb  Pb23  1  0.218379  0.533575  0.956854  1
  Pb  Pb24  1  0.717368  0.965918  0.956953  1
  Pb  Pb25  1  0.217734  0.534485  0.542763  1
  Pb  Pb26  1  0.282216  0.034299  0.457312  1
  Pb  Pb27  1  0.782147  0.465159  0.042557  1
  Pb  Pb28  1  0.571589  0.625918  0.749901  1
  Pb  Pb29  1  0.071596  0.873963  0.750074  1
  Pb  Pb30  1  0.428399  0.373859  0.249927  1
  Pb  Pb31  1  0.928366  0.126227  0.250089  1
  Pb  Pb32  1  0.345985  0.153570  0.750211  1
  Pb  Pb33  1  0.845939  0.346449  0.749773  1
  Pb  Pb34  1  0.653869  0.846464  0.250259  1
  Pb  Pb35  1  0.154488  0.653116  0.250110  1
