# generated using pymatgen
data_TaNbB2AsRu5
_symmetry_space_group_name_H-M   'P 1'
_cell_length_a   9.36996962
_cell_length_b   9.36996962
_cell_length_c   2.96869800
_cell_angle_alpha   90.00000000
_cell_angle_beta   90.00000000
_cell_angle_gamma   90.06732429
_symmetry_Int_Tables_number   1
_chemical_formula_structural   TaNbB2AsRu5
_chemical_formula_sum   'Ta2 Nb2 B4 As2 Ru10'
_cell_volume   260.64061120
_cell_formula_units_Z   2
loop_
 _symmetry_equiv_pos_site_id
 _symmetry_equiv_pos_as_xyz
  1  'x, y, z'
loop_
 _atom_site_type_symbol
 _atom_site_label
 _atom_site_symmetry_multiplicity
 _atom_site_fract_x
 _atom_site_fract_y
 _atom_site_fract_z
 _atom_site_occupancy
  Ta  Ta0  1  0.323503  0.823503  0.000000  1
  Ta  Ta1  1  0.676497  0.176497  0.000000  1
  Nb  Nb2  1  0.823460  0.676540  0.000000  1
  Nb  Nb3  1  0.176540  0.323460  0.000000  1
  B  B4  1  0.623254  0.876746  0.000000  1
  B  B5  1  0.376746  0.123254  0.000000  1
  B  B6  1  0.123690  0.623690  0.000000  1
  B  B7  1  0.876310  0.376310  0.000000  1
  As  As8  1  0.500000  0.500000  0.000000  1
  As  As9  1  0.000000  0.000000  0.000000  1
  Ru  Ru10  1  0.568388  0.713782  0.500000  1
  Ru  Ru11  1  0.431612  0.286218  0.500000  1
  Ru  Ru12  1  0.069055  0.786487  0.500000  1
  Ru  Ru13  1  0.930945  0.213513  0.500000  1
  Ru  Ru14  1  0.286487  0.569055  0.500000  1
  Ru  Ru15  1  0.713513  0.430945  0.500000  1
  Ru  Ru16  1  0.213782  0.068388  0.500000  1
  Ru  Ru17  1  0.786218  0.931612  0.500000  1
  Ru  Ru18  1  0.500000  0.000000  0.500000  1
  Ru  Ru19  1  0.000000  0.500000  0.500000  1
