# generated using pymatgen
data_TiFe3Cl16
_symmetry_space_group_name_H-M   'P 1'
_cell_length_a   6.73781155
_cell_length_b   10.84418095
_cell_length_c   10.81566031
_cell_angle_alpha   75.68815828
_cell_angle_beta   88.40929056
_cell_angle_gamma   91.10720074
_symmetry_Int_Tables_number   1
_chemical_formula_structural   TiFe3Cl16
_chemical_formula_sum   'Ti1 Fe3 Cl16'
_cell_volume   765.15678775
_cell_formula_units_Z   1
loop_
 _symmetry_equiv_pos_site_id
 _symmetry_equiv_pos_as_xyz
  1  'x, y, z'
loop_
 _atom_site_type_symbol
 _atom_site_label
 _atom_site_symmetry_multiplicity
 _atom_site_fract_x
 _atom_site_fract_y
 _atom_site_fract_z
 _atom_site_occupancy
  Ti  Ti0  1  0.925719  0.251272  0.864623  1
  Fe  Fe1  1  0.574776  0.251442  0.364394  1
  Fe  Fe2  1  0.074216  0.747963  0.136447  1
  Fe  Fe3  1  0.425738  0.749401  0.634560  1
  Cl  Cl4  1  0.532593  0.412623  0.210427  1
  Cl  Cl5  1  0.020342  0.586596  0.291863  1
  Cl  Cl6  1  0.466214  0.589109  0.789872  1
  Cl  Cl7  1  0.934021  0.418511  0.702879  1
  Cl  Cl8  1  0.617395  0.192530  0.920031  1
  Cl  Cl9  1  0.151267  0.825222  0.563676  1
  Cl  Cl10  1  0.354887  0.827868  0.059516  1
  Cl  Cl11  1  0.849449  0.176387  0.436238  1
  Cl  Cl12  1  0.077470  0.095797  0.809387  1
  Cl  Cl13  1  0.546990  0.898752  0.706578  1
  Cl  Cl14  1  0.959067  0.895547  0.213080  1
  Cl  Cl15  1  0.459910  0.101358  0.290966  1
  Cl  Cl16  1  0.072863  0.298281  0.025143  1
  Cl  Cl17  1  0.539279  0.683587  0.477985  1
  Cl  Cl18  1  0.962682  0.681757  0.982159  1
  Cl  Cl19  1  0.455123  0.315996  0.520176  1
