# generated using pymatgen
data_TbLu3Sc3AlPt4
_symmetry_space_group_name_H-M   'P 1'
_cell_length_a   4.47355200
_cell_length_b   6.97064591
_cell_length_c   8.25677898
_cell_angle_alpha   86.73037630
_cell_angle_beta   90.00000000
_cell_angle_gamma   90.00000000
_symmetry_Int_Tables_number   1
_chemical_formula_structural   TbLu3Sc3AlPt4
_chemical_formula_sum   'Tb1 Lu3 Sc3 Al1 Pt4'
_cell_volume   257.05653494
_cell_formula_units_Z   1
loop_
 _symmetry_equiv_pos_site_id
 _symmetry_equiv_pos_as_xyz
  1  'x, y, z'
loop_
 _atom_site_type_symbol
 _atom_site_label
 _atom_site_symmetry_multiplicity
 _atom_site_fract_x
 _atom_site_fract_y
 _atom_site_fract_z
 _atom_site_occupancy
  Tb  Tb0  1  0.250000  0.040718  0.672102  1
  Lu  Lu1  1  0.250000  0.518970  0.816803  1
  Lu  Lu2  1  0.750000  0.991634  0.341623  1
  Lu  Lu3  1  0.750000  0.466348  0.182768  1
  Sc  Sc4  1  0.250000  0.133434  0.071847  1
  Sc  Sc5  1  0.250000  0.643011  0.434135  1
  Sc  Sc6  1  0.750000  0.857484  0.931311  1
  Al  Al7  1  0.750000  0.363649  0.566537  1
  Pt  Pt8  1  0.250000  0.264061  0.380358  1
  Pt  Pt9  1  0.250000  0.740304  0.100633  1
  Pt  Pt10  1  0.750000  0.732536  0.614442  1
  Pt  Pt11  1  0.750000  0.247854  0.887443  1
