# generated using pymatgen
data_Ce3Lu13(AlRu)4
_symmetry_space_group_name_H-M   'P 1'
_cell_length_a   9.36306684
_cell_length_b   9.27741785
_cell_length_c   9.25053700
_cell_angle_alpha   60.71434315
_cell_angle_beta   60.24142388
_cell_angle_gamma   60.52679166
_symmetry_Int_Tables_number   1
_chemical_formula_structural   Ce3Lu13(AlRu)4
_chemical_formula_sum   'Ce3 Lu13 Al4 Ru4'
_cell_volume   574.52132794
_cell_formula_units_Z   1
loop_
 _symmetry_equiv_pos_site_id
 _symmetry_equiv_pos_as_xyz
  1  'x, y, z'
loop_
 _atom_site_type_symbol
 _atom_site_label
 _atom_site_symmetry_multiplicity
 _atom_site_fract_x
 _atom_site_fract_y
 _atom_site_fract_z
 _atom_site_occupancy
  Ce  Ce0  1  0.099826  0.709209  0.097975  1
  Ce  Ce1  1  0.936993  0.942689  0.556711  1
  Ce  Ce2  1  0.937637  0.554117  0.941712  1
  Lu  Lu3  1  0.317160  0.682222  0.313752  1
  Lu  Lu4  1  0.941522  0.552024  0.552314  1
  Lu  Lu5  1  0.313892  0.313000  0.684779  1
  Lu  Lu6  1  0.112761  0.101266  0.104280  1
  Lu  Lu7  1  0.554268  0.553728  0.942307  1
  Lu  Lu8  1  0.099599  0.105582  0.693528  1
  Lu  Lu9  1  0.684150  0.312970  0.685267  1
  Lu  Lu10  1  0.686446  0.684476  0.313356  1
  Lu  Lu11  1  0.688736  0.307253  0.310156  1
  Lu  Lu12  1  0.313349  0.688742  0.688600  1
  Lu  Lu13  1  0.549504  0.944057  0.556402  1
  Lu  Lu14  1  0.695560  0.100524  0.098332  1
  Lu  Lu15  1  0.546781  0.946832  0.947300  1
  Al  Al16  1  0.328383  0.327911  0.327380  1
  Al  Al17  1  0.017024  0.330827  0.329407  1
  Al  Al18  1  0.332603  0.013742  0.328678  1
  Al  Al19  1  0.332448  0.327700  0.015620  1
  Ru  Ru20  1  0.900260  0.876634  0.876339  1
  Ru  Ru21  1  0.893778  0.904755  0.335680  1
  Ru  Ru22  1  0.317982  0.884473  0.895951  1
  Ru  Ru23  1  0.899335  0.335268  0.904169  1
