# generated using pymatgen
data_Er2Co9SnB6
_symmetry_space_group_name_H-M   'P 1'
_cell_length_a   5.77728659
_cell_length_b   5.77728664
_cell_length_c   5.77728645
_cell_angle_alpha   95.73013029
_cell_angle_beta   95.73013627
_cell_angle_gamma   95.73014835
_symmetry_Int_Tables_number   1
_chemical_formula_structural   Er2Co9SnB6
_chemical_formula_sum   'Er2 Co9 Sn1 B6'
_cell_volume   189.72851541
_cell_formula_units_Z   1
loop_
 _symmetry_equiv_pos_site_id
 _symmetry_equiv_pos_as_xyz
  1  'x, y, z'
loop_
 _atom_site_type_symbol
 _atom_site_label
 _atom_site_symmetry_multiplicity
 _atom_site_fract_x
 _atom_site_fract_y
 _atom_site_fract_z
 _atom_site_occupancy
  Er  Er0  1  0.671340  0.671340  0.671340  1
  Er  Er1  1  0.328660  0.328660  0.328660  1
  Co  Co2  1  0.000000  0.000000  0.500000  1
  Co  Co3  1  0.500000  0.000000  0.000000  1
  Co  Co4  1  0.000000  0.500000  0.000000  1
  Co  Co5  1  0.702480  0.195836  0.702480  1
  Co  Co6  1  0.702480  0.702480  0.195836  1
  Co  Co7  1  0.195836  0.702480  0.702480  1
  Co  Co8  1  0.297520  0.804164  0.297520  1
  Co  Co9  1  0.297520  0.297520  0.804164  1
  Co  Co10  1  0.804164  0.297520  0.297520  1
  Sn  Sn11  1  0.000000  0.000000  0.000000  1
  B  B12  1  0.616002  0.383998  0.000000  1
  B  B13  1  0.000000  0.616002  0.383998  1
  B  B14  1  0.383998  0.000000  0.616002  1
  B  B15  1  0.000000  0.383998  0.616002  1
  B  B16  1  0.616002  0.000000  0.383998  1
  B  B17  1  0.383998  0.616002  0.000000  1
