# generated using pymatgen
data_Cs4Mg(AsS4)2
_symmetry_space_group_name_H-M   'P 1'
_cell_length_a   9.58514299
_cell_length_b   9.71921409
_cell_length_c   11.63300661
_cell_angle_alpha   105.06799837
_cell_angle_beta   104.67289349
_cell_angle_gamma   91.23650799
_symmetry_Int_Tables_number   1
_chemical_formula_structural   Cs4Mg(AsS4)2
_chemical_formula_sum   'Cs8 Mg2 As4 S16'
_cell_volume   1007.89912144
_cell_formula_units_Z   2
loop_
 _symmetry_equiv_pos_site_id
 _symmetry_equiv_pos_as_xyz
  1  'x, y, z'
loop_
 _atom_site_type_symbol
 _atom_site_label
 _atom_site_symmetry_multiplicity
 _atom_site_fract_x
 _atom_site_fract_y
 _atom_site_fract_z
 _atom_site_occupancy
  Cs  Cs0  1  0.932679  0.521775  0.249358  1
  Cs  Cs1  1  0.067321  0.478225  0.750642  1
  Cs  Cs2  1  0.761070  0.983323  0.455210  1
  Cs  Cs3  1  0.238930  0.016677  0.544790  1
  Cs  Cs4  1  0.599504  0.743046  0.015991  1
  Cs  Cs5  1  0.400496  0.256954  0.984009  1
  Cs  Cs6  1  0.620797  0.682139  0.623331  1
  Cs  Cs7  1  0.379203  0.317861  0.376669  1
  Mg  Mg8  1  0.852593  0.134634  0.926605  1
  Mg  Mg9  1  0.147407  0.865366  0.073395  1
  As  As10  1  0.953977  0.108933  0.220055  1
  As  As11  1  0.046023  0.891067  0.779945  1
  As  As12  1  0.362310  0.693276  0.253330  1
  As  As13  1  0.637690  0.306724  0.746670  1
  S  S14  1  0.980776  0.886154  0.223019  1
  S  S15  1  0.019224  0.113846  0.776981  1
  S  S16  1  0.607438  0.080477  0.750528  1
  S  S17  1  0.392562  0.919523  0.249472  1
  S  S18  1  0.285551  0.672568  0.408928  1
  S  S19  1  0.714449  0.327432  0.591072  1
  S  S20  1  0.804810  0.400446  0.921591  1
  S  S21  1  0.195190  0.599554  0.078409  1
  S  S22  1  0.007066  0.249471  0.405760  1
  S  S23  1  0.992934  0.750529  0.594240  1
  S  S24  1  0.095595  0.159824  0.109976  1
  S  S25  1  0.904405  0.840176  0.890024  1
  S  S26  1  0.738116  0.130808  0.107911  1
  S  S27  1  0.261884  0.869192  0.892089  1
  S  S28  1  0.563994  0.590687  0.260891  1
  S  S29  1  0.436006  0.409313  0.739109  1
