# generated using pymatgen
data_Er12CoTcNi3Bi
_symmetry_space_group_name_H-M   'P 1'
_cell_length_a   8.29244465
_cell_length_b   8.29244363
_cell_length_c   8.29244398
_cell_angle_alpha   109.90189147
_cell_angle_beta   111.63973785
_cell_angle_gamma   106.90705908
_symmetry_Int_Tables_number   1
_chemical_formula_structural   Er12CoTcNi3Bi
_chemical_formula_sum   'Er12 Co1 Tc1 Ni3 Bi1'
_cell_volume   438.19937908
_cell_formula_units_Z   1
loop_
 _symmetry_equiv_pos_site_id
 _symmetry_equiv_pos_as_xyz
  1  'x, y, z'
loop_
 _atom_site_type_symbol
 _atom_site_label
 _atom_site_symmetry_multiplicity
 _atom_site_fract_x
 _atom_site_fract_y
 _atom_site_fract_z
 _atom_site_occupancy
  Er  Er0  1  0.282960  0.181543  0.461172  1
  Er  Er1  1  0.720370  0.821788  0.538828  1
  Er  Er2  1  0.282960  0.821788  0.101418  1
  Er  Er3  1  0.720370  0.181543  0.898582  1
  Er  Er4  1  0.623206  0.312389  0.310817  1
  Er  Er5  1  0.374085  0.682611  0.691474  1
  Er  Er6  1  0.001574  0.312389  0.689183  1
  Er  Er7  1  0.991134  0.682611  0.308526  1
  Er  Er8  1  0.218737  0.412446  0.193709  1
  Er  Er9  1  0.782712  0.589053  0.806342  1
  Er  Er10  1  0.218737  0.025028  0.806291  1
  Er  Er11  1  0.782712  0.976370  0.193658  1
  Co  Co12  1  0.613691  0.113691  0.500000  1
  Tc  Tc13  1  0.002008  0.002008  0.000000  1
  Ni  Ni14  1  0.000421  0.361541  0.361119  1
  Ni  Ni15  1  0.000421  0.639302  0.638881  1
  Ni  Ni16  1  0.383469  0.883469  0.500000  1
  Bi  Bi17  1  0.500433  0.500433  0.000000  1
