# generated using pymatgen
data_Rb6GaTe4Br
_symmetry_space_group_name_H-M   'P 1'
_cell_length_a   11.66165400
_cell_length_b   11.66165297
_cell_length_c   8.65191600
_cell_angle_alpha   90.00000000
_cell_angle_beta   90.00000000
_cell_angle_gamma   119.99999725
_symmetry_Int_Tables_number   1
_chemical_formula_structural   Rb6GaTe4Br
_chemical_formula_sum   'Rb12 Ga2 Te8 Br2'
_cell_volume   1018.97423567
_cell_formula_units_Z   2
loop_
 _symmetry_equiv_pos_site_id
 _symmetry_equiv_pos_as_xyz
  1  'x, y, z'
loop_
 _atom_site_type_symbol
 _atom_site_label
 _atom_site_symmetry_multiplicity
 _atom_site_fract_x
 _atom_site_fract_y
 _atom_site_fract_z
 _atom_site_occupancy
  Rb  Rb0  1  0.133076  0.866924  0.515849  1
  Rb  Rb1  1  0.733845  0.866924  0.515849  1
  Rb  Rb2  1  0.954363  0.477182  0.318687  1
  Rb  Rb3  1  0.522818  0.477182  0.318687  1
  Rb  Rb4  1  0.866924  0.733845  0.015849  1
  Rb  Rb5  1  0.266155  0.133076  0.015849  1
  Rb  Rb6  1  0.522818  0.045637  0.318687  1
  Rb  Rb7  1  0.133076  0.266155  0.515849  1
  Rb  Rb8  1  0.866924  0.133076  0.015849  1
  Rb  Rb9  1  0.045637  0.522818  0.818687  1
  Rb  Rb10  1  0.477182  0.954363  0.818687  1
  Rb  Rb11  1  0.477182  0.522818  0.818687  1
  Ga  Ga12  1  0.666667  0.333333  0.708423  1
  Ga  Ga13  1  0.333333  0.666667  0.208423  1
  Te  Te14  1  0.415017  0.207509  0.611499  1
  Te  Te15  1  0.584983  0.792491  0.111499  1
  Te  Te16  1  0.666667  0.333333  0.021946  1
  Te  Te17  1  0.792491  0.584983  0.611499  1
  Te  Te18  1  0.207509  0.415017  0.111499  1
  Te  Te19  1  0.333333  0.666667  0.521946  1
  Te  Te20  1  0.207509  0.792491  0.111499  1
  Te  Te21  1  0.792491  0.207509  0.611499  1
  Br  Br22  1  0.000000  0.000000  0.272127  1
  Br  Br23  1  0.000000  0.000000  0.772127  1
