# generated using pymatgen
data_DyEr15Cd4(OsPt)2
_symmetry_space_group_name_H-M   'P 1'
_cell_length_a   9.58797120
_cell_length_b   9.58796939
_cell_length_c   9.66931000
_cell_angle_alpha   59.71896533
_cell_angle_beta   59.71897163
_cell_angle_gamma   59.44144058
_symmetry_Int_Tables_number   1
_chemical_formula_structural   DyEr15Cd4(OsPt)2
_chemical_formula_sum   'Dy1 Er15 Cd4 Os2 Pt2'
_cell_volume   623.19595230
_cell_formula_units_Z   1
loop_
 _symmetry_equiv_pos_site_id
 _symmetry_equiv_pos_as_xyz
  1  'x, y, z'
loop_
 _atom_site_type_symbol
 _atom_site_label
 _atom_site_symmetry_multiplicity
 _atom_site_fract_x
 _atom_site_fract_y
 _atom_site_fract_z
 _atom_site_occupancy
  Dy  Dy0  1  0.939390  0.939390  0.560609  1
  Er  Er1  1  0.350770  0.350770  0.350898  1
  Er  Er2  1  0.350770  0.350770  0.947562  1
  Er  Er3  1  0.347213  0.954521  0.349134  1
  Er  Er4  1  0.954521  0.347213  0.349134  1
  Er  Er5  1  0.814146  0.187991  0.190570  1
  Er  Er6  1  0.187991  0.814146  0.807292  1
  Er  Er7  1  0.187991  0.814146  0.190570  1
  Er  Er8  1  0.814146  0.187991  0.807292  1
  Er  Er9  1  0.188348  0.188348  0.811652  1
  Er  Er10  1  0.808202  0.808202  0.191798  1
  Er  Er11  1  0.938215  0.555782  0.567157  1
  Er  Er12  1  0.555782  0.938215  0.938846  1
  Er  Er13  1  0.555782  0.938215  0.567157  1
  Er  Er14  1  0.938215  0.555781  0.938846  1
  Er  Er15  1  0.564508  0.564508  0.935492  1
  Cd  Cd16  1  0.579851  0.579851  0.582007  1
  Cd  Cd17  1  0.579851  0.579851  0.258292  1
  Cd  Cd18  1  0.580443  0.255014  0.582271  1
  Cd  Cd19  1  0.255014  0.580443  0.582271  1
  Os  Os20  1  0.144769  0.144769  0.136831  1
  Os  Os21  1  0.144769  0.144769  0.573632  1
  Pt  Pt22  1  0.144645  0.574667  0.140345  1
  Pt  Pt23  1  0.574667  0.144645  0.140345  1
