# generated using pymatgen
data_NdTh2(ZnPt)3
_symmetry_space_group_name_H-M   'P 1'
_cell_length_a   7.54971436
_cell_length_b   7.56122676
_cell_length_c   3.90961200
_cell_angle_alpha   90.00000000
_cell_angle_beta   90.00000000
_cell_angle_gamma   120.05046540
_symmetry_Int_Tables_number   1
_chemical_formula_structural   NdTh2(ZnPt)3
_chemical_formula_sum   'Nd1 Th2 Zn3 Pt3'
_cell_volume   193.18170764
_cell_formula_units_Z   1
loop_
 _symmetry_equiv_pos_site_id
 _symmetry_equiv_pos_as_xyz
  1  'x, y, z'
loop_
 _atom_site_type_symbol
 _atom_site_label
 _atom_site_symmetry_multiplicity
 _atom_site_fract_x
 _atom_site_fract_y
 _atom_site_fract_z
 _atom_site_occupancy
  Nd  Nd0  1  0.000000  0.406600  0.000000  1
  Th  Th1  1  0.590593  0.591464  0.000000  1
  Th  Th2  1  0.409407  0.000871  0.000000  1
  Zn  Zn3  1  0.000000  0.747359  0.500000  1
  Zn  Zn4  1  0.237387  0.245129  0.500000  1
  Zn  Zn5  1  0.762613  0.007742  0.500000  1
  Pt  Pt6  1  0.000000  0.991100  0.000000  1
  Pt  Pt7  1  0.348362  0.679049  0.500000  1
  Pt  Pt8  1  0.651638  0.330686  0.500000  1
