# generated using pymatgen
data_Lu16In6NiPt
_symmetry_space_group_name_H-M   'P 1'
_cell_length_a   10.25644703
_cell_length_b   10.25620786
_cell_length_c   6.81352700
_cell_angle_alpha   89.99834375
_cell_angle_beta   90.00242871
_cell_angle_gamma   119.99188897
_symmetry_Int_Tables_number   1
_chemical_formula_structural   Lu16In6NiPt
_chemical_formula_sum   'Lu16 In6 Ni1 Pt1'
_cell_volume   620.75733246
_cell_formula_units_Z   1
loop_
 _symmetry_equiv_pos_site_id
 _symmetry_equiv_pos_as_xyz
  1  'x, y, z'
loop_
 _atom_site_type_symbol
 _atom_site_label
 _atom_site_symmetry_multiplicity
 _atom_site_fract_x
 _atom_site_fract_y
 _atom_site_fract_z
 _atom_site_occupancy
  Lu  Lu0  1  0.529888  0.059783  0.526018  1
  Lu  Lu1  1  0.940207  0.470106  0.526022  1
  Lu  Lu2  1  0.529885  0.470113  0.526042  1
  Lu  Lu3  1  0.467720  0.935448  0.024836  1
  Lu  Lu4  1  0.064554  0.532282  0.024819  1
  Lu  Lu5  1  0.467713  0.532281  0.024854  1
  Lu  Lu6  1  0.178067  0.356157  0.731662  1
  Lu  Lu7  1  0.643837  0.821929  0.731627  1
  Lu  Lu8  1  0.178068  0.821923  0.731655  1
  Lu  Lu9  1  0.824022  0.648048  0.231015  1
  Lu  Lu10  1  0.351971  0.175984  0.231019  1
  Lu  Lu11  1  0.824026  0.175969  0.231039  1
  Lu  Lu12  1  0.666654  0.333334  0.899553  1
  Lu  Lu13  1  0.333347  0.666662  0.409505  1
  Lu  Lu14  1  0.999987  0.000008  0.506245  1
  Lu  Lu15  1  0.999993  0.000000  0.003944  1
  In  In16  1  0.838575  0.677038  0.766404  1
  In  In17  1  0.322980  0.161466  0.766364  1
  In  In18  1  0.838459  0.161502  0.766252  1
  In  In19  1  0.162765  0.325608  0.266779  1
  In  In20  1  0.674419  0.837209  0.266742  1
  In  In21  1  0.162789  0.837180  0.266626  1
  Ni  Ni22  1  0.333405  0.666634  0.796919  1
  Pt  Pt23  1  0.666666  0.333336  0.299740  1
