# generated using pymatgen
data_Tb3In3CuRuAu
_symmetry_space_group_name_H-M   'P 1'
_cell_length_a   7.66589600
_cell_length_b   7.66589591
_cell_length_c   3.91644900
_cell_angle_alpha   90.00000000
_cell_angle_beta   90.00000000
_cell_angle_gamma   120.00000901
_symmetry_Int_Tables_number   1
_chemical_formula_structural   Tb3In3CuRuAu
_chemical_formula_sum   'Tb3 In3 Cu1 Ru1 Au1'
_cell_volume   199.31909608
_cell_formula_units_Z   1
loop_
 _symmetry_equiv_pos_site_id
 _symmetry_equiv_pos_as_xyz
  1  'x, y, z'
loop_
 _atom_site_type_symbol
 _atom_site_label
 _atom_site_symmetry_multiplicity
 _atom_site_fract_x
 _atom_site_fract_y
 _atom_site_fract_z
 _atom_site_occupancy
  Tb  Tb0  1  0.023271  0.600391  0.500000  1
  Tb  Tb1  1  0.399609  0.422881  0.500000  1
  Tb  Tb2  1  0.577119  0.976729  0.500000  1
  In  In3  1  0.748169  0.751694  0.000000  1
  In  In4  1  0.003525  0.251831  0.000000  1
  In  In5  1  0.248306  0.996475  0.000000  1
  Cu  Cu6  1  0.000000  0.000000  0.500000  1
  Ru  Ru7  1  0.333333  0.666667  0.000000  1
  Au  Au8  1  0.666667  0.333333  0.000000  1
