# generated using pymatgen
data_DyHo2In3GaPt2
_symmetry_space_group_name_H-M   'P 1'
_cell_length_a   7.67552601
_cell_length_b   7.67550647
_cell_length_c   3.91741000
_cell_angle_alpha   90.00000000
_cell_angle_beta   90.00000000
_cell_angle_gamma   120.00698821
_symmetry_Int_Tables_number   1
_chemical_formula_structural   DyHo2In3GaPt2
_chemical_formula_sum   'Dy1 Ho2 In3 Ga1 Pt2'
_cell_volume   199.85465268
_cell_formula_units_Z   1
loop_
 _symmetry_equiv_pos_site_id
 _symmetry_equiv_pos_as_xyz
  1  'x, y, z'
loop_
 _atom_site_type_symbol
 _atom_site_label
 _atom_site_symmetry_multiplicity
 _atom_site_fract_x
 _atom_site_fract_y
 _atom_site_fract_z
 _atom_site_occupancy
  Dy  Dy0  1  0.606580  0.014591  0.500000  1
  Ho  Ho1  1  0.408028  0.393305  0.500000  1
  Ho  Ho2  1  0.985196  0.591933  0.500000  1
  In  In3  1  0.739342  0.739893  0.000000  1
  In  In4  1  0.000682  0.260725  0.000000  1
  In  In5  1  0.259988  0.999435  0.000000  1
  Ga  Ga6  1  0.333282  0.666537  0.000000  1
  Pt  Pt7  1  0.666750  0.333586  0.000000  1
  Pt  Pt8  1  0.000150  0.999996  0.500000  1
