# generated using pymatgen
data_Os5ICl30
_symmetry_space_group_name_H-M   'P 1'
_cell_length_a   13.04494527
_cell_length_b   13.05151472
_cell_length_c   6.55704600
_cell_angle_alpha   86.06777950
_cell_angle_beta   86.03577013
_cell_angle_gamma   88.28178760
_symmetry_Int_Tables_number   1
_chemical_formula_structural   Os5ICl30
_chemical_formula_sum   'Os5 I1 Cl30'
_cell_volume   1110.72807287
_cell_formula_units_Z   1
loop_
 _symmetry_equiv_pos_site_id
 _symmetry_equiv_pos_as_xyz
  1  'x, y, z'
loop_
 _atom_site_type_symbol
 _atom_site_label
 _atom_site_symmetry_multiplicity
 _atom_site_fract_x
 _atom_site_fract_y
 _atom_site_fract_z
 _atom_site_occupancy
  Os  Os0  1  0.897311  0.102752  0.000122  1
  Os  Os1  1  0.102200  0.897501  0.999950  1
  Os  Os2  1  0.773805  0.559753  0.433388  1
  Os  Os3  1  0.230583  0.435779  0.566580  1
  Os  Os4  1  0.435646  0.230807  0.566984  1
  I  I5  1  0.558468  0.775300  0.433515  1
  Cl  Cl6  1  0.508415  0.313037  0.815875  1
  Cl  Cl7  1  0.266533  0.266774  0.739787  1
  Cl  Cl8  1  0.169543  0.974918  0.698505  1
  Cl  Cl9  1  0.606791  0.586661  0.616030  1
  Cl  Cl10  1  0.219046  0.587358  0.384043  1
  Cl  Cl11  1  0.746915  0.726739  0.250691  1
  Cl  Cl12  1  0.158284  0.352666  0.318107  1
  Cl  Cl13  1  0.069458  0.069496  0.125464  1
  Cl  Cl14  1  0.645654  0.855710  0.699651  1
  Cl  Cl15  1  0.587463  0.218862  0.384496  1
  Cl  Cl16  1  0.110803  0.742487  0.867911  1
  Cl  Cl17  1  0.025337  0.830165  0.301123  1
  Cl  Cl18  1  0.926555  0.545984  0.252022  1
  Cl  Cl19  1  0.830285  0.025027  0.301127  1
  Cl  Cl20  1  0.396913  0.788341  0.626072  1
  Cl  Cl21  1  0.788026  0.407093  0.613709  1
  Cl  Cl22  1  0.546516  0.936613  0.239472  1
  Cl  Cl23  1  0.975018  0.169529  0.698945  1
  Cl  Cl24  1  0.845399  0.643867  0.681432  1
  Cl  Cl25  1  0.889240  0.257581  0.131993  1
  Cl  Cl26  1  0.478415  0.688144  0.166456  1
  Cl  Cl27  1  0.352643  0.158008  0.318566  1
  Cl  Cl28  1  0.078893  0.447015  0.749719  1
  Cl  Cl29  1  0.742280  0.110721  0.868148  1
  Cl  Cl30  1  0.446175  0.078924  0.750335  1
  Cl  Cl31  1  0.399948  0.399548  0.393908  1
  Cl  Cl32  1  0.313662  0.508163  0.815389  1
  Cl  Cl33  1  0.257489  0.889955  0.131056  1
  Cl  Cl34  1  0.930405  0.930392  0.874777  1
  Cl  Cl35  1  0.689885  0.488327  0.184656  1
