# generated using pymatgen
data_La5Pr4(BiO)5
_symmetry_space_group_name_H-M   'P 1'
_cell_length_a   10.51634710
_cell_length_b   10.52362225
_cell_length_c   9.46168030
_cell_angle_alpha   89.97555548
_cell_angle_beta   89.98442593
_cell_angle_gamma   89.99576106
_symmetry_Int_Tables_number   1
_chemical_formula_structural   La5Pr4(BiO)5
_chemical_formula_sum   'La10 Pr8 Bi10 O10'
_cell_volume   1047.12463102
_cell_formula_units_Z   2
loop_
 _symmetry_equiv_pos_site_id
 _symmetry_equiv_pos_as_xyz
  1  'x, y, z'
loop_
 _atom_site_type_symbol
 _atom_site_label
 _atom_site_symmetry_multiplicity
 _atom_site_fract_x
 _atom_site_fract_y
 _atom_site_fract_z
 _atom_site_occupancy
  La  La0  1  0.727467  0.919259  0.003107  1
  La  La1  1  0.580806  0.227968  0.001895  1
  La  La2  1  0.772751  0.580910  0.997815  1
  La  La3  1  0.227166  0.418936  0.999030  1
  La  La4  1  0.204556  0.895925  0.340190  1
  La  La5  1  0.272613  0.081353  0.000941  1
  La  La6  1  0.895857  0.795128  0.659888  1
  La  La7  1  0.918978  0.272200  0.997676  1
  La  La8  1  0.295033  0.603479  0.658983  1
  La  La9  1  0.418949  0.772736  0.002506  1
  Pr  Pr10  1  0.999569  0.499630  0.327815  1
  Pr  Pr11  1  0.104080  0.205236  0.657299  1
  Pr  Pr12  1  0.794869  0.105108  0.342805  1
  Pr  Pr13  1  0.500703  0.000661  0.671779  1
  Pr  Pr14  1  0.081354  0.725905  0.998708  1
  Pr  Pr15  1  0.396235  0.294825  0.342790  1
  Pr  Pr16  1  0.704579  0.395397  0.657095  1
  Pr  Pr17  1  0.604324  0.704576  0.342226  1
  Bi  Bi18  1  0.500666  0.000069  0.313347  1
  Bi  Bi19  1  0.196469  0.903972  0.701187  1
  Bi  Bi20  1  0.403381  0.303283  0.699221  1
  Bi  Bi21  1  0.999522  0.499104  0.687047  1
  Bi  Bi22  1  0.696096  0.403345  0.301076  1
  Bi  Bi23  1  0.096535  0.196781  0.300825  1
  Bi  Bi24  1  0.596649  0.696144  0.699271  1
  Bi  Bi25  1  0.304098  0.595849  0.299554  1
  Bi  Bi26  1  0.803787  0.097436  0.699075  1
  Bi  Bi27  1  0.902896  0.803536  0.299167  1
  O  O28  1  0.500069  0.999748  0.931890  1
  O  O29  1  0.724912  0.379047  0.912322  1
  O  O30  1  0.620839  0.724930  0.087694  1
  O  O31  1  0.378677  0.274953  0.087549  1
  O  O32  1  0.121168  0.224896  0.912365  1
  O  O33  1  0.274864  0.620951  0.910389  1
  O  O34  1  0.000636  0.501499  0.067623  1
  O  O35  1  0.224651  0.878958  0.090146  1
  O  O36  1  0.879024  0.775153  0.909942  1
  O  O37  1  0.775171  0.121113  0.087764  1
