# generated using pymatgen
data_Pr17Y3(IrPt)6
_symmetry_space_group_name_H-M   'P 1'
_cell_length_a   11.45512467
_cell_length_b   11.44764800
_cell_length_c   6.53813252
_cell_angle_alpha   89.99786549
_cell_angle_beta   90.13759911
_cell_angle_gamma   89.99867055
_symmetry_Int_Tables_number   1
_chemical_formula_structural   Pr17Y3(IrPt)6
_chemical_formula_sum   'Pr17 Y3 Ir6 Pt6'
_cell_volume   857.37053267
_cell_formula_units_Z   1
loop_
 _symmetry_equiv_pos_site_id
 _symmetry_equiv_pos_as_xyz
  1  'x, y, z'
loop_
 _atom_site_type_symbol
 _atom_site_label
 _atom_site_symmetry_multiplicity
 _atom_site_fract_x
 _atom_site_fract_y
 _atom_site_fract_z
 _atom_site_occupancy
  Pr  Pr0  1  0.294411  0.091431  0.374799  1
  Pr  Pr1  1  0.294044  0.908640  0.876243  1
  Pr  Pr2  1  0.705551  0.088064  0.874938  1
  Pr  Pr3  1  0.705049  0.912008  0.373423  1
  Pr  Pr4  1  0.584768  0.789148  0.875457  1
  Pr  Pr5  1  0.584541  0.210639  0.375725  1
  Pr  Pr6  1  0.409831  0.790486  0.381407  1
  Pr  Pr7  1  0.409721  0.209611  0.881276  1
  Pr  Pr8  1  0.212341  0.413279  0.619887  1
  Pr  Pr9  1  0.212462  0.586852  0.120020  1
  Pr  Pr10  1  0.792321  0.411401  0.123160  1
  Pr  Pr11  1  0.792519  0.588367  0.622880  1
  Pr  Pr12  1  0.913101  0.706251  0.124273  1
  Pr  Pr13  1  0.913173  0.294227  0.625833  1
  Pr  Pr14  1  0.092616  0.704970  0.626121  1
  Pr  Pr15  1  0.092531  0.294716  0.124681  1
  Pr  Pr16  1  0.999863  0.999205  0.499887  1
  Y  Y17  1  0.999937  0.000977  0.999861  1
  Y  Y18  1  0.497083  0.498890  0.000088  1
  Y  Y19  1  0.497065  0.501034  0.500093  1
  Ir  Ir20  1  0.352501  0.351310  0.250018  1
  Ir  Ir21  1  0.352247  0.648428  0.749842  1
  Ir  Ir22  1  0.500218  0.999049  0.116060  1
  Ir  Ir23  1  0.500221  0.000907  0.616528  1
  Ir  Ir24  1  0.999146  0.500214  0.883995  1
  Ir  Ir25  1  0.999164  0.499778  0.383528  1
  Pt  Pt26  1  0.848573  0.150906  0.245016  1
  Pt  Pt27  1  0.848069  0.849500  0.755327  1
  Pt  Pt28  1  0.150248  0.150838  0.754753  1
  Pt  Pt29  1  0.149819  0.848704  0.244506  1
  Pt  Pt30  1  0.648512  0.352348  0.750170  1
  Pt  Pt31  1  0.648352  0.647822  0.250209  1
