# generated using pymatgen
data_MgRu5O12
_symmetry_space_group_name_H-M   'P 1'
_cell_length_a   4.59369769
_cell_length_b   4.59369779
_cell_length_c   9.31398100
_cell_angle_alpha   90.00000000
_cell_angle_beta   90.00000000
_cell_angle_gamma   90.54706995
_symmetry_Int_Tables_number   1
_chemical_formula_structural   MgRu5O12
_chemical_formula_sum   'Mg1 Ru5 O12'
_cell_volume   196.53521657
_cell_formula_units_Z   1
loop_
 _symmetry_equiv_pos_site_id
 _symmetry_equiv_pos_as_xyz
  1  'x, y, z'
loop_
 _atom_site_type_symbol
 _atom_site_label
 _atom_site_symmetry_multiplicity
 _atom_site_fract_x
 _atom_site_fract_y
 _atom_site_fract_z
 _atom_site_occupancy
  Mg  Mg0  1  0.000000  0.000000  0.000000  1
  Ru  Ru1  1  0.000000  0.000000  0.330894  1
  Ru  Ru2  1  0.000000  0.000000  0.669106  1
  Ru  Ru3  1  0.500000  0.500000  0.166866  1
  Ru  Ru4  1  0.500000  0.500000  0.500000  1
  Ru  Ru5  1  0.500000  0.500000  0.833134  1
  O  O6  1  0.193510  0.193510  0.500000  1
  O  O7  1  0.205686  0.205686  0.178453  1
  O  O8  1  0.205686  0.205686  0.821547  1
  O  O9  1  0.697128  0.302872  0.335882  1
  O  O10  1  0.697128  0.302872  0.664118  1
  O  O11  1  0.686220  0.313780  0.000000  1
  O  O12  1  0.313780  0.686220  0.000000  1
  O  O13  1  0.302872  0.697128  0.335882  1
  O  O14  1  0.302872  0.697128  0.664118  1
  O  O15  1  0.794314  0.794314  0.178453  1
  O  O16  1  0.794314  0.794314  0.821547  1
  O  O17  1  0.806490  0.806490  0.500000  1
