# generated using pymatgen
data_Y3Ga4S
_symmetry_space_group_name_H-M   'P 1'
_cell_length_a   7.75115064
_cell_length_b   7.75115093
_cell_length_c   7.75115116
_cell_angle_alpha   119.11560754
_cell_angle_beta   119.11560696
_cell_angle_gamma   91.53876007
_symmetry_Int_Tables_number   1
_chemical_formula_structural   Y3Ga4S
_chemical_formula_sum   'Y6 Ga8 S2'
_cell_volume   333.56551006
_cell_formula_units_Z   2
loop_
 _symmetry_equiv_pos_site_id
 _symmetry_equiv_pos_as_xyz
  1  'x, y, z'
loop_
 _atom_site_type_symbol
 _atom_site_label
 _atom_site_symmetry_multiplicity
 _atom_site_fract_x
 _atom_site_fract_y
 _atom_site_fract_z
 _atom_site_occupancy
  Y  Y0  1  0.835598  0.664402  0.500000  1
  Y  Y1  1  0.664402  0.164402  0.828803  1
  Y  Y2  1  0.335598  0.835598  0.171197  1
  Y  Y3  1  0.164402  0.335598  0.500000  1
  Y  Y4  1  0.250000  0.250000  0.000000  1
  Y  Y5  1  0.750000  0.750000  0.000000  1
  Ga  Ga6  1  0.162211  0.949291  0.500000  1
  Ga  Ga7  1  0.449291  0.662211  0.500000  1
  Ga  Ga8  1  0.550709  0.337789  0.500000  1
  Ga  Ga9  1  0.662211  0.162211  0.212920  1
  Ga  Ga10  1  0.837789  0.050709  0.500000  1
  Ga  Ga11  1  0.050709  0.550709  0.212920  1
  Ga  Ga12  1  0.337789  0.837789  0.787080  1
  Ga  Ga13  1  0.949291  0.449291  0.787080  1
  S  S14  1  0.000000  0.000000  0.000000  1
  S  S15  1  0.500000  0.500000  0.000000  1
