# generated using pymatgen
data_U2Tc5(PRu)7
_symmetry_space_group_name_H-M   'P 1'
_cell_length_a   9.51728321
_cell_length_b   9.47158193
_cell_length_c   3.88582600
_cell_angle_alpha   90.00000000
_cell_angle_beta   90.00000000
_cell_angle_gamma   119.87107909
_symmetry_Int_Tables_number   1
_chemical_formula_structural   U2Tc5(PRu)7
_chemical_formula_sum   'U2 Tc5 P7 Ru7'
_cell_volume   303.74715512
_cell_formula_units_Z   1
loop_
 _symmetry_equiv_pos_site_id
 _symmetry_equiv_pos_as_xyz
  1  'x, y, z'
loop_
 _atom_site_type_symbol
 _atom_site_label
 _atom_site_symmetry_multiplicity
 _atom_site_fract_x
 _atom_site_fract_y
 _atom_site_fract_z
 _atom_site_occupancy
  U  U0  1  0.665513  0.333457  0.500000  1
  U  U1  1  0.336888  0.666999  0.000000  1
  Tc  Tc2  1  0.554292  0.940851  0.500000  1
  Tc  Tc3  1  0.385834  0.445720  0.500000  1
  Tc  Tc4  1  0.903295  0.120671  0.500000  1
  Tc  Tc5  1  0.215575  0.096034  0.500000  1
  Tc  Tc6  1  0.880242  0.781822  0.500000  1
  P  P7  1  0.603102  0.713446  0.500000  1
  P  P8  1  0.000935  0.000527  0.000000  1
  P  P9  1  0.285884  0.888248  0.500000  1
  P  P10  1  0.110460  0.398520  0.500000  1
  P  P11  1  0.891626  0.590207  0.000000  1
  P  P12  1  0.409220  0.302045  0.000000  1
  P  P13  1  0.697986  0.108496  0.000000  1
  Ru  Ru14  1  0.727883  0.881773  0.000000  1
  Ru  Ru15  1  0.118285  0.843558  0.000000  1
  Ru  Ru16  1  0.154084  0.274199  0.000000  1
  Ru  Ru17  1  0.438377  0.075510  0.000000  1
  Ru  Ru18  1  0.923697  0.363715  0.000000  1
  Ru  Ru19  1  0.636968  0.560677  0.000000  1
  Ru  Ru20  1  0.059856  0.613523  0.500000  1
