# generated using pymatgen
data_Y5(TlSb)2
_symmetry_space_group_name_H-M   'P 1'
_cell_length_a   8.83414300
_cell_length_b   8.83414222
_cell_length_c   8.11758300
_cell_angle_alpha   90.00000000
_cell_angle_beta   90.00000000
_cell_angle_gamma   125.13596481
_symmetry_Int_Tables_number   1
_chemical_formula_structural   Y5(TlSb)2
_chemical_formula_sum   'Y10 Tl4 Sb4'
_cell_volume   518.07974558
_cell_formula_units_Z   2
loop_
 _symmetry_equiv_pos_site_id
 _symmetry_equiv_pos_as_xyz
  1  'x, y, z'
loop_
 _atom_site_type_symbol
 _atom_site_label
 _atom_site_symmetry_multiplicity
 _atom_site_fract_x
 _atom_site_fract_y
 _atom_site_fract_z
 _atom_site_occupancy
  Y  Y0  1  0.032164  0.308216  0.333751  1
  Y  Y1  1  0.967836  0.691784  0.666249  1
  Y  Y2  1  0.467836  0.191784  0.833751  1
  Y  Y3  1  0.808216  0.532164  0.166249  1
  Y  Y4  1  0.532164  0.808216  0.166249  1
  Y  Y5  1  0.191784  0.467836  0.833751  1
  Y  Y6  1  0.691784  0.967836  0.666249  1
  Y  Y7  1  0.308216  0.032164  0.333751  1
  Y  Y8  1  0.000000  0.000000  0.000000  1
  Y  Y9  1  0.500000  0.500000  0.500000  1
  Tl  Tl10  1  0.368219  0.368219  0.130663  1
  Tl  Tl11  1  0.631781  0.631781  0.869337  1
  Tl  Tl12  1  0.131781  0.131781  0.630663  1
  Tl  Tl13  1  0.868219  0.868219  0.369337  1
  Sb  Sb14  1  0.797186  0.202814  0.000000  1
  Sb  Sb15  1  0.202814  0.797186  0.000000  1
  Sb  Sb16  1  0.702814  0.297186  0.500000  1
  Sb  Sb17  1  0.297186  0.702814  0.500000  1
