# generated using pymatgen
data_Tb8Ti(Pd5Pt3)3
_symmetry_space_group_name_H-M   'P 1'
_cell_length_a   8.48015700
_cell_length_b   8.44166100
_cell_length_c   8.46247400
_cell_angle_alpha   90.00000000
_cell_angle_beta   90.00000000
_cell_angle_gamma   90.00000000
_symmetry_Int_Tables_number   1
_chemical_formula_structural   Tb8Ti(Pd5Pt3)3
_chemical_formula_sum   'Tb8 Ti1 Pd15 Pt9'
_cell_volume   605.79983113
_cell_formula_units_Z   1
loop_
 _symmetry_equiv_pos_site_id
 _symmetry_equiv_pos_as_xyz
  1  'x, y, z'
loop_
 _atom_site_type_symbol
 _atom_site_label
 _atom_site_symmetry_multiplicity
 _atom_site_fract_x
 _atom_site_fract_y
 _atom_site_fract_z
 _atom_site_occupancy
  Tb  Tb0  1  0.249197  0.250707  0.250175  1
  Tb  Tb1  1  0.749753  0.749241  0.750561  1
  Tb  Tb2  1  0.749753  0.749241  0.249439  1
  Tb  Tb3  1  0.750803  0.250707  0.749825  1
  Tb  Tb4  1  0.249197  0.250707  0.749825  1
  Tb  Tb5  1  0.250247  0.749241  0.249439  1
  Tb  Tb6  1  0.250247  0.749241  0.750561  1
  Tb  Tb7  1  0.750803  0.250707  0.250175  1
  Ti  Ti8  1  0.000000  0.001081  0.000000  1
  Pd  Pd9  1  0.500000  0.264090  0.000000  1
  Pd  Pd10  1  0.000000  0.735592  0.500000  1
  Pd  Pd11  1  0.500000  0.735973  0.000000  1
  Pd  Pd12  1  0.500000  0.999986  0.264354  1
  Pd  Pd13  1  0.264891  0.999701  0.500000  1
  Pd  Pd14  1  0.500000  0.999986  0.735646  1
  Pd  Pd15  1  0.735109  0.999701  0.500000  1
  Pd  Pd16  1  0.000000  0.500242  0.265313  1
  Pd  Pd17  1  0.000000  0.500242  0.734687  1
  Pd  Pd18  1  0.255094  0.499861  0.500000  1
  Pd  Pd19  1  0.744906  0.499861  0.500000  1
  Pd  Pd20  1  0.500000  0.254828  0.500000  1
  Pd  Pd21  1  0.500000  0.744858  0.500000  1
  Pd  Pd22  1  0.500000  0.500010  0.254733  1
  Pd  Pd23  1  0.500000  0.500010  0.745267  1
  Pt  Pt24  1  0.264321  0.499961  0.000000  1
  Pt  Pt25  1  0.735679  0.499961  0.000000  1
  Pt  Pt26  1  0.000000  0.263965  0.500000  1
  Pt  Pt27  1  0.299715  0.000080  0.000000  1
  Pt  Pt28  1  0.700285  0.000080  0.000000  1
  Pt  Pt29  1  0.000000  0.301186  0.000000  1
  Pt  Pt30  1  0.000000  0.699869  0.000000  1
  Pt  Pt31  1  0.000000  0.999542  0.300193  1
  Pt  Pt32  1  0.000000  0.999542  0.699807  1
