# generated using pymatgen
data_ErPa2(GaIr)3
_symmetry_space_group_name_H-M   'P 1'
_cell_length_a   7.21211329
_cell_length_b   7.19434119
_cell_length_c   3.88600100
_cell_angle_alpha   90.00000000
_cell_angle_beta   90.00000000
_cell_angle_gamma   119.91852612
_symmetry_Int_Tables_number   1
_chemical_formula_structural   ErPa2(GaIr)3
_chemical_formula_sum   'Er1 Pa2 Ga3 Ir3'
_cell_volume   174.76041781
_cell_formula_units_Z   1
loop_
 _symmetry_equiv_pos_site_id
 _symmetry_equiv_pos_as_xyz
  1  'x, y, z'
loop_
 _atom_site_type_symbol
 _atom_site_label
 _atom_site_symmetry_multiplicity
 _atom_site_fract_x
 _atom_site_fract_y
 _atom_site_fract_z
 _atom_site_occupancy
  Er  Er0  1  0.000000  0.593149  0.500001  1
  Pa  Pa1  1  0.586521  0.999729  0.500001  1
  Pa  Pa2  1  0.413478  0.413208  0.500001  1
  Ga  Ga3  1  0.235869  0.987899  0.000000  1
  Ga  Ga4  1  0.000000  0.258288  0.000000  1
  Ga  Ga5  1  0.764130  0.752028  0.000000  1
  Ir  Ir6  1  0.644316  0.314124  0.000000  1
  Ir  Ir7  1  0.355684  0.669808  0.000000  1
  Ir  Ir8  1  0.000000  0.011767  0.500001  1
