# generated using pymatgen
data_Ca2Pd3O8
_symmetry_space_group_name_H-M   'P 1'
_cell_length_a   6.30399761
_cell_length_b   6.30399703
_cell_length_c   6.30399684
_cell_angle_alpha   59.29728413
_cell_angle_beta   59.29729248
_cell_angle_gamma   59.29728140
_symmetry_Int_Tables_number   1
_chemical_formula_structural   Ca2Pd3O8
_chemical_formula_sum   'Ca2 Pd3 O8'
_cell_volume   174.31213982
_cell_formula_units_Z   1
loop_
 _symmetry_equiv_pos_site_id
 _symmetry_equiv_pos_as_xyz
  1  'x, y, z'
loop_
 _atom_site_type_symbol
 _atom_site_label
 _atom_site_symmetry_multiplicity
 _atom_site_fract_x
 _atom_site_fract_y
 _atom_site_fract_z
 _atom_site_occupancy
  Ca  Ca0  1  0.854614  0.854614  0.854614  1
  Ca  Ca1  1  0.145386  0.145386  0.145386  1
  Pd  Pd2  1  0.000000  0.500000  0.500000  1
  Pd  Pd3  1  0.500000  0.000000  0.500000  1
  Pd  Pd4  1  0.500000  0.500000  0.000000  1
  O  O5  1  0.602647  0.602647  0.602647  1
  O  O6  1  0.397353  0.397353  0.397353  1
  O  O7  1  0.112671  0.112671  0.559581  1
  O  O8  1  0.559581  0.112671  0.112671  1
  O  O9  1  0.112671  0.559581  0.112671  1
  O  O10  1  0.440419  0.887329  0.887329  1
  O  O11  1  0.887329  0.887329  0.440419  1
  O  O12  1  0.887329  0.440419  0.887329  1
