# generated using pymatgen
data_MnCuIrS4
_symmetry_space_group_name_H-M   'P 1'
_cell_length_a   7.10244902
_cell_length_b   6.94967163
_cell_length_c   6.94967222
_cell_angle_alpha   58.84806987
_cell_angle_beta   59.27009037
_cell_angle_gamma   59.27009213
_symmetry_Int_Tables_number   1
_chemical_formula_structural   MnCuIrS4
_chemical_formula_sum   'Mn2 Cu2 Ir2 S8'
_cell_volume   237.73939451
_cell_formula_units_Z   2
loop_
 _symmetry_equiv_pos_site_id
 _symmetry_equiv_pos_as_xyz
  1  'x, y, z'
loop_
 _atom_site_type_symbol
 _atom_site_label
 _atom_site_symmetry_multiplicity
 _atom_site_fract_x
 _atom_site_fract_y
 _atom_site_fract_z
 _atom_site_occupancy
  Mn  Mn0  1  0.625000  0.625000  0.125000  1
  Mn  Mn1  1  0.625000  0.125000  0.625000  1
  Cu  Cu2  1  0.002036  0.997964  0.997964  1
  Cu  Cu3  1  0.247964  0.252036  0.252036  1
  Ir  Ir4  1  0.625000  0.625000  0.625000  1
  Ir  Ir5  1  0.125000  0.625000  0.625000  1
  S  S6  1  0.385141  0.383748  0.845972  1
  S  S7  1  0.386770  0.381977  0.381977  1
  S  S8  1  0.863230  0.868023  0.868023  1
  S  S9  1  0.864859  0.866252  0.404028  1
  S  S10  1  0.385141  0.845972  0.383748  1
  S  S11  1  0.849277  0.381977  0.381977  1
  S  S12  1  0.400723  0.868023  0.868023  1
  S  S13  1  0.864859  0.404028  0.866252  1
