# generated using pymatgen
data_Zr10Si2Sn5Sb
_symmetry_space_group_name_H-M   'P 1'
_cell_length_a   8.70397800
_cell_length_b   8.69710731
_cell_length_c   5.89595100
_cell_angle_alpha   90.00000000
_cell_angle_beta   90.00000000
_cell_angle_gamma   120.02612875
_symmetry_Int_Tables_number   1
_chemical_formula_structural   Zr10Si2Sn5Sb
_chemical_formula_sum   'Zr10 Si2 Sn5 Sb1'
_cell_volume   386.42276564
_cell_formula_units_Z   1
loop_
 _symmetry_equiv_pos_site_id
 _symmetry_equiv_pos_as_xyz
  1  'x, y, z'
loop_
 _atom_site_type_symbol
 _atom_site_label
 _atom_site_symmetry_multiplicity
 _atom_site_fract_x
 _atom_site_fract_y
 _atom_site_fract_z
 _atom_site_occupancy
  Zr  Zr0  1  0.258560  0.000000  0.250000  1
  Zr  Zr1  1  0.257898  0.257337  0.750000  1
  Zr  Zr2  1  0.000561  0.742663  0.750000  1
  Zr  Zr3  1  0.999636  0.257924  0.250000  1
  Zr  Zr4  1  0.741712  0.742076  0.250000  1
  Zr  Zr5  1  0.741276  0.000000  0.750000  1
  Zr  Zr6  1  0.333496  0.667431  0.000222  1
  Zr  Zr7  1  0.666065  0.332569  0.499778  1
  Zr  Zr8  1  0.666065  0.332569  0.000222  1
  Zr  Zr9  1  0.333496  0.667431  0.499778  1
  Si  Si10  1  0.999565  0.000000  0.000249  1
  Si  Si11  1  0.999565  0.000000  0.499751  1
  Sn  Sn12  1  0.607065  0.000000  0.250000  1
  Sn  Sn13  1  0.605982  0.605975  0.750000  1
  Sn  Sn14  1  0.000007  0.394025  0.750000  1
  Sn  Sn15  1  0.999498  0.605468  0.250000  1
  Sn  Sn16  1  0.394030  0.394532  0.250000  1
  Sb  Sb17  1  0.395522  0.000000  0.750000  1
