# generated using pymatgen
data_SrThSiPd14
_symmetry_space_group_name_H-M   'P 1'
_cell_length_a   9.00412900
_cell_length_b   9.00412900
_cell_length_c   7.17960300
_cell_angle_alpha   90.00000000
_cell_angle_beta   90.00000000
_cell_angle_gamma   90.00000000
_symmetry_Int_Tables_number   1
_chemical_formula_structural   SrThSiPd14
_chemical_formula_sum   'Sr2 Th2 Si2 Pd28'
_cell_volume   582.08156786
_cell_formula_units_Z   2
loop_
 _symmetry_equiv_pos_site_id
 _symmetry_equiv_pos_as_xyz
  1  'x, y, z'
loop_
 _atom_site_type_symbol
 _atom_site_label
 _atom_site_symmetry_multiplicity
 _atom_site_fract_x
 _atom_site_fract_y
 _atom_site_fract_z
 _atom_site_occupancy
  Sr  Sr0  1  0.500000  0.000000  0.938052  1
  Sr  Sr1  1  0.000000  0.500000  0.061948  1
  Th  Th2  1  0.000000  0.000000  0.500000  1
  Th  Th3  1  0.500000  0.500000  0.500000  1
  Si  Si4  1  0.500000  0.000000  0.448229  1
  Si  Si5  1  0.000000  0.500000  0.551771  1
  Pd  Pd6  1  0.334240  0.834240  0.612097  1
  Pd  Pd7  1  0.334240  0.165760  0.612097  1
  Pd  Pd8  1  0.665760  0.834240  0.612097  1
  Pd  Pd9  1  0.665760  0.165760  0.612097  1
  Pd  Pd10  1  0.165760  0.665760  0.387903  1
  Pd  Pd11  1  0.165760  0.334240  0.387903  1
  Pd  Pd12  1  0.834240  0.665760  0.387903  1
  Pd  Pd13  1  0.834240  0.334240  0.387903  1
  Pd  Pd14  1  0.500000  0.767470  0.262365  1
  Pd  Pd15  1  0.500000  0.232530  0.262365  1
  Pd  Pd16  1  0.267470  0.000000  0.262365  1
  Pd  Pd17  1  0.732530  0.000000  0.262365  1
  Pd  Pd18  1  0.000000  0.732530  0.737635  1
  Pd  Pd19  1  0.000000  0.267470  0.737635  1
  Pd  Pd20  1  0.232530  0.500000  0.737635  1
  Pd  Pd21  1  0.767470  0.500000  0.737635  1
  Pd  Pd22  1  0.500000  0.350579  0.851190  1
  Pd  Pd23  1  0.500000  0.649421  0.851190  1
  Pd  Pd24  1  0.850579  0.000000  0.851190  1
  Pd  Pd25  1  0.149421  0.000000  0.851190  1
  Pd  Pd26  1  0.000000  0.149421  0.148810  1
  Pd  Pd27  1  0.000000  0.850579  0.148810  1
  Pd  Pd28  1  0.649421  0.500000  0.148810  1
  Pd  Pd29  1  0.350579  0.500000  0.148810  1
  Pd  Pd30  1  0.250000  0.750000  0.000000  1
  Pd  Pd31  1  0.250000  0.250000  0.000000  1
  Pd  Pd32  1  0.750000  0.750000  0.000000  1
  Pd  Pd33  1  0.750000  0.250000  0.000000  1
