# generated using pymatgen
data_Dy20Bi8OsRu3
_symmetry_space_group_name_H-M   'P 1'
_cell_length_a   7.98023446
_cell_length_b   9.03572100
_cell_length_c   12.48334598
_cell_angle_alpha   90.00000000
_cell_angle_beta   90.07416119
_cell_angle_gamma   90.00000000
_symmetry_Int_Tables_number   1
_chemical_formula_structural   Dy20Bi8OsRu3
_chemical_formula_sum   'Dy20 Bi8 Os1 Ru3'
_cell_volume   900.13802248
_cell_formula_units_Z   1
loop_
 _symmetry_equiv_pos_site_id
 _symmetry_equiv_pos_as_xyz
  1  'x, y, z'
loop_
 _atom_site_type_symbol
 _atom_site_label
 _atom_site_symmetry_multiplicity
 _atom_site_fract_x
 _atom_site_fract_y
 _atom_site_fract_z
 _atom_site_occupancy
  Dy  Dy0  1  0.842537  0.750000  0.793120  1
  Dy  Dy1  1  0.157203  0.250000  0.206568  1
  Dy  Dy2  1  0.342852  0.250000  0.706713  1
  Dy  Dy3  1  0.657159  0.750000  0.292664  1
  Dy  Dy4  1  0.375858  0.750000  0.692864  1
  Dy  Dy5  1  0.624337  0.250000  0.308115  1
  Dy  Dy6  1  0.875354  0.250000  0.808165  1
  Dy  Dy7  1  0.124487  0.750000  0.191256  1
  Dy  Dy8  1  0.943278  0.750000  0.504395  1
  Dy  Dy9  1  0.054252  0.250000  0.495240  1
  Dy  Dy10  1  0.447078  0.250000  0.995672  1
  Dy  Dy11  1  0.552882  0.750000  0.004034  1
  Dy  Dy12  1  0.675780  0.041080  0.564321  1
  Dy  Dy13  1  0.325013  0.957857  0.436168  1
  Dy  Dy14  1  0.175248  0.959394  0.935721  1
  Dy  Dy15  1  0.325013  0.542143  0.436168  1
  Dy  Dy16  1  0.823889  0.040670  0.064365  1
  Dy  Dy17  1  0.675780  0.458920  0.564321  1
  Dy  Dy18  1  0.823889  0.459330  0.064365  1
  Dy  Dy19  1  0.175248  0.540606  0.935721  1
  Bi  Bi20  1  0.569655  0.493158  0.827722  1
  Bi  Bi21  1  0.430563  0.506603  0.172524  1
  Bi  Bi22  1  0.069324  0.506711  0.672517  1
  Bi  Bi23  1  0.430563  0.993397  0.172524  1
  Bi  Bi24  1  0.931307  0.493653  0.327245  1
  Bi  Bi25  1  0.569655  0.006842  0.827722  1
  Bi  Bi26  1  0.931307  0.006347  0.327245  1
  Bi  Bi27  1  0.069324  0.993289  0.672517  1
  Os  Os28  1  0.575249  0.750000  0.511082  1
  Ru  Ru29  1  0.426338  0.250000  0.489281  1
  Ru  Ru30  1  0.072522  0.250000  0.989251  1
  Ru  Ru31  1  0.927053  0.750000  0.010417  1
