# generated using pymatgen
data_Er12Os3Pd
_symmetry_space_group_name_H-M   'P 1'
_cell_length_a   6.35786764
_cell_length_b   7.30860036
_cell_length_c   9.00846200
_cell_angle_alpha   90.00000000
_cell_angle_beta   90.00000000
_cell_angle_gamma   90.36395142
_symmetry_Int_Tables_number   1
_chemical_formula_structural   Er12Os3Pd
_chemical_formula_sum   'Er12 Os3 Pd1'
_cell_volume   418.58878292
_cell_formula_units_Z   1
loop_
 _symmetry_equiv_pos_site_id
 _symmetry_equiv_pos_as_xyz
  1  'x, y, z'
loop_
 _atom_site_type_symbol
 _atom_site_label
 _atom_site_symmetry_multiplicity
 _atom_site_fract_x
 _atom_site_fract_y
 _atom_site_fract_z
 _atom_site_occupancy
  Er  Er0  1  0.338314  0.669955  0.057446  1
  Er  Er1  1  0.171612  0.183890  0.442269  1
  Er  Er2  1  0.670929  0.323153  0.562105  1
  Er  Er3  1  0.823489  0.823073  0.932352  1
  Er  Er4  1  0.670929  0.323153  0.937895  1
  Er  Er5  1  0.823489  0.823073  0.567648  1
  Er  Er6  1  0.338314  0.669955  0.442554  1
  Er  Er7  1  0.171612  0.183890  0.057731  1
  Er  Er8  1  0.872695  0.532564  0.250000  1
  Er  Er9  1  0.620758  0.039221  0.250000  1
  Er  Er10  1  0.122719  0.463294  0.750000  1
  Er  Er11  1  0.369887  0.962998  0.750000  1
  Os  Os12  1  0.462438  0.384150  0.250000  1
  Os  Os13  1  0.963808  0.114661  0.750000  1
  Os  Os14  1  0.532898  0.614878  0.750000  1
  Pd  Pd15  1  0.046107  0.888090  0.250000  1
