# generated using pymatgen
data_Nd2HoZn2Co9B4
_symmetry_space_group_name_H-M   'P 1'
_cell_length_a   5.16319352
_cell_length_b   5.16096730
_cell_length_c   9.69526900
_cell_angle_alpha   89.99997648
_cell_angle_beta   90.00004003
_cell_angle_gamma   120.02486321
_symmetry_Int_Tables_number   1
_chemical_formula_structural   Nd2HoZn2Co9B4
_chemical_formula_sum   'Nd2 Ho1 Zn2 Co9 B4'
_cell_volume   223.68205474
_cell_formula_units_Z   1
loop_
 _symmetry_equiv_pos_site_id
 _symmetry_equiv_pos_as_xyz
  1  'x, y, z'
loop_
 _atom_site_type_symbol
 _atom_site_label
 _atom_site_symmetry_multiplicity
 _atom_site_fract_x
 _atom_site_fract_y
 _atom_site_fract_z
 _atom_site_occupancy
  Nd  Nd0  1  0.999987  0.999999  0.998432  1
  Nd  Nd1  1  0.999999  0.000001  0.342809  1
  Ho  Ho2  1  0.999996  0.999998  0.657822  1
  Zn  Zn3  1  0.333306  0.666661  0.999023  1
  Zn  Zn4  1  0.666675  0.333339  0.999023  1
  Co  Co5  1  0.499995  0.000000  0.501856  1
  Co  Co6  1  0.499995  0.500000  0.501867  1
  Co  Co7  1  0.999995  0.499999  0.501871  1
  Co  Co8  1  0.499995  0.000001  0.212132  1
  Co  Co9  1  0.499994  0.500001  0.212127  1
  Co  Co10  1  0.999994  0.500000  0.212131  1
  Co  Co11  1  0.499997  0.000000  0.786251  1
  Co  Co12  1  0.499995  0.500000  0.786203  1
  Co  Co13  1  0.999996  0.499999  0.786249  1
  B  B14  1  0.333374  0.666722  0.352063  1
  B  B15  1  0.666616  0.333281  0.352063  1
  B  B16  1  0.666700  0.333246  0.649041  1
  B  B17  1  0.333291  0.666754  0.649040  1
