# generated using pymatgen
data_Dy4Tc5Ir2Os
_symmetry_space_group_name_H-M   'P 1'
_cell_length_a   5.25862676
_cell_length_b   5.25862729
_cell_length_c   9.26263900
_cell_angle_alpha   90.00000000
_cell_angle_beta   90.00000000
_cell_angle_gamma   120.66577708
_symmetry_Int_Tables_number   1
_chemical_formula_structural   Dy4Tc5Ir2Os
_chemical_formula_sum   'Dy4 Tc5 Ir2 Os1'
_cell_volume   220.32168152
_cell_formula_units_Z   1
loop_
 _symmetry_equiv_pos_site_id
 _symmetry_equiv_pos_as_xyz
  1  'x, y, z'
loop_
 _atom_site_type_symbol
 _atom_site_label
 _atom_site_symmetry_multiplicity
 _atom_site_fract_x
 _atom_site_fract_y
 _atom_site_fract_z
 _atom_site_occupancy
  Dy  Dy0  1  0.333864  0.666136  0.434410  1
  Dy  Dy1  1  0.666567  0.333433  0.564942  1
  Dy  Dy2  1  0.666567  0.333433  0.935058  1
  Dy  Dy3  1  0.333864  0.666136  0.065590  1
  Tc  Tc4  1  0.829852  0.660636  0.250000  1
  Tc  Tc5  1  0.339364  0.170148  0.250000  1
  Tc  Tc6  1  0.169001  0.830999  0.750000  1
  Tc  Tc7  1  0.170357  0.340258  0.750000  1
  Tc  Tc8  1  0.659742  0.829643  0.750000  1
  Ir  Ir9  1  0.000756  0.999244  0.499055  1
  Ir  Ir10  1  0.000756  0.999244  0.000945  1
  Os  Os11  1  0.829310  0.170690  0.250000  1
