# generated using pymatgen
data_La7Pr3(Cd2Ru3)2
_symmetry_space_group_name_H-M   'P 1'
_cell_length_a   8.77746602
_cell_length_b   8.71237420
_cell_length_c   8.77746560
_cell_angle_alpha   109.79048502
_cell_angle_beta   109.69928197
_cell_angle_gamma   109.22554255
_symmetry_Int_Tables_number   1
_chemical_formula_structural   La7Pr3(Cd2Ru3)2
_chemical_formula_sum   'La7 Pr3 Cd4 Ru6'
_cell_volume   514.77382809
_cell_formula_units_Z   1
loop_
 _symmetry_equiv_pos_site_id
 _symmetry_equiv_pos_as_xyz
  1  'x, y, z'
loop_
 _atom_site_type_symbol
 _atom_site_label
 _atom_site_symmetry_multiplicity
 _atom_site_fract_x
 _atom_site_fract_y
 _atom_site_fract_z
 _atom_site_occupancy
  La  La0  1  0.684881  0.435134  0.249652  1
  La  La1  1  0.064572  0.750000  0.814572  1
  La  La2  1  0.814519  0.064867  0.749748  1
  La  La3  1  0.211301  0.210428  0.210825  1
  La  La4  1  0.501028  0.001461  0.288628  1
  La  La5  1  0.287167  0.498540  0.999566  1
  La  La6  1  0.000397  0.289572  0.500873  1
  Pr  Pr7  1  0.249964  0.681671  0.430449  1
  Pr  Pr8  1  0.748777  0.818329  0.068292  1
  Pr  Pr9  1  0.431751  0.250000  0.681750  1
  Cd  Cd10  1  0.497988  0.996815  0.903695  1
  Cd  Cd11  1  0.589775  0.591050  0.593841  1
  Cd  Cd12  1  0.906881  0.503186  0.001172  1
  Cd  Cd13  1  0.002792  0.908950  0.498726  1
  Ru  Ru14  1  0.246018  0.134618  0.893459  1
  Ru  Ru15  1  0.758841  0.365381  0.611398  1
  Ru  Ru16  1  0.888245  0.250001  0.138245  1
  Ru  Ru17  1  0.147058  0.897661  0.253724  1
  Ru  Ru18  1  0.611988  0.750000  0.361988  1
  Ru  Ru19  1  0.356061  0.602338  0.749397  1
