# generated using pymatgen
data_Np3U(NbN2)4
_symmetry_space_group_name_H-M   'P 1'
_cell_length_a   3.26521500
_cell_length_b   5.68843848
_cell_length_c   10.96852412
_cell_angle_alpha   89.95040757
_cell_angle_beta   90.00000000
_cell_angle_gamma   90.00000000
_symmetry_Int_Tables_number   1
_chemical_formula_structural   Np3U(NbN2)4
_chemical_formula_sum   'Np3 U1 Nb4 N8'
_cell_volume   203.72901243
_cell_formula_units_Z   1
loop_
 _symmetry_equiv_pos_site_id
 _symmetry_equiv_pos_as_xyz
  1  'x, y, z'
loop_
 _atom_site_type_symbol
 _atom_site_label
 _atom_site_symmetry_multiplicity
 _atom_site_fract_x
 _atom_site_fract_y
 _atom_site_fract_z
 _atom_site_occupancy
  Np  Np0  1  0.750000  0.076666  0.857785  1
  Np  Np1  1  0.750000  0.575532  0.643614  1
  Np  Np2  1  0.250000  0.925136  0.141967  1
  U  U3  1  0.250000  0.422647  0.357538  1
  Nb  Nb4  1  0.250000  0.075733  0.599634  1
  Nb  Nb5  1  0.750000  0.423545  0.099768  1
  Nb  Nb6  1  0.250000  0.577992  0.899852  1
  Nb  Nb7  1  0.750000  0.922109  0.399667  1
  N  N8  1  0.250000  0.340597  0.744120  1
  N  N9  1  0.750000  0.163468  0.246549  1
  N  N10  1  0.250000  0.236676  0.004093  1
  N  N11  1  0.750000  0.656711  0.257082  1
  N  N12  1  0.250000  0.840588  0.754747  1
  N  N13  1  0.750000  0.764256  0.995977  1
  N  N14  1  0.750000  0.264276  0.503014  1
  N  N15  1  0.250000  0.734068  0.494592  1
