# generated using pymatgen
data_Ta5Nb5N12
_symmetry_space_group_name_H-M   'P 1'
_cell_length_a   5.23774712
_cell_length_b   5.24921469
_cell_length_c   10.44942300
_cell_angle_alpha   90.00000000
_cell_angle_beta   90.00000000
_cell_angle_gamma   120.07318506
_symmetry_Int_Tables_number   1
_chemical_formula_structural   Ta5Nb5N12
_chemical_formula_sum   'Ta5 Nb5 N12'
_cell_volume   248.62285898
_cell_formula_units_Z   1
loop_
 _symmetry_equiv_pos_site_id
 _symmetry_equiv_pos_as_xyz
  1  'x, y, z'
loop_
 _atom_site_type_symbol
 _atom_site_label
 _atom_site_symmetry_multiplicity
 _atom_site_fract_x
 _atom_site_fract_y
 _atom_site_fract_z
 _atom_site_occupancy
  Ta  Ta0  1  0.335290  0.666795  0.000142  1
  Ta  Ta1  1  0.664710  0.331514  0.499859  1
  Ta  Ta2  1  0.664710  0.331514  0.000141  1
  Ta  Ta3  1  0.335290  0.666795  0.499858  1
  Ta  Ta4  1  0.000002  0.677581  0.749999  1
  Nb  Nb5  1  0.323504  0.000202  0.250000  1
  Nb  Nb6  1  0.675935  0.000127  0.749999  1
  Nb  Nb7  1  0.000003  0.323462  0.250000  1
  Nb  Nb8  1  0.676491  0.676694  0.250000  1
  Nb  Nb9  1  0.324072  0.324194  0.749999  1
  N  N10  1  0.336796  0.996449  0.620556  1
  N  N11  1  0.659126  0.999916  0.119829  1
  N  N12  1  0.000000  0.345972  0.621090  1
  N  N13  1  0.663210  0.659658  0.620555  1
  N  N14  1  0.340867  0.340787  0.119830  1
  N  N15  1  0.999997  0.657778  0.119650  1
  N  N16  1  0.336796  0.996449  0.879445  1
  N  N17  1  0.663210  0.659658  0.879445  1
  N  N18  1  0.000000  0.345972  0.878911  1
  N  N19  1  0.999997  0.657778  0.380349  1
  N  N20  1  0.340867  0.340787  0.380170  1
  N  N21  1  0.659126  0.999916  0.380170  1
