# generated using pymatgen
data_Hf3Ta3Si7Ni16
_symmetry_space_group_name_H-M   'P 1'
_cell_length_a   7.99363665
_cell_length_b   8.00474356
_cell_length_c   8.01509469
_cell_angle_alpha   59.86551281
_cell_angle_beta   60.00295056
_cell_angle_gamma   60.13153832
_symmetry_Int_Tables_number   1
_chemical_formula_structural   Hf3Ta3Si7Ni16
_chemical_formula_sum   'Hf3 Ta3 Si7 Ni16'
_cell_volume   362.64426148
_cell_formula_units_Z   1
loop_
 _symmetry_equiv_pos_site_id
 _symmetry_equiv_pos_as_xyz
  1  'x, y, z'
loop_
 _atom_site_type_symbol
 _atom_site_label
 _atom_site_symmetry_multiplicity
 _atom_site_fract_x
 _atom_site_fract_y
 _atom_site_fract_z
 _atom_site_occupancy
  Hf  Hf0  1  0.794134  0.205866  0.794134  1
  Hf  Hf1  1  0.203253  0.201984  0.798017  1
  Hf  Hf2  1  0.798017  0.796748  0.203253  1
  Ta  Ta3  1  0.794825  0.205175  0.207673  1
  Ta  Ta4  1  0.207673  0.792327  0.794825  1
  Ta  Ta5  1  0.203250  0.796750  0.203251  1
  Si  Si6  1  0.502182  0.497818  0.502182  1
  Si  Si7  1  0.499257  0.500743  0.002536  1
  Si  Si8  1  0.002536  0.997464  0.499257  1
  Si  Si9  1  0.499670  0.000330  0.499670  1
  Si  Si10  1  0.002147  0.501525  0.498475  1
  Si  Si11  1  0.498475  0.997853  0.002147  1
  Si  Si12  1  0.999670  0.500330  0.999670  1
  Ni  Ni13  1  0.501727  0.832660  0.832842  1
  Ni  Ni14  1  0.832407  0.503240  0.832333  1
  Ni  Ni15  1  0.832842  0.832770  0.501727  1
  Ni  Ni16  1  0.167340  0.498273  0.167230  1
  Ni  Ni17  1  0.167983  0.167667  0.496760  1
  Ni  Ni18  1  0.496760  0.167593  0.167983  1
  Ni  Ni19  1  0.832333  0.832017  0.832407  1
  Ni  Ni20  1  0.384073  0.385237  0.380430  1
  Ni  Ni21  1  0.149740  0.619570  0.614763  1
  Ni  Ni22  1  0.619055  0.146664  0.614587  1
  Ni  Ni23  1  0.614763  0.615927  0.149740  1
  Ni  Ni24  1  0.380430  0.850260  0.384073  1
  Ni  Ni25  1  0.380307  0.385413  0.853336  1
  Ni  Ni26  1  0.853336  0.380945  0.380307  1
  Ni  Ni27  1  0.614587  0.619693  0.619055  1
  Ni  Ni28  1  0.167230  0.167158  0.167340  1
