# generated using pymatgen
data_ZrSc3(CrRe3)2
_symmetry_space_group_name_H-M   'P 1'
_cell_length_a   5.18531048
_cell_length_b   5.26068459
_cell_length_c   8.59723325
_cell_angle_alpha   90.00000060
_cell_angle_beta   89.97600125
_cell_angle_gamma   120.48202998
_symmetry_Int_Tables_number   1
_chemical_formula_structural   ZrSc3(CrRe3)2
_chemical_formula_sum   'Zr1 Sc3 Cr2 Re6'
_cell_volume   202.10463913
_cell_formula_units_Z   1
loop_
 _symmetry_equiv_pos_site_id
 _symmetry_equiv_pos_as_xyz
  1  'x, y, z'
loop_
 _atom_site_type_symbol
 _atom_site_label
 _atom_site_symmetry_multiplicity
 _atom_site_fract_x
 _atom_site_fract_y
 _atom_site_fract_z
 _atom_site_occupancy
  Zr  Zr0  1  0.334188  0.667094  0.438349  1
  Sc  Sc1  1  0.666363  0.333181  0.939039  1
  Sc  Sc2  1  0.665801  0.332900  0.562713  1
  Sc  Sc3  1  0.333530  0.666766  0.060219  1
  Cr  Cr4  1  0.661757  0.830878  0.749593  1
  Cr  Cr5  1  0.338330  0.169165  0.250092  1
  Re  Re6  1  0.825605  0.170985  0.249621  1
  Re  Re7  1  0.174167  0.345032  0.750295  1
  Re  Re8  1  0.174167  0.829135  0.750295  1
  Re  Re9  1  0.825605  0.654621  0.249621  1
  Re  Re10  1  0.000640  0.000320  0.500238  1
  Re  Re11  1  0.999847  0.999923  0.999925  1
