# generated using pymatgen
data_AgPdCl6
_symmetry_space_group_name_H-M   'P 1'
_cell_length_a   6.60825157
_cell_length_b   6.54478056
_cell_length_c   7.08052833
_cell_angle_alpha   61.64503391
_cell_angle_beta   65.63489011
_cell_angle_gamma   58.49893931
_symmetry_Int_Tables_number   1
_chemical_formula_structural   AgPdCl6
_chemical_formula_sum   'Ag1 Pd1 Cl6'
_cell_volume   224.19201975
_cell_formula_units_Z   1
loop_
 _symmetry_equiv_pos_site_id
 _symmetry_equiv_pos_as_xyz
  1  'x, y, z'
loop_
 _atom_site_type_symbol
 _atom_site_label
 _atom_site_symmetry_multiplicity
 _atom_site_fract_x
 _atom_site_fract_y
 _atom_site_fract_z
 _atom_site_occupancy
  Ag  Ag0  1  0.671084  0.672345  0.000913  1
  Pd  Pd1  1  0.334127  0.335351  0.999568  1
  Cl  Cl2  1  0.556221  0.949420  0.238917  1
  Cl  Cl3  1  0.968284  0.274673  0.209093  1
  Cl  Cl4  1  0.267604  0.545435  0.219693  1
  Cl  Cl5  1  0.681049  0.413225  0.789687  1
  Cl  Cl6  1  0.107561  0.708765  0.757544  1
  Cl  Cl7  1  0.414066  0.100788  0.784589  1
