# generated using pymatgen
data_Cs4Nb2PbS8
_symmetry_space_group_name_H-M   'P 1'
_cell_length_a   9.83908471
_cell_length_b   10.06065493
_cell_length_c   12.20805836
_cell_angle_alpha   106.69798563
_cell_angle_beta   103.53649594
_cell_angle_gamma   94.03131687
_symmetry_Int_Tables_number   1
_chemical_formula_structural   Cs4Nb2PbS8
_chemical_formula_sum   'Cs8 Nb4 Pb2 S16'
_cell_volume   1112.99112418
_cell_formula_units_Z   2
loop_
 _symmetry_equiv_pos_site_id
 _symmetry_equiv_pos_as_xyz
  1  'x, y, z'
loop_
 _atom_site_type_symbol
 _atom_site_label
 _atom_site_symmetry_multiplicity
 _atom_site_fract_x
 _atom_site_fract_y
 _atom_site_fract_z
 _atom_site_occupancy
  Cs  Cs0  1  0.938833  0.526493  0.257687  1
  Cs  Cs1  1  0.061167  0.473507  0.742313  1
  Cs  Cs2  1  0.766175  0.997051  0.471414  1
  Cs  Cs3  1  0.233825  0.002949  0.528586  1
  Cs  Cs4  1  0.603788  0.746371  0.020954  1
  Cs  Cs5  1  0.396212  0.253629  0.979046  1
  Cs  Cs6  1  0.617910  0.680108  0.616709  1
  Cs  Cs7  1  0.382090  0.319892  0.383291  1
  Nb  Nb8  1  0.950370  0.111922  0.233439  1
  Nb  Nb9  1  0.049630  0.888078  0.766561  1
  Nb  Nb10  1  0.375444  0.682676  0.258665  1
  Nb  Nb11  1  0.624556  0.317324  0.741335  1
  Pb  Pb12  1  0.846422  0.141528  0.923639  1
  Pb  Pb13  1  0.153578  0.858472  0.076361  1
  S  S14  1  0.957382  0.882907  0.232386  1
  S  S15  1  0.042618  0.117093  0.767614  1
  S  S16  1  0.589876  0.081194  0.728813  1
  S  S17  1  0.410124  0.918806  0.271187  1
  S  S18  1  0.294427  0.660303  0.413552  1
  S  S19  1  0.705573  0.339697  0.586448  1
  S  S20  1  0.793889  0.424785  0.918066  1
  S  S21  1  0.206111  0.575215  0.081934  1
  S  S22  1  0.022941  0.256415  0.422278  1
  S  S23  1  0.977059  0.743585  0.577722  1
  S  S24  1  0.105797  0.164013  0.130512  1
  S  S25  1  0.894203  0.835987  0.869488  1
  S  S26  1  0.730488  0.138504  0.132473  1
  S  S27  1  0.269512  0.861496  0.867527  1
  S  S28  1  0.577498  0.584041  0.262687  1
  S  S29  1  0.422502  0.415959  0.737313  1
