# generated using pymatgen
data_Pr8Er11TmSn16
_symmetry_space_group_name_H-M   'P 1'
_cell_length_a   8.10972103
_cell_length_b   8.26297703
_cell_length_c   15.58144500
_cell_angle_alpha   90.00000000
_cell_angle_beta   90.00000000
_cell_angle_gamma   89.99061445
_symmetry_Int_Tables_number   1
_chemical_formula_structural   Pr8Er11TmSn16
_chemical_formula_sum   'Pr8 Er11 Tm1 Sn16'
_cell_volume   1044.11944867
_cell_formula_units_Z   1
loop_
 _symmetry_equiv_pos_site_id
 _symmetry_equiv_pos_as_xyz
  1  'x, y, z'
loop_
 _atom_site_type_symbol
 _atom_site_label
 _atom_site_symmetry_multiplicity
 _atom_site_fract_x
 _atom_site_fract_y
 _atom_site_fract_z
 _atom_site_occupancy
  Pr  Pr0  1  0.517477  0.320623  0.902571  1
  Pr  Pr1  1  0.017581  0.179523  0.597418  1
  Pr  Pr2  1  0.482462  0.679458  0.402611  1
  Pr  Pr3  1  0.982450  0.820554  0.097397  1
  Pr  Pr4  1  0.482462  0.679458  0.097389  1
  Pr  Pr5  1  0.982450  0.820554  0.402603  1
  Pr  Pr6  1  0.517477  0.320623  0.597429  1
  Pr  Pr7  1  0.017581  0.179523  0.902582  1
  Er  Er8  1  0.364544  0.836109  0.877581  1
  Er  Er9  1  0.864721  0.663766  0.622393  1
  Er  Er10  1  0.635394  0.163815  0.377549  1
  Er  Er11  1  0.135356  0.336160  0.122421  1
  Er  Er12  1  0.635394  0.163815  0.122451  1
  Er  Er13  1  0.135356  0.336160  0.377579  1
  Er  Er14  1  0.364544  0.836109  0.622419  1
  Er  Er15  1  0.864721  0.663766  0.877607  1
  Er  Er16  1  0.697457  0.995503  0.750000  1
  Er  Er17  1  0.802574  0.495461  0.250000  1
  Er  Er18  1  0.302530  0.004521  0.250000  1
  Tm  Tm19  1  0.197525  0.504645  0.750000  1
  Sn  Sn20  1  0.300092  0.040018  0.042488  1
  Sn  Sn21  1  0.800089  0.459940  0.457514  1
  Sn  Sn22  1  0.699913  0.959976  0.542508  1
  Sn  Sn23  1  0.199943  0.540025  0.957366  1
  Sn  Sn24  1  0.699913  0.959976  0.957492  1
  Sn  Sn25  1  0.199943  0.540025  0.542634  1
  Sn  Sn26  1  0.300092  0.040018  0.457512  1
  Sn  Sn27  1  0.800089  0.459940  0.042486  1
  Sn  Sn28  1  0.563326  0.625284  0.750000  1
  Sn  Sn29  1  0.063675  0.874463  0.750000  1
  Sn  Sn30  1  0.436373  0.374618  0.250000  1
  Sn  Sn31  1  0.936394  0.125381  0.250000  1
  Sn  Sn32  1  0.325440  0.141052  0.750000  1
  Sn  Sn33  1  0.825486  0.359170  0.750000  1
  Sn  Sn34  1  0.674570  0.859117  0.250000  1
  Sn  Sn35  1  0.174607  0.640853  0.250000  1
