# generated using pymatgen
data_Tb4Al4Ir2PdRh
_symmetry_space_group_name_H-M   'P 1'
_cell_length_a   4.28638600
_cell_length_b   6.91682392
_cell_length_c   7.93972886
_cell_angle_alpha   90.24380332
_cell_angle_beta   90.00000000
_cell_angle_gamma   90.00000000
_symmetry_Int_Tables_number   1
_chemical_formula_structural   Tb4Al4Ir2PdRh
_chemical_formula_sum   'Tb4 Al4 Ir2 Pd1 Rh1'
_cell_volume   235.39635717
_cell_formula_units_Z   1
loop_
 _symmetry_equiv_pos_site_id
 _symmetry_equiv_pos_as_xyz
  1  'x, y, z'
loop_
 _atom_site_type_symbol
 _atom_site_label
 _atom_site_symmetry_multiplicity
 _atom_site_fract_x
 _atom_site_fract_y
 _atom_site_fract_z
 _atom_site_occupancy
  Tb  Tb0  1  0.250000  0.532413  0.814829  1
  Tb  Tb1  1  0.750000  0.459138  0.182334  1
  Tb  Tb2  1  0.250000  0.031813  0.679785  1
  Tb  Tb3  1  0.750000  0.970485  0.323051  1
  Al  Al4  1  0.250000  0.636118  0.440515  1
  Al  Al5  1  0.750000  0.361805  0.561363  1
  Al  Al6  1  0.250000  0.142517  0.062991  1
  Al  Al7  1  0.750000  0.863600  0.933888  1
  Ir  Ir8  1  0.750000  0.732325  0.619261  1
  Ir  Ir9  1  0.250000  0.266475  0.379827  1
  Pd  Pd10  1  0.250000  0.769596  0.118175  1
  Rh  Rh11  1  0.750000  0.233715  0.883981  1
