# generated using pymatgen
data_Zr6Zn19Ni4Ge
_symmetry_space_group_name_H-M   'P 1'
_cell_length_a   8.66556477
_cell_length_b   8.55710447
_cell_length_c   8.66556400
_cell_angle_alpha   60.41317619
_cell_angle_beta   59.17366006
_cell_angle_gamma   60.41317767
_symmetry_Int_Tables_number   1
_chemical_formula_structural   Zr6Zn19Ni4Ge
_chemical_formula_sum   'Zr6 Zn19 Ni4 Ge1'
_cell_volume   454.22515157
_cell_formula_units_Z   1
loop_
 _symmetry_equiv_pos_site_id
 _symmetry_equiv_pos_as_xyz
  1  'x, y, z'
loop_
 _atom_site_type_symbol
 _atom_site_label
 _atom_site_symmetry_multiplicity
 _atom_site_fract_x
 _atom_site_fract_y
 _atom_site_fract_z
 _atom_site_occupancy
  Zr  Zr0  1  0.720332  0.279668  0.279668  1
  Zr  Zr1  1  0.279668  0.720332  0.720332  1
  Zr  Zr2  1  0.288787  0.711213  0.288787  1
  Zr  Zr3  1  0.711213  0.288787  0.711213  1
  Zr  Zr4  1  0.279668  0.279668  0.720332  1
  Zr  Zr5  1  0.720332  0.720332  0.279668  1
  Zn  Zn6  1  0.131810  0.114296  0.131810  1
  Zn  Zn7  1  0.868190  0.885704  0.868190  1
  Zn  Zn8  1  0.114296  0.131810  0.622083  1
  Zn  Zn9  1  0.131810  0.622083  0.131810  1
  Zn  Zn10  1  0.885704  0.868190  0.377917  1
  Zn  Zn11  1  0.868190  0.377917  0.868190  1
  Zn  Zn12  1  0.622083  0.131810  0.114296  1
  Zn  Zn13  1  0.377917  0.868190  0.885704  1
  Zn  Zn14  1  0.000000  0.500000  0.000000  1
  Zn  Zn15  1  0.500000  0.000000  0.500000  1
  Zn  Zn16  1  0.335849  0.341172  0.335849  1
  Zn  Zn17  1  0.664151  0.658828  0.664151  1
  Zn  Zn18  1  0.341172  0.335849  0.987131  1
  Zn  Zn19  1  0.335849  0.987131  0.335849  1
  Zn  Zn20  1  0.658828  0.664151  0.012869  1
  Zn  Zn21  1  0.664151  0.012869  0.664151  1
  Zn  Zn22  1  0.987131  0.335849  0.341172  1
  Zn  Zn23  1  0.012869  0.664151  0.658828  1
  Zn  Zn24  1  0.000000  0.000000  0.000000  1
  Ni  Ni25  1  0.500000  0.000000  0.000000  1
  Ni  Ni26  1  0.000000  0.500000  0.500000  1
  Ni  Ni27  1  0.000000  0.000000  0.500000  1
  Ni  Ni28  1  0.500000  0.500000  0.000000  1
  Ge  Ge29  1  0.500000  0.500000  0.500000  1
