# generated using pymatgen
data_Pa2InPd2
_symmetry_space_group_name_H-M   'P 1'
_cell_length_a   7.81808800
_cell_length_b   7.81808800
_cell_length_c   3.68011400
_cell_angle_alpha   90.00000000
_cell_angle_beta   90.00000000
_cell_angle_gamma   90.00000000
_symmetry_Int_Tables_number   1
_chemical_formula_structural   Pa2InPd2
_chemical_formula_sum   'Pa4 In2 Pd4'
_cell_volume   224.93776788
_cell_formula_units_Z   2
loop_
 _symmetry_equiv_pos_site_id
 _symmetry_equiv_pos_as_xyz
  1  'x, y, z'
loop_
 _atom_site_type_symbol
 _atom_site_label
 _atom_site_symmetry_multiplicity
 _atom_site_fract_x
 _atom_site_fract_y
 _atom_site_fract_z
 _atom_site_occupancy
  Pa  Pa0  1  0.325741  0.825741  0.500000  1
  Pa  Pa1  1  0.825741  0.674259  0.500000  1
  Pa  Pa2  1  0.174259  0.325741  0.500000  1
  Pa  Pa3  1  0.674259  0.174259  0.500000  1
  In  In4  1  0.000000  0.000000  0.000000  1
  In  In5  1  0.500000  0.500000  0.000000  1
  Pd  Pd6  1  0.371125  0.128875  0.000000  1
  Pd  Pd7  1  0.871125  0.371125  0.000000  1
  Pd  Pd8  1  0.128875  0.628875  0.000000  1
  Pd  Pd9  1  0.628875  0.871125  0.000000  1
