# generated using pymatgen
data_Nb10Ga4As2C
_symmetry_space_group_name_H-M   'P 1'
_cell_length_a   7.73310151
_cell_length_b   7.72837849
_cell_length_c   5.35705306
_cell_angle_alpha   90.06161726
_cell_angle_beta   89.87683325
_cell_angle_gamma   120.02020512
_symmetry_Int_Tables_number   1
_chemical_formula_structural   Nb10Ga4As2C
_chemical_formula_sum   'Nb10 Ga4 As2 C1'
_cell_volume   277.21020406
_cell_formula_units_Z   1
loop_
 _symmetry_equiv_pos_site_id
 _symmetry_equiv_pos_as_xyz
  1  'x, y, z'
loop_
 _atom_site_type_symbol
 _atom_site_label
 _atom_site_symmetry_multiplicity
 _atom_site_fract_x
 _atom_site_fract_y
 _atom_site_fract_z
 _atom_site_occupancy
  Nb  Nb0  1  0.999204  0.763155  0.257577  1
  Nb  Nb1  1  0.236049  0.236845  0.257577  1
  Nb  Nb2  1  0.764113  0.000000  0.257421  1
  Nb  Nb3  1  0.999248  0.237715  0.741775  1
  Nb  Nb4  1  0.761533  0.762285  0.741775  1
  Nb  Nb5  1  0.237449  0.000000  0.742169  1
  Nb  Nb6  1  0.332721  0.662907  0.999963  1
  Nb  Nb7  1  0.669815  0.337093  0.999963  1
  Nb  Nb8  1  0.668464  0.335653  0.502684  1
  Nb  Nb9  1  0.332810  0.664347  0.502684  1
  Ga  Ga10  1  0.401159  0.000000  0.245050  1
  Ga  Ga11  1  0.001912  0.604197  0.754573  1
  Ga  Ga12  1  0.397715  0.395803  0.754573  1
  Ga  Ga13  1  0.597828  0.000000  0.755792  1
  As  As14  1  0.999430  0.399559  0.242378  1
  As  As15  1  0.599871  0.600441  0.242378  1
  C  C16  1  0.000677  0.000000  0.501668  1
