# generated using pymatgen
data_LaEr2Th3Si4
_symmetry_space_group_name_H-M   'P 1'
_cell_length_a   7.64029180
_cell_length_b   7.64029127
_cell_length_c   4.31885400
_cell_angle_alpha   90.00000000
_cell_angle_beta   90.00000000
_cell_angle_gamma   90.54171323
_symmetry_Int_Tables_number   1
_chemical_formula_structural   LaEr2Th3Si4
_chemical_formula_sum   'La1 Er2 Th3 Si4'
_cell_volume   252.09775193
_cell_formula_units_Z   1
loop_
 _symmetry_equiv_pos_site_id
 _symmetry_equiv_pos_as_xyz
  1  'x, y, z'
loop_
 _atom_site_type_symbol
 _atom_site_label
 _atom_site_symmetry_multiplicity
 _atom_site_fract_x
 _atom_site_fract_y
 _atom_site_fract_z
 _atom_site_occupancy
  La  La0  1  0.822044  0.677956  0.500000  1
  Er  Er1  1  0.999374  0.001208  0.000000  1
  Er  Er2  1  0.498792  0.500626  0.000000  1
  Th  Th3  1  0.677451  0.179010  0.500000  1
  Th  Th4  1  0.320990  0.822549  0.500000  1
  Th  Th5  1  0.179289  0.320711  0.500000  1
  Si  Si6  1  0.121800  0.614354  0.000000  1
  Si  Si7  1  0.885646  0.378200  0.000000  1
  Si  Si8  1  0.612779  0.887221  0.000000  1
  Si  Si9  1  0.381833  0.118167  0.000000  1
