# generated using pymatgen
data_Dy3BiSbRh3O14
_symmetry_space_group_name_H-M   'P 1'
_cell_length_a   7.35467645
_cell_length_b   7.35467759
_cell_length_c   7.35467744
_cell_angle_alpha   58.90565667
_cell_angle_beta   58.90566238
_cell_angle_gamma   58.90565292
_symmetry_Int_Tables_number   1
_chemical_formula_structural   Dy3BiSbRh3O14
_chemical_formula_sum   'Dy3 Bi1 Sb1 Rh3 O14'
_cell_volume   274.27806229
_cell_formula_units_Z   1
loop_
 _symmetry_equiv_pos_site_id
 _symmetry_equiv_pos_as_xyz
  1  'x, y, z'
loop_
 _atom_site_type_symbol
 _atom_site_label
 _atom_site_symmetry_multiplicity
 _atom_site_fract_x
 _atom_site_fract_y
 _atom_site_fract_z
 _atom_site_occupancy
  Dy  Dy0  1  0.125000  0.625000  0.125000  1
  Dy  Dy1  1  0.625000  0.125000  0.125000  1
  Dy  Dy2  1  0.125000  0.125000  0.625000  1
  Bi  Bi3  1  0.125000  0.125000  0.125000  1
  Sb  Sb4  1  0.625000  0.625000  0.625000  1
  Rh  Rh5  1  0.625000  0.625000  0.125000  1
  Rh  Rh6  1  0.125000  0.625000  0.625000  1
  Rh  Rh7  1  0.625000  0.125000  0.625000  1
  O  O8  1  0.251936  0.251936  0.251936  1
  O  O9  1  0.286752  0.706426  0.286752  1
  O  O10  1  0.963248  0.963248  0.543574  1
  O  O11  1  0.538346  0.959918  0.538346  1
  O  O12  1  0.711654  0.711654  0.290082  1
  O  O13  1  0.959918  0.538346  0.538346  1
  O  O14  1  0.711654  0.290082  0.711654  1
  O  O15  1  0.286752  0.286752  0.706426  1
  O  O16  1  0.706426  0.286752  0.286752  1
  O  O17  1  0.290082  0.711654  0.711654  1
  O  O18  1  0.963248  0.543574  0.963248  1
  O  O19  1  0.538346  0.538346  0.959918  1
  O  O20  1  0.998064  0.998064  0.998064  1
  O  O21  1  0.543574  0.963248  0.963248  1
