# generated using pymatgen
data_Dy4Ho4Ti9Si16W3
_symmetry_space_group_name_H-M   'P 1'
_cell_length_a   6.98888535
_cell_length_b   6.98902737
_cell_length_c   12.85453811
_cell_angle_alpha   90.02992294
_cell_angle_beta   89.98017487
_cell_angle_gamma   89.96182106
_symmetry_Int_Tables_number   1
_chemical_formula_structural   Dy4Ho4Ti9Si16W3
_chemical_formula_sum   'Dy4 Ho4 Ti9 Si16 W3'
_cell_volume   627.88621940
_cell_formula_units_Z   1
loop_
 _symmetry_equiv_pos_site_id
 _symmetry_equiv_pos_as_xyz
  1  'x, y, z'
loop_
 _atom_site_type_symbol
 _atom_site_label
 _atom_site_symmetry_multiplicity
 _atom_site_fract_x
 _atom_site_fract_y
 _atom_site_fract_z
 _atom_site_occupancy
  Dy  Dy0  1  0.340382  0.002270  0.466699  1
  Dy  Dy1  1  0.498296  0.841740  0.718209  1
  Dy  Dy2  1  0.500711  0.158566  0.216609  1
  Dy  Dy3  1  0.841813  0.498274  0.281853  1
  Ho  Ho4  1  0.158294  0.500237  0.783412  1
  Ho  Ho5  1  0.659241  0.999644  0.966944  1
  Ho  Ho6  1  0.002003  0.340624  0.533543  1
  Ho  Ho7  1  0.999700  0.659247  0.032895  1
  Ti  Ti8  1  0.673022  0.672821  0.500053  1
  Ti  Ti9  1  0.152287  0.008925  0.876095  1
  Ti  Ti10  1  0.490894  0.652974  0.125055  1
  Ti  Ti11  1  0.507892  0.346421  0.627326  1
  Ti  Ti12  1  0.652914  0.491001  0.874872  1
  Ti  Ti13  1  0.346245  0.507819  0.372801  1
  Ti  Ti14  1  0.848685  0.991767  0.374670  1
  Ti  Ti15  1  0.008871  0.152317  0.123846  1
  Ti  Ti16  1  0.991819  0.848657  0.625433  1
  Si  Si17  1  0.200996  0.130771  0.684400  1
  Si  Si18  1  0.368938  0.700427  0.934310  1
  Si  Si19  1  0.631080  0.297699  0.434556  1
  Si  Si20  1  0.700655  0.369243  0.065470  1
  Si  Si21  1  0.297278  0.630462  0.565701  1
  Si  Si22  1  0.799432  0.869396  0.184399  1
  Si  Si23  1  0.130175  0.201412  0.315597  1
  Si  Si24  1  0.869707  0.799222  0.815566  1
  Si  Si25  1  0.291649  0.953164  0.064854  1
  Si  Si26  1  0.545963  0.790780  0.314882  1
  Si  Si27  1  0.452887  0.208836  0.815691  1
  Si  Si28  1  0.791379  0.545729  0.685064  1
  Si  Si29  1  0.208628  0.453189  0.184272  1
  Si  Si30  1  0.708586  0.048431  0.566070  1
  Si  Si31  1  0.953455  0.291860  0.934933  1
  Si  Si32  1  0.048170  0.707934  0.434106  1
  W  W33  1  0.326847  0.327022  0.999877  1
  W  W34  1  0.173810  0.827078  0.249095  1
  W  W35  1  0.827297  0.174042  0.750840  1
