# generated using pymatgen
data_Ba3LiAs2H
_symmetry_space_group_name_H-M   'P 1'
_cell_length_a   4.71389300
_cell_length_b   12.89153700
_cell_length_c   13.40534300
_cell_angle_alpha   90.00000000
_cell_angle_beta   90.00000000
_cell_angle_gamma   90.00000000
_symmetry_Int_Tables_number   1
_chemical_formula_structural   Ba3LiAs2H
_chemical_formula_sum   'Ba12 Li4 As8 H4'
_cell_volume   814.63365922
_cell_formula_units_Z   4
loop_
 _symmetry_equiv_pos_site_id
 _symmetry_equiv_pos_as_xyz
  1  'x, y, z'
loop_
 _atom_site_type_symbol
 _atom_site_label
 _atom_site_symmetry_multiplicity
 _atom_site_fract_x
 _atom_site_fract_y
 _atom_site_fract_z
 _atom_site_occupancy
  Ba  Ba0  1  0.250000  0.065027  0.621535  1
  Ba  Ba1  1  0.250000  0.565027  0.878465  1
  Ba  Ba2  1  0.750000  0.934973  0.378465  1
  Ba  Ba3  1  0.750000  0.434973  0.121535  1
  Ba  Ba4  1  0.250000  0.200129  0.301004  1
  Ba  Ba5  1  0.250000  0.700129  0.198996  1
  Ba  Ba6  1  0.750000  0.799871  0.698996  1
  Ba  Ba7  1  0.750000  0.299871  0.801004  1
  Ba  Ba8  1  0.250000  0.372312  0.560030  1
  Ba  Ba9  1  0.250000  0.872312  0.939970  1
  Ba  Ba10  1  0.750000  0.627688  0.439970  1
  Ba  Ba11  1  0.750000  0.127688  0.060030  1
  Li  Li12  1  0.250000  0.136433  0.854640  1
  Li  Li13  1  0.250000  0.636433  0.645360  1
  Li  Li14  1  0.750000  0.863567  0.145360  1
  Li  Li15  1  0.750000  0.363567  0.354640  1
  As  As16  1  0.250000  0.308139  0.985397  1
  As  As17  1  0.250000  0.808139  0.514603  1
  As  As18  1  0.750000  0.691861  0.014603  1
  As  As19  1  0.750000  0.191861  0.485397  1
  As  As20  1  0.250000  0.467589  0.325620  1
  As  As21  1  0.250000  0.967589  0.174380  1
  As  As22  1  0.750000  0.532411  0.674380  1
  As  As23  1  0.750000  0.032411  0.825620  1
  H  H24  1  0.250000  0.232728  0.733029  1
  H  H25  1  0.250000  0.732728  0.766971  1
  H  H26  1  0.750000  0.767272  0.266971  1
  H  H27  1  0.750000  0.267272  0.233029  1
