# generated using pymatgen
data_Tb2DyTe4
_symmetry_space_group_name_H-M   'P 1'
_cell_length_a   4.35225500
_cell_length_b   7.51083566
_cell_length_c   7.50099354
_cell_angle_alpha   71.52967095
_cell_angle_beta   90.00000000
_cell_angle_gamma   90.00000000
_symmetry_Int_Tables_number   1
_chemical_formula_structural   Tb2DyTe4
_chemical_formula_sum   'Tb2 Dy1 Te4'
_cell_volume   232.56971154
_cell_formula_units_Z   1
loop_
 _symmetry_equiv_pos_site_id
 _symmetry_equiv_pos_as_xyz
  1  'x, y, z'
loop_
 _atom_site_type_symbol
 _atom_site_label
 _atom_site_symmetry_multiplicity
 _atom_site_fract_x
 _atom_site_fract_y
 _atom_site_fract_z
 _atom_site_occupancy
  Tb  Tb0  1  0.000000  0.000000  0.000000  1
  Tb  Tb1  1  0.500000  0.500000  0.000000  1
  Dy  Dy2  1  0.000000  0.500000  0.500000  1
  Te  Te3  1  0.500000  0.757051  0.257811  1
  Te  Te4  1  0.000000  0.248313  0.252118  1
  Te  Te5  1  0.500000  0.242949  0.742189  1
  Te  Te6  1  0.000000  0.751687  0.747882  1
