# generated using pymatgen
data_Sc16Ir3Pd5O4
_symmetry_space_group_name_H-M   'P 1'
_cell_length_a   8.67831367
_cell_length_b   8.65725397
_cell_length_c   8.67831400
_cell_angle_alpha   59.91949604
_cell_angle_beta   59.99999873
_cell_angle_gamma   59.91949868
_symmetry_Int_Tables_number   1
_chemical_formula_structural   Sc16Ir3Pd5O4
_chemical_formula_sum   'Sc16 Ir3 Pd5 O4'
_cell_volume   460.47529796
_cell_formula_units_Z   1
loop_
 _symmetry_equiv_pos_site_id
 _symmetry_equiv_pos_as_xyz
  1  'x, y, z'
loop_
 _atom_site_type_symbol
 _atom_site_label
 _atom_site_symmetry_multiplicity
 _atom_site_fract_x
 _atom_site_fract_y
 _atom_site_fract_z
 _atom_site_occupancy
  Sc  Sc0  1  0.315379  0.684499  0.315379  1
  Sc  Sc1  1  0.930243  0.574856  0.930243  1
  Sc  Sc2  1  0.683310  0.315211  0.683310  1
  Sc  Sc3  1  0.683310  0.315211  0.318169  1
  Sc  Sc4  1  0.315379  0.684499  0.684741  1
  Sc  Sc5  1  0.628286  0.122225  0.124745  1
  Sc  Sc6  1  0.930551  0.930878  0.569286  1
  Sc  Sc7  1  0.684741  0.684499  0.315379  1
  Sc  Sc8  1  0.123804  0.628590  0.123804  1
  Sc  Sc9  1  0.124745  0.122225  0.628286  1
  Sc  Sc10  1  0.318169  0.315211  0.683310  1
  Sc  Sc11  1  0.124745  0.122225  0.124745  1
  Sc  Sc12  1  0.564657  0.574856  0.930243  1
  Sc  Sc13  1  0.569286  0.930878  0.930551  1
  Sc  Sc14  1  0.930243  0.574856  0.564657  1
  Sc  Sc15  1  0.569286  0.930878  0.569286  1
  Ir  Ir16  1  0.267685  0.910106  0.911104  1
  Ir  Ir17  1  0.911104  0.910106  0.911104  1
  Ir  Ir18  1  0.911104  0.910106  0.267685  1
  Pd  Pd19  1  0.337523  0.987428  0.337523  1
  Pd  Pd20  1  0.337282  0.337647  0.337282  1
  Pd  Pd21  1  0.987789  0.337647  0.337282  1
  Pd  Pd22  1  0.337282  0.337647  0.987789  1
  Pd  Pd23  1  0.912649  0.262053  0.912649  1
  O  O24  1  0.625581  0.622479  0.625581  1
  O  O25  1  0.126359  0.622479  0.625581  1
  O  O26  1  0.625581  0.622479  0.126359  1
  O  O27  1  0.623924  0.128227  0.623924  1
