# generated using pymatgen
data_Dy2U2Ge6Ru7
_symmetry_space_group_name_H-M   'P 1'
_cell_length_a   7.17725381
_cell_length_b   7.27615498
_cell_length_c   7.17725331
_cell_angle_alpha   109.39137484
_cell_angle_beta   109.07535883
_cell_angle_gamma   109.39136418
_symmetry_Int_Tables_number   1
_chemical_formula_structural   Dy2U2Ge6Ru7
_chemical_formula_sum   'Dy2 U2 Ge6 Ru7'
_cell_volume   290.49300563
_cell_formula_units_Z   1
loop_
 _symmetry_equiv_pos_site_id
 _symmetry_equiv_pos_as_xyz
  1  'x, y, z'
loop_
 _atom_site_type_symbol
 _atom_site_label
 _atom_site_symmetry_multiplicity
 _atom_site_fract_x
 _atom_site_fract_y
 _atom_site_fract_z
 _atom_site_occupancy
  Dy  Dy0  1  0.000000  0.000000  0.500000  1
  Dy  Dy1  1  0.500000  0.000000  0.000000  1
  U  U2  1  0.000000  0.500000  0.000000  1
  U  U3  1  0.500000  0.500000  0.500000  1
  Ge  Ge4  1  0.688957  0.691970  0.003013  1
  Ge  Ge5  1  0.314453  0.000000  0.314453  1
  Ge  Ge6  1  0.996987  0.308030  0.311043  1
  Ge  Ge7  1  0.311043  0.308030  0.996987  1
  Ge  Ge8  1  0.685547  0.000000  0.685547  1
  Ge  Ge9  1  0.003013  0.691970  0.688957  1
  Ru  Ru10  1  0.753629  0.267880  0.514250  1
  Ru  Ru11  1  0.750000  0.500000  0.250000  1
  Ru  Ru12  1  0.514250  0.267880  0.753629  1
  Ru  Ru13  1  0.250000  0.500000  0.750000  1
  Ru  Ru14  1  0.246371  0.732120  0.485750  1
  Ru  Ru15  1  0.485750  0.732120  0.246371  1
  Ru  Ru16  1  0.000000  0.000000  0.000000  1
