# generated using pymatgen
data_Ho3Er5In3Co
_symmetry_space_group_name_H-M   'P 1'
_cell_length_a   10.29175600
_cell_length_b   10.29175537
_cell_length_c   6.93540600
_cell_angle_alpha   90.00000000
_cell_angle_beta   90.00000000
_cell_angle_gamma   119.99999558
_symmetry_Int_Tables_number   1
_chemical_formula_structural   Ho3Er5In3Co
_chemical_formula_sum   'Ho6 Er10 In6 Co2'
_cell_volume   636.18214632
_cell_formula_units_Z   2
loop_
 _symmetry_equiv_pos_site_id
 _symmetry_equiv_pos_as_xyz
  1  'x, y, z'
loop_
 _atom_site_type_symbol
 _atom_site_label
 _atom_site_symmetry_multiplicity
 _atom_site_fract_x
 _atom_site_fract_y
 _atom_site_fract_z
 _atom_site_occupancy
  Ho  Ho0  1  0.534288  0.068577  0.791422  1
  Ho  Ho1  1  0.931423  0.465712  0.791422  1
  Ho  Ho2  1  0.534288  0.465712  0.791422  1
  Ho  Ho3  1  0.465712  0.931423  0.291422  1
  Ho  Ho4  1  0.068577  0.534288  0.291422  1
  Ho  Ho5  1  0.465712  0.534288  0.291422  1
  Er  Er6  1  0.821782  0.643564  0.499960  1
  Er  Er7  1  0.356436  0.178218  0.499960  1
  Er  Er8  1  0.821782  0.178218  0.499960  1
  Er  Er9  1  0.178218  0.356436  0.999960  1
  Er  Er10  1  0.643564  0.821782  0.999960  1
  Er  Er11  1  0.178218  0.821782  0.999960  1
  Er  Er12  1  0.666667  0.333333  0.182362  1
  Er  Er13  1  0.333333  0.666667  0.682362  1
  Er  Er14  1  0.000000  0.000000  0.779381  1
  Er  Er15  1  0.000000  0.000000  0.279381  1
  In  In16  1  0.837035  0.674070  0.037746  1
  In  In17  1  0.325930  0.162965  0.037746  1
  In  In18  1  0.837035  0.162965  0.037746  1
  In  In19  1  0.162965  0.325930  0.537746  1
  In  In20  1  0.674070  0.837035  0.537746  1
  In  In21  1  0.162965  0.837035  0.537746  1
  Co  Co22  1  0.666667  0.333333  0.568825  1
  Co  Co23  1  0.333333  0.666667  0.068825  1
