# generated using pymatgen
data_PrY4Ho15Pb16
_symmetry_space_group_name_H-M   'P 1'
_cell_length_a   8.19579276
_cell_length_b   8.27001260
_cell_length_c   15.61089800
_cell_angle_alpha   90.02738000
_cell_angle_beta   89.66300982
_cell_angle_gamma   89.86312473
_symmetry_Int_Tables_number   1
_chemical_formula_structural   PrY4Ho15Pb16
_chemical_formula_sum   'Pr1 Y4 Ho15 Pb16'
_cell_volume   1058.07443653
_cell_formula_units_Z   1
loop_
 _symmetry_equiv_pos_site_id
 _symmetry_equiv_pos_as_xyz
  1  'x, y, z'
loop_
 _atom_site_type_symbol
 _atom_site_label
 _atom_site_symmetry_multiplicity
 _atom_site_fract_x
 _atom_site_fract_y
 _atom_site_fract_z
 _atom_site_occupancy
  Pr  Pr0  1  0.970028  0.822434  0.597630  1
  Y  Y1  1  0.033143  0.177265  0.400903  1
  Y  Y2  1  0.531730  0.323919  0.401681  1
  Y  Y3  1  0.034896  0.175673  0.099453  1
  Y  Y4  1  0.465589  0.675208  0.901250  1
  Ho  Ho5  1  0.626788  0.158357  0.621923  1
  Ho  Ho6  1  0.125096  0.341830  0.879656  1
  Ho  Ho7  1  0.375943  0.842453  0.121398  1
  Ho  Ho8  1  0.872874  0.657724  0.377723  1
  Ho  Ho9  1  0.374486  0.842439  0.377748  1
  Ho  Ho10  1  0.876776  0.657980  0.120786  1
  Ho  Ho11  1  0.622541  0.157791  0.878905  1
  Ho  Ho12  1  0.125666  0.342173  0.621567  1
  Ho  Ho13  1  0.465831  0.675408  0.599355  1
  Ho  Ho14  1  0.962364  0.824295  0.899206  1
  Ho  Ho15  1  0.536650  0.324570  0.100259  1
  Ho  Ho16  1  0.792489  0.495516  0.750861  1
  Ho  Ho17  1  0.292964  0.004821  0.750579  1
  Ho  Ho18  1  0.207402  0.504377  0.250033  1
  Ho  Ho19  1  0.707224  0.995621  0.249201  1
  Pb  Pb20  1  0.713025  0.966581  0.455501  1
  Pb  Pb21  1  0.219279  0.533052  0.043618  1
  Pb  Pb22  1  0.280318  0.031546  0.956813  1
  Pb  Pb23  1  0.781864  0.463304  0.542581  1
  Pb  Pb24  1  0.289120  0.039139  0.541936  1
  Pb  Pb25  1  0.783003  0.464110  0.957758  1
  Pb  Pb26  1  0.716868  0.965258  0.042332  1
  Pb  Pb27  1  0.215213  0.538095  0.457697  1
  Pb  Pb28  1  0.429914  0.374037  0.750000  1
  Pb  Pb29  1  0.929997  0.127331  0.750821  1
  Pb  Pb30  1  0.570334  0.625446  0.249316  1
  Pb  Pb31  1  0.070016  0.873844  0.249688  1
  Pb  Pb32  1  0.652029  0.845426  0.749934  1
  Pb  Pb33  1  0.155810  0.652068  0.752013  1
  Pb  Pb34  1  0.346813  0.154776  0.249846  1
  Pb  Pb35  1  0.845918  0.346130  0.250026  1
