# generated using pymatgen
data_DyY3(Sc4Bi3)4
_symmetry_space_group_name_H-M   'P 1'
_cell_length_a   7.89929510
_cell_length_b   9.07095500
_cell_length_c   11.59037315
_cell_angle_alpha   90.00000000
_cell_angle_beta   89.98167933
_cell_angle_gamma   90.00000000
_symmetry_Int_Tables_number   1
_chemical_formula_structural   DyY3(Sc4Bi3)4
_chemical_formula_sum   'Dy1 Y3 Sc16 Bi12'
_cell_volume   830.49829820
_cell_formula_units_Z   1
loop_
 _symmetry_equiv_pos_site_id
 _symmetry_equiv_pos_as_xyz
  1  'x, y, z'
loop_
 _atom_site_type_symbol
 _atom_site_label
 _atom_site_symmetry_multiplicity
 _atom_site_fract_x
 _atom_site_fract_y
 _atom_site_fract_z
 _atom_site_occupancy
  Dy  Dy0  1  0.184609  0.750000  0.718844  1
  Y  Y1  1  0.315444  0.250000  0.218950  1
  Y  Y2  1  0.815438  0.250000  0.281076  1
  Y  Y3  1  0.684562  0.750000  0.781067  1
  Sc  Sc4  1  0.348473  0.750000  0.220512  1
  Sc  Sc5  1  0.848469  0.750000  0.279446  1
  Sc  Sc6  1  0.651439  0.250000  0.779488  1
  Sc  Sc7  1  0.151512  0.250000  0.720529  1
  Sc  Sc8  1  0.693126  0.567093  0.061997  1
  Sc  Sc9  1  0.193069  0.932922  0.438106  1
  Sc  Sc10  1  0.306936  0.066986  0.938017  1
  Sc  Sc11  1  0.806975  0.432940  0.561922  1
  Sc  Sc12  1  0.306936  0.433014  0.938017  1
  Sc  Sc13  1  0.806975  0.067060  0.561922  1
  Sc  Sc14  1  0.693126  0.932907  0.061997  1
  Sc  Sc15  1  0.193069  0.567078  0.438106  1
  Sc  Sc16  1  0.481575  0.250000  0.489131  1
  Sc  Sc17  1  0.981562  0.250000  0.010919  1
  Sc  Sc18  1  0.518266  0.750000  0.511061  1
  Sc  Sc19  1  0.018513  0.750000  0.988918  1
  Bi  Bi20  1  0.402368  0.750000  0.966949  1
  Bi  Bi21  1  0.902534  0.750000  0.533121  1
  Bi  Bi22  1  0.597596  0.250000  0.032994  1
  Bi  Bi23  1  0.097605  0.250000  0.467016  1
  Bi  Bi24  1  0.563754  0.989638  0.328451  1
  Bi  Bi25  1  0.063775  0.510398  0.171526  1
  Bi  Bi26  1  0.436066  0.489729  0.671573  1
  Bi  Bi27  1  0.936315  0.010292  0.828397  1
  Bi  Bi28  1  0.436066  0.010271  0.671573  1
  Bi  Bi29  1  0.936315  0.489708  0.828397  1
  Bi  Bi30  1  0.563754  0.510362  0.328451  1
  Bi  Bi31  1  0.063775  0.989602  0.171526  1
