# generated using pymatgen
data_Eu5Rh2Au
_symmetry_space_group_name_H-M   'P 1'
_cell_length_a   8.92346557
_cell_length_b   8.92346473
_cell_length_c   8.92346500
_cell_angle_alpha   127.60836511
_cell_angle_beta   127.60836906
_cell_angle_gamma   77.26032257
_symmetry_Int_Tables_number   1
_chemical_formula_structural   Eu5Rh2Au
_chemical_formula_sum   'Eu10 Rh4 Au2'
_cell_volume   432.67556129
_cell_formula_units_Z   2
loop_
 _symmetry_equiv_pos_site_id
 _symmetry_equiv_pos_as_xyz
  1  'x, y, z'
loop_
 _atom_site_type_symbol
 _atom_site_label
 _atom_site_symmetry_multiplicity
 _atom_site_fract_x
 _atom_site_fract_y
 _atom_site_fract_z
 _atom_site_occupancy
  Eu  Eu0  1  0.529330  0.029330  0.835228  1
  Eu  Eu1  1  0.194102  0.694102  0.164772  1
  Eu  Eu2  1  0.029330  0.194102  0.500000  1
  Eu  Eu3  1  0.694102  0.529330  0.500000  1
  Eu  Eu4  1  0.470670  0.970670  0.164772  1
  Eu  Eu5  1  0.805898  0.305898  0.835228  1
  Eu  Eu6  1  0.970670  0.805898  0.500000  1
  Eu  Eu7  1  0.305898  0.470670  0.500000  1
  Eu  Eu8  1  0.500000  0.500000  0.000000  1
  Eu  Eu9  1  0.000000  0.000000  0.000000  1
  Rh  Rh10  1  0.871360  0.371360  0.242720  1
  Rh  Rh11  1  0.128640  0.628640  0.757280  1
  Rh  Rh12  1  0.371360  0.128640  0.500000  1
  Rh  Rh13  1  0.628640  0.871360  0.500000  1
  Au  Au14  1  0.250000  0.250000  0.000000  1
  Au  Au15  1  0.750000  0.750000  0.000000  1
