# generated using pymatgen
data_Th14(RePt)3
_symmetry_space_group_name_H-M   'P 1'
_cell_length_a   10.09590400
_cell_length_b   10.09590371
_cell_length_c   6.35343700
_cell_angle_alpha   90.00000000
_cell_angle_beta   90.00000000
_cell_angle_gamma   120.00000096
_symmetry_Int_Tables_number   1
_chemical_formula_structural   Th14(RePt)3
_chemical_formula_sum   'Th14 Re3 Pt3'
_cell_volume   560.82810226
_cell_formula_units_Z   1
loop_
 _symmetry_equiv_pos_site_id
 _symmetry_equiv_pos_as_xyz
  1  'x, y, z'
loop_
 _atom_site_type_symbol
 _atom_site_label
 _atom_site_symmetry_multiplicity
 _atom_site_fract_x
 _atom_site_fract_y
 _atom_site_fract_z
 _atom_site_occupancy
  Th  Th0  1  0.666667  0.333333  0.594543  1
  Th  Th1  1  0.333333  0.666667  0.028872  1
  Th  Th2  1  0.875579  0.751159  0.755277  1
  Th  Th3  1  0.248841  0.124421  0.755277  1
  Th  Th4  1  0.875579  0.124421  0.755277  1
  Th  Th5  1  0.127966  0.255933  0.248847  1
  Th  Th6  1  0.744067  0.872034  0.248847  1
  Th  Th7  1  0.127966  0.872034  0.248847  1
  Th  Th8  1  0.457304  0.914609  0.543950  1
  Th  Th9  1  0.085391  0.542696  0.543950  1
  Th  Th10  1  0.457304  0.542696  0.543950  1
  Th  Th11  1  0.536308  0.072614  0.032952  1
  Th  Th12  1  0.927386  0.463692  0.032952  1
  Th  Th13  1  0.536308  0.463692  0.032952  1
  Re  Re14  1  0.183597  0.367193  0.800503  1
  Re  Re15  1  0.632807  0.816403  0.800503  1
  Re  Re16  1  0.183597  0.816403  0.800503  1
  Pt  Pt17  1  0.809058  0.618117  0.306698  1
  Pt  Pt18  1  0.381883  0.190942  0.306698  1
  Pt  Pt19  1  0.809058  0.190942  0.306698  1
