# generated using pymatgen
data_Dy5ZnCo5
_symmetry_space_group_name_H-M   'P 1'
_cell_length_a   5.43715878
_cell_length_b   5.43715830
_cell_length_c   20.61347500
_cell_angle_alpha   90.00000000
_cell_angle_beta   90.00000000
_cell_angle_gamma   43.97020308
_symmetry_Int_Tables_number   1
_chemical_formula_structural   Dy5ZnCo5
_chemical_formula_sum   'Dy10 Zn2 Co10'
_cell_volume   423.08972076
_cell_formula_units_Z   2
loop_
 _symmetry_equiv_pos_site_id
 _symmetry_equiv_pos_as_xyz
  1  'x, y, z'
loop_
 _atom_site_type_symbol
 _atom_site_label
 _atom_site_symmetry_multiplicity
 _atom_site_fract_x
 _atom_site_fract_y
 _atom_site_fract_z
 _atom_site_occupancy
  Dy  Dy0  1  0.295346  0.295346  0.250000  1
  Dy  Dy1  1  0.704654  0.704654  0.750000  1
  Dy  Dy2  1  0.297526  0.297526  0.064721  1
  Dy  Dy3  1  0.702474  0.702474  0.564721  1
  Dy  Dy4  1  0.702474  0.702474  0.935280  1
  Dy  Dy5  1  0.297526  0.297526  0.435280  1
  Dy  Dy6  1  0.007515  0.007515  0.156396  1
  Dy  Dy7  1  0.992486  0.992486  0.656397  1
  Dy  Dy8  1  0.992486  0.992486  0.843604  1
  Dy  Dy9  1  0.007515  0.007515  0.343603  1
  Zn  Zn10  1  0.000000  0.000000  0.000000  1
  Zn  Zn11  1  0.000000  0.000000  0.500000  1
  Co  Co12  1  0.594039  0.594039  0.250000  1
  Co  Co13  1  0.405961  0.405961  0.750000  1
  Co  Co14  1  0.588029  0.588029  0.060259  1
  Co  Co15  1  0.411970  0.411970  0.560259  1
  Co  Co16  1  0.411970  0.411970  0.939741  1
  Co  Co17  1  0.588029  0.588029  0.439741  1
  Co  Co18  1  0.711440  0.711440  0.154286  1
  Co  Co19  1  0.288560  0.288560  0.654286  1
  Co  Co20  1  0.288560  0.288560  0.845714  1
  Co  Co21  1  0.711440  0.711440  0.345714  1
