# generated using pymatgen
data_Nd5Y11(AgRh)4
_symmetry_space_group_name_H-M   'P 1'
_cell_length_a   9.65985130
_cell_length_b   9.67467821
_cell_length_c   9.67467914
_cell_angle_alpha   60.00439020
_cell_angle_beta   60.05068822
_cell_angle_gamma   60.05068727
_symmetry_Int_Tables_number   1
_chemical_formula_structural   Nd5Y11(AgRh)4
_chemical_formula_sum   'Nd5 Y11 Ag4 Rh4'
_cell_volume   639.84573597
_cell_formula_units_Z   1
loop_
 _symmetry_equiv_pos_site_id
 _symmetry_equiv_pos_as_xyz
  1  'x, y, z'
loop_
 _atom_site_type_symbol
 _atom_site_label
 _atom_site_symmetry_multiplicity
 _atom_site_fract_x
 _atom_site_fract_y
 _atom_site_fract_z
 _atom_site_occupancy
  Nd  Nd0  1  0.811363  0.188637  0.188637  1
  Nd  Nd1  1  0.813288  0.186520  0.811714  1
  Nd  Nd2  1  0.188477  0.811714  0.186520  1
  Nd  Nd3  1  0.813288  0.811714  0.186520  1
  Nd  Nd4  1  0.188477  0.186520  0.811714  1
  Y  Y5  1  0.599876  0.602531  0.602531  1
  Y  Y6  1  0.601125  0.602642  0.195108  1
  Y  Y7  1  0.601125  0.195108  0.602642  1
  Y  Y8  1  0.195061  0.602531  0.602531  1
  Y  Y9  1  0.063896  0.436104  0.436104  1
  Y  Y10  1  0.436225  0.063775  0.063775  1
  Y  Y11  1  0.435960  0.062475  0.436927  1
  Y  Y12  1  0.064638  0.436927  0.062475  1
  Y  Y13  1  0.435960  0.436927  0.062475  1
  Y  Y14  1  0.064638  0.062475  0.436927  1
  Y  Y15  1  0.188579  0.811421  0.811421  1
  Ag  Ag16  1  0.832272  0.829847  0.829847  1
  Ag  Ag17  1  0.829858  0.830123  0.510162  1
  Ag  Ag18  1  0.829858  0.510162  0.830123  1
  Ag  Ag19  1  0.508035  0.829847  0.829847  1
  Rh  Rh20  1  0.392290  0.392736  0.392736  1
  Rh  Rh21  1  0.391736  0.395481  0.821044  1
  Rh  Rh22  1  0.391736  0.821044  0.395481  1
  Rh  Rh23  1  0.822235  0.392736  0.392736  1
