# generated using pymatgen
data_Os3RhPb4O13
_symmetry_space_group_name_H-M   'P 1'
_cell_length_a   7.35403868
_cell_length_b   7.35403834
_cell_length_c   7.35403894
_cell_angle_alpha   60.47452829
_cell_angle_beta   60.47453072
_cell_angle_gamma   60.47453377
_symmetry_Int_Tables_number   1
_chemical_formula_structural   Os3RhPb4O13
_chemical_formula_sum   'Os3 Rh1 Pb4 O13'
_cell_volume   284.24721631
_cell_formula_units_Z   1
loop_
 _symmetry_equiv_pos_site_id
 _symmetry_equiv_pos_as_xyz
  1  'x, y, z'
loop_
 _atom_site_type_symbol
 _atom_site_label
 _atom_site_symmetry_multiplicity
 _atom_site_fract_x
 _atom_site_fract_y
 _atom_site_fract_z
 _atom_site_occupancy
  Os  Os0  1  0.000561  0.499481  0.499481  1
  Os  Os1  1  0.499481  0.499481  0.000561  1
  Os  Os2  1  0.499481  0.000561  0.499481  1
  Rh  Rh3  1  0.499633  0.499633  0.499633  1
  Pb  Pb4  1  0.996750  0.996750  0.996750  1
  Pb  Pb5  1  0.504697  0.998229  0.998229  1
  Pb  Pb6  1  0.998229  0.998229  0.504697  1
  Pb  Pb7  1  0.998229  0.504697  0.998229  1
  O  O8  1  0.834144  0.422861  0.422861  1
  O  O9  1  0.421985  0.820351  0.820351  1
  O  O10  1  0.422861  0.422861  0.834144  1
  O  O11  1  0.820351  0.820351  0.421985  1
  O  O12  1  0.820351  0.421985  0.820351  1
  O  O13  1  0.422861  0.834144  0.422861  1
  O  O14  1  0.167767  0.575033  0.575033  1
  O  O15  1  0.572399  0.185610  0.185610  1
  O  O16  1  0.575033  0.575033  0.167767  1
  O  O17  1  0.185610  0.185610  0.572399  1
  O  O18  1  0.185610  0.572399  0.185610  1
  O  O19  1  0.575033  0.167767  0.575033  1
  O  O20  1  0.123934  0.123934  0.123934  1
