# generated using pymatgen
data_Er4Hf3InIr4
_symmetry_space_group_name_H-M   'P 1'
_cell_length_a   4.45494700
_cell_length_b   7.06486923
_cell_length_c   8.29493779
_cell_angle_alpha   93.72242674
_cell_angle_beta   90.00000000
_cell_angle_gamma   90.00000000
_symmetry_Int_Tables_number   1
_chemical_formula_structural   Er4Hf3InIr4
_chemical_formula_sum   'Er4 Hf3 In1 Ir4'
_cell_volume   260.52091569
_cell_formula_units_Z   1
loop_
 _symmetry_equiv_pos_site_id
 _symmetry_equiv_pos_as_xyz
  1  'x, y, z'
loop_
 _atom_site_type_symbol
 _atom_site_label
 _atom_site_symmetry_multiplicity
 _atom_site_fract_x
 _atom_site_fract_y
 _atom_site_fract_z
 _atom_site_occupancy
  Er  Er0  1  0.250000  0.979576  0.320082  1
  Er  Er1  1  0.250000  0.469442  0.164327  1
  Er  Er2  1  0.750000  0.034896  0.684216  1
  Er  Er3  1  0.750000  0.505430  0.834072  1
  Hf  Hf4  1  0.250000  0.369270  0.571499  1
  Hf  Hf5  1  0.250000  0.855310  0.936272  1
  Hf  Hf6  1  0.750000  0.639936  0.428705  1
  In  In7  1  0.750000  0.147419  0.073301  1
  Ir  Ir8  1  0.250000  0.229923  0.867918  1
  Ir  Ir9  1  0.250000  0.744443  0.601276  1
  Ir  Ir10  1  0.750000  0.755812  0.114057  1
  Ir  Ir11  1  0.750000  0.268543  0.404275  1
