# generated using pymatgen
data_YbSmB8Ru7
_symmetry_space_group_name_H-M   'P 1'
_cell_length_a   6.44565509
_cell_length_b   6.44561009
_cell_length_c   10.04037800
_cell_angle_alpha   90.00000000
_cell_angle_beta   90.00000000
_cell_angle_gamma   89.98107514
_symmetry_Int_Tables_number   1
_chemical_formula_structural   YbSmB8Ru7
_chemical_formula_sum   'Yb2 Sm2 B16 Ru14'
_cell_volume   417.13932346
_cell_formula_units_Z   2
loop_
 _symmetry_equiv_pos_site_id
 _symmetry_equiv_pos_as_xyz
  1  'x, y, z'
loop_
 _atom_site_type_symbol
 _atom_site_label
 _atom_site_symmetry_multiplicity
 _atom_site_fract_x
 _atom_site_fract_y
 _atom_site_fract_z
 _atom_site_occupancy
  Yb  Yb0  1  0.735466  0.874886  0.000000  1
  Yb  Yb1  1  0.126135  0.737251  0.500000  1
  Sm  Sm2  1  0.880079  0.269280  0.500000  1
  Sm  Sm3  1  0.266594  0.121740  0.000000  1
  B  B4  1  0.498418  0.999756  0.589026  1
  B  B5  1  0.498418  0.999756  0.410974  1
  B  B6  1  0.898720  0.272766  0.167805  1
  B  B7  1  0.101605  0.725805  0.832007  1
  B  B8  1  0.500773  0.500186  0.341142  1
  B  B9  1  0.501219  0.500395  0.841111  1
  B  B10  1  0.271671  0.101008  0.667403  1
  B  B11  1  0.101605  0.725805  0.167993  1
  B  B12  1  0.271671  0.101008  0.332597  1
  B  B13  1  0.898720  0.272766  0.832195  1
  B  B14  1  0.500773  0.500186  0.658858  1
  B  B15  1  0.501219  0.500395  0.158889  1
  B  B16  1  0.000400  0.500410  0.910958  1
  B  B17  1  0.724536  0.897897  0.668583  1
  B  B18  1  0.724536  0.897897  0.331417  1
  B  B19  1  0.000400  0.500410  0.089042  1
  Ru  Ru20  1  0.204880  0.396645  0.753444  1
  Ru  Ru21  1  0.400951  0.287483  0.500000  1
  Ru  Ru22  1  0.395847  0.795709  0.253794  1
  Ru  Ru23  1  0.204880  0.396645  0.246556  1
  Ru  Ru24  1  0.595324  0.711609  0.500000  1
  Ru  Ru25  1  0.603394  0.204557  0.746554  1
  Ru  Ru26  1  0.289065  0.598456  0.000000  1
  Ru  Ru27  1  0.713093  0.403644  0.000000  1
  Ru  Ru28  1  0.796311  0.603885  0.246593  1
  Ru  Ru29  1  0.796311  0.603885  0.753407  1
  Ru  Ru30  1  0.395847  0.795709  0.746206  1
  Ru  Ru31  1  0.998873  0.998806  0.250135  1
  Ru  Ru32  1  0.603394  0.204557  0.253446  1
  Ru  Ru33  1  0.998873  0.998806  0.749865  1
