# generated using pymatgen
data_Sr2GdNbO6
_symmetry_space_group_name_H-M   'P 1'
_cell_length_a   5.99565000
_cell_length_b   5.89434123
_cell_length_c   10.23264765
_cell_angle_alpha   55.08629835
_cell_angle_beta   90.00000000
_cell_angle_gamma   90.00000000
_symmetry_Int_Tables_number   1
_chemical_formula_structural   Sr2GdNbO6
_chemical_formula_sum   'Sr4 Gd2 Nb2 O12'
_cell_volume   296.53870010
_cell_formula_units_Z   2
loop_
 _symmetry_equiv_pos_site_id
 _symmetry_equiv_pos_as_xyz
  1  'x, y, z'
loop_
 _atom_site_type_symbol
 _atom_site_label
 _atom_site_symmetry_multiplicity
 _atom_site_fract_x
 _atom_site_fract_y
 _atom_site_fract_z
 _atom_site_occupancy
  Sr  Sr0  1  0.461704  0.258507  0.750611  1
  Sr  Sr1  1  0.961704  0.741493  0.749389  1
  Sr  Sr2  1  0.038296  0.258507  0.250611  1
  Sr  Sr3  1  0.538296  0.741493  0.249389  1
  Gd  Gd4  1  0.000000  0.000000  0.000000  1
  Gd  Gd5  1  0.500000  0.000000  0.500000  1
  Nb  Nb6  1  0.500000  0.500000  0.000000  1
  Nb  Nb7  1  0.000000  0.500000  0.500000  1
  O  O8  1  0.724110  0.642046  0.548707  1
  O  O9  1  0.224110  0.357954  0.951293  1
  O  O10  1  0.275890  0.357954  0.451293  1
  O  O11  1  0.775890  0.642046  0.048707  1
  O  O12  1  0.193651  0.731089  0.544143  1
  O  O13  1  0.693651  0.268911  0.955857  1
  O  O14  1  0.806349  0.268911  0.455857  1
  O  O15  1  0.306349  0.731089  0.044143  1
  O  O16  1  0.028085  0.179642  0.733331  1
  O  O17  1  0.528085  0.820358  0.766669  1
  O  O18  1  0.971915  0.820358  0.266669  1
  O  O19  1  0.471915  0.179642  0.233331  1
