# generated using pymatgen
data_ErTh2Si6(Pd4Pt)4
_symmetry_space_group_name_H-M   'P 1'
_cell_length_a   8.76231218
_cell_length_b   8.76433286
_cell_length_c   8.76433323
_cell_angle_alpha   59.98475024
_cell_angle_beta   60.00763040
_cell_angle_gamma   60.00762966
_symmetry_Int_Tables_number   1
_chemical_formula_structural   ErTh2Si6(Pd4Pt)4
_chemical_formula_sum   'Er1 Th2 Si6 Pd16 Pt4'
_cell_volume   475.92821990
_cell_formula_units_Z   1
loop_
 _symmetry_equiv_pos_site_id
 _symmetry_equiv_pos_as_xyz
  1  'x, y, z'
loop_
 _atom_site_type_symbol
 _atom_site_label
 _atom_site_symmetry_multiplicity
 _atom_site_fract_x
 _atom_site_fract_y
 _atom_site_fract_z
 _atom_site_occupancy
  Er  Er0  1  0.000000  0.000000  0.000000  1
  Th  Th1  1  0.250000  0.250000  0.250000  1
  Th  Th2  1  0.750000  0.750000  0.750000  1
  Si  Si3  1  0.733719  0.266281  0.266281  1
  Si  Si4  1  0.266281  0.733719  0.733719  1
  Si  Si5  1  0.263401  0.736599  0.263401  1
  Si  Si6  1  0.736599  0.263401  0.736599  1
  Si  Si7  1  0.263401  0.263401  0.736599  1
  Si  Si8  1  0.736599  0.736599  0.263401  1
  Pd  Pd9  1  0.998435  0.346777  0.001565  1
  Pd  Pd10  1  0.653223  0.001565  0.346777  1
  Pd  Pd11  1  0.001565  0.653223  0.998435  1
  Pd  Pd12  1  0.346777  0.998435  0.653223  1
  Pd  Pd13  1  0.998435  0.001565  0.346777  1
  Pd  Pd14  1  0.001565  0.998435  0.653223  1
  Pd  Pd15  1  0.653223  0.346777  0.001565  1
  Pd  Pd16  1  0.346777  0.653223  0.998435  1
  Pd  Pd17  1  0.385275  0.384165  0.384165  1
  Pd  Pd18  1  0.614725  0.615835  0.615835  1
  Pd  Pd19  1  0.384165  0.385275  0.846396  1
  Pd  Pd20  1  0.384165  0.846396  0.385275  1
  Pd  Pd21  1  0.615835  0.614725  0.153604  1
  Pd  Pd22  1  0.615835  0.153604  0.614725  1
  Pd  Pd23  1  0.846396  0.384165  0.384165  1
  Pd  Pd24  1  0.153604  0.615835  0.615835  1
  Pt  Pt25  1  0.345621  0.000000  0.000000  1
  Pt  Pt26  1  0.654379  0.000000  0.000000  1
  Pt  Pt27  1  0.000000  0.345621  0.654379  1
  Pt  Pt28  1  0.000000  0.654379  0.345621  1
