# generated using pymatgen
data_Ti2PRuRh4
_symmetry_space_group_name_H-M   'P 1'
_cell_length_a   3.92332200
_cell_length_b   5.42776481
_cell_length_c   10.51144642
_cell_angle_alpha   90.76800153
_cell_angle_beta   90.00000000
_cell_angle_gamma   90.00000000
_symmetry_Int_Tables_number   1
_chemical_formula_structural   Ti2PRuRh4
_chemical_formula_sum   'Ti4 P2 Ru2 Rh8'
_cell_volume   223.81976667
_cell_formula_units_Z   2
loop_
 _symmetry_equiv_pos_site_id
 _symmetry_equiv_pos_as_xyz
  1  'x, y, z'
loop_
 _atom_site_type_symbol
 _atom_site_label
 _atom_site_symmetry_multiplicity
 _atom_site_fract_x
 _atom_site_fract_y
 _atom_site_fract_z
 _atom_site_occupancy
  Ti  Ti0  1  0.500000  0.336075  0.145116  1
  Ti  Ti1  1  0.500000  0.663925  0.854884  1
  Ti  Ti2  1  0.500000  0.833922  0.360562  1
  Ti  Ti3  1  0.500000  0.166078  0.639438  1
  P  P4  1  0.000000  0.000000  0.000000  1
  P  P5  1  0.000000  0.500000  0.500000  1
  Ru  Ru6  1  0.500000  0.323555  0.397170  1
  Ru  Ru7  1  0.500000  0.676445  0.602830  1
  Rh  Rh8  1  0.000000  0.000000  0.500000  1
  Rh  Rh9  1  0.000000  0.500000  0.000000  1
  Rh  Rh10  1  0.000000  0.079298  0.240547  1
  Rh  Rh11  1  0.000000  0.920702  0.759453  1
  Rh  Rh12  1  0.000000  0.580086  0.258996  1
  Rh  Rh13  1  0.000000  0.419914  0.741004  1
  Rh  Rh14  1  0.500000  0.823077  0.101646  1
  Rh  Rh15  1  0.500000  0.176923  0.898354  1
