# generated using pymatgen
data_Sm5Y5(SiHg)4
_symmetry_space_group_name_H-M   'P 1'
_cell_length_a   9.09948940
_cell_length_b   8.73858500
_cell_length_c   7.63981062
_cell_angle_alpha   90.02147087
_cell_angle_beta   90.05478669
_cell_angle_gamma   129.43653025
_symmetry_Int_Tables_number   1
_chemical_formula_structural   Sm5Y5(SiHg)4
_chemical_formula_sum   'Sm5 Y5 Si4 Hg4'
_cell_volume   469.18311297
_cell_formula_units_Z   1
loop_
 _symmetry_equiv_pos_site_id
 _symmetry_equiv_pos_as_xyz
  1  'x, y, z'
loop_
 _atom_site_type_symbol
 _atom_site_label
 _atom_site_symmetry_multiplicity
 _atom_site_fract_x
 _atom_site_fract_y
 _atom_site_fract_z
 _atom_site_occupancy
  Sm  Sm0  1  0.065188  0.332250  0.323078  1
  Sm  Sm1  1  0.934199  0.668657  0.676682  1
  Sm  Sm2  1  0.434353  0.170862  0.822123  1
  Sm  Sm3  1  0.796236  0.545520  0.179930  1
  Sm  Sm4  1  0.565189  0.831824  0.178405  1
  Y  Y5  1  0.210132  0.455411  0.823251  1
  Y  Y6  1  0.707560  0.951183  0.677654  1
  Y  Y7  1  0.289288  0.045141  0.323092  1
  Y  Y8  1  0.000001  0.000004  0.999991  1
  Y  Y9  1  0.498835  0.499461  0.499707  1
  Si  Si10  1  0.381129  0.384785  0.120624  1
  Si  Si11  1  0.618107  0.615214  0.880813  1
  Si  Si12  1  0.117391  0.116618  0.620244  1
  Si  Si13  1  0.881736  0.885858  0.380530  1
  Hg  Hg14  1  0.807939  0.244459  0.976643  1
  Hg  Hg15  1  0.198145  0.758388  0.012875  1
  Hg  Hg16  1  0.686678  0.245628  0.484809  1
  Hg  Hg17  1  0.307895  0.748740  0.519551  1
