# generated using pymatgen
data_Hf6Ti4Ge6O
_symmetry_space_group_name_H-M   'P 1'
_cell_length_a   7.83197300
_cell_length_b   7.83197361
_cell_length_c   5.38902300
_cell_angle_alpha   90.00000000
_cell_angle_beta   90.00000000
_cell_angle_gamma   120.00000163
_symmetry_Int_Tables_number   1
_chemical_formula_structural   Hf6Ti4Ge6O
_chemical_formula_sum   'Hf6 Ti4 Ge6 O1'
_cell_volume   286.27475981
_cell_formula_units_Z   1
loop_
 _symmetry_equiv_pos_site_id
 _symmetry_equiv_pos_as_xyz
  1  'x, y, z'
loop_
 _atom_site_type_symbol
 _atom_site_label
 _atom_site_symmetry_multiplicity
 _atom_site_fract_x
 _atom_site_fract_y
 _atom_site_fract_z
 _atom_site_occupancy
  Hf  Hf0  1  0.000000  0.754429  0.250135  1
  Hf  Hf1  1  0.245571  0.245571  0.250135  1
  Hf  Hf2  1  0.754429  0.000000  0.250135  1
  Hf  Hf3  1  0.000000  0.245571  0.749865  1
  Hf  Hf4  1  0.754429  0.754429  0.749865  1
  Hf  Hf5  1  0.245571  0.000000  0.749865  1
  Ti  Ti6  1  0.333333  0.666667  0.000000  1
  Ti  Ti7  1  0.666667  0.333333  0.000000  1
  Ti  Ti8  1  0.666667  0.333333  0.500000  1
  Ti  Ti9  1  0.333333  0.666667  0.500000  1
  Ge  Ge10  1  0.000000  0.400230  0.246577  1
  Ge  Ge11  1  0.599770  0.599770  0.246577  1
  Ge  Ge12  1  0.400230  0.000000  0.246577  1
  Ge  Ge13  1  0.000000  0.599770  0.753423  1
  Ge  Ge14  1  0.400230  0.400230  0.753423  1
  Ge  Ge15  1  0.599770  0.000000  0.753423  1
  O  O16  1  0.000000  0.000000  0.500000  1
