# generated using pymatgen
data_La5Pr11(TmIr3)4
_symmetry_space_group_name_H-M   'P 1'
_cell_length_a   11.28154600
_cell_length_b   11.29905377
_cell_length_c   6.54860415
_cell_angle_alpha   89.85665063
_cell_angle_beta   89.99115985
_cell_angle_gamma   89.84033172
_symmetry_Int_Tables_number   1
_chemical_formula_structural   La5Pr11(TmIr3)4
_chemical_formula_sum   'La5 Pr11 Tm4 Ir12'
_cell_volume   834.74991390
_cell_formula_units_Z   1
loop_
 _symmetry_equiv_pos_site_id
 _symmetry_equiv_pos_as_xyz
  1  'x, y, z'
loop_
 _atom_site_type_symbol
 _atom_site_label
 _atom_site_symmetry_multiplicity
 _atom_site_fract_x
 _atom_site_fract_y
 _atom_site_fract_z
 _atom_site_occupancy
  La  La0  1  0.289071  0.088303  0.384473  1
  La  La1  1  0.287603  0.911191  0.884161  1
  La  La2  1  0.711766  0.090239  0.884447  1
  La  La3  1  0.711601  0.912378  0.385114  1
  La  La4  1  0.587781  0.786328  0.883906  1
  Pr  Pr5  1  0.587478  0.213754  0.381841  1
  Pr  Pr6  1  0.411332  0.785927  0.381931  1
  Pr  Pr7  1  0.412392  0.213897  0.881831  1
  Pr  Pr8  1  0.211982  0.414113  0.618343  1
  Pr  Pr9  1  0.212002  0.585888  0.117850  1
  Pr  Pr10  1  0.788127  0.413681  0.117050  1
  Pr  Pr11  1  0.788538  0.585544  0.616581  1
  Pr  Pr12  1  0.913791  0.711370  0.116571  1
  Pr  Pr13  1  0.913413  0.288439  0.615734  1
  Pr  Pr14  1  0.086809  0.711616  0.615859  1
  Pr  Pr15  1  0.086724  0.288547  0.115866  1
  Tm  Tm16  1  0.999961  0.000033  0.499712  1
  Tm  Tm17  1  0.999935  0.000394  0.999424  1
  Tm  Tm18  1  0.499463  0.498897  0.001848  1
  Tm  Tm19  1  0.500256  0.499897  0.500923  1
  Ir  Ir20  1  0.852371  0.146055  0.247803  1
  Ir  Ir21  1  0.852058  0.854300  0.748449  1
  Ir  Ir22  1  0.148229  0.145558  0.747314  1
  Ir  Ir23  1  0.147764  0.854176  0.247787  1
  Ir  Ir24  1  0.646157  0.353355  0.750304  1
  Ir  Ir25  1  0.645697  0.647721  0.248184  1
  Ir  Ir26  1  0.353924  0.353278  0.251447  1
  Ir  Ir27  1  0.353691  0.646262  0.750445  1
  Ir  Ir28  1  0.499817  0.000011  0.117270  1
  Ir  Ir29  1  0.500332  0.998927  0.619122  1
  Ir  Ir30  1  0.000141  0.499792  0.883949  1
  Ir  Ir31  1  0.999795  0.500127  0.384464  1
