# generated using pymatgen
data_Tb2AsS
_symmetry_space_group_name_H-M   'P 1'
_cell_length_a   6.95128532
_cell_length_b   6.95128515
_cell_length_c   6.95128551
_cell_angle_alpha   33.93656571
_cell_angle_beta   33.93657039
_cell_angle_gamma   33.93655997
_symmetry_Int_Tables_number   1
_chemical_formula_structural   Tb2AsS
_chemical_formula_sum   'Tb2 As1 S1'
_cell_volume   93.30532392
_cell_formula_units_Z   1
loop_
 _symmetry_equiv_pos_site_id
 _symmetry_equiv_pos_as_xyz
  1  'x, y, z'
loop_
 _atom_site_type_symbol
 _atom_site_label
 _atom_site_symmetry_multiplicity
 _atom_site_fract_x
 _atom_site_fract_y
 _atom_site_fract_z
 _atom_site_occupancy
  Tb  Tb0  1  0.249198  0.249198  0.249198  1
  Tb  Tb1  1  0.750802  0.750802  0.750802  1
  As  As2  1  0.000000  0.000000  0.000000  1
  S  S3  1  0.500000  0.500000  0.500000  1
