# generated using pymatgen
data_Tb2Er4TcRu
_symmetry_space_group_name_H-M   'P 1'
_cell_length_a   6.26824300
_cell_length_b   7.34194800
_cell_length_c   9.07131500
_cell_angle_alpha   90.00000000
_cell_angle_beta   90.00000000
_cell_angle_gamma   90.00000000
_symmetry_Int_Tables_number   1
_chemical_formula_structural   Tb2Er4TcRu
_chemical_formula_sum   'Tb4 Er8 Tc2 Ru2'
_cell_volume   417.47202317
_cell_formula_units_Z   2
loop_
 _symmetry_equiv_pos_site_id
 _symmetry_equiv_pos_as_xyz
  1  'x, y, z'
loop_
 _atom_site_type_symbol
 _atom_site_label
 _atom_site_symmetry_multiplicity
 _atom_site_fract_x
 _atom_site_fract_y
 _atom_site_fract_z
 _atom_site_occupancy
  Tb  Tb0  1  0.875349  0.539674  0.250000  1
  Tb  Tb1  1  0.624651  0.039674  0.250000  1
  Tb  Tb2  1  0.130587  0.457440  0.750000  1
  Tb  Tb3  1  0.369413  0.957440  0.750000  1
  Er  Er4  1  0.334897  0.676379  0.063714  1
  Er  Er5  1  0.165103  0.176379  0.436286  1
  Er  Er6  1  0.663615  0.324279  0.562836  1
  Er  Er7  1  0.836385  0.824279  0.937164  1
  Er  Er8  1  0.663615  0.324279  0.937164  1
  Er  Er9  1  0.836385  0.824279  0.562836  1
  Er  Er10  1  0.334897  0.676379  0.436286  1
  Er  Er11  1  0.165103  0.176379  0.063714  1
  Tc  Tc12  1  0.038957  0.885428  0.250000  1
  Tc  Tc13  1  0.461043  0.385428  0.250000  1
  Ru  Ru14  1  0.959126  0.116143  0.750000  1
  Ru  Ru15  1  0.540874  0.616143  0.750000  1
