# generated using pymatgen
data_Y7Ho(Ti3Si4)4
_symmetry_space_group_name_H-M   'P 1'
_cell_length_a   7.06109800
_cell_length_b   7.06084202
_cell_length_c   12.97339402
_cell_angle_alpha   90.00704603
_cell_angle_beta   89.99947524
_cell_angle_gamma   90.00391117
_symmetry_Int_Tables_number   1
_chemical_formula_structural   Y7Ho(Ti3Si4)4
_chemical_formula_sum   'Y7 Ho1 Ti12 Si16'
_cell_volume   646.81835875
_cell_formula_units_Z   1
loop_
 _symmetry_equiv_pos_site_id
 _symmetry_equiv_pos_as_xyz
  1  'x, y, z'
loop_
 _atom_site_type_symbol
 _atom_site_label
 _atom_site_symmetry_multiplicity
 _atom_site_fract_x
 _atom_site_fract_y
 _atom_site_fract_z
 _atom_site_occupancy
  Y  Y0  1  0.340992  0.002619  0.466504  1
  Y  Y1  1  0.497391  0.840967  0.716535  1
  Y  Y2  1  0.502639  0.159010  0.216471  1
  Y  Y3  1  0.841005  0.497400  0.283431  1
  Y  Y4  1  0.158952  0.502659  0.783570  1
  Y  Y5  1  0.659110  0.997282  0.966549  1
  Y  Y6  1  0.002618  0.340989  0.533494  1
  Ho  Ho7  1  0.997641  0.658864  0.033517  1
  Ti  Ti8  1  0.326692  0.326949  0.000014  1
  Ti  Ti9  1  0.173120  0.826765  0.249903  1
  Ti  Ti10  1  0.826840  0.173185  0.750030  1
  Ti  Ti11  1  0.673157  0.673172  0.499992  1
  Ti  Ti12  1  0.151377  0.008195  0.876177  1
  Ti  Ti13  1  0.491762  0.651441  0.126064  1
  Ti  Ti14  1  0.508257  0.348544  0.626103  1
  Ti  Ti15  1  0.651536  0.491832  0.873992  1
  Ti  Ti16  1  0.348540  0.508256  0.373890  1
  Ti  Ti17  1  0.848551  0.991730  0.376077  1
  Ti  Ti18  1  0.008270  0.151408  0.123875  1
  Ti  Ti19  1  0.991743  0.848529  0.623918  1
  Si  Si20  1  0.202671  0.130976  0.684512  1
  Si  Si21  1  0.368655  0.702570  0.934605  1
  Si  Si22  1  0.630982  0.297338  0.434505  1
  Si  Si23  1  0.702939  0.369317  0.065474  1
  Si  Si24  1  0.297343  0.630979  0.565486  1
  Si  Si25  1  0.797571  0.868726  0.184277  1
  Si  Si26  1  0.130958  0.202671  0.315489  1
  Si  Si27  1  0.869092  0.797235  0.815638  1
  Si  Si28  1  0.290030  0.952397  0.064658  1
  Si  Si29  1  0.547396  0.790269  0.314671  1
  Si  Si30  1  0.452623  0.209738  0.814707  1
  Si  Si31  1  0.790284  0.547381  0.685340  1
  Si  Si32  1  0.209473  0.452871  0.185119  1
  Si  Si33  1  0.709706  0.047378  0.564678  1
  Si  Si34  1  0.952721  0.290645  0.935420  1
  Si  Si35  1  0.047364  0.709711  0.435316  1
