# generated using pymatgen
data_Tb2Ho2Ga18Ir5Pt
_symmetry_space_group_name_H-M   'P 1'
_cell_length_a   7.60373846
_cell_length_b   7.60433756
_cell_length_c   9.51860372
_cell_angle_alpha   90.07917425
_cell_angle_beta   89.99430714
_cell_angle_gamma   119.80812912
_symmetry_Int_Tables_number   1
_chemical_formula_structural   Tb2Ho2Ga18Ir5Pt
_chemical_formula_sum   'Tb2 Ho2 Ga18 Ir5 Pt1'
_cell_volume   477.56044838
_cell_formula_units_Z   1
loop_
 _symmetry_equiv_pos_site_id
 _symmetry_equiv_pos_as_xyz
  1  'x, y, z'
loop_
 _atom_site_type_symbol
 _atom_site_label
 _atom_site_symmetry_multiplicity
 _atom_site_fract_x
 _atom_site_fract_y
 _atom_site_fract_z
 _atom_site_occupancy
  Tb  Tb0  1  0.995808  0.670318  0.250600  1
  Tb  Tb1  1  0.004192  0.329682  0.749400  1
  Ho  Ho2  1  0.670426  0.995733  0.250726  1
  Ho  Ho3  1  0.329574  0.004267  0.749274  1
  Ga  Ga4  1  0.132583  0.132536  0.251928  1
  Ga  Ga5  1  0.867417  0.867464  0.748072  1
  Ga  Ga6  1  0.999011  0.337632  0.081564  1
  Ga  Ga7  1  0.000989  0.662368  0.918436  1
  Ga  Ga8  1  0.001520  0.665667  0.579503  1
  Ga  Ga9  1  0.335421  0.998911  0.420975  1
  Ga  Ga10  1  0.998480  0.334333  0.420497  1
  Ga  Ga11  1  0.664579  0.001089  0.579025  1
  Ga  Ga12  1  0.661246  0.000670  0.918885  1
  Ga  Ga13  1  0.338754  0.999330  0.081115  1
  Ga  Ga14  1  0.332317  0.331990  0.566559  1
  Ga  Ga15  1  0.667683  0.668010  0.433441  1
  Ga  Ga16  1  0.663893  0.664320  0.069176  1
  Ga  Ga17  1  0.336107  0.335680  0.930824  1
  Ga  Ga18  1  0.338508  0.546915  0.250315  1
  Ga  Ga19  1  0.661492  0.453085  0.749685  1
  Ga  Ga20  1  0.546375  0.337803  0.250391  1
  Ga  Ga21  1  0.453625  0.662197  0.749609  1
  Ir  Ir22  1  0.671044  0.328861  0.000242  1
  Ir  Ir23  1  0.328956  0.671139  0.999758  1
  Ir  Ir24  1  0.328880  0.671003  0.499801  1
  Ir  Ir25  1  0.671120  0.328997  0.500199  1
  Ir  Ir26  1  0.000000  0.000000  0.500000  1
  Pt  Pt27  1  0.000000  0.000000  0.000000  1
