# generated using pymatgen
data_Dy6Sn6PtRh5
_symmetry_space_group_name_H-M   'P 1'
_cell_length_a   7.54260300
_cell_length_b   7.54260305
_cell_length_c   7.80465400
_cell_angle_alpha   90.00000000
_cell_angle_beta   90.00000000
_cell_angle_gamma   120.00000534
_symmetry_Int_Tables_number   1
_chemical_formula_structural   Dy6Sn6PtRh5
_chemical_formula_sum   'Dy6 Sn6 Pt1 Rh5'
_cell_volume   384.52693356
_cell_formula_units_Z   1
loop_
 _symmetry_equiv_pos_site_id
 _symmetry_equiv_pos_as_xyz
  1  'x, y, z'
loop_
 _atom_site_type_symbol
 _atom_site_label
 _atom_site_symmetry_multiplicity
 _atom_site_fract_x
 _atom_site_fract_y
 _atom_site_fract_z
 _atom_site_occupancy
  Dy  Dy0  1  0.404629  0.998101  0.249344  1
  Dy  Dy1  1  0.593473  0.595371  0.249344  1
  Dy  Dy2  1  0.001899  0.406527  0.249344  1
  Dy  Dy3  1  0.404483  0.997845  0.750667  1
  Dy  Dy4  1  0.593363  0.595517  0.750667  1
  Dy  Dy5  1  0.002155  0.406637  0.750667  1
  Sn  Sn6  1  0.261009  0.259967  0.999965  1
  Sn  Sn7  1  0.998960  0.738991  0.999965  1
  Sn  Sn8  1  0.004818  0.745449  0.499974  1
  Sn  Sn9  1  0.740630  0.995182  0.499974  1
  Sn  Sn10  1  0.254551  0.259370  0.499974  1
  Sn  Sn11  1  0.740033  0.001040  0.999965  1
  Pt  Pt12  1  0.666667  0.333333  0.500379  1
  Rh  Rh13  1  0.000000  0.000000  0.750875  1
  Rh  Rh14  1  0.000000  0.000000  0.249040  1
  Rh  Rh15  1  0.666667  0.333333  0.999808  1
  Rh  Rh16  1  0.333333  0.666667  0.499751  1
  Rh  Rh17  1  0.333333  0.666667  0.000298  1
