# generated using pymatgen
data_HoMg4P12Ru19
_symmetry_space_group_name_H-M   'P 1'
_cell_length_a   12.42290000
_cell_length_b   12.42290038
_cell_length_c   3.95665700
_cell_angle_alpha   90.00000000
_cell_angle_beta   90.00000000
_cell_angle_gamma   119.99999829
_symmetry_Int_Tables_number   1
_chemical_formula_structural   HoMg4P12Ru19
_chemical_formula_sum   'Ho1 Mg4 P12 Ru19'
_cell_volume   528.81654472
_cell_formula_units_Z   1
loop_
 _symmetry_equiv_pos_site_id
 _symmetry_equiv_pos_as_xyz
  1  'x, y, z'
loop_
 _atom_site_type_symbol
 _atom_site_label
 _atom_site_symmetry_multiplicity
 _atom_site_fract_x
 _atom_site_fract_y
 _atom_site_fract_z
 _atom_site_occupancy
  Ho  Ho0  1  0.333333  0.666667  0.000000  1
  Mg  Mg1  1  0.999810  0.186012  0.500000  1
  Mg  Mg2  1  0.813988  0.813798  0.500000  1
  Mg  Mg3  1  0.186202  0.000190  0.500000  1
  Mg  Mg4  1  0.666667  0.333333  0.000000  1
  P  P5  1  0.998623  0.819182  0.000000  1
  P  P6  1  0.180818  0.179442  0.000000  1
  P  P7  1  0.820558  0.001377  0.000000  1
  P  P8  1  0.700884  0.169463  0.500000  1
  P  P9  1  0.830537  0.531421  0.500000  1
  P  P10  1  0.468579  0.299116  0.500000  1
  P  P11  1  0.171772  0.699580  0.500000  1
  P  P12  1  0.527808  0.828228  0.500000  1
  P  P13  1  0.300420  0.472192  0.500000  1
  P  P14  1  0.998132  0.384382  0.000000  1
  P  P15  1  0.615618  0.613750  0.000000  1
  P  P16  1  0.386250  0.001868  0.000000  1
  Ru  Ru17  1  0.003895  0.567207  0.000000  1
  Ru  Ru18  1  0.432793  0.436688  0.000000  1
  Ru  Ru19  1  0.563312  0.996105  0.000000  1
  Ru  Ru20  1  0.000521  0.728047  0.500000  1
  Ru  Ru21  1  0.271953  0.272474  0.500000  1
  Ru  Ru22  1  0.727526  0.999479  0.500000  1
  Ru  Ru23  1  0.820712  0.189150  0.000000  1
  Ru  Ru24  1  0.810850  0.631562  0.000000  1
  Ru  Ru25  1  0.368438  0.179288  0.000000  1
  Ru  Ru26  1  0.188933  0.825952  0.000000  1
  Ru  Ru27  1  0.637018  0.811067  0.000000  1
  Ru  Ru28  1  0.174048  0.362982  0.000000  1
  Ru  Ru29  1  0.868646  0.371163  0.500000  1
  Ru  Ru30  1  0.628837  0.497483  0.500000  1
  Ru  Ru31  1  0.502517  0.131354  0.500000  1
  Ru  Ru32  1  0.369959  0.875521  0.500000  1
  Ru  Ru33  1  0.505562  0.630041  0.500000  1
  Ru  Ru34  1  0.124479  0.494438  0.500000  1
  Ru  Ru35  1  0.000000  0.000000  0.000000  1
