# generated using pymatgen
data_LaTm3(CuO3)4
_symmetry_space_group_name_H-M   'P 1'
_cell_length_a   3.82163413
_cell_length_b   12.29670408
_cell_length_c   5.33298600
_cell_angle_alpha   90.00000000
_cell_angle_beta   90.00000000
_cell_angle_gamma   90.93869131
_symmetry_Int_Tables_number   1
_chemical_formula_structural   LaTm3(CuO3)4
_chemical_formula_sum   'La1 Tm3 Cu4 O12'
_cell_volume   250.58206591
_cell_formula_units_Z   1
loop_
 _symmetry_equiv_pos_site_id
 _symmetry_equiv_pos_as_xyz
  1  'x, y, z'
loop_
 _atom_site_type_symbol
 _atom_site_label
 _atom_site_symmetry_multiplicity
 _atom_site_fract_x
 _atom_site_fract_y
 _atom_site_fract_z
 _atom_site_occupancy
  La  La0  1  0.721420  0.917398  0.749999  1
  Tm  Tm1  1  0.240953  0.088489  0.250000  1
  Tm  Tm2  1  0.758309  0.576328  0.250000  1
  Tm  Tm3  1  0.263537  0.417859  0.749999  1
  Cu  Cu4  1  0.918771  0.328567  0.250000  1
  Cu  Cu5  1  0.078801  0.824140  0.250000  1
  Cu  Cu6  1  0.910006  0.178829  0.749999  1
  Cu  Cu7  1  0.099884  0.665857  0.749999  1
  O  O8  1  0.161504  0.253745  0.999858  1
  O  O9  1  0.857502  0.738968  0.004471  1
  O  O10  1  0.750034  0.419672  0.006434  1
  O  O11  1  0.232965  0.924524  0.022197  1
  O  O12  1  0.750034  0.419672  0.493567  1
  O  O13  1  0.232965  0.924524  0.477804  1
  O  O14  1  0.161504  0.253745  0.500143  1
  O  O15  1  0.857502  0.738968  0.495530  1
  O  O16  1  0.732381  0.089989  0.502051  1
  O  O17  1  0.269772  0.574368  0.507787  1
  O  O18  1  0.732381  0.089989  0.997950  1
  O  O19  1  0.269772  0.574368  0.992214  1
