# generated using pymatgen
data_TbLuTa3P7Rh9
_symmetry_space_group_name_H-M   'P 1'
_cell_length_a   3.91482300
_cell_length_b   9.62294638
_cell_length_c   9.62303100
_cell_angle_alpha   120.00115528
_cell_angle_beta   90.00170468
_cell_angle_gamma   89.99916114
_symmetry_Int_Tables_number   1
_chemical_formula_structural   TbLuTa3P7Rh9
_chemical_formula_sum   'Tb1 Lu1 Ta3 P7 Rh9'
_cell_volume   313.94795429
_cell_formula_units_Z   1
loop_
 _symmetry_equiv_pos_site_id
 _symmetry_equiv_pos_as_xyz
  1  'x, y, z'
loop_
 _atom_site_type_symbol
 _atom_site_label
 _atom_site_symmetry_multiplicity
 _atom_site_fract_x
 _atom_site_fract_y
 _atom_site_fract_z
 _atom_site_occupancy
  Tb  Tb0  1  0.261262  0.666667  0.333345  1
  Lu  Lu1  1  0.762259  0.333356  0.666663  1
  Ta  Ta2  1  0.761982  0.095009  0.872843  1
  Ta  Ta3  1  0.761982  0.127159  0.222160  1
  Ta  Ta4  1  0.761990  0.777813  0.904993  1
  P  P5  1  0.262115  0.999985  0.999997  1
  P  P6  1  0.761652  0.877108  0.589009  1
  P  P7  1  0.761627  0.410997  0.288082  1
  P  P8  1  0.761652  0.711911  0.122921  1
  P  P9  1  0.262019  0.118242  0.416968  1
  P  P10  1  0.262007  0.583036  0.701270  1
  P  P11  1  0.261977  0.298725  0.881765  1
  Rh  Rh12  1  0.261849  0.885128  0.161243  1
  Rh  Rh13  1  0.261844  0.838761  0.723883  1
  Rh  Rh14  1  0.261833  0.276095  0.114864  1
  Rh  Rh15  1  0.761921  0.611468  0.557977  1
  Rh  Rh16  1  0.761904  0.441992  0.053459  1
  Rh  Rh17  1  0.761927  0.946555  0.388540  1
  Rh  Rh18  1  0.262053  0.367352  0.440210  1
  Rh  Rh19  1  0.262060  0.559778  0.927148  1
  Rh  Rh20  1  0.262087  0.072862  0.632659  1
