# generated using pymatgen
data_Tb2Er3RuRh
_symmetry_space_group_name_H-M   'P 1'
_cell_length_a   6.36781700
_cell_length_b   7.24571992
_cell_length_c   8.49021202
_cell_angle_alpha   96.81393959
_cell_angle_beta   112.02487640
_cell_angle_gamma   89.99999936
_symmetry_Int_Tables_number   1
_chemical_formula_structural   Tb2Er3RuRh
_chemical_formula_sum   'Tb4 Er6 Ru2 Rh2'
_cell_volume   360.15867244
_cell_formula_units_Z   2
loop_
 _symmetry_equiv_pos_site_id
 _symmetry_equiv_pos_as_xyz
  1  'x, y, z'
loop_
 _atom_site_type_symbol
 _atom_site_label
 _atom_site_symmetry_multiplicity
 _atom_site_fract_x
 _atom_site_fract_y
 _atom_site_fract_z
 _atom_site_occupancy
  Tb  Tb0  1  0.791473  0.582033  0.810912  1
  Tb  Tb1  1  0.980561  0.917967  0.189088  1
  Tb  Tb2  1  0.211065  0.414865  0.186614  1
  Tb  Tb3  1  0.024451  0.085135  0.813386  1
  Er  Er4  1  0.207341  0.683879  0.565844  1
  Er  Er5  1  0.641497  0.816121  0.434156  1
  Er  Er6  1  0.792737  0.312657  0.436488  1
  Er  Er7  1  0.356249  0.187343  0.563512  1
  Er  Er8  1  0.420224  0.750000  0.000000  1
  Er  Er9  1  0.577773  0.250000  0.000000  1
  Ru  Ru10  1  0.399792  0.074560  0.221164  1
  Ru  Ru11  1  0.178628  0.425440  0.778836  1
  Rh  Rh12  1  0.597894  0.924425  0.777575  1
  Rh  Rh13  1  0.820317  0.575575  0.222425  1
