# generated using pymatgen
data_Ac2Zn5Ge3
_symmetry_space_group_name_H-M   'P 1'
_cell_length_a   8.84381355
_cell_length_b   8.84440106
_cell_length_c   8.84445192
_cell_angle_alpha   138.60445792
_cell_angle_beta   107.27453787
_cell_angle_gamma   87.30041486
_symmetry_Int_Tables_number   1
_chemical_formula_structural   Ac2Zn5Ge3
_chemical_formula_sum   'Ac4 Zn10 Ge6'
_cell_volume   419.57497517
_cell_formula_units_Z   2
loop_
 _symmetry_equiv_pos_site_id
 _symmetry_equiv_pos_as_xyz
  1  'x, y, z'
loop_
 _atom_site_type_symbol
 _atom_site_label
 _atom_site_symmetry_multiplicity
 _atom_site_fract_x
 _atom_site_fract_y
 _atom_site_fract_z
 _atom_site_occupancy
  Ac  Ac0  1  0.636311  0.375108  0.261205  1
  Ac  Ac1  1  0.363689  0.624892  0.738795  1
  Ac  Ac2  1  0.113889  0.875105  0.238786  1
  Ac  Ac3  1  0.886111  0.124895  0.761214  1
  Zn  Zn4  1  0.500002  0.249985  0.749982  1
  Zn  Zn5  1  0.499998  0.750015  0.250018  1
  Zn  Zn6  1  0.266163  0.516163  0.249997  1
  Zn  Zn7  1  0.733840  0.983841  0.250001  1
  Zn  Zn8  1  0.733837  0.483837  0.750003  1
  Zn  Zn9  1  0.266160  0.016159  0.749999  1
  Zn  Zn10  1  0.019782  0.637593  0.382174  1
  Zn  Zn11  1  0.980218  0.362407  0.617826  1
  Zn  Zn12  1  0.255413  0.137603  0.117822  1
  Zn  Zn13  1  0.744587  0.862397  0.882178  1
  Ge  Ge14  1  0.999996  0.750035  0.750055  1
  Ge  Ge15  1  0.000004  0.249965  0.249945  1
  Ge  Ge16  1  0.477598  0.118294  0.359295  1
  Ge  Ge17  1  0.522402  0.881706  0.640705  1
  Ge  Ge18  1  0.758982  0.618300  0.140704  1
  Ge  Ge19  1  0.241018  0.381700  0.859296  1
