# generated using pymatgen
data_CaYb(Al3Ni)3
_symmetry_space_group_name_H-M   'P 1'
_cell_length_a   7.43932807
_cell_length_b   7.43916246
_cell_length_c   9.29971500
_cell_angle_alpha   90.00000000
_cell_angle_beta   90.00000000
_cell_angle_gamma   119.30651966
_symmetry_Int_Tables_number   1
_chemical_formula_structural   CaYb(Al3Ni)3
_chemical_formula_sum   'Ca2 Yb2 Al18 Ni6'
_cell_volume   448.79772040
_cell_formula_units_Z   2
loop_
 _symmetry_equiv_pos_site_id
 _symmetry_equiv_pos_as_xyz
  1  'x, y, z'
loop_
 _atom_site_type_symbol
 _atom_site_label
 _atom_site_symmetry_multiplicity
 _atom_site_fract_x
 _atom_site_fract_y
 _atom_site_fract_z
 _atom_site_occupancy
  Ca  Ca0  1  0.994115  0.672063  0.250000  1
  Ca  Ca1  1  0.005885  0.327937  0.750000  1
  Yb  Yb2  1  0.671853  0.994321  0.250000  1
  Yb  Yb3  1  0.328147  0.005679  0.750000  1
  Al  Al4  1  0.125910  0.126294  0.250000  1
  Al  Al5  1  0.874090  0.873706  0.750000  1
  Al  Al6  1  0.331236  0.331153  0.544030  1
  Al  Al7  1  0.668764  0.668847  0.044030  1
  Al  Al8  1  0.331236  0.331153  0.955970  1
  Al  Al9  1  0.668764  0.668847  0.455970  1
  Al  Al10  1  0.341123  0.552271  0.250000  1
  Al  Al11  1  0.658877  0.447729  0.750000  1
  Al  Al12  1  0.551768  0.339930  0.250000  1
  Al  Al13  1  0.448232  0.660070  0.750000  1
  Al  Al14  1  0.996990  0.334831  0.073221  1
  Al  Al15  1  0.003010  0.665169  0.573221  1
  Al  Al16  1  0.335078  0.997368  0.427076  1
  Al  Al17  1  0.664922  0.002632  0.927076  1
  Al  Al18  1  0.003010  0.665169  0.926779  1
  Al  Al19  1  0.996990  0.334831  0.426779  1
  Al  Al20  1  0.664922  0.002632  0.572924  1
  Al  Al21  1  0.335078  0.997368  0.072924  1
  Ni  Ni22  1  0.000000  0.000000  0.000000  1
  Ni  Ni23  1  0.000000  0.000000  0.500000  1
  Ni  Ni24  1  0.669161  0.328775  0.999944  1
  Ni  Ni25  1  0.330839  0.671225  0.499944  1
  Ni  Ni26  1  0.330839  0.671225  0.000056  1
  Ni  Ni27  1  0.669161  0.328775  0.500056  1
