# generated using pymatgen
data_Sc3AlAu2O
_symmetry_space_group_name_H-M   'P 1'
_cell_length_a   8.74846754
_cell_length_b   8.74846725
_cell_length_c   8.74846800
_cell_angle_alpha   59.99999716
_cell_angle_beta   59.99999826
_cell_angle_gamma   59.99999119
_symmetry_Int_Tables_number   1
_chemical_formula_structural   Sc3AlAu2O
_chemical_formula_sum   'Sc12 Al4 Au8 O4'
_cell_volume   473.45741314
_cell_formula_units_Z   4
loop_
 _symmetry_equiv_pos_site_id
 _symmetry_equiv_pos_as_xyz
  1  'x, y, z'
loop_
 _atom_site_type_symbol
 _atom_site_label
 _atom_site_symmetry_multiplicity
 _atom_site_fract_x
 _atom_site_fract_y
 _atom_site_fract_z
 _atom_site_occupancy
  Sc  Sc0  1  0.812549  0.812549  0.187451  1
  Sc  Sc1  1  0.187451  0.187451  0.812549  1
  Sc  Sc2  1  0.812549  0.187451  0.812549  1
  Sc  Sc3  1  0.187451  0.812549  0.187451  1
  Sc  Sc4  1  0.187451  0.812549  0.812549  1
  Sc  Sc5  1  0.812549  0.187451  0.187451  1
  Sc  Sc6  1  0.437451  0.437451  0.062549  1
  Sc  Sc7  1  0.062549  0.062549  0.437451  1
  Sc  Sc8  1  0.437451  0.062549  0.437451  1
  Sc  Sc9  1  0.062549  0.437451  0.062549  1
  Sc  Sc10  1  0.062549  0.437451  0.437451  1
  Sc  Sc11  1  0.437451  0.062549  0.062549  1
  Al  Al12  1  0.125000  0.625000  0.625000  1
  Al  Al13  1  0.625000  0.125000  0.625000  1
  Al  Al14  1  0.625000  0.625000  0.125000  1
  Al  Al15  1  0.625000  0.625000  0.625000  1
  Au  Au16  1  0.767791  0.410736  0.410736  1
  Au  Au17  1  0.410736  0.767791  0.410736  1
  Au  Au18  1  0.410736  0.410736  0.767791  1
  Au  Au19  1  0.410736  0.410736  0.410736  1
  Au  Au20  1  0.482209  0.839264  0.839264  1
  Au  Au21  1  0.839264  0.482209  0.839264  1
  Au  Au22  1  0.839264  0.839264  0.482209  1
  Au  Au23  1  0.839264  0.839264  0.839264  1
  O  O24  1  0.625000  0.125000  0.125000  1
  O  O25  1  0.125000  0.625000  0.125000  1
  O  O26  1  0.125000  0.125000  0.625000  1
  O  O27  1  0.125000  0.125000  0.125000  1
