# generated using pymatgen
data_Tm(HfPd4)3
_symmetry_space_group_name_H-M   'P 1'
_cell_length_a   5.69743100
_cell_length_b   5.69743127
_cell_length_c   9.33336300
_cell_angle_alpha   90.00000000
_cell_angle_beta   90.00000000
_cell_angle_gamma   120.00000427
_symmetry_Int_Tables_number   1
_chemical_formula_structural   Tm(HfPd4)3
_chemical_formula_sum   'Tm1 Hf3 Pd12'
_cell_volume   262.37771094
_cell_formula_units_Z   1
loop_
 _symmetry_equiv_pos_site_id
 _symmetry_equiv_pos_as_xyz
  1  'x, y, z'
loop_
 _atom_site_type_symbol
 _atom_site_label
 _atom_site_symmetry_multiplicity
 _atom_site_fract_x
 _atom_site_fract_y
 _atom_site_fract_z
 _atom_site_occupancy
  Tm  Tm0  1  0.000000  0.000000  0.500000  1
  Hf  Hf1  1  0.666667  0.333333  0.748019  1
  Hf  Hf2  1  0.333333  0.666667  0.251981  1
  Hf  Hf3  1  0.000000  0.000000  0.000000  1
  Pd  Pd4  1  0.170490  0.340980  0.754398  1
  Pd  Pd5  1  0.829510  0.170490  0.245602  1
  Pd  Pd6  1  0.340980  0.170490  0.245602  1
  Pd  Pd7  1  0.659020  0.829510  0.754398  1
  Pd  Pd8  1  0.500000  0.000000  0.000000  1
  Pd  Pd9  1  0.500000  0.500000  0.500000  1
  Pd  Pd10  1  0.000000  0.500000  0.500000  1
  Pd  Pd11  1  0.000000  0.500000  0.000000  1
  Pd  Pd12  1  0.500000  0.500000  0.000000  1
  Pd  Pd13  1  0.500000  0.000000  0.500000  1
  Pd  Pd14  1  0.829510  0.659020  0.245602  1
  Pd  Pd15  1  0.170490  0.829510  0.754398  1
