# generated using pymatgen
data_La4TlV3F28
_symmetry_space_group_name_H-M   'P 1'
_cell_length_a   5.77023144
_cell_length_b   9.31956443
_cell_length_c   12.40388400
_cell_angle_alpha   62.66845455
_cell_angle_beta   90.10364466
_cell_angle_gamma   89.96120935
_symmetry_Int_Tables_number   1
_chemical_formula_structural   La4TlV3F28
_chemical_formula_sum   'La4 Tl1 V3 F28'
_cell_volume   592.56560772
_cell_formula_units_Z   1
loop_
 _symmetry_equiv_pos_site_id
 _symmetry_equiv_pos_as_xyz
  1  'x, y, z'
loop_
 _atom_site_type_symbol
 _atom_site_label
 _atom_site_symmetry_multiplicity
 _atom_site_fract_x
 _atom_site_fract_y
 _atom_site_fract_z
 _atom_site_occupancy
  La  La0  1  0.754853  0.812508  0.262975  1
  La  La1  1  0.256572  0.186689  0.229773  1
  La  La2  1  0.238108  0.188009  0.745603  1
  La  La3  1  0.740598  0.801299  0.777022  1
  Tl  Tl4  1  0.247420  0.729952  0.540565  1
  V  V5  1  0.744013  0.272441  0.959715  1
  V  V6  1  0.757144  0.277584  0.452729  1
  V  V7  1  0.251926  0.718947  0.048716  1
  F  F8  1  0.935592  0.710554  0.449268  1
  F  F9  1  0.470967  0.284754  0.041991  1
  F  F10  1  0.017985  0.282987  0.533546  1
  F  F11  1  0.518400  0.707488  0.962086  1
  F  F12  1  0.054285  0.705225  0.932323  1
  F  F13  1  0.574752  0.294978  0.564039  1
  F  F14  1  0.936185  0.287065  0.078687  1
  F  F15  1  0.451171  0.704860  0.403603  1
  F  F16  1  0.738354  0.492339  0.872296  1
  F  F17  1  0.231376  0.463323  0.642252  1
  F  F18  1  0.259099  0.496423  0.139497  1
  F  F19  1  0.769192  0.495454  0.364366  1
  F  F20  1  0.736903  0.051020  0.045509  1
  F  F21  1  0.227862  0.996266  0.434444  1
  F  F22  1  0.256844  0.941098  0.959069  1
  F  F23  1  0.754548  0.061567  0.535163  1
  F  F24  1  0.049606  0.754658  0.680613  1
  F  F25  1  0.555668  0.251854  0.840277  1
  F  F26  1  0.936798  0.266217  0.334955  1
  F  F27  1  0.452066  0.738499  0.162713  1
  F  F28  1  0.012155  0.259933  0.876260  1
  F  F29  1  0.549846  0.732298  0.643965  1
  F  F30  1  0.989049  0.726126  0.137250  1
  F  F31  1  0.500710  0.277043  0.366505  1
  F  F32  1  0.096220  0.970292  0.221823  1
  F  F33  1  0.598074  0.040169  0.267418  1
  F  F34  1  0.909469  0.036680  0.765397  1
  F  F35  1  0.426192  0.983404  0.727586  1
