# generated using pymatgen
data_Ga4Sb2O9
_symmetry_space_group_name_H-M   'P 1'
_cell_length_a   5.97129900
_cell_length_b   8.10261400
_cell_length_c   8.30376000
_cell_angle_alpha   90.00000000
_cell_angle_beta   90.00000000
_cell_angle_gamma   90.00000000
_symmetry_Int_Tables_number   1
_chemical_formula_structural   Ga4Sb2O9
_chemical_formula_sum   'Ga8 Sb4 O18'
_cell_volume   401.76190684
_cell_formula_units_Z   2
loop_
 _symmetry_equiv_pos_site_id
 _symmetry_equiv_pos_as_xyz
  1  'x, y, z'
loop_
 _atom_site_type_symbol
 _atom_site_label
 _atom_site_symmetry_multiplicity
 _atom_site_fract_x
 _atom_site_fract_y
 _atom_site_fract_z
 _atom_site_occupancy
  Ga  Ga0  1  0.500000  0.150132  0.659878  1
  Ga  Ga1  1  0.500000  0.849868  0.340122  1
  Ga  Ga2  1  0.500000  0.650132  0.840122  1
  Ga  Ga3  1  0.500000  0.349868  0.159878  1
  Ga  Ga4  1  0.258633  0.500000  0.500000  1
  Ga  Ga5  1  0.741367  0.000000  0.000000  1
  Ga  Ga6  1  0.741367  0.500000  0.500000  1
  Ga  Ga7  1  0.258633  0.000000  0.000000  1
  Sb  Sb8  1  0.000000  0.310721  0.820868  1
  Sb  Sb9  1  0.000000  0.689279  0.179132  1
  Sb  Sb10  1  0.000000  0.810721  0.679132  1
  Sb  Sb11  1  0.000000  0.189279  0.320868  1
  O  O12  1  0.500000  0.500000  0.000000  1
  O  O13  1  0.500000  0.000000  0.500000  1
  O  O14  1  0.240799  0.864752  0.207131  1
  O  O15  1  0.240799  0.135248  0.792869  1
  O  O16  1  0.759201  0.364752  0.292869  1
  O  O17  1  0.759201  0.635248  0.707131  1
  O  O18  1  0.759201  0.135248  0.792869  1
  O  O19  1  0.759201  0.864752  0.207131  1
  O  O20  1  0.240799  0.635248  0.707131  1
  O  O21  1  0.240799  0.364752  0.292869  1
  O  O22  1  0.500000  0.370630  0.595100  1
  O  O23  1  0.500000  0.629370  0.404900  1
  O  O24  1  0.000000  0.147482  0.071571  1
  O  O25  1  0.000000  0.852518  0.928429  1
  O  O26  1  0.000000  0.647482  0.428429  1
  O  O27  1  0.000000  0.352518  0.571571  1
  O  O28  1  0.500000  0.129370  0.095100  1
  O  O29  1  0.500000  0.870630  0.904900  1
