# generated using pymatgen
data_PrTm2U(Al3Ir)6
_symmetry_space_group_name_H-M   'P 1'
_cell_length_a   7.56845207
_cell_length_b   7.56963573
_cell_length_c   9.40136800
_cell_angle_alpha   90.00000000
_cell_angle_beta   90.00000000
_cell_angle_gamma   119.52733205
_symmetry_Int_Tables_number   1
_chemical_formula_structural   PrTm2U(Al3Ir)6
_chemical_formula_sum   'Pr1 Tm2 U1 Al18 Ir6'
_cell_volume   468.65428857
_cell_formula_units_Z   1
loop_
 _symmetry_equiv_pos_site_id
 _symmetry_equiv_pos_as_xyz
  1  'x, y, z'
loop_
 _atom_site_type_symbol
 _atom_site_label
 _atom_site_symmetry_multiplicity
 _atom_site_fract_x
 _atom_site_fract_y
 _atom_site_fract_z
 _atom_site_occupancy
  Pr  Pr0  1  0.005630  0.329207  0.750000  1
  Tm  Tm1  1  0.672085  0.993728  0.250000  1
  Tm  Tm2  1  0.329265  0.004566  0.750000  1
  U  U3  1  0.998411  0.673962  0.250000  1
  Al  Al4  1  0.132575  0.130131  0.250000  1
  Al  Al5  1  0.871832  0.871197  0.750000  1
  Al  Al6  1  0.999912  0.333223  0.079344  1
  Al  Al7  1  0.998962  0.666761  0.924863  1
  Al  Al8  1  0.998962  0.666761  0.575137  1
  Al  Al9  1  0.338726  0.003092  0.423545  1
  Al  Al10  1  0.999912  0.333223  0.420656  1
  Al  Al11  1  0.662515  0.997694  0.573076  1
  Al  Al12  1  0.662515  0.997694  0.926924  1
  Al  Al13  1  0.338726  0.003092  0.076455  1
  Al  Al14  1  0.333848  0.331916  0.551597  1
  Al  Al15  1  0.664086  0.665980  0.446269  1
  Al  Al16  1  0.664086  0.665980  0.053731  1
  Al  Al17  1  0.333848  0.331916  0.948403  1
  Al  Al18  1  0.339873  0.548409  0.250000  1
  Al  Al19  1  0.655514  0.448484  0.750000  1
  Al  Al20  1  0.549725  0.342923  0.250000  1
  Al  Al21  1  0.453161  0.664047  0.750000  1
  Ir  Ir22  1  0.672876  0.329345  0.003221  1
  Ir  Ir23  1  0.326669  0.673093  0.003824  1
  Ir  Ir24  1  0.326669  0.673093  0.496176  1
  Ir  Ir25  1  0.672876  0.329345  0.496779  1
  Ir  Ir26  1  0.998370  0.995571  0.005049  1
  Ir  Ir27  1  0.998370  0.995571  0.494951  1
