# generated using pymatgen
data_Li2Dy2SnBi
_symmetry_space_group_name_H-M   'P 1'
_cell_length_a   9.53000500
_cell_length_b   9.52425142
_cell_length_c   7.20858240
_cell_angle_alpha   89.96835612
_cell_angle_beta   90.00000000
_cell_angle_gamma   120.01998193
_symmetry_Int_Tables_number   1
_chemical_formula_structural   Li2Dy2SnBi
_chemical_formula_sum   'Li8 Dy8 Sn4 Bi4'
_cell_volume   566.52216896
_cell_formula_units_Z   4
loop_
 _symmetry_equiv_pos_site_id
 _symmetry_equiv_pos_as_xyz
  1  'x, y, z'
loop_
 _atom_site_type_symbol
 _atom_site_label
 _atom_site_symmetry_multiplicity
 _atom_site_fract_x
 _atom_site_fract_y
 _atom_site_fract_z
 _atom_site_occupancy
  Li  Li0  1  0.167198  0.334396  0.267506  1
  Li  Li1  1  0.170941  0.834117  0.277305  1
  Li  Li2  1  0.663176  0.834117  0.277305  1
  Li  Li3  1  0.831645  0.663290  0.777764  1
  Li  Li4  1  0.830245  0.168379  0.785470  1
  Li  Li5  1  0.338134  0.168379  0.785470  1
  Li  Li6  1  0.334120  0.668241  0.678331  1
  Li  Li7  1  0.664667  0.329334  0.185686  1
  Dy  Dy8  1  0.513545  0.027090  0.490951  1
  Dy  Dy9  1  0.505797  0.483896  0.491386  1
  Dy  Dy10  1  0.978100  0.483896  0.491386  1
  Dy  Dy11  1  0.492011  0.984022  0.999902  1
  Dy  Dy12  1  0.488983  0.505676  0.996869  1
  Dy  Dy13  1  0.016692  0.505676  0.996869  1
  Dy  Dy14  1  0.003106  0.006211  0.496424  1
  Dy  Dy15  1  0.001902  0.003804  0.005895  1
  Sn  Sn16  1  0.833908  0.166279  0.236249  1
  Sn  Sn17  1  0.332371  0.166279  0.236249  1
  Sn  Sn18  1  0.332773  0.665547  0.256752  1
  Sn  Sn19  1  0.667351  0.334702  0.758891  1
  Bi  Bi20  1  0.166568  0.333136  0.738261  1
  Bi  Bi21  1  0.166062  0.833320  0.736419  1
  Bi  Bi22  1  0.667258  0.833320  0.736419  1
  Bi  Bi23  1  0.833446  0.666893  0.238236  1
