# generated using pymatgen
data_DyY3(As4O9)2
_symmetry_space_group_name_H-M   'P 1'
_cell_length_a   6.76448338
_cell_length_b   7.56491200
_cell_length_c   9.83385006
_cell_angle_alpha   94.98306130
_cell_angle_beta   104.19127804
_cell_angle_gamma   104.69759063
_symmetry_Int_Tables_number   1
_chemical_formula_structural   DyY3(As4O9)2
_chemical_formula_sum   'Dy1 Y3 As8 O18'
_cell_volume   465.90405026
_cell_formula_units_Z   1
loop_
 _symmetry_equiv_pos_site_id
 _symmetry_equiv_pos_as_xyz
  1  'x, y, z'
loop_
 _atom_site_type_symbol
 _atom_site_label
 _atom_site_symmetry_multiplicity
 _atom_site_fract_x
 _atom_site_fract_y
 _atom_site_fract_z
 _atom_site_occupancy
  Dy  Dy0  1  0.278905  0.469732  0.590530  1
  Y  Y1  1  0.244175  0.939567  0.615434  1
  Y  Y2  1  0.755894  0.060534  0.384593  1
  Y  Y3  1  0.721193  0.530638  0.409458  1
  As  As4  1  0.681536  0.774862  0.077711  1
  As  As5  1  0.318439  0.225185  0.922147  1
  As  As6  1  0.171825  0.752798  0.912529  1
  As  As7  1  0.828183  0.247134  0.087353  1
  As  As8  1  0.743997  0.915660  0.709394  1
  As  As9  1  0.255720  0.084228  0.290577  1
  As  As10  1  0.809363  0.350723  0.701394  1
  As  As11  1  0.190640  0.649355  0.298576  1
  O  O12  1  0.722623  0.749764  0.258090  1
  O  O13  1  0.277453  0.250562  0.741841  1
  O  O14  1  0.316083  0.978682  0.870389  1
  O  O15  1  0.683910  0.021291  0.129602  1
  O  O16  1  0.607772  0.324064  0.985507  1
  O  O17  1  0.392210  0.675945  0.014495  1
  O  O18  1  0.128470  0.646506  0.737953  1
  O  O19  1  0.871811  0.353346  0.261960  1
  O  O20  1  0.846457  0.874595  0.559260  1
  O  O21  1  0.153614  0.125601  0.440809  1
  O  O22  1  0.484164  0.768446  0.666492  1
  O  O23  1  0.515696  0.231139  0.333409  1
  O  O24  1  0.372165  0.534011  0.379411  1
  O  O25  1  0.627249  0.465773  0.620901  1
  O  O26  1  0.089855  0.669540  0.453490  1
  O  O27  1  0.910624  0.330407  0.546701  1
  O  O28  1  0.376023  0.899035  0.358964  1
  O  O29  1  0.623951  0.100878  0.641034  1
