# generated using pymatgen
data_Sc9GaTc11Ge15
_symmetry_space_group_name_H-M   'P 1'
_cell_length_a   6.80537439
_cell_length_b   6.83277789
_cell_length_c   12.76879700
_cell_angle_alpha   90.00000000
_cell_angle_beta   90.00000000
_cell_angle_gamma   90.60753501
_symmetry_Int_Tables_number   1
_chemical_formula_structural   Sc9GaTc11Ge15
_chemical_formula_sum   'Sc9 Ga1 Tc11 Ge15'
_cell_volume   593.71072351
_cell_formula_units_Z   1
loop_
 _symmetry_equiv_pos_site_id
 _symmetry_equiv_pos_as_xyz
  1  'x, y, z'
loop_
 _atom_site_type_symbol
 _atom_site_label
 _atom_site_symmetry_multiplicity
 _atom_site_fract_x
 _atom_site_fract_y
 _atom_site_fract_z
 _atom_site_occupancy
  Sc  Sc0  1  0.478592  0.671649  0.589772  1
  Sc  Sc1  1  0.988414  0.829980  0.906235  1
  Sc  Sc2  1  0.516180  0.330443  0.089262  1
  Sc  Sc3  1  0.014114  0.172321  0.409291  1
  Sc  Sc4  1  0.516180  0.330443  0.410738  1
  Sc  Sc5  1  0.014114  0.172321  0.090709  1
  Sc  Sc6  1  0.478592  0.671649  0.910228  1
  Sc  Sc7  1  0.988414  0.829980  0.593765  1
  Sc  Sc8  1  0.666714  0.989993  0.250000  1
  Ga  Ga9  1  0.465213  0.356701  0.750000  1
  Tc  Tc10  1  0.688462  0.137559  0.631272  1
  Tc  Tc11  1  0.157935  0.355520  0.888628  1
  Tc  Tc12  1  0.337486  0.860634  0.124936  1
  Tc  Tc13  1  0.817574  0.646717  0.376314  1
  Tc  Tc14  1  0.337486  0.860634  0.375064  1
  Tc  Tc15  1  0.817574  0.646717  0.123686  1
  Tc  Tc16  1  0.688462  0.137559  0.868728  1
  Tc  Tc17  1  0.157935  0.355520  0.611372  1
  Tc  Tc18  1  0.826837  0.502790  0.750000  1
  Tc  Tc19  1  0.329520  0.981984  0.750000  1
  Tc  Tc20  1  0.170858  0.507095  0.250000  1
  Ge  Ge21  1  0.679721  0.955502  0.459011  1
  Ge  Ge22  1  0.169569  0.555816  0.051799  1
  Ge  Ge23  1  0.333313  0.053183  0.949111  1
  Ge  Ge24  1  0.817069  0.454636  0.549686  1
  Ge  Ge25  1  0.333313  0.053183  0.550889  1
  Ge  Ge26  1  0.817069  0.454636  0.950314  1
  Ge  Ge27  1  0.679721  0.955502  0.040989  1
  Ge  Ge28  1  0.169569  0.555816  0.448201  1
  Ge  Ge29  1  0.988562  0.138491  0.750000  1
  Ge  Ge30  1  0.520596  0.622463  0.250000  1
  Ge  Ge31  1  0.038752  0.865699  0.250000  1
  Ge  Ge32  1  0.683059  0.838447  0.750000  1
  Ge  Ge33  1  0.184590  0.634030  0.750000  1
  Ge  Ge34  1  0.310718  0.161924  0.250000  1
  Ge  Ge35  1  0.817722  0.352462  0.250000  1
