# generated using pymatgen
data_U4SnBiIr4
_symmetry_space_group_name_H-M   'P 1'
_cell_length_a   7.76939800
_cell_length_b   7.76939800
_cell_length_c   3.54250100
_cell_angle_alpha   90.00000000
_cell_angle_beta   90.00000000
_cell_angle_gamma   90.00000000
_symmetry_Int_Tables_number   1
_chemical_formula_structural   U4SnBiIr4
_chemical_formula_sum   'U4 Sn1 Bi1 Ir4'
_cell_volume   213.83791953
_cell_formula_units_Z   1
loop_
 _symmetry_equiv_pos_site_id
 _symmetry_equiv_pos_as_xyz
  1  'x, y, z'
loop_
 _atom_site_type_symbol
 _atom_site_label
 _atom_site_symmetry_multiplicity
 _atom_site_fract_x
 _atom_site_fract_y
 _atom_site_fract_z
 _atom_site_occupancy
  U  U0  1  0.171779  0.335893  0.000000  1
  U  U1  1  0.828221  0.664107  0.000000  1
  U  U2  1  0.664107  0.171779  0.000000  1
  U  U3  1  0.335893  0.828221  0.000000  1
  Sn  Sn4  1  0.500000  0.500000  0.500000  1
  Bi  Bi5  1  0.000000  0.000000  0.500000  1
  Ir  Ir6  1  0.373437  0.139019  0.500000  1
  Ir  Ir7  1  0.626563  0.860981  0.500000  1
  Ir  Ir8  1  0.860981  0.373437  0.500000  1
  Ir  Ir9  1  0.139019  0.626563  0.500000  1
