# generated using pymatgen
data_Sm2HoSi6(Pd9Pt)2
_symmetry_space_group_name_H-M   'P 1'
_cell_length_a   8.75627756
_cell_length_b   8.75627842
_cell_length_c   8.75627928
_cell_angle_alpha   59.77819137
_cell_angle_beta   59.77818990
_cell_angle_gamma   59.77818765
_symmetry_Int_Tables_number   1
_chemical_formula_structural   Sm2HoSi6(Pd9Pt)2
_chemical_formula_sum   'Sm2 Ho1 Si6 Pd18 Pt2'
_cell_volume   472.33602591
_cell_formula_units_Z   1
loop_
 _symmetry_equiv_pos_site_id
 _symmetry_equiv_pos_as_xyz
  1  'x, y, z'
loop_
 _atom_site_type_symbol
 _atom_site_label
 _atom_site_symmetry_multiplicity
 _atom_site_fract_x
 _atom_site_fract_y
 _atom_site_fract_z
 _atom_site_occupancy
  Sm  Sm0  1  0.250617  0.250617  0.250617  1
  Sm  Sm1  1  0.749383  0.749383  0.749383  1
  Ho  Ho2  1  0.000000  0.000000  0.000000  1
  Si  Si3  1  0.731113  0.267529  0.267529  1
  Si  Si4  1  0.268887  0.732471  0.732471  1
  Si  Si5  1  0.267529  0.731113  0.267529  1
  Si  Si6  1  0.732471  0.268887  0.732471  1
  Si  Si7  1  0.267529  0.267529  0.731113  1
  Si  Si8  1  0.732471  0.732471  0.268887  1
  Pd  Pd9  1  0.382858  0.382858  0.847705  1
  Pd  Pd10  1  0.382858  0.847705  0.382858  1
  Pd  Pd11  1  0.617142  0.617142  0.152295  1
  Pd  Pd12  1  0.617142  0.152295  0.617142  1
  Pd  Pd13  1  0.847705  0.382858  0.382858  1
  Pd  Pd14  1  0.152295  0.617142  0.617142  1
  Pd  Pd15  1  0.344736  0.000229  0.000229  1
  Pd  Pd16  1  0.655264  0.999771  0.999771  1
  Pd  Pd17  1  0.000000  0.344742  0.655258  1
  Pd  Pd18  1  0.000000  0.655258  0.344742  1
  Pd  Pd19  1  0.000229  0.344736  0.000229  1
  Pd  Pd20  1  0.655258  0.000000  0.344742  1
  Pd  Pd21  1  0.999771  0.655264  0.999771  1
  Pd  Pd22  1  0.344742  0.000000  0.655258  1
  Pd  Pd23  1  0.000229  0.000229  0.344736  1
  Pd  Pd24  1  0.999771  0.999771  0.655264  1
  Pd  Pd25  1  0.655258  0.344742  0.000000  1
  Pd  Pd26  1  0.344742  0.655258  0.000000  1
  Pt  Pt27  1  0.385946  0.385946  0.385946  1
  Pt  Pt28  1  0.614054  0.614054  0.614054  1
