# generated using pymatgen
data_Eu3Ag(Ir2O7)2
_symmetry_space_group_name_H-M   'P 1'
_cell_length_a   7.25501956
_cell_length_b   7.25502081
_cell_length_c   7.25502000
_cell_angle_alpha   61.42300105
_cell_angle_beta   61.42299565
_cell_angle_gamma   61.42299483
_symmetry_Int_Tables_number   1
_chemical_formula_structural   Eu3Ag(Ir2O7)2
_chemical_formula_sum   'Eu3 Ag1 Ir4 O14'
_cell_volume   278.65295928
_cell_formula_units_Z   1
loop_
 _symmetry_equiv_pos_site_id
 _symmetry_equiv_pos_as_xyz
  1  'x, y, z'
loop_
 _atom_site_type_symbol
 _atom_site_label
 _atom_site_symmetry_multiplicity
 _atom_site_fract_x
 _atom_site_fract_y
 _atom_site_fract_z
 _atom_site_occupancy
  Eu  Eu0  1  0.625000  0.125000  0.125000  1
  Eu  Eu1  1  0.125000  0.625000  0.125000  1
  Eu  Eu2  1  0.125000  0.125000  0.625000  1
  Ag  Ag3  1  0.125000  0.125000  0.125000  1
  Ir  Ir4  1  0.125000  0.625000  0.625000  1
  Ir  Ir5  1  0.625000  0.125000  0.625000  1
  Ir  Ir6  1  0.625000  0.625000  0.125000  1
  Ir  Ir7  1  0.625000  0.625000  0.625000  1
  O  O8  1  0.705946  0.705946  0.296094  1
  O  O9  1  0.303122  0.303122  0.693455  1
  O  O10  1  0.705946  0.296094  0.705946  1
  O  O11  1  0.303122  0.693455  0.303122  1
  O  O12  1  0.296094  0.705946  0.705946  1
  O  O13  1  0.693455  0.303122  0.303122  1
  O  O14  1  0.544054  0.544054  0.953906  1
  O  O15  1  0.946878  0.946878  0.556545  1
  O  O16  1  0.544054  0.953906  0.544054  1
  O  O17  1  0.946878  0.556545  0.946878  1
  O  O18  1  0.953906  0.544054  0.544054  1
  O  O19  1  0.556545  0.946878  0.946878  1
  O  O20  1  0.246398  0.246398  0.246398  1
  O  O21  1  0.003602  0.003602  0.003602  1
