# generated using pymatgen
data_PrEr4(TcB3)2
_symmetry_space_group_name_H-M   'P 1'
_cell_length_a   8.66311920
_cell_length_b   8.66311887
_cell_length_c   8.66311998
_cell_angle_alpha   37.04671759
_cell_angle_beta   37.04672288
_cell_angle_gamma   37.04671793
_symmetry_Int_Tables_number   1
_chemical_formula_structural   PrEr4(TcB3)2
_chemical_formula_sum   'Pr1 Er4 Tc2 B6'
_cell_volume   211.46571151
_cell_formula_units_Z   1
loop_
 _symmetry_equiv_pos_site_id
 _symmetry_equiv_pos_as_xyz
  1  'x, y, z'
loop_
 _atom_site_type_symbol
 _atom_site_label
 _atom_site_symmetry_multiplicity
 _atom_site_fract_x
 _atom_site_fract_y
 _atom_site_fract_z
 _atom_site_occupancy
  Pr  Pr0  1  0.000000  0.000000  0.000000  1
  Er  Er1  1  0.578688  0.578688  0.578688  1
  Er  Er2  1  0.421312  0.421312  0.421312  1
  Er  Er3  1  0.754797  0.754797  0.754797  1
  Er  Er4  1  0.245203  0.245203  0.245203  1
  Tc  Tc5  1  0.888297  0.888297  0.888297  1
  Tc  Tc6  1  0.111703  0.111703  0.111703  1
  B  B7  1  0.500000  0.829237  0.170763  1
  B  B8  1  0.170763  0.500000  0.829237  1
  B  B9  1  0.829237  0.170763  0.500000  1
  B  B10  1  0.500000  0.170763  0.829237  1
  B  B11  1  0.829237  0.500000  0.170763  1
  B  B12  1  0.170763  0.829237  0.500000  1
