# generated using pymatgen
data_Tb3Ga6Ni7Rh2
_symmetry_space_group_name_H-M   'P 1'
_cell_length_a   4.13852200
_cell_length_b   8.72850074
_cell_length_c   9.10368332
_cell_angle_alpha   58.92125846
_cell_angle_beta   90.00000000
_cell_angle_gamma   90.00000000
_symmetry_Int_Tables_number   1
_chemical_formula_structural   Tb3Ga6Ni7Rh2
_chemical_formula_sum   'Tb3 Ga6 Ni7 Rh2'
_cell_volume   281.64917000
_cell_formula_units_Z   1
loop_
 _symmetry_equiv_pos_site_id
 _symmetry_equiv_pos_as_xyz
  1  'x, y, z'
loop_
 _atom_site_type_symbol
 _atom_site_label
 _atom_site_symmetry_multiplicity
 _atom_site_fract_x
 _atom_site_fract_y
 _atom_site_fract_z
 _atom_site_occupancy
  Tb  Tb0  1  0.500000  0.329510  0.332855  1
  Tb  Tb1  1  0.500000  0.670449  0.662294  1
  Tb  Tb2  1  0.000000  0.999907  0.987273  1
  Ga  Ga3  1  0.500000  0.726530  0.277205  1
  Ga  Ga4  1  0.500000  0.273827  0.003505  1
  Ga  Ga5  1  0.500000  0.999860  0.716779  1
  Ga  Ga6  1  0.000000  0.475350  0.536466  1
  Ga  Ga7  1  0.000000  0.524594  0.011897  1
  Ga  Ga8  1  0.000000  0.000063  0.470371  1
  Ni  Ni9  1  0.000000  0.194063  0.169607  1
  Ni  Ni10  1  0.000000  0.170527  0.610438  1
  Ni  Ni11  1  0.000000  0.611936  0.226131  1
  Ni  Ni12  1  0.000000  0.829276  0.781027  1
  Ni  Ni13  1  0.000000  0.388125  0.837629  1
  Ni  Ni14  1  0.000000  0.805269  0.364447  1
  Ni  Ni15  1  0.500000  0.000448  0.289802  1
  Rh  Rh16  1  0.500000  0.289143  0.716658  1
  Rh  Rh17  1  0.500000  0.711023  0.005716  1
