# generated using pymatgen
data_Tb3YEr2Al24Ru7Au
_symmetry_space_group_name_H-M   'P 1'
_cell_length_a   8.84429977
_cell_length_b   8.84755917
_cell_length_c   9.56378323
_cell_angle_alpha   89.88745907
_cell_angle_beta   90.11441240
_cell_angle_gamma   119.96295920
_symmetry_Int_Tables_number   1
_chemical_formula_structural   Tb3YEr2Al24Ru7Au
_chemical_formula_sum   'Tb3 Y1 Er2 Al24 Ru7 Au1'
_cell_volume   648.34792897
_cell_formula_units_Z   1
loop_
 _symmetry_equiv_pos_site_id
 _symmetry_equiv_pos_as_xyz
  1  'x, y, z'
loop_
 _atom_site_type_symbol
 _atom_site_label
 _atom_site_symmetry_multiplicity
 _atom_site_fract_x
 _atom_site_fract_y
 _atom_site_fract_z
 _atom_site_occupancy
  Tb  Tb0  1  0.807458  0.614144  0.750253  1
  Tb  Tb1  1  0.614421  0.807519  0.249765  1
  Tb  Tb2  1  0.385668  0.192473  0.750258  1
  Y  Y3  1  0.192635  0.386621  0.250000  1
  Er  Er4  1  0.195142  0.805132  0.254021  1
  Er  Er5  1  0.804879  0.195018  0.746120  1
  Al  Al6  1  0.327890  0.672193  0.023433  1
  Al  Al7  1  0.672106  0.327754  0.976510  1
  Al  Al8  1  0.666611  0.333240  0.516931  1
  Al  Al9  1  0.333353  0.666700  0.483187  1
  Al  Al10  1  0.161766  0.324219  0.577992  1
  Al  Al11  1  0.838156  0.675686  0.421978  1
  Al  Al12  1  0.675685  0.838045  0.577950  1
  Al  Al13  1  0.849554  0.678213  0.080379  1
  Al  Al14  1  0.324277  0.161944  0.422007  1
  Al  Al15  1  0.150378  0.321644  0.919786  1
  Al  Al16  1  0.162586  0.837268  0.578354  1
  Al  Al17  1  0.321744  0.150438  0.080331  1
  Al  Al18  1  0.837399  0.162643  0.421711  1
  Al  Al19  1  0.678231  0.849490  0.919668  1
  Al  Al20  1  0.837427  0.162686  0.077152  1
  Al  Al21  1  0.162637  0.837232  0.922866  1
  Al  Al22  1  0.560435  0.120963  0.248332  1
  Al  Al23  1  0.439578  0.879001  0.751622  1
  Al  Al24  1  0.879122  0.439590  0.248398  1
  Al  Al25  1  0.120999  0.560348  0.751697  1
  Al  Al26  1  0.563907  0.435793  0.255633  1
  Al  Al27  1  0.435740  0.564093  0.744138  1
  Al  Al28  1  0.000566  0.999823  0.250208  1
  Al  Al29  1  0.999525  0.000218  0.749859  1
  Ru  Ru30  1  0.500044  0.999905  0.999979  1
  Ru  Ru31  1  0.000081  0.500006  0.000188  1
  Ru  Ru32  1  0.499881  0.999799  0.499916  1
  Ru  Ru33  1  0.000058  0.500095  0.499924  1
  Ru  Ru34  1  0.499952  0.500030  0.499864  1
  Ru  Ru35  1  0.999944  0.999895  0.000055  1
  Ru  Ru36  1  0.999988  0.999967  0.499981  1
  Au  Au37  1  0.500177  0.500168  0.999552  1
