# generated using pymatgen
data_Yb6Sb7Pd16Cl
_symmetry_space_group_name_H-M   'P 1'
_cell_length_a   9.34946731
_cell_length_b   9.34946667
_cell_length_c   9.34946600
_cell_angle_alpha   59.99999529
_cell_angle_beta   59.99999755
_cell_angle_gamma   59.99999406
_symmetry_Int_Tables_number   1
_chemical_formula_structural   Yb6Sb7Pd16Cl
_chemical_formula_sum   'Yb6 Sb7 Pd16 Cl1'
_cell_volume   577.89038769
_cell_formula_units_Z   1
loop_
 _symmetry_equiv_pos_site_id
 _symmetry_equiv_pos_as_xyz
  1  'x, y, z'
loop_
 _atom_site_type_symbol
 _atom_site_label
 _atom_site_symmetry_multiplicity
 _atom_site_fract_x
 _atom_site_fract_y
 _atom_site_fract_z
 _atom_site_occupancy
  Yb  Yb0  1  0.717941  0.282070  0.282067  1
  Yb  Yb1  1  0.282059  0.717930  0.717933  1
  Yb  Yb2  1  0.282061  0.717936  0.282071  1
  Yb  Yb3  1  0.717939  0.282064  0.717929  1
  Yb  Yb4  1  0.282057  0.282073  0.717938  1
  Yb  Yb5  1  0.717944  0.717927  0.282062  1
  Sb  Sb6  1  0.000000  0.000000  0.000000  1
  Sb  Sb7  1  0.500000  0.000000  0.000000  1
  Sb  Sb8  1  0.000000  0.500000  0.500000  1
  Sb  Sb9  1  0.000000  0.500000  0.000000  1
  Sb  Sb10  1  0.500000  0.000000  0.500000  1
  Sb  Sb11  1  0.000000  0.000000  0.500000  1
  Sb  Sb12  1  0.500000  0.500000  0.000000  1
  Pd  Pd13  1  0.118831  0.118833  0.118825  1
  Pd  Pd14  1  0.881169  0.881167  0.881175  1
  Pd  Pd15  1  0.118830  0.118829  0.643514  1
  Pd  Pd16  1  0.118831  0.643510  0.118829  1
  Pd  Pd17  1  0.881170  0.881171  0.356486  1
  Pd  Pd18  1  0.881169  0.356490  0.881171  1
  Pd  Pd19  1  0.643513  0.118831  0.118827  1
  Pd  Pd20  1  0.356487  0.881169  0.881173  1
  Pd  Pd21  1  0.333028  0.333028  0.333022  1
  Pd  Pd22  1  0.666972  0.666972  0.666978  1
  Pd  Pd23  1  0.333024  0.333025  0.000931  1
  Pd  Pd24  1  0.333027  0.000927  0.333023  1
  Pd  Pd25  1  0.666976  0.666975  0.999069  1
  Pd  Pd26  1  0.666973  0.999073  0.666977  1
  Pd  Pd27  1  0.000946  0.333019  0.333017  1
  Pd  Pd28  1  0.999054  0.666981  0.666983  1
  Cl  Cl29  1  0.500000  0.500000  0.500000  1
