# generated using pymatgen
data_TmLu2Fe8Os
_symmetry_space_group_name_H-M   'P 1'
_cell_length_a   5.05478203
_cell_length_b   5.05478258
_cell_length_c   8.67267400
_cell_angle_alpha   73.05700781
_cell_angle_beta   73.05700732
_cell_angle_gamma   60.00000079
_symmetry_Int_Tables_number   1
_chemical_formula_structural   TmLu2Fe8Os
_chemical_formula_sum   'Tm1 Lu2 Fe8 Os1'
_cell_volume   180.71451484
_cell_formula_units_Z   1
loop_
 _symmetry_equiv_pos_site_id
 _symmetry_equiv_pos_as_xyz
  1  'x, y, z'
loop_
 _atom_site_type_symbol
 _atom_site_label
 _atom_site_symmetry_multiplicity
 _atom_site_fract_x
 _atom_site_fract_y
 _atom_site_fract_z
 _atom_site_occupancy
  Tm  Tm0  1  0.000000  0.000000  0.000000  1
  Lu  Lu1  1  0.141779  0.141779  0.574661  1
  Lu  Lu2  1  0.858221  0.858221  0.425339  1
  Fe  Fe3  1  0.077025  0.582991  0.756991  1
  Fe  Fe4  1  0.582991  0.582991  0.756991  1
  Fe  Fe5  1  0.582991  0.077025  0.756991  1
  Fe  Fe6  1  0.922975  0.417009  0.243009  1
  Fe  Fe7  1  0.417009  0.417009  0.243009  1
  Fe  Fe8  1  0.417009  0.922975  0.243009  1
  Fe  Fe9  1  0.333149  0.333149  0.000552  1
  Fe  Fe10  1  0.666851  0.666851  0.999448  1
  Os  Os11  1  0.500000  0.500000  0.500000  1
