# generated using pymatgen
data_Dy2BeRu2
_symmetry_space_group_name_H-M   'P 1'
_cell_length_a   5.56595820
_cell_length_b   5.56595781
_cell_length_c   5.56595771
_cell_angle_alpha   144.33123952
_cell_angle_beta   111.33927813
_cell_angle_gamma   79.84618334
_symmetry_Int_Tables_number   1
_chemical_formula_structural   Dy2BeRu2
_chemical_formula_sum   'Dy2 Be1 Ru2'
_cell_volume   91.36355009
_cell_formula_units_Z   1
loop_
 _symmetry_equiv_pos_site_id
 _symmetry_equiv_pos_as_xyz
  1  'x, y, z'
loop_
 _atom_site_type_symbol
 _atom_site_label
 _atom_site_symmetry_multiplicity
 _atom_site_fract_x
 _atom_site_fract_y
 _atom_site_fract_z
 _atom_site_occupancy
  Dy  Dy0  1  0.703710  0.203711  0.499999  1
  Dy  Dy1  1  0.296289  0.796290  0.500001  1
  Be  Be2  1  0.000000  0.000000  0.000000  1
  Ru  Ru3  1  0.755365  0.500000  0.255365  1
  Ru  Ru4  1  0.244634  0.500001  0.744635  1
