# generated using pymatgen
data_Pa2Si4W3
_symmetry_space_group_name_H-M   'P 1'
_cell_length_a   6.95906400
_cell_length_b   6.81137606
_cell_length_c   6.92018276
_cell_angle_alpha   70.02670581
_cell_angle_beta   90.00000000
_cell_angle_gamma   90.00000000
_symmetry_Int_Tables_number   1
_chemical_formula_structural   Pa2Si4W3
_chemical_formula_sum   'Pa4 Si8 W6'
_cell_volume   308.29231120
_cell_formula_units_Z   2
loop_
 _symmetry_equiv_pos_site_id
 _symmetry_equiv_pos_as_xyz
  1  'x, y, z'
loop_
 _atom_site_type_symbol
 _atom_site_label
 _atom_site_symmetry_multiplicity
 _atom_site_fract_x
 _atom_site_fract_y
 _atom_site_fract_z
 _atom_site_occupancy
  Pa  Pa0  1  0.666252  0.441526  0.190564  1
  Pa  Pa1  1  0.166252  0.058474  0.809436  1
  Pa  Pa2  1  0.333748  0.558474  0.809436  1
  Pa  Pa3  1  0.833748  0.941526  0.190564  1
  Si  Si4  1  0.866514  0.132661  0.506479  1
  Si  Si5  1  0.366514  0.367339  0.493521  1
  Si  Si6  1  0.133486  0.867339  0.493521  1
  Si  Si7  1  0.633486  0.632661  0.506479  1
  Si  Si8  1  0.546045  0.870619  0.909626  1
  Si  Si9  1  0.046045  0.629381  0.090374  1
  Si  Si10  1  0.953955  0.370619  0.909626  1
  Si  Si11  1  0.453955  0.129381  0.090374  1
  W  W12  1  0.661858  0.255070  0.758754  1
  W  W13  1  0.161858  0.244930  0.241246  1
  W  W14  1  0.500000  0.000000  0.500000  1
  W  W15  1  0.000000  0.500000  0.500000  1
  W  W16  1  0.338142  0.744930  0.241246  1
  W  W17  1  0.838142  0.755070  0.758754  1
