# generated using pymatgen
data_Y2ZrTi3(SnRh)6
_symmetry_space_group_name_H-M   'P 1'
_cell_length_a   7.41091305
_cell_length_b   7.41213476
_cell_length_c   7.27103200
_cell_angle_alpha   90.00000000
_cell_angle_beta   90.00000000
_cell_angle_gamma   119.99792690
_symmetry_Int_Tables_number   1
_chemical_formula_structural   Y2ZrTi3(SnRh)6
_chemical_formula_sum   'Y2 Zr1 Ti3 Sn6 Rh6'
_cell_volume   345.90017726
_cell_formula_units_Z   1
loop_
 _symmetry_equiv_pos_site_id
 _symmetry_equiv_pos_as_xyz
  1  'x, y, z'
loop_
 _atom_site_type_symbol
 _atom_site_label
 _atom_site_symmetry_multiplicity
 _atom_site_fract_x
 _atom_site_fract_y
 _atom_site_fract_z
 _atom_site_occupancy
  Y  Y0  1  0.596127  0.998254  0.250000  1
  Y  Y1  1  0.403982  0.402016  0.250000  1
  Zr  Zr2  1  0.000391  0.599474  0.250000  1
  Ti  Ti3  1  0.614502  0.005320  0.750000  1
  Ti  Ti4  1  0.385347  0.390940  0.750000  1
  Ti  Ti5  1  0.000217  0.609106  0.750000  1
  Sn  Sn6  1  0.271406  0.999445  0.985013  1
  Sn  Sn7  1  0.728633  0.727781  0.514888  1
  Sn  Sn8  1  0.999901  0.272820  0.503663  1
  Sn  Sn9  1  0.999901  0.272820  0.996337  1
  Sn  Sn10  1  0.728633  0.727781  0.985112  1
  Sn  Sn11  1  0.271406  0.999445  0.514987  1
  Rh  Rh12  1  0.671116  0.336460  0.953729  1
  Rh  Rh13  1  0.671116  0.336460  0.546271  1
  Rh  Rh14  1  0.328711  0.665360  0.953906  1
  Rh  Rh15  1  0.328711  0.665360  0.546094  1
  Rh  Rh16  1  0.999881  0.005569  0.750000  1
  Rh  Rh17  1  0.000016  0.985591  0.250000  1
