# generated using pymatgen
data_HfU(AlRu2)2
_symmetry_space_group_name_H-M   'P 1'
_cell_length_a   4.51380300
_cell_length_b   6.35687200
_cell_length_c   13.49506400
_cell_angle_alpha   90.00000000
_cell_angle_beta   90.00141982
_cell_angle_gamma   90.00000000
_symmetry_Int_Tables_number   1
_chemical_formula_structural   HfU(AlRu2)2
_chemical_formula_sum   'Hf3 U3 Al6 Ru12'
_cell_volume   387.22288470
_cell_formula_units_Z   3
loop_
 _symmetry_equiv_pos_site_id
 _symmetry_equiv_pos_as_xyz
  1  'x, y, z'
loop_
 _atom_site_type_symbol
 _atom_site_label
 _atom_site_symmetry_multiplicity
 _atom_site_fract_x
 _atom_site_fract_y
 _atom_site_fract_z
 _atom_site_occupancy
  Hf  Hf0  1  0.500003  0.500000  0.505434  1
  Hf  Hf1  1  0.000091  0.000000  0.666676  1
  Hf  Hf2  1  0.500107  0.500000  0.827924  1
  U  U3  1  0.000025  0.000000  0.994423  1
  U  U4  1  0.499838  0.500000  0.166665  1
  U  U5  1  0.999925  0.000000  0.338868  1
  Al  Al6  1  0.999988  0.500000  0.993244  1
  Al  Al7  1  0.499912  0.000000  0.166669  1
  Al  Al8  1  0.999886  0.500000  0.340107  1
  Al  Al9  1  0.499990  0.000000  0.509028  1
  Al  Al10  1  0.000074  0.500000  0.666691  1
  Al  Al11  1  0.500080  0.000000  0.824347  1
  Ru  Ru12  1  0.500035  0.252696  0.997923  1
  Ru  Ru13  1  0.500035  0.747305  0.997923  1
  Ru  Ru14  1  0.999831  0.244509  0.166478  1
  Ru  Ru15  1  0.999831  0.755492  0.166478  1
  Ru  Ru16  1  0.499932  0.252888  0.335410  1
  Ru  Ru17  1  0.499932  0.747113  0.335410  1
  Ru  Ru18  1  0.000009  0.248761  0.499407  1
  Ru  Ru19  1  0.000009  0.751239  0.499407  1
  Ru  Ru20  1  0.500096  0.249674  0.666694  1
  Ru  Ru21  1  0.500096  0.750327  0.666694  1
  Ru  Ru22  1  0.000138  0.248649  0.834049  1
  Ru  Ru23  1  0.000138  0.751352  0.834049  1
