# generated using pymatgen
data_Nd2Y3Zr3(As3Pd4)4
_symmetry_space_group_name_H-M   'P 1'
_cell_length_a   13.58753200
_cell_length_b   13.58753173
_cell_length_c   4.12924700
_cell_angle_alpha   90.00000000
_cell_angle_beta   90.00000000
_cell_angle_gamma   120.00000552
_symmetry_Int_Tables_number   1
_chemical_formula_structural   Nd2Y3Zr3(As3Pd4)4
_chemical_formula_sum   'Nd2 Y3 Zr3 As12 Pd16'
_cell_volume   660.21079435
_cell_formula_units_Z   1
loop_
 _symmetry_equiv_pos_site_id
 _symmetry_equiv_pos_as_xyz
  1  'x, y, z'
loop_
 _atom_site_type_symbol
 _atom_site_label
 _atom_site_symmetry_multiplicity
 _atom_site_fract_x
 _atom_site_fract_y
 _atom_site_fract_z
 _atom_site_occupancy
  Nd  Nd0  1  0.333333  0.666667  0.000000  1
  Nd  Nd1  1  0.666667  0.333333  0.000000  1
  Y  Y2  1  0.189710  0.189710  0.500000  1
  Y  Y3  1  0.810290  0.000000  0.500000  1
  Y  Y4  1  0.000000  0.810290  0.500000  1
  Zr  Zr5  1  0.556997  0.556997  0.000000  1
  Zr  Zr6  1  0.443003  0.000000  0.000000  1
  Zr  Zr7  1  0.000000  0.443003  0.000000  1
  As  As8  1  0.826153  0.826153  0.000000  1
  As  As9  1  0.173847  0.000000  0.000000  1
  As  As10  1  0.000000  0.173847  0.000000  1
  As  As11  1  0.165352  0.481679  0.500000  1
  As  As12  1  0.518321  0.683672  0.500000  1
  As  As13  1  0.316328  0.834648  0.500000  1
  As  As14  1  0.683672  0.518321  0.500000  1
  As  As15  1  0.834648  0.316328  0.500000  1
  As  As16  1  0.481679  0.165352  0.500000  1
  As  As17  1  0.358294  0.358294  0.000000  1
  As  As18  1  0.641706  0.000000  0.000000  1
  As  As19  1  0.000000  0.641706  0.000000  1
  Pd  Pd20  1  0.723122  0.723122  0.500000  1
  Pd  Pd21  1  0.276878  0.000000  0.500000  1
  Pd  Pd22  1  0.000000  0.276878  0.500000  1
  Pd  Pd23  1  0.180797  0.371169  0.000000  1
  Pd  Pd24  1  0.628831  0.809628  0.000000  1
  Pd  Pd25  1  0.190372  0.819203  0.000000  1
  Pd  Pd26  1  0.809628  0.628831  0.000000  1
  Pd  Pd27  1  0.819203  0.190372  0.000000  1
  Pd  Pd28  1  0.371169  0.180797  0.000000  1
  Pd  Pd29  1  0.357213  0.483406  0.500000  1
  Pd  Pd30  1  0.516594  0.873806  0.500000  1
  Pd  Pd31  1  0.126194  0.642787  0.500000  1
  Pd  Pd32  1  0.873806  0.516594  0.500000  1
  Pd  Pd33  1  0.642787  0.126194  0.500000  1
  Pd  Pd34  1  0.483406  0.357213  0.500000  1
  Pd  Pd35  1  0.000000  0.000000  0.000000  1
