# generated using pymatgen
data_TbErPdPtO7
_symmetry_space_group_name_H-M   'P 1'
_cell_length_a   7.25729858
_cell_length_b   7.26078567
_cell_length_c   7.25729832
_cell_angle_alpha   59.98409329
_cell_angle_beta   59.92345040
_cell_angle_gamma   59.98409834
_symmetry_Int_Tables_number   1
_chemical_formula_structural   TbErPdPtO7
_chemical_formula_sum   'Tb2 Er2 Pd2 Pt2 O14'
_cell_volume   270.18571549
_cell_formula_units_Z   2
loop_
 _symmetry_equiv_pos_site_id
 _symmetry_equiv_pos_as_xyz
  1  'x, y, z'
loop_
 _atom_site_type_symbol
 _atom_site_label
 _atom_site_symmetry_multiplicity
 _atom_site_fract_x
 _atom_site_fract_y
 _atom_site_fract_z
 _atom_site_occupancy
  Tb  Tb0  1  0.625000  0.625000  0.125000  1
  Tb  Tb1  1  0.125000  0.625000  0.625000  1
  Er  Er2  1  0.625000  0.625000  0.625000  1
  Er  Er3  1  0.625000  0.125000  0.625000  1
  Pd  Pd4  1  0.125000  0.125000  0.125000  1
  Pd  Pd5  1  0.125000  0.625000  0.125000  1
  Pt  Pt6  1  0.625000  0.125000  0.125000  1
  Pt  Pt7  1  0.125000  0.125000  0.625000  1
  O  O8  1  0.032441  0.464591  0.467125  1
  O  O9  1  0.782875  0.785409  0.217559  1
  O  O10  1  0.782875  0.214157  0.217559  1
  O  O11  1  0.746855  0.753145  0.746855  1
  O  O12  1  0.034994  0.465006  0.034994  1
  O  O13  1  0.466909  0.033091  0.466909  1
  O  O14  1  0.032441  0.035843  0.467125  1
  O  O15  1  0.503145  0.496855  0.503145  1
  O  O16  1  0.217559  0.214157  0.782875  1
  O  O17  1  0.215006  0.784994  0.215006  1
  O  O18  1  0.783091  0.216909  0.783091  1
  O  O19  1  0.467125  0.035843  0.032441  1
  O  O20  1  0.467125  0.464591  0.032441  1
  O  O21  1  0.217559  0.785409  0.782875  1
