# generated using pymatgen
data_Hf2TiSi2Ir
_symmetry_space_group_name_H-M   'P 1'
_cell_length_a   3.82195400
_cell_length_b   6.61028800
_cell_length_c   7.84173800
_cell_angle_alpha   90.00000000
_cell_angle_beta   90.00000000
_cell_angle_gamma   90.00000000
_symmetry_Int_Tables_number   1
_chemical_formula_structural   Hf2TiSi2Ir
_chemical_formula_sum   'Hf4 Ti2 Si4 Ir2'
_cell_volume   198.11536784
_cell_formula_units_Z   2
loop_
 _symmetry_equiv_pos_site_id
 _symmetry_equiv_pos_as_xyz
  1  'x, y, z'
loop_
 _atom_site_type_symbol
 _atom_site_label
 _atom_site_symmetry_multiplicity
 _atom_site_fract_x
 _atom_site_fract_y
 _atom_site_fract_z
 _atom_site_occupancy
  Hf  Hf0  1  0.250000  0.026105  0.327721  1
  Hf  Hf1  1  0.250000  0.526105  0.172279  1
  Hf  Hf2  1  0.750000  0.971206  0.672922  1
  Hf  Hf3  1  0.750000  0.471206  0.827078  1
  Ti  Ti4  1  0.250000  0.142444  0.942734  1
  Ti  Ti5  1  0.250000  0.642444  0.557266  1
  Si  Si6  1  0.250000  0.262100  0.625856  1
  Si  Si7  1  0.250000  0.762100  0.874144  1
  Si  Si8  1  0.750000  0.733602  0.356984  1
  Si  Si9  1  0.750000  0.233602  0.143016  1
  Ir  Ir10  1  0.750000  0.864543  0.059701  1
  Ir  Ir11  1  0.750000  0.364543  0.440299  1
