# generated using pymatgen
data_Na3Ca2UO6
_symmetry_space_group_name_H-M   'P 1'
_cell_length_a   11.32707121
_cell_length_b   10.75893910
_cell_length_c   5.96432682
_cell_angle_alpha   79.66461624
_cell_angle_beta   69.13643615
_cell_angle_gamma   31.19895484
_symmetry_Int_Tables_number   1
_chemical_formula_structural   Na3Ca2UO6
_chemical_formula_sum   'Na6 Ca4 U2 O12'
_cell_volume   339.85398434
_cell_formula_units_Z   2
loop_
 _symmetry_equiv_pos_site_id
 _symmetry_equiv_pos_as_xyz
  1  'x, y, z'
loop_
 _atom_site_type_symbol
 _atom_site_label
 _atom_site_symmetry_multiplicity
 _atom_site_fract_x
 _atom_site_fract_y
 _atom_site_fract_z
 _atom_site_occupancy
  Na  Na0  1  0.587281  0.587281  0.912719  1
  Na  Na1  1  0.912719  0.912719  0.587281  1
  Na  Na2  1  0.662719  0.662719  0.337281  1
  Na  Na3  1  0.337281  0.337281  0.662719  1
  Na  Na4  1  0.500000  0.500000  0.500000  1
  Na  Na5  1  0.750000  0.750000  0.750000  1
  Ca  Ca6  1  0.080992  0.080992  0.419008  1
  Ca  Ca7  1  0.830992  0.830992  0.169008  1
  Ca  Ca8  1  0.419008  0.419008  0.080992  1
  Ca  Ca9  1  0.169008  0.169008  0.830992  1
  U  U10  1  0.250000  0.250000  0.250000  1
  U  U11  1  0.000000  0.000000  0.000000  1
  O  O12  1  0.387438  0.957893  0.098402  1
  O  O13  1  0.098402  0.556266  0.387438  1
  O  O14  1  0.556266  0.098402  0.957893  1
  O  O15  1  0.151598  0.693734  0.862562  1
  O  O16  1  0.221206  0.778794  0.221206  1
  O  O17  1  0.292107  0.862562  0.693734  1
  O  O18  1  0.028794  0.471206  0.028794  1
  O  O19  1  0.471206  0.028794  0.471206  1
  O  O20  1  0.693734  0.151598  0.292107  1
  O  O21  1  0.862562  0.292107  0.151598  1
  O  O22  1  0.957893  0.387438  0.556266  1
  O  O23  1  0.778794  0.221206  0.778794  1
