# generated using pymatgen
data_YbCo4P3W
_symmetry_space_group_name_H-M   'P 1'
_cell_length_a   3.69908500
_cell_length_b   10.29947500
_cell_length_c   11.76440600
_cell_angle_alpha   90.00000000
_cell_angle_beta   90.00000000
_cell_angle_gamma   90.00000000
_symmetry_Int_Tables_number   1
_chemical_formula_structural   YbCo4P3W
_chemical_formula_sum   'Yb4 Co16 P12 W4'
_cell_volume   448.20779231
_cell_formula_units_Z   4
loop_
 _symmetry_equiv_pos_site_id
 _symmetry_equiv_pos_as_xyz
  1  'x, y, z'
loop_
 _atom_site_type_symbol
 _atom_site_label
 _atom_site_symmetry_multiplicity
 _atom_site_fract_x
 _atom_site_fract_y
 _atom_site_fract_z
 _atom_site_occupancy
  Yb  Yb0  1  0.250000  0.581805  0.705468  1
  Yb  Yb1  1  0.250000  0.918195  0.205468  1
  Yb  Yb2  1  0.750000  0.418195  0.294532  1
  Yb  Yb3  1  0.750000  0.081805  0.794532  1
  Co  Co4  1  0.250000  0.405758  0.488618  1
  Co  Co5  1  0.250000  0.094242  0.988618  1
  Co  Co6  1  0.750000  0.594242  0.511382  1
  Co  Co7  1  0.750000  0.905758  0.011382  1
  Co  Co8  1  0.250000  0.220083  0.176977  1
  Co  Co9  1  0.250000  0.279917  0.676977  1
  Co  Co10  1  0.750000  0.779917  0.823023  1
  Co  Co11  1  0.750000  0.720083  0.323023  1
  Co  Co12  1  0.250000  0.886007  0.699813  1
  Co  Co13  1  0.250000  0.613993  0.199813  1
  Co  Co14  1  0.750000  0.113993  0.300187  1
  Co  Co15  1  0.750000  0.386007  0.800187  1
  Co  Co16  1  0.250000  0.464987  0.934377  1
  Co  Co17  1  0.250000  0.035013  0.434377  1
  Co  Co18  1  0.750000  0.535013  0.065623  1
  Co  Co19  1  0.750000  0.964987  0.565623  1
  P  P20  1  0.250000  0.419684  0.117360  1
  P  P21  1  0.250000  0.080316  0.617360  1
  P  P22  1  0.750000  0.580316  0.882640  1
  P  P23  1  0.750000  0.919684  0.382640  1
  P  P24  1  0.250000  0.266865  0.863850  1
  P  P25  1  0.250000  0.233135  0.363850  1
  P  P26  1  0.750000  0.733135  0.136150  1
  P  P27  1  0.750000  0.766865  0.636150  1
  P  P28  1  0.250000  0.592865  0.390148  1
  P  P29  1  0.250000  0.907135  0.890148  1
  P  P30  1  0.750000  0.407135  0.609852  1
  P  P31  1  0.750000  0.092865  0.109852  1
  W  W32  1  0.250000  0.707489  0.988304  1
  W  W33  1  0.250000  0.792511  0.488304  1
  W  W34  1  0.750000  0.292511  0.011696  1
  W  W35  1  0.750000  0.207489  0.511696  1
