# generated using pymatgen
data_Eu4Ti3MoO14
_symmetry_space_group_name_H-M   'P 1'
_cell_length_a   7.35465956
_cell_length_b   7.33516471
_cell_length_c   7.33516600
_cell_angle_alpha   60.00000319
_cell_angle_beta   60.08764831
_cell_angle_gamma   60.08764165
_symmetry_Int_Tables_number   1
_chemical_formula_structural   Eu4Ti3MoO14
_chemical_formula_sum   'Eu4 Ti3 Mo1 O14'
_cell_volume   280.18279833
_cell_formula_units_Z   1
loop_
 _symmetry_equiv_pos_site_id
 _symmetry_equiv_pos_as_xyz
  1  'x, y, z'
loop_
 _atom_site_type_symbol
 _atom_site_label
 _atom_site_symmetry_multiplicity
 _atom_site_fract_x
 _atom_site_fract_y
 _atom_site_fract_z
 _atom_site_occupancy
  Eu  Eu0  1  0.625000  0.125000  0.125000  1
  Eu  Eu1  1  0.125000  0.625000  0.125000  1
  Eu  Eu2  1  0.125000  0.125000  0.625000  1
  Eu  Eu3  1  0.125000  0.125000  0.125000  1
  Ti  Ti4  1  0.625000  0.125000  0.625000  1
  Ti  Ti5  1  0.625000  0.625000  0.125000  1
  Ti  Ti6  1  0.625000  0.625000  0.625000  1
  Mo  Mo7  1  0.125000  0.625000  0.625000  1
  O  O8  1  0.250659  0.249780  0.249780  1
  O  O9  1  0.999341  0.000220  0.000220  1
  O  O10  1  0.696422  0.697339  0.303120  1
  O  O11  1  0.298368  0.298604  0.701514  1
  O  O12  1  0.696422  0.303120  0.697339  1
  O  O13  1  0.298368  0.701514  0.298604  1
  O  O14  1  0.298368  0.701514  0.701514  1
  O  O15  1  0.696422  0.303120  0.303120  1
  O  O16  1  0.553578  0.552661  0.946880  1
  O  O17  1  0.951632  0.951396  0.548486  1
  O  O18  1  0.553578  0.946880  0.552661  1
  O  O19  1  0.951632  0.548486  0.951396  1
  O  O20  1  0.951632  0.548486  0.548486  1
  O  O21  1  0.553578  0.946880  0.946880  1
