# generated using pymatgen
data_Ba3Sm(BO3)3
_symmetry_space_group_name_H-M   'P 1'
_cell_length_a   8.29533607
_cell_length_b   8.29533601
_cell_length_c   8.29533494
_cell_angle_alpha   105.53647691
_cell_angle_beta   105.53648406
_cell_angle_gamma   105.53649087
_symmetry_Int_Tables_number   1
_chemical_formula_structural   Ba3Sm(BO3)3
_chemical_formula_sum   'Ba6 Sm2 B6 O18'
_cell_volume   493.13743022
_cell_formula_units_Z   2
loop_
 _symmetry_equiv_pos_site_id
 _symmetry_equiv_pos_as_xyz
  1  'x, y, z'
loop_
 _atom_site_type_symbol
 _atom_site_label
 _atom_site_symmetry_multiplicity
 _atom_site_fract_x
 _atom_site_fract_y
 _atom_site_fract_z
 _atom_site_occupancy
  Ba  Ba0  1  0.352489  0.733149  0.846276  1
  Ba  Ba1  1  0.846276  0.352489  0.733149  1
  Ba  Ba2  1  0.733149  0.846276  0.352489  1
  Ba  Ba3  1  0.647511  0.266851  0.153724  1
  Ba  Ba4  1  0.153724  0.647511  0.266851  1
  Ba  Ba5  1  0.266851  0.153724  0.647511  1
  Sm  Sm6  1  0.500000  0.500000  0.500000  1
  Sm  Sm7  1  0.000000  0.000000  0.000000  1
  B  B8  1  0.711340  0.618461  0.957856  1
  B  B9  1  0.957856  0.711340  0.618461  1
  B  B10  1  0.618461  0.957856  0.711340  1
  B  B11  1  0.042144  0.288660  0.381539  1
  B  B12  1  0.381539  0.042144  0.288660  1
  B  B13  1  0.288660  0.381539  0.042144  1
  O  O14  1  0.056972  0.809401  0.544032  1
  O  O15  1  0.544032  0.056972  0.809401  1
  O  O16  1  0.428044  0.492428  0.207465  1
  O  O17  1  0.492428  0.207465  0.428044  1
  O  O18  1  0.207465  0.428044  0.492428  1
  O  O19  1  0.792535  0.571956  0.507572  1
  O  O20  1  0.571956  0.507572  0.792535  1
  O  O21  1  0.507572  0.792535  0.571956  1
  O  O22  1  0.255378  0.197209  0.980409  1
  O  O23  1  0.197209  0.980409  0.255378  1
  O  O24  1  0.980409  0.255378  0.197209  1
  O  O25  1  0.744622  0.802791  0.019591  1
  O  O26  1  0.802791  0.019591  0.744622  1
  O  O27  1  0.019591  0.744622  0.802791  1
  O  O28  1  0.190599  0.455968  0.943028  1
  O  O29  1  0.455968  0.943028  0.190599  1
  O  O30  1  0.943028  0.190599  0.455968  1
  O  O31  1  0.809401  0.544032  0.056972  1
