# generated using pymatgen
data_Nb4GaCo4P3
_symmetry_space_group_name_H-M   'P 1'
_cell_length_a   3.61628000
_cell_length_b   6.21218911
_cell_length_c   7.07156229
_cell_angle_alpha   90.06886400
_cell_angle_beta   90.00000000
_cell_angle_gamma   90.00000000
_symmetry_Int_Tables_number   1
_chemical_formula_structural   Nb4GaCo4P3
_chemical_formula_sum   'Nb4 Ga1 Co4 P3'
_cell_volume   158.86263984
_cell_formula_units_Z   1
loop_
 _symmetry_equiv_pos_site_id
 _symmetry_equiv_pos_as_xyz
  1  'x, y, z'
loop_
 _atom_site_type_symbol
 _atom_site_label
 _atom_site_symmetry_multiplicity
 _atom_site_fract_x
 _atom_site_fract_y
 _atom_site_fract_z
 _atom_site_occupancy
  Nb  Nb0  1  0.250000  0.025475  0.827059  1
  Nb  Nb1  1  0.250000  0.521308  0.678074  1
  Nb  Nb2  1  0.750000  0.980513  0.168465  1
  Nb  Nb3  1  0.750000  0.466533  0.323425  1
  Ga  Ga4  1  0.250000  0.773636  0.376160  1
  Co  Co5  1  0.250000  0.153361  0.442614  1
  Co  Co6  1  0.250000  0.636375  0.047327  1
  Co  Co7  1  0.750000  0.862992  0.579160  1
  Co  Co8  1  0.750000  0.355918  0.936374  1
  P  P9  1  0.250000  0.277133  0.121031  1
  P  P10  1  0.750000  0.221782  0.619736  1
  P  P11  1  0.750000  0.724974  0.880575  1
