# generated using pymatgen
data_Dy7Ho9InHg3Ir4
_symmetry_space_group_name_H-M   'P 1'
_cell_length_a   9.58551859
_cell_length_b   9.60028427
_cell_length_c   9.59556500
_cell_angle_alpha   60.01625644
_cell_angle_beta   59.96532020
_cell_angle_gamma   59.97112046
_symmetry_Int_Tables_number   1
_chemical_formula_structural   Dy7Ho9InHg3Ir4
_chemical_formula_sum   'Dy7 Ho9 In1 Hg3 Ir4'
_cell_volume   624.16549290
_cell_formula_units_Z   1
loop_
 _symmetry_equiv_pos_site_id
 _symmetry_equiv_pos_as_xyz
  1  'x, y, z'
loop_
 _atom_site_type_symbol
 _atom_site_label
 _atom_site_symmetry_multiplicity
 _atom_site_fract_x
 _atom_site_fract_y
 _atom_site_fract_z
 _atom_site_occupancy
  Dy  Dy0  1  0.060390  0.059873  0.439868  1
  Dy  Dy1  1  0.186014  0.811924  0.812158  1
  Dy  Dy2  1  0.810518  0.189040  0.188189  1
  Dy  Dy3  1  0.810518  0.189040  0.812253  1
  Dy  Dy4  1  0.186014  0.811924  0.189903  1
  Dy  Dy5  1  0.810767  0.812086  0.188574  1
  Dy  Dy6  1  0.185721  0.190623  0.811828  1
  Ho  Ho7  1  0.600165  0.599972  0.599600  1
  Ho  Ho8  1  0.600165  0.599972  0.200263  1
  Ho  Ho9  1  0.600167  0.199707  0.600063  1
  Ho  Ho10  1  0.198883  0.600321  0.600398  1
  Ho  Ho11  1  0.060138  0.439394  0.440307  1
  Ho  Ho12  1  0.439029  0.059168  0.059717  1
  Ho  Ho13  1  0.439029  0.059168  0.442087  1
  Ho  Ho14  1  0.060138  0.439394  0.060160  1
  Ho  Ho15  1  0.439431  0.441682  0.059444  1
  In  In16  1  0.507192  0.830625  0.831091  1
  Hg  Hg17  1  0.834497  0.834559  0.834692  1
  Hg  Hg18  1  0.834497  0.834559  0.496252  1
  Hg  Hg19  1  0.834733  0.495460  0.834904  1
  Ir  Ir20  1  0.392390  0.392168  0.391390  1
  Ir  Ir21  1  0.392390  0.392168  0.824053  1
  Ir  Ir22  1  0.392873  0.824469  0.391329  1
  Ir  Ir23  1  0.824343  0.392703  0.391478  1
