# generated using pymatgen
data_LiBe2(Co2Si)3
_symmetry_space_group_name_H-M   'P 1'
_cell_length_a   3.81567900
_cell_length_b   5.41324100
_cell_length_c   11.45951000
_cell_angle_alpha   90.00170172
_cell_angle_beta   90.00093048
_cell_angle_gamma   89.99986141
_symmetry_Int_Tables_number   1
_chemical_formula_structural   LiBe2(Co2Si)3
_chemical_formula_sum   'Li2 Be4 Co12 Si6'
_cell_volume   236.69835635
_cell_formula_units_Z   2
loop_
 _symmetry_equiv_pos_site_id
 _symmetry_equiv_pos_as_xyz
  1  'x, y, z'
loop_
 _atom_site_type_symbol
 _atom_site_label
 _atom_site_symmetry_multiplicity
 _atom_site_fract_x
 _atom_site_fract_y
 _atom_site_fract_z
 _atom_site_occupancy
  Li  Li0  1  0.000008  0.500149  0.998902  1
  Li  Li1  1  0.499864  0.999922  0.167557  1
  Be  Be2  1  0.999770  0.500079  0.334204  1
  Be  Be3  1  0.500000  0.999884  0.499999  1
  Be  Be4  1  0.000168  0.500093  0.666700  1
  Be  Be5  1  0.500230  0.999898  0.832522  1
  Co  Co6  1  0.500006  0.245070  0.995338  1
  Co  Co7  1  0.500006  0.754920  0.995325  1
  Co  Co8  1  0.999857  0.254915  0.171262  1
  Co  Co9  1  0.999857  0.745055  0.171267  1
  Co  Co10  1  0.499855  0.253839  0.338805  1
  Co  Co11  1  0.499855  0.746180  0.338815  1
  Co  Co12  1  0.999996  0.249727  0.501291  1
  Co  Co13  1  0.999996  0.750280  0.501279  1
  Co  Co14  1  0.500132  0.250277  0.665458  1
  Co  Co15  1  0.500133  0.749722  0.665465  1
  Co  Co16  1  0.000144  0.246159  0.827884  1
  Co  Co17  1  0.000144  0.753829  0.827893  1
  Si  Si18  1  0.999995  0.000010  0.002098  1
  Si  Si19  1  0.499853  0.499931  0.164522  1
  Si  Si20  1  0.999844  0.000010  0.332767  1
  Si  Si21  1  0.499997  0.500051  0.501177  1
  Si  Si22  1  0.000151  0.999973  0.665541  1
  Si  Si23  1  0.500147  0.500018  0.833933  1
