# generated using pymatgen
data_Y2ErTh(InCu2)2
_symmetry_space_group_name_H-M   'P 1'
_cell_length_a   7.61760112
_cell_length_b   7.61760149
_cell_length_c   3.73426800
_cell_angle_alpha   90.00000000
_cell_angle_beta   90.00000000
_cell_angle_gamma   91.26089154
_symmetry_Int_Tables_number   1
_chemical_formula_structural   Y2ErTh(InCu2)2
_chemical_formula_sum   'Y2 Er1 Th1 In2 Cu4'
_cell_volume   216.63907281
_cell_formula_units_Z   1
loop_
 _symmetry_equiv_pos_site_id
 _symmetry_equiv_pos_as_xyz
  1  'x, y, z'
loop_
 _atom_site_type_symbol
 _atom_site_label
 _atom_site_symmetry_multiplicity
 _atom_site_fract_x
 _atom_site_fract_y
 _atom_site_fract_z
 _atom_site_occupancy
  Y  Y0  1  0.174320  0.327008  0.500000  1
  Y  Y1  1  0.827008  0.674320  0.500000  1
  Er  Er2  1  0.325476  0.825476  0.500000  1
  Th  Th3  1  0.674003  0.174003  0.500000  1
  In  In4  1  0.494038  0.506541  0.000000  1
  In  In5  1  0.006541  0.994038  0.000000  1
  Cu  Cu6  1  0.122472  0.622472  0.000000  1
  Cu  Cu7  1  0.883648  0.383648  0.000000  1
  Cu  Cu8  1  0.616606  0.875887  0.000000  1
  Cu  Cu9  1  0.375887  0.116606  0.000000  1
