# generated using pymatgen
data_Pr12OsRh2Au
_symmetry_space_group_name_H-M   'P 1'
_cell_length_a   6.60857898
_cell_length_b   7.45600792
_cell_length_c   10.04509100
_cell_angle_alpha   90.00000000
_cell_angle_beta   90.00000000
_cell_angle_gamma   90.25755865
_symmetry_Int_Tables_number   1
_chemical_formula_structural   Pr12OsRh2Au
_chemical_formula_sum   'Pr12 Os1 Rh2 Au1'
_cell_volume   494.95296802
_cell_formula_units_Z   1
loop_
 _symmetry_equiv_pos_site_id
 _symmetry_equiv_pos_as_xyz
  1  'x, y, z'
loop_
 _atom_site_type_symbol
 _atom_site_label
 _atom_site_symmetry_multiplicity
 _atom_site_fract_x
 _atom_site_fract_y
 _atom_site_fract_z
 _atom_site_occupancy
  Pr  Pr0  1  0.340118  0.668650  0.063686  1
  Pr  Pr1  1  0.173464  0.187605  0.440699  1
  Pr  Pr2  1  0.670067  0.322478  0.564991  1
  Pr  Pr3  1  0.832309  0.825595  0.931092  1
  Pr  Pr4  1  0.670067  0.322478  0.935009  1
  Pr  Pr5  1  0.832309  0.825595  0.568908  1
  Pr  Pr6  1  0.340118  0.668650  0.436314  1
  Pr  Pr7  1  0.173464  0.187605  0.059301  1
  Pr  Pr8  1  0.852126  0.518437  0.250000  1
  Pr  Pr9  1  0.622825  0.041806  0.250000  1
  Pr  Pr10  1  0.141606  0.465297  0.750000  1
  Pr  Pr11  1  0.355842  0.959300  0.750000  1
  Os  Os12  1  0.429760  0.382157  0.250000  1
  Rh  Rh13  1  0.937309  0.119370  0.750000  1
  Rh  Rh14  1  0.565891  0.617854  0.750000  1
  Au  Au15  1  0.062728  0.887122  0.250000  1
