# generated using pymatgen
data_Be6Al5GeRh12
_symmetry_space_group_name_H-M   'P 1'
_cell_length_a   4.12018900
_cell_length_b   5.81445900
_cell_length_c   12.35194200
_cell_angle_alpha   90.00000000
_cell_angle_beta   89.99703233
_cell_angle_gamma   90.00000000
_symmetry_Int_Tables_number   1
_chemical_formula_structural   Be6Al5GeRh12
_chemical_formula_sum   'Be6 Al5 Ge1 Rh12'
_cell_volume   295.91139831
_cell_formula_units_Z   1
loop_
 _symmetry_equiv_pos_site_id
 _symmetry_equiv_pos_as_xyz
  1  'x, y, z'
loop_
 _atom_site_type_symbol
 _atom_site_label
 _atom_site_symmetry_multiplicity
 _atom_site_fract_x
 _atom_site_fract_y
 _atom_site_fract_z
 _atom_site_occupancy
  Be  Be0  1  0.000000  0.000000  0.000000  1
  Be  Be1  1  0.499213  0.500000  0.172930  1
  Be  Be2  1  0.999152  0.000000  0.333936  1
  Be  Be3  1  0.500000  0.500000  0.500000  1
  Be  Be4  1  0.000848  0.000000  0.666064  1
  Be  Be5  1  0.500787  0.500000  0.827070  1
  Al  Al6  1  0.499415  0.000000  0.167332  1
  Al  Al7  1  0.999367  0.500000  0.333905  1
  Al  Al8  1  0.500000  0.000000  0.500000  1
  Al  Al9  1  0.000633  0.500000  0.666095  1
  Al  Al10  1  0.500585  0.000000  0.832668  1
  Ge  Ge11  1  0.000000  0.500000  0.000000  1
  Rh  Rh12  1  0.500000  0.251334  0.000000  1
  Rh  Rh13  1  0.500000  0.748668  0.000000  1
  Rh  Rh14  1  0.999504  0.250829  0.165266  1
  Rh  Rh15  1  0.999504  0.749171  0.165266  1
  Rh  Rh16  1  0.499466  0.249969  0.333060  1
  Rh  Rh17  1  0.499466  0.750031  0.333060  1
  Rh  Rh18  1  0.000000  0.249414  0.500000  1
  Rh  Rh19  1  0.000000  0.750588  0.500000  1
  Rh  Rh20  1  0.500534  0.249969  0.666940  1
  Rh  Rh21  1  0.500534  0.750031  0.666940  1
  Rh  Rh22  1  0.000496  0.250829  0.834734  1
  Rh  Rh23  1  0.000496  0.749171  0.834734  1
