# generated using pymatgen
data_Pr8MgInOs2
_symmetry_space_group_name_H-M   'P 1'
_cell_length_a   10.02088305
_cell_length_b   10.02088362
_cell_length_c   10.08043800
_cell_angle_alpha   59.80321075
_cell_angle_beta   59.80320884
_cell_angle_gamma   59.66556679
_symmetry_Int_Tables_number   1
_chemical_formula_structural   Pr8MgInOs2
_chemical_formula_sum   'Pr16 Mg2 In2 Os4'
_cell_volume   711.82792954
_cell_formula_units_Z   2
loop_
 _symmetry_equiv_pos_site_id
 _symmetry_equiv_pos_as_xyz
  1  'x, y, z'
loop_
 _atom_site_type_symbol
 _atom_site_label
 _atom_site_symmetry_multiplicity
 _atom_site_fract_x
 _atom_site_fract_y
 _atom_site_fract_z
 _atom_site_occupancy
  Pr  Pr0  1  0.345136  0.345136  0.344661  1
  Pr  Pr1  1  0.345136  0.345136  0.965065  1
  Pr  Pr2  1  0.346658  0.962242  0.345550  1
  Pr  Pr3  1  0.962242  0.346658  0.345550  1
  Pr  Pr4  1  0.808865  0.191450  0.190407  1
  Pr  Pr5  1  0.191450  0.808865  0.809278  1
  Pr  Pr6  1  0.191450  0.808865  0.190407  1
  Pr  Pr7  1  0.808865  0.191450  0.809278  1
  Pr  Pr8  1  0.187615  0.187615  0.812385  1
  Pr  Pr9  1  0.806183  0.806183  0.193817  1
  Pr  Pr10  1  0.940011  0.560104  0.559318  1
  Pr  Pr11  1  0.560104  0.940011  0.940566  1
  Pr  Pr12  1  0.560104  0.940011  0.559318  1
  Pr  Pr13  1  0.940011  0.560104  0.940566  1
  Pr  Pr14  1  0.559371  0.559371  0.940629  1
  Pr  Pr15  1  0.941531  0.941531  0.558469  1
  Mg  Mg16  1  0.576414  0.269613  0.576985  1
  Mg  Mg17  1  0.269613  0.576414  0.576985  1
  In  In18  1  0.578857  0.578857  0.580619  1
  In  In19  1  0.578857  0.578857  0.261666  1
  Os  Os20  1  0.138126  0.138126  0.138206  1
  Os  Os21  1  0.138126  0.138126  0.585542  1
  Os  Os22  1  0.139782  0.585491  0.137364  1
  Os  Os23  1  0.585491  0.139782  0.137364  1
