# generated using pymatgen
data_YMn(PRh)2
_symmetry_space_group_name_H-M   'P 1'
_cell_length_a   3.87026900
_cell_length_b   11.10844000
_cell_length_c   12.82748200
_cell_angle_alpha   90.00000000
_cell_angle_beta   90.00000000
_cell_angle_gamma   90.00000000
_symmetry_Int_Tables_number   1
_chemical_formula_structural   YMn(PRh)2
_chemical_formula_sum   'Y6 Mn6 P12 Rh12'
_cell_volume   551.48745645
_cell_formula_units_Z   6
loop_
 _symmetry_equiv_pos_site_id
 _symmetry_equiv_pos_as_xyz
  1  'x, y, z'
loop_
 _atom_site_type_symbol
 _atom_site_label
 _atom_site_symmetry_multiplicity
 _atom_site_fract_x
 _atom_site_fract_y
 _atom_site_fract_z
 _atom_site_occupancy
  Y  Y0  1  0.000000  0.500000  0.517488  1
  Y  Y1  1  0.500000  0.000000  0.482512  1
  Y  Y2  1  0.500000  0.820563  0.200471  1
  Y  Y3  1  0.500000  0.179437  0.200471  1
  Y  Y4  1  0.000000  0.678372  0.795449  1
  Y  Y5  1  0.000000  0.321628  0.795449  1
  Mn  Mn6  1  0.500000  0.500000  0.161891  1
  Mn  Mn7  1  0.000000  0.000000  0.843844  1
  Mn  Mn8  1  0.000000  0.500000  0.986638  1
  Mn  Mn9  1  0.500000  0.000000  0.008639  1
  Mn  Mn10  1  0.500000  0.344049  0.998673  1
  Mn  Mn11  1  0.500000  0.655951  0.998673  1
  P  P12  1  0.500000  0.500000  0.882531  1
  P  P13  1  0.000000  0.000000  0.111274  1
  P  P14  1  0.500000  0.500000  0.345195  1
  P  P15  1  0.000000  0.000000  0.656641  1
  P  P16  1  0.500000  0.312552  0.617972  1
  P  P17  1  0.500000  0.687448  0.617972  1
  P  P18  1  0.000000  0.185691  0.379789  1
  P  P19  1  0.000000  0.814309  0.379789  1
  P  P20  1  0.500000  0.842875  0.896569  1
  P  P21  1  0.500000  0.157125  0.896569  1
  P  P22  1  0.000000  0.647398  0.107273  1
  P  P23  1  0.000000  0.352602  0.107273  1
  Rh  Rh24  1  0.500000  0.500000  0.699437  1
  Rh  Rh25  1  0.000000  0.000000  0.295850  1
  Rh  Rh26  1  0.000000  0.173385  0.004621  1
  Rh  Rh27  1  0.000000  0.826615  0.004621  1
  Rh  Rh28  1  0.500000  0.292190  0.431149  1
  Rh  Rh29  1  0.500000  0.707810  0.431149  1
  Rh  Rh30  1  0.000000  0.204774  0.569384  1
  Rh  Rh31  1  0.000000  0.795226  0.569384  1
  Rh  Rh32  1  0.500000  0.874086  0.713884  1
  Rh  Rh33  1  0.500000  0.125914  0.713884  1
  Rh  Rh34  1  0.000000  0.625126  0.288797  1
  Rh  Rh35  1  0.000000  0.374874  0.288797  1
