# generated using pymatgen
data_Ce4V(CuRh3)3
_symmetry_space_group_name_H-M   'P 1'
_cell_length_a   7.22488876
_cell_length_b   7.22488823
_cell_length_c   7.14560000
_cell_angle_alpha   109.24906707
_cell_angle_beta   109.24906560
_cell_angle_gamma   109.69245665
_symmetry_Int_Tables_number   1
_chemical_formula_structural   Ce4V(CuRh3)3
_chemical_formula_sum   'Ce4 V1 Cu3 Rh9'
_cell_volume   287.91379685
_cell_formula_units_Z   1
loop_
 _symmetry_equiv_pos_site_id
 _symmetry_equiv_pos_as_xyz
  1  'x, y, z'
loop_
 _atom_site_type_symbol
 _atom_site_label
 _atom_site_symmetry_multiplicity
 _atom_site_fract_x
 _atom_site_fract_y
 _atom_site_fract_z
 _atom_site_occupancy
  Ce  Ce0  1  0.000000  0.000000  0.500000  1
  Ce  Ce1  1  0.027991  0.513995  0.013995  1
  Ce  Ce2  1  0.486005  0.972009  0.986005  1
  Ce  Ce3  1  0.486005  0.513995  0.500000  1
  V  V4  1  0.000000  0.000000  0.000000  1
  Cu  Cu5  1  0.747457  0.252543  0.500000  1
  Cu  Cu6  1  0.747457  0.494915  0.247457  1
  Cu  Cu7  1  0.505085  0.252543  0.752543  1
  Rh  Rh8  1  0.240820  0.481640  0.740820  1
  Rh  Rh9  1  0.240820  0.759180  0.500000  1
  Rh  Rh10  1  0.518360  0.759180  0.259180  1
  Rh  Rh11  1  0.722205  0.694937  0.991570  1
  Rh  Rh12  1  0.305063  0.027269  0.296633  1
  Rh  Rh13  1  0.972731  0.277795  0.269363  1
  Rh  Rh14  1  0.305063  0.277795  0.008430  1
  Rh  Rh15  1  0.722205  0.027269  0.730637  1
  Rh  Rh16  1  0.972731  0.694937  0.703367  1
