# generated using pymatgen
data_Li8Nd8Tl3Bi5
_symmetry_space_group_name_H-M   'P 1'
_cell_length_a   9.71447165
_cell_length_b   9.71853405
_cell_length_c   7.56175000
_cell_angle_alpha   89.99999410
_cell_angle_beta   89.91517519
_cell_angle_gamma   120.01383150
_symmetry_Int_Tables_number   1
_chemical_formula_structural   Li8Nd8Tl3Bi5
_chemical_formula_sum   'Li8 Nd8 Tl3 Bi5'
_cell_volume   618.17538893
_cell_formula_units_Z   1
loop_
 _symmetry_equiv_pos_site_id
 _symmetry_equiv_pos_as_xyz
  1  'x, y, z'
loop_
 _atom_site_type_symbol
 _atom_site_label
 _atom_site_symmetry_multiplicity
 _atom_site_fract_x
 _atom_site_fract_y
 _atom_site_fract_z
 _atom_site_occupancy
  Li  Li0  1  0.170831  0.336792  0.282912  1
  Li  Li1  1  0.170831  0.834040  0.282912  1
  Li  Li2  1  0.662318  0.831159  0.286049  1
  Li  Li3  1  0.830646  0.662296  0.784718  1
  Li  Li4  1  0.830646  0.168350  0.784718  1
  Li  Li5  1  0.337813  0.168906  0.786637  1
  Li  Li6  1  0.333485  0.666743  0.667373  1
  Li  Li7  1  0.663415  0.331707  0.169130  1
  Nd  Nd8  1  0.510280  0.028292  0.492470  1
  Nd  Nd9  1  0.510280  0.481989  0.492470  1
  Nd  Nd10  1  0.975281  0.487642  0.495411  1
  Nd  Nd11  1  0.484479  0.977156  0.999777  1
  Nd  Nd12  1  0.484479  0.507322  0.999777  1
  Nd  Nd13  1  0.024574  0.512287  0.996090  1
  Nd  Nd14  1  0.005399  0.002700  0.496660  1
  Nd  Nd15  1  0.005778  0.002889  0.005551  1
  Tl  Tl16  1  0.331717  0.165858  0.231043  1
  Tl  Tl17  1  0.332283  0.666142  0.261638  1
  Tl  Tl18  1  0.668783  0.334391  0.762633  1
  Bi  Bi19  1  0.165805  0.332199  0.733000  1
  Bi  Bi20  1  0.165805  0.833607  0.733000  1
  Bi  Bi21  1  0.667994  0.833998  0.732197  1
  Bi  Bi22  1  0.833537  0.667083  0.232906  1
  Bi  Bi23  1  0.833537  0.166453  0.232906  1
