# generated using pymatgen
data_Nd3PCl3
_symmetry_space_group_name_H-M   'P 1'
_cell_length_a   10.04587205
_cell_length_b   10.04587166
_cell_length_c   10.04587200
_cell_angle_alpha   109.47122132
_cell_angle_beta   109.47122054
_cell_angle_gamma   109.47121865
_symmetry_Int_Tables_number   1
_chemical_formula_structural   Nd3PCl3
_chemical_formula_sum   'Nd12 P4 Cl12'
_cell_volume   780.44270377
_cell_formula_units_Z   4
loop_
 _symmetry_equiv_pos_site_id
 _symmetry_equiv_pos_as_xyz
  1  'x, y, z'
loop_
 _atom_site_type_symbol
 _atom_site_label
 _atom_site_symmetry_multiplicity
 _atom_site_fract_x
 _atom_site_fract_y
 _atom_site_fract_z
 _atom_site_occupancy
  Nd  Nd0  1  0.479456  0.489729  0.239729  1
  Nd  Nd1  1  0.750000  0.239729  0.260271  1
  Nd  Nd2  1  0.750000  0.010271  0.489729  1
  Nd  Nd3  1  0.239729  0.479456  0.489729  1
  Nd  Nd4  1  0.260271  0.750000  0.239729  1
  Nd  Nd5  1  0.020544  0.260271  0.010271  1
  Nd  Nd6  1  0.010271  0.020544  0.260271  1
  Nd  Nd7  1  0.489729  0.750000  0.010271  1
  Nd  Nd8  1  0.489729  0.239729  0.479456  1
  Nd  Nd9  1  0.010271  0.489729  0.750000  1
  Nd  Nd10  1  0.260271  0.010271  0.020544  1
  Nd  Nd11  1  0.239729  0.260271  0.750000  1
  P  P12  1  0.250000  0.250000  0.250000  1
  P  P13  1  0.500000  0.000000  0.250000  1
  P  P14  1  0.000000  0.250000  0.500000  1
  P  P15  1  0.250000  0.500000  0.000000  1
  Cl  Cl16  1  0.250000  0.751330  0.748670  1
  Cl  Cl17  1  0.502660  0.501330  0.751330  1
  Cl  Cl18  1  0.997340  0.748670  0.998670  1
  Cl  Cl19  1  0.748670  0.250000  0.751330  1
  Cl  Cl20  1  0.998670  0.997340  0.748670  1
  Cl  Cl21  1  0.250000  0.998670  0.501330  1
  Cl  Cl22  1  0.751330  0.502660  0.501330  1
  Cl  Cl23  1  0.501330  0.250000  0.998670  1
  Cl  Cl24  1  0.751330  0.748670  0.250000  1
  Cl  Cl25  1  0.748670  0.998670  0.997340  1
  Cl  Cl26  1  0.998670  0.501330  0.250000  1
  Cl  Cl27  1  0.501330  0.751330  0.502660  1
