# generated using pymatgen
data_Th6FeCoAu6
_symmetry_space_group_name_H-M   'P 1'
_cell_length_a   8.21774482
_cell_length_b   8.21774529
_cell_length_c   8.21774581
_cell_angle_alpha   114.22988999
_cell_angle_beta   114.22988809
_cell_angle_gamma   114.22986190
_symmetry_Int_Tables_number   1
_chemical_formula_structural   Th6FeCoAu6
_chemical_formula_sum   'Th6 Fe1 Co1 Au6'
_cell_volume   331.33871465
_cell_formula_units_Z   1
loop_
 _symmetry_equiv_pos_site_id
 _symmetry_equiv_pos_as_xyz
  1  'x, y, z'
loop_
 _atom_site_type_symbol
 _atom_site_label
 _atom_site_symmetry_multiplicity
 _atom_site_fract_x
 _atom_site_fract_y
 _atom_site_fract_z
 _atom_site_occupancy
  Th  Th0  1  0.048172  0.383880  0.280270  1
  Th  Th1  1  0.383880  0.280270  0.048172  1
  Th  Th2  1  0.719730  0.951828  0.616120  1
  Th  Th3  1  0.280270  0.048172  0.383880  1
  Th  Th4  1  0.616120  0.719730  0.951828  1
  Th  Th5  1  0.951828  0.616120  0.719730  1
  Fe  Fe6  1  0.000000  0.000000  0.000000  1
  Co  Co7  1  0.500000  0.500000  0.500000  1
  Au  Au8  1  0.420375  0.931197  0.766552  1
  Au  Au9  1  0.931197  0.766552  0.420375  1
  Au  Au10  1  0.233448  0.579625  0.068803  1
  Au  Au11  1  0.766552  0.420375  0.931197  1
  Au  Au12  1  0.068803  0.233448  0.579625  1
  Au  Au13  1  0.579625  0.068803  0.233448  1
