# generated using pymatgen
data_Tb6YTh3(In2Pd)4
_symmetry_space_group_name_H-M   'P 1'
_cell_length_a   3.75041000
_cell_length_b   8.16866151
_cell_length_c   18.32475688
_cell_angle_alpha   90.00757558
_cell_angle_beta   90.00000000
_cell_angle_gamma   90.00000000
_symmetry_Int_Tables_number   1
_chemical_formula_structural   Tb6YTh3(In2Pd)4
_chemical_formula_sum   'Tb6 Y1 Th3 In8 Pd4'
_cell_volume   561.39412814
_cell_formula_units_Z   1
loop_
 _symmetry_equiv_pos_site_id
 _symmetry_equiv_pos_as_xyz
  1  'x, y, z'
loop_
 _atom_site_type_symbol
 _atom_site_label
 _atom_site_symmetry_multiplicity
 _atom_site_fract_x
 _atom_site_fract_y
 _atom_site_fract_z
 _atom_site_occupancy
  Tb  Tb0  1  0.500000  0.738759  0.717962  1
  Tb  Tb1  1  0.500000  0.114005  0.583368  1
  Tb  Tb2  1  0.500000  0.882753  0.419413  1
  Tb  Tb3  1  0.500000  0.382781  0.081320  1
  Tb  Tb4  1  0.500000  0.616843  0.916672  1
  Tb  Tb5  1  0.500000  0.000149  0.998395  1
  Y  Y6  1  0.500000  0.499749  0.500156  1
  Th  Th7  1  0.500000  0.240269  0.781546  1
  Th  Th8  1  0.500000  0.762115  0.217726  1
  Th  Th9  1  0.500000  0.262220  0.282510  1
  In  In10  1  0.000000  0.082190  0.145644  1
  In  In11  1  0.000000  0.913850  0.850515  1
  In  In12  1  0.000000  0.425953  0.646308  1
  In  In13  1  0.000000  0.583125  0.354178  1
  In  In14  1  0.000000  0.205927  0.436110  1
  In  In15  1  0.000000  0.790638  0.567880  1
  In  In16  1  0.000000  0.294236  0.935541  1
  In  In17  1  0.000000  0.706401  0.064024  1
  Pd  Pd18  1  0.000000  0.028469  0.697502  1
  Pd  Pd19  1  0.000000  0.972958  0.303337  1
  Pd  Pd20  1  0.000000  0.473820  0.197079  1
  Pd  Pd21  1  0.000000  0.522792  0.802816  1
