# generated using pymatgen
data_TbHoP7Ru12
_symmetry_space_group_name_H-M   'P 1'
_cell_length_a   9.40747600
_cell_length_b   9.40747446
_cell_length_c   3.95911600
_cell_angle_alpha   90.00000000
_cell_angle_beta   90.00000000
_cell_angle_gamma   119.99999838
_symmetry_Int_Tables_number   1
_chemical_formula_structural   TbHoP7Ru12
_chemical_formula_sum   'Tb1 Ho1 P7 Ru12'
_cell_volume   303.44153893
_cell_formula_units_Z   1
loop_
 _symmetry_equiv_pos_site_id
 _symmetry_equiv_pos_as_xyz
  1  'x, y, z'
loop_
 _atom_site_type_symbol
 _atom_site_label
 _atom_site_symmetry_multiplicity
 _atom_site_fract_x
 _atom_site_fract_y
 _atom_site_fract_z
 _atom_site_occupancy
  Tb  Tb0  1  0.333333  0.666667  0.000000  1
  Ho  Ho1  1  0.666667  0.333333  0.500000  1
  P  P2  1  0.601212  0.718589  0.500000  1
  P  P3  1  0.000000  0.000000  0.000000  1
  P  P4  1  0.281411  0.882624  0.500000  1
  P  P5  1  0.117376  0.398788  0.500000  1
  P  P6  1  0.885267  0.573343  0.000000  1
  P  P7  1  0.426657  0.311924  0.000000  1
  P  P8  1  0.688076  0.114733  0.000000  1
  Ru  Ru9  1  0.556817  0.950662  0.500000  1
  Ru  Ru10  1  0.393846  0.443183  0.500000  1
  Ru  Ru11  1  0.914708  0.121498  0.500000  1
  Ru  Ru12  1  0.206789  0.085292  0.500000  1
  Ru  Ru13  1  0.878502  0.793211  0.500000  1
  Ru  Ru14  1  0.728058  0.892458  0.000000  1
  Ru  Ru15  1  0.107542  0.835600  0.000000  1
  Ru  Ru16  1  0.164400  0.271942  0.000000  1
  Ru  Ru17  1  0.423481  0.067022  0.000000  1
  Ru  Ru18  1  0.932978  0.356460  0.000000  1
  Ru  Ru19  1  0.643540  0.576519  0.000000  1
  Ru  Ru20  1  0.049338  0.606154  0.500000  1
