# generated using pymatgen
data_Li6Gd2UN6
_symmetry_space_group_name_H-M   'P 1'
_cell_length_a   6.07693400
_cell_length_b   6.07693517
_cell_length_c   5.46319900
_cell_angle_alpha   90.00000000
_cell_angle_beta   90.00000000
_cell_angle_gamma   120.00000449
_symmetry_Int_Tables_number   1
_chemical_formula_structural   Li6Gd2UN6
_chemical_formula_sum   'Li6 Gd2 U1 N6'
_cell_volume   174.72166330
_cell_formula_units_Z   1
loop_
 _symmetry_equiv_pos_site_id
 _symmetry_equiv_pos_as_xyz
  1  'x, y, z'
loop_
 _atom_site_type_symbol
 _atom_site_label
 _atom_site_symmetry_multiplicity
 _atom_site_fract_x
 _atom_site_fract_y
 _atom_site_fract_z
 _atom_site_occupancy
  Li  Li0  1  0.979628  0.651186  0.605115  1
  Li  Li1  1  0.348814  0.328443  0.605115  1
  Li  Li2  1  0.671557  0.020372  0.605115  1
  Li  Li3  1  0.006867  0.338959  0.392939  1
  Li  Li4  1  0.661041  0.667908  0.392939  1
  Li  Li5  1  0.332092  0.993133  0.392939  1
  Gd  Gd6  1  0.000000  0.000000  0.999352  1
  Gd  Gd7  1  0.333333  0.666667  0.991807  1
  U  U8  1  0.666667  0.333333  0.005781  1
  N  N9  1  0.975304  0.641978  0.227335  1
  N  N10  1  0.358022  0.333325  0.227335  1
  N  N11  1  0.666675  0.024696  0.227335  1
  N  N12  1  0.972730  0.333698  0.775632  1
  N  N13  1  0.666302  0.639032  0.775632  1
  N  N14  1  0.360968  0.027270  0.775632  1
