# generated using pymatgen
data_Na5SbI8
_symmetry_space_group_name_H-M   'P 1'
_cell_length_a   8.01338900
_cell_length_b   8.01338960
_cell_length_c   9.26640300
_cell_angle_alpha   90.00000000
_cell_angle_beta   90.00000000
_cell_angle_gamma   109.11633314
_symmetry_Int_Tables_number   1
_chemical_formula_structural   Na5SbI8
_chemical_formula_sum   'Na5 Sb1 I8'
_cell_volume   562.22364537
_cell_formula_units_Z   1
loop_
 _symmetry_equiv_pos_site_id
 _symmetry_equiv_pos_as_xyz
  1  'x, y, z'
loop_
 _atom_site_type_symbol
 _atom_site_label
 _atom_site_symmetry_multiplicity
 _atom_site_fract_x
 _atom_site_fract_y
 _atom_site_fract_z
 _atom_site_occupancy
  Na  Na0  1  0.500000  0.000000  0.236034  1
  Na  Na1  1  0.000000  0.500000  0.763966  1
  Na  Na2  1  0.500000  0.000000  0.763966  1
  Na  Na3  1  0.000000  0.500000  0.236034  1
  Na  Na4  1  0.500000  0.500000  0.000000  1
  Sb  Sb5  1  0.500000  0.500000  0.500000  1
  I  I6  1  0.267461  0.267461  0.265690  1
  I  I7  1  0.732539  0.732539  0.265690  1
  I  I8  1  0.264592  0.735408  0.500000  1
  I  I9  1  0.267461  0.267461  0.734310  1
  I  I10  1  0.732539  0.732539  0.734310  1
  I  I11  1  0.255689  0.744311  0.000000  1
  I  I12  1  0.735408  0.264592  0.500000  1
  I  I13  1  0.744311  0.255689  0.000000  1
