# generated using pymatgen
data_Sc4BeB7(Ru4W)2
_symmetry_space_group_name_H-M   'P 1'
_cell_length_a   3.05255400
_cell_length_b   8.60011136
_cell_length_c   10.10933294
_cell_angle_alpha   90.92125250
_cell_angle_beta   90.00000000
_cell_angle_gamma   90.00000000
_symmetry_Int_Tables_number   1
_chemical_formula_structural   Sc4BeB7(Ru4W)2
_chemical_formula_sum   'Sc4 Be1 B7 Ru8 W2'
_cell_volume   265.35897947
_cell_formula_units_Z   1
loop_
 _symmetry_equiv_pos_site_id
 _symmetry_equiv_pos_as_xyz
  1  'x, y, z'
loop_
 _atom_site_type_symbol
 _atom_site_label
 _atom_site_symmetry_multiplicity
 _atom_site_fract_x
 _atom_site_fract_y
 _atom_site_fract_z
 _atom_site_occupancy
  Sc  Sc0  1  0.500000  0.840046  0.180263  1
  Sc  Sc1  1  0.500000  0.158142  0.820902  1
  Sc  Sc2  1  0.500000  0.657408  0.684908  1
  Sc  Sc3  1  0.500000  0.342196  0.318907  1
  Be  Be4  1  0.500000  0.965730  0.590291  1
  B  B5  1  0.500000  0.036666  0.406844  1
  B  B6  1  0.500000  0.852064  0.896891  1
  B  B7  1  0.500000  0.145852  0.101359  1
  B  B8  1  0.500000  0.651615  0.400221  1
  B  B9  1  0.500000  0.350564  0.598521  1
  B  B10  1  0.500000  0.462474  0.914632  1
  B  B11  1  0.500000  0.535694  0.086151  1
  Ru  Ru12  1  0.000000  0.841022  0.446743  1
  Ru  Ru13  1  0.000000  0.165236  0.542999  1
  Ru  Ru14  1  0.000000  0.999913  0.002156  1
  Ru  Ru15  1  0.000000  0.403660  0.758894  1
  Ru  Ru16  1  0.000000  0.594158  0.240331  1
  Ru  Ru17  1  0.000000  0.503458  0.500307  1
  Ru  Ru18  1  0.000000  0.901662  0.745058  1
  Ru  Ru19  1  0.000000  0.094828  0.262083  1
  W  W20  1  0.000000  0.661473  0.953035  1
  W  W21  1  0.000000  0.336138  0.048503  1
