# generated using pymatgen
data_DyHo3(NbRu3)2
_symmetry_space_group_name_H-M   'P 1'
_cell_length_a   5.69373700
_cell_length_b   5.69373642
_cell_length_c   8.03042600
_cell_angle_alpha   89.99964317
_cell_angle_beta   90.00035950
_cell_angle_gamma   120.00100376
_symmetry_Int_Tables_number   1
_chemical_formula_structural   DyHo3(NbRu3)2
_chemical_formula_sum   'Dy1 Ho3 Nb2 Ru6'
_cell_volume   225.45485123
_cell_formula_units_Z   1
loop_
 _symmetry_equiv_pos_site_id
 _symmetry_equiv_pos_as_xyz
  1  'x, y, z'
loop_
 _atom_site_type_symbol
 _atom_site_label
 _atom_site_symmetry_multiplicity
 _atom_site_fract_x
 _atom_site_fract_y
 _atom_site_fract_z
 _atom_site_occupancy
  Dy  Dy0  1  0.666614  0.333386  0.560552  1
  Ho  Ho1  1  0.333390  0.666610  0.439495  1
  Ho  Ho2  1  0.333390  0.666610  0.060468  1
  Ho  Ho3  1  0.666614  0.333386  0.939495  1
  Nb  Nb4  1  0.999997  0.000003  0.500027  1
  Nb  Nb5  1  0.000001  0.999999  0.000044  1
  Ru  Ru6  1  0.171749  0.343589  0.750032  1
  Ru  Ru7  1  0.171803  0.828197  0.750029  1
  Ru  Ru8  1  0.656411  0.828251  0.750032  1
  Ru  Ru9  1  0.828285  0.656490  0.249941  1
  Ru  Ru10  1  0.828236  0.171764  0.249942  1
  Ru  Ru11  1  0.343510  0.171715  0.249941  1
