# generated using pymatgen
data_Ta6AlRe2Si3C2
_symmetry_space_group_name_H-M   'P 1'
_cell_length_a   8.22750222
_cell_length_b   8.24065200
_cell_length_c   8.24065183
_cell_angle_alpha   60.15813208
_cell_angle_beta   60.05277338
_cell_angle_gamma   60.05277180
_symmetry_Int_Tables_number   1
_chemical_formula_structural   Ta6AlRe2Si3C2
_chemical_formula_sum   'Ta12 Al2 Re4 Si6 C4'
_cell_volume   395.85785650
_cell_formula_units_Z   2
loop_
 _symmetry_equiv_pos_site_id
 _symmetry_equiv_pos_as_xyz
  1  'x, y, z'
loop_
 _atom_site_type_symbol
 _atom_site_label
 _atom_site_symmetry_multiplicity
 _atom_site_fract_x
 _atom_site_fract_y
 _atom_site_fract_z
 _atom_site_occupancy
  Ta  Ta0  1  0.558487  0.945182  0.552189  1
  Ta  Ta1  1  0.308146  0.692242  0.692242  1
  Ta  Ta2  1  0.696436  0.306580  0.306580  1
  Ta  Ta3  1  0.305859  0.697811  0.304818  1
  Ta  Ta4  1  0.690459  0.690991  0.309061  1
  Ta  Ta5  1  0.305859  0.304818  0.697811  1
  Ta  Ta6  1  0.558487  0.552189  0.945182  1
  Ta  Ta7  1  0.942629  0.557758  0.557758  1
  Ta  Ta8  1  0.559596  0.943420  0.943420  1
  Ta  Ta9  1  0.940512  0.940939  0.559009  1
  Ta  Ta10  1  0.690459  0.309061  0.690991  1
  Ta  Ta11  1  0.940512  0.559009  0.940939  1
  Al  Al12  1  0.252360  0.916207  0.916207  1
  Al  Al13  1  0.334772  0.333793  0.333793  1
  Re  Re14  1  0.123523  0.129772  0.129772  1
  Re  Re15  1  0.633067  0.120228  0.120228  1
  Re  Re16  1  0.117938  0.625000  0.125000  1
  Re  Re17  1  0.117938  0.125000  0.625000  1
  Si  Si18  1  0.917840  0.912071  0.912071  1
  Si  Si19  1  0.991980  0.337929  0.337929  1
  Si  Si20  1  0.338004  0.993335  0.337197  1
  Si  Si21  1  0.338004  0.337197  0.993335  1
  Si  Si22  1  0.918538  0.256665  0.912803  1
  Si  Si23  1  0.918538  0.912803  0.256665  1
  C  C24  1  0.625014  0.625642  0.625642  1
  C  C25  1  0.126299  0.624358  0.624358  1
  C  C26  1  0.624371  0.125000  0.625000  1
  C  C27  1  0.624371  0.625000  0.125000  1
