# generated using pymatgen
data_Pr3Er(Si5Os3)2
_symmetry_space_group_name_H-M   'P 1'
_cell_length_a   8.24207406
_cell_length_b   8.22495177
_cell_length_c   5.88952662
_cell_angle_alpha   70.45584157
_cell_angle_beta   70.34839345
_cell_angle_gamma   93.72005094
_symmetry_Int_Tables_number   1
_chemical_formula_structural   Pr3Er(Si5Os3)2
_chemical_formula_sum   'Pr3 Er1 Si10 Os6'
_cell_volume   347.18684780
_cell_formula_units_Z   1
loop_
 _symmetry_equiv_pos_site_id
 _symmetry_equiv_pos_as_xyz
  1  'x, y, z'
loop_
 _atom_site_type_symbol
 _atom_site_label
 _atom_site_symmetry_multiplicity
 _atom_site_fract_x
 _atom_site_fract_y
 _atom_site_fract_z
 _atom_site_occupancy
  Pr  Pr0  1  0.868563  0.602446  0.753923  1
  Pr  Pr1  1  0.396884  0.133319  0.744932  1
  Pr  Pr2  1  0.133359  0.396581  0.245248  1
  Er  Er3  1  0.601781  0.868526  0.254840  1
  Si  Si4  1  0.061744  0.261790  0.836278  1
  Si  Si5  1  0.738794  0.937274  0.665366  1
  Si  Si6  1  0.932827  0.740930  0.164286  1
  Si  Si7  1  0.259937  0.058932  0.337243  1
  Si  Si8  1  0.208032  0.791391  0.752325  1
  Si  Si9  1  0.789542  0.205841  0.249804  1
  Si  Si10  1  0.513849  0.489321  0.749631  1
  Si  Si11  1  0.490870  0.515922  0.246339  1
  Si  Si12  1  0.772059  0.225384  0.753154  1
  Si  Si13  1  0.231524  0.772795  0.248632  1
  Os  Os14  1  0.260623  0.544583  0.629844  1
  Os  Os15  1  0.459648  0.744795  0.864753  1
  Os  Os16  1  0.742836  0.457051  0.368837  1
  Os  Os17  1  0.541574  0.253889  0.132436  1
  Os  Os18  1  0.000925  0.997063  0.751196  1
  Os  Os19  1  0.994631  0.002169  0.250934  1
