# generated using pymatgen
data_LaGaSiRh3
_symmetry_space_group_name_H-M   'P 1'
_cell_length_a   5.71635344
_cell_length_b   6.81423940
_cell_length_c   6.81423907
_cell_angle_alpha   65.89565126
_cell_angle_beta   65.01760330
_cell_angle_gamma   65.01761388
_symmetry_Int_Tables_number   1
_chemical_formula_structural   LaGaSiRh3
_chemical_formula_sum   'La2 Ga2 Si2 Rh6'
_cell_volume   209.36558082
_cell_formula_units_Z   2
loop_
 _symmetry_equiv_pos_site_id
 _symmetry_equiv_pos_as_xyz
  1  'x, y, z'
loop_
 _atom_site_type_symbol
 _atom_site_label
 _atom_site_symmetry_multiplicity
 _atom_site_fract_x
 _atom_site_fract_y
 _atom_site_fract_z
 _atom_site_occupancy
  La  La0  1  0.531257  0.750998  0.750998  1
  La  La1  1  0.468743  0.249002  0.249002  1
  Ga  Ga2  1  0.211356  0.574110  0.574110  1
  Ga  Ga3  1  0.788644  0.425890  0.425890  1
  Si  Si4  1  0.130712  0.091448  0.091448  1
  Si  Si5  1  0.869288  0.908552  0.908552  1
  Rh  Rh6  1  0.500000  0.210179  0.789821  1
  Rh  Rh7  1  0.000000  0.753547  0.246453  1
  Rh  Rh8  1  0.500000  0.789821  0.210179  1
  Rh  Rh9  1  0.000000  0.246453  0.753547  1
  Rh  Rh10  1  0.000000  0.500000  0.000000  1
  Rh  Rh11  1  0.000000  0.000000  0.500000  1
