# generated using pymatgen
data_Dy2Er8Sn5Bi
_symmetry_space_group_name_H-M   'P 1'
_cell_length_a   8.92745423
_cell_length_b   8.92336935
_cell_length_c   6.48318700
_cell_angle_alpha   90.00000000
_cell_angle_beta   90.00000000
_cell_angle_gamma   119.81070356
_symmetry_Int_Tables_number   1
_chemical_formula_structural   Dy2Er8Sn5Bi
_chemical_formula_sum   'Dy2 Er8 Sn5 Bi1'
_cell_volume   448.12681529
_cell_formula_units_Z   1
loop_
 _symmetry_equiv_pos_site_id
 _symmetry_equiv_pos_as_xyz
  1  'x, y, z'
loop_
 _atom_site_type_symbol
 _atom_site_label
 _atom_site_symmetry_multiplicity
 _atom_site_fract_x
 _atom_site_fract_y
 _atom_site_fract_z
 _atom_site_occupancy
  Dy  Dy0  1  0.993761  0.757920  0.750000  1
  Dy  Dy1  1  0.764935  0.999909  0.750000  1
  Er  Er2  1  0.000709  0.238733  0.250000  1
  Er  Er3  1  0.761463  0.760944  0.250000  1
  Er  Er4  1  0.236062  0.242653  0.750000  1
  Er  Er5  1  0.237571  0.000239  0.250000  1
  Er  Er6  1  0.332394  0.662228  0.498260  1
  Er  Er7  1  0.670944  0.337682  0.001873  1
  Er  Er8  1  0.670944  0.337682  0.498127  1
  Er  Er9  1  0.332394  0.662228  0.001740  1
  Sn  Sn10  1  0.395175  0.392878  0.250000  1
  Sn  Sn11  1  0.002472  0.606653  0.250000  1
  Sn  Sn12  1  0.999437  0.396239  0.750000  1
  Sn  Sn13  1  0.603074  0.603771  0.750000  1
  Sn  Sn14  1  0.605564  0.000130  0.250000  1
  Bi  Bi15  1  0.393097  0.000112  0.750000  1
