# generated using pymatgen
data_Tb10Ir2PdRu3
_symmetry_space_group_name_H-M   'P 1'
_cell_length_a   10.95100836
_cell_length_b   10.92675000
_cell_length_c   6.45724720
_cell_angle_alpha   90.00000000
_cell_angle_beta   89.86043603
_cell_angle_gamma   90.00000000
_symmetry_Int_Tables_number   1
_chemical_formula_structural   Tb10Ir2PdRu3
_chemical_formula_sum   'Tb20 Ir4 Pd2 Ru6'
_cell_volume   772.66500234
_cell_formula_units_Z   2
loop_
 _symmetry_equiv_pos_site_id
 _symmetry_equiv_pos_as_xyz
  1  'x, y, z'
loop_
 _atom_site_type_symbol
 _atom_site_label
 _atom_site_symmetry_multiplicity
 _atom_site_fract_x
 _atom_site_fract_y
 _atom_site_fract_z
 _atom_site_occupancy
  Tb  Tb0  1  0.298732  0.090041  0.373620  1
  Tb  Tb1  1  0.298732  0.909959  0.873620  1
  Tb  Tb2  1  0.707779  0.086499  0.878977  1
  Tb  Tb3  1  0.707779  0.913501  0.378977  1
  Tb  Tb4  1  0.589320  0.793176  0.881041  1
  Tb  Tb5  1  0.589320  0.206824  0.381041  1
  Tb  Tb6  1  0.418894  0.792633  0.379495  1
  Tb  Tb7  1  0.418894  0.207367  0.879495  1
  Tb  Tb8  1  0.206655  0.418615  0.620308  1
  Tb  Tb9  1  0.206655  0.581385  0.120308  1
  Tb  Tb10  1  0.792396  0.411353  0.119420  1
  Tb  Tb11  1  0.792396  0.588647  0.619420  1
  Tb  Tb12  1  0.907484  0.704139  0.118451  1
  Tb  Tb13  1  0.907484  0.295861  0.618451  1
  Tb  Tb14  1  0.082969  0.705790  0.629979  1
  Tb  Tb15  1  0.082969  0.294210  0.129979  1
  Tb  Tb16  1  0.994767  0.001769  0.499700  1
  Tb  Tb17  1  0.994767  0.998231  0.999700  1
  Tb  Tb18  1  0.499970  0.500588  0.000179  1
  Tb  Tb19  1  0.499970  0.499412  0.500179  1
  Ir  Ir20  1  0.651689  0.348520  0.749474  1
  Ir  Ir21  1  0.651689  0.651480  0.249474  1
  Ir  Ir22  1  0.346953  0.346288  0.250469  1
  Ir  Ir23  1  0.346953  0.653712  0.750469  1
  Pd  Pd24  1  0.154295  0.153801  0.750353  1
  Pd  Pd25  1  0.154295  0.846199  0.250353  1
  Ru  Ru26  1  0.849677  0.151833  0.248823  1
  Ru  Ru27  1  0.849677  0.848167  0.748823  1
  Ru  Ru28  1  0.498389  0.999988  0.122901  1
  Ru  Ru29  1  0.498389  0.000012  0.622901  1
  Ru  Ru30  1  0.000029  0.500099  0.876808  1
  Ru  Ru31  1  0.000029  0.499901  0.376808  1
