# generated using pymatgen
data_Li2YHo2AgPb3
_symmetry_space_group_name_H-M   'P 1'
_cell_length_a   7.40473829
_cell_length_b   7.41188399
_cell_length_c   4.63310400
_cell_angle_alpha   90.00000000
_cell_angle_beta   90.00000000
_cell_angle_gamma   120.03194125
_symmetry_Int_Tables_number   1
_chemical_formula_structural   Li2YHo2AgPb3
_chemical_formula_sum   'Li2 Y1 Ho2 Ag1 Pb3'
_cell_volume   220.14110135
_cell_formula_units_Z   1
loop_
 _symmetry_equiv_pos_site_id
 _symmetry_equiv_pos_as_xyz
  1  'x, y, z'
loop_
 _atom_site_type_symbol
 _atom_site_label
 _atom_site_symmetry_multiplicity
 _atom_site_fract_x
 _atom_site_fract_y
 _atom_site_fract_z
 _atom_site_occupancy
  Li  Li0  1  0.233583  0.003825  0.000000  1
  Li  Li1  1  0.766417  0.770242  0.000000  1
  Y  Y2  1  0.000000  0.554708  0.500000  1
  Ho  Ho3  1  0.573315  0.003848  0.500000  1
  Ho  Ho4  1  0.426685  0.430532  0.500000  1
  Ag  Ag5  1  0.000000  0.237271  0.000000  1
  Pb  Pb6  1  0.000000  0.987290  0.500000  1
  Pb  Pb7  1  0.342112  0.677200  0.000000  1
  Pb  Pb8  1  0.657888  0.335087  0.000000  1
