# generated using pymatgen
data_TbLu3(ScPt)4
_symmetry_space_group_name_H-M   'P 1'
_cell_length_a   4.58077900
_cell_length_b   6.91213929
_cell_length_c   8.39390968
_cell_angle_alpha   89.80382189
_cell_angle_beta   90.00000000
_cell_angle_gamma   90.00000000
_symmetry_Int_Tables_number   1
_chemical_formula_structural   TbLu3(ScPt)4
_chemical_formula_sum   'Tb1 Lu3 Sc4 Pt4'
_cell_volume   265.77465755
_cell_formula_units_Z   1
loop_
 _symmetry_equiv_pos_site_id
 _symmetry_equiv_pos_as_xyz
  1  'x, y, z'
loop_
 _atom_site_type_symbol
 _atom_site_label
 _atom_site_symmetry_multiplicity
 _atom_site_fract_x
 _atom_site_fract_y
 _atom_site_fract_z
 _atom_site_occupancy
  Tb  Tb0  1  0.250000  0.518578  0.174447  1
  Lu  Lu1  1  0.750000  0.480208  0.824542  1
  Lu  Lu2  1  0.750000  0.979042  0.674312  1
  Lu  Lu3  1  0.250000  0.019852  0.327917  1
  Sc  Sc4  1  0.250000  0.642021  0.571728  1
  Sc  Sc5  1  0.750000  0.357176  0.431953  1
  Sc  Sc6  1  0.750000  0.859505  0.070932  1
  Sc  Sc7  1  0.250000  0.141385  0.927868  1
  Pt  Pt8  1  0.250000  0.753373  0.891726  1
  Pt  Pt9  1  0.750000  0.246673  0.102380  1
  Pt  Pt10  1  0.750000  0.750820  0.397759  1
  Pt  Pt11  1  0.250000  0.251365  0.604435  1
