# generated using pymatgen
data_Tm(LuTe2)2
_symmetry_space_group_name_H-M   'P 1'
_cell_length_a   4.26196400
_cell_length_b   7.38174863
_cell_length_c   7.38989210
_cell_angle_alpha   71.64246084
_cell_angle_beta   90.00000000
_cell_angle_gamma   90.00000000
_symmetry_Int_Tables_number   1
_chemical_formula_structural   Tm(LuTe2)2
_chemical_formula_sum   'Tm1 Lu2 Te4'
_cell_volume   220.65995533
_cell_formula_units_Z   1
loop_
 _symmetry_equiv_pos_site_id
 _symmetry_equiv_pos_as_xyz
  1  'x, y, z'
loop_
 _atom_site_type_symbol
 _atom_site_label
 _atom_site_symmetry_multiplicity
 _atom_site_fract_x
 _atom_site_fract_y
 _atom_site_fract_z
 _atom_site_occupancy
  Tm  Tm0  1  0.000000  0.500000  0.500000  1
  Lu  Lu1  1  0.000000  0.000000  0.000000  1
  Lu  Lu2  1  0.500000  0.500000  0.000000  1
  Te  Te3  1  0.500000  0.758551  0.255638  1
  Te  Te4  1  0.000000  0.248958  0.249536  1
  Te  Te5  1  0.500000  0.241449  0.744362  1
  Te  Te6  1  0.000000  0.751042  0.750464  1
