# generated using pymatgen
data_Sc8Cr(B8Ru)3
_symmetry_space_group_name_H-M   'P 1'
_cell_length_a   3.45979200
_cell_length_b   8.87869912
_cell_length_c   11.19139715
_cell_angle_alpha   89.98100759
_cell_angle_beta   90.00000000
_cell_angle_gamma   90.00000000
_symmetry_Int_Tables_number   1
_chemical_formula_structural   Sc8Cr(B8Ru)3
_chemical_formula_sum   'Sc8 Cr1 B24 Ru3'
_cell_volume   343.78237955
_cell_formula_units_Z   1
loop_
 _symmetry_equiv_pos_site_id
 _symmetry_equiv_pos_as_xyz
  1  'x, y, z'
loop_
 _atom_site_type_symbol
 _atom_site_label
 _atom_site_symmetry_multiplicity
 _atom_site_fract_x
 _atom_site_fract_y
 _atom_site_fract_z
 _atom_site_occupancy
  Sc  Sc0  1  0.000000  0.818476  0.084611  1
  Sc  Sc1  1  0.000000  0.183925  0.911294  1
  Sc  Sc2  1  0.000000  0.319577  0.417616  1
  Sc  Sc3  1  0.000000  0.677776  0.587467  1
  Sc  Sc4  1  0.000000  0.443663  0.127786  1
  Sc  Sc5  1  0.000000  0.554720  0.871352  1
  Sc  Sc6  1  0.000000  0.943065  0.372365  1
  Sc  Sc7  1  0.000000  0.057776  0.627879  1
  Cr  Cr8  1  0.000000  0.361427  0.679853  1
  B  B9  1  0.500000  0.053254  0.064539  1
  B  B10  1  0.500000  0.946775  0.934871  1
  B  B11  1  0.500000  0.553062  0.435428  1
  B  B12  1  0.500000  0.446999  0.565633  1
  B  B13  1  0.500000  0.251795  0.078219  1
  B  B14  1  0.500000  0.747484  0.920933  1
  B  B15  1  0.500000  0.751309  0.421758  1
  B  B16  1  0.500000  0.249021  0.579480  1
  B  B17  1  0.500000  0.293720  0.236343  1
  B  B18  1  0.500000  0.705789  0.763902  1
  B  B19  1  0.500000  0.793851  0.263974  1
  B  B20  1  0.500000  0.206660  0.735660  1
  B  B21  1  0.500000  0.129950  0.317994  1
  B  B22  1  0.500000  0.870397  0.682719  1
  B  B23  1  0.500000  0.629813  0.182078  1
  B  B24  1  0.500000  0.370508  0.816627  1
  B  B25  1  0.500000  0.479239  0.287668  1
  B  B26  1  0.500000  0.520518  0.712106  1
  B  B27  1  0.500000  0.979205  0.212413  1
  B  B28  1  0.500000  0.021293  0.787216  1
  B  B29  1  0.500000  0.101113  0.472324  1
  B  B30  1  0.500000  0.898686  0.527976  1
  B  B31  1  0.500000  0.601269  0.027727  1
  B  B32  1  0.500000  0.398761  0.972074  1
  Ru  Ru33  1  0.000000  0.138555  0.179862  1
  Ru  Ru34  1  0.000000  0.861347  0.820772  1
  Ru  Ru35  1  0.000000  0.639220  0.319480  1
