# generated using pymatgen
data_Pr4ReTc3F28
_symmetry_space_group_name_H-M   'P 1'
_cell_length_a   5.76067405
_cell_length_b   9.26789845
_cell_length_c   12.43352494
_cell_angle_alpha   62.02173533
_cell_angle_beta   89.96143861
_cell_angle_gamma   89.95052229
_symmetry_Int_Tables_number   1
_chemical_formula_structural   Pr4ReTc3F28
_chemical_formula_sum   'Pr4 Re1 Tc3 F28'
_cell_volume   586.23419032
_cell_formula_units_Z   1
loop_
 _symmetry_equiv_pos_site_id
 _symmetry_equiv_pos_as_xyz
  1  'x, y, z'
loop_
 _atom_site_type_symbol
 _atom_site_label
 _atom_site_symmetry_multiplicity
 _atom_site_fract_x
 _atom_site_fract_y
 _atom_site_fract_z
 _atom_site_occupancy
  Pr  Pr0  1  0.759193  0.810826  0.764485  1
  Pr  Pr1  1  0.258111  0.188980  0.735402  1
  Pr  Pr2  1  0.240615  0.188947  0.235442  1
  Pr  Pr3  1  0.741298  0.811614  0.264525  1
  Re  Re4  1  0.743500  0.273285  0.457541  1
  Tc  Tc5  1  0.755580  0.274138  0.957470  1
  Tc  Tc6  1  0.256606  0.726091  0.542692  1
  Tc  Tc7  1  0.244301  0.726233  0.042614  1
  F  F8  1  0.443032  0.709708  0.920567  1
  F  F9  1  0.937856  0.290267  0.582428  1
  F  F10  1  0.555421  0.290695  0.078969  1
  F  F11  1  0.058300  0.710016  0.420375  1
  F  F12  1  0.454606  0.281499  0.542221  1
  F  F13  1  0.961819  0.717142  0.956303  1
  F  F14  1  0.539704  0.717203  0.456475  1
  F  F15  1  0.037233  0.283670  0.044164  1
  F  F16  1  0.764754  0.513508  0.861756  1
  F  F17  1  0.266202  0.486493  0.637950  1
  F  F18  1  0.234701  0.486839  0.138532  1
  F  F19  1  0.734669  0.514803  0.361304  1
  F  F20  1  0.759767  0.035077  0.051683  1
  F  F21  1  0.260208  0.965200  0.448958  1
  F  F22  1  0.240947  0.965248  0.948222  1
  F  F23  1  0.740383  0.032007  0.551485  1
  F  F24  1  0.981167  0.730081  0.634630  1
  F  F25  1  0.481493  0.269069  0.865305  1
  F  F26  1  0.025291  0.269521  0.367200  1
  F  F27  1  0.519589  0.731223  0.134107  1
  F  F28  1  0.049312  0.743121  0.166746  1
  F  F29  1  0.553601  0.256864  0.330398  1
  F  F30  1  0.951947  0.257667  0.833724  1
  F  F31  1  0.450484  0.741803  0.667413  1
  F  F32  1  0.408629  0.967553  0.230493  1
  F  F33  1  0.908256  0.032606  0.270447  1
  F  F34  1  0.590627  0.033136  0.768104  1
  F  F35  1  0.090796  0.967869  0.729868  1
