# generated using pymatgen
data_Tb2PdPt5
_symmetry_space_group_name_H-M   'P 1'
_cell_length_a   5.84463986
_cell_length_b   5.84464021
_cell_length_c   5.83484300
_cell_angle_alpha   60.05542954
_cell_angle_beta   60.05542754
_cell_angle_gamma   59.88913065
_symmetry_Int_Tables_number   1
_chemical_formula_structural   Tb2PdPt5
_chemical_formula_sum   'Tb2 Pd1 Pt5'
_cell_volume   140.93771885
_cell_formula_units_Z   1
loop_
 _symmetry_equiv_pos_site_id
 _symmetry_equiv_pos_as_xyz
  1  'x, y, z'
loop_
 _atom_site_type_symbol
 _atom_site_label
 _atom_site_symmetry_multiplicity
 _atom_site_fract_x
 _atom_site_fract_y
 _atom_site_fract_z
 _atom_site_occupancy
  Tb  Tb0  1  0.000000  0.000000  0.500000  1
  Tb  Tb1  1  0.500000  0.500000  0.000000  1
  Pd  Pd2  1  0.500000  0.500000  0.500000  1
  Pt  Pt3  1  0.000000  0.000000  0.000000  1
  Pt  Pt4  1  0.000000  0.500000  0.000000  1
  Pt  Pt5  1  0.500000  0.000000  0.000000  1
  Pt  Pt6  1  0.000000  0.500000  0.500000  1
  Pt  Pt7  1  0.500000  0.000000  0.500000  1
