# generated using pymatgen
data_UP3WO13
_symmetry_space_group_name_H-M   'P 1'
_cell_length_a   6.68970425
_cell_length_b   7.73181032
_cell_length_c   11.88341264
_cell_angle_alpha   76.15776153
_cell_angle_beta   86.45606811
_cell_angle_gamma   78.61689406
_symmetry_Int_Tables_number   1
_chemical_formula_structural   UP3WO13
_chemical_formula_sum   'U2 P6 W2 O26'
_cell_volume   584.99316441
_cell_formula_units_Z   2
loop_
 _symmetry_equiv_pos_site_id
 _symmetry_equiv_pos_as_xyz
  1  'x, y, z'
loop_
 _atom_site_type_symbol
 _atom_site_label
 _atom_site_symmetry_multiplicity
 _atom_site_fract_x
 _atom_site_fract_y
 _atom_site_fract_z
 _atom_site_occupancy
  U  U0  1  0.203196  0.202830  0.094638  1
  U  U1  1  0.236982  0.213306  0.600970  1
  P  P2  1  0.116763  0.485840  0.312485  1
  P  P3  1  0.255517  0.802155  0.337241  1
  P  P4  1  0.272346  0.912907  0.888981  1
  P  P5  1  0.732424  0.045917  0.112719  1
  P  P6  1  0.739671  0.208175  0.680199  1
  P  P7  1  0.869185  0.543429  0.679657  1
  W  W8  1  0.758622  0.804341  0.401496  1
  W  W9  1  0.796250  0.783467  0.904813  1
  O  O10  1  0.131279  0.395048  0.211421  1
  O  O11  1  0.075972  0.803096  0.422861  1
  O  O12  1  0.094424  0.456729  0.650877  1
  O  O13  1  0.235401  0.080711  0.782065  1
  O  O14  1  0.103055  0.804406  0.891952  1
  O  O15  1  0.235666  0.359138  0.417851  1
  O  O16  1  0.241309  0.651061  0.266393  1
  O  O17  1  0.207788  0.371009  0.959138  1
  O  O18  1  0.259820  0.989886  0.999647  1
  O  O19  1  0.232295  0.984955  0.244846  1
  O  O20  1  0.329542  0.995172  0.567097  1
  O  O21  1  0.524982  0.174699  0.119622  1
  O  O22  1  0.465541  0.753419  0.391133  1
  O  O23  1  0.535238  0.277073  0.617810  1
  O  O24  1  0.485371  0.799342  0.878788  1
  O  O25  1  0.695645  0.016879  0.431926  1
  O  O26  1  0.746029  0.037564  0.772897  1
  O  O27  1  0.735614  0.965970  0.007243  1
  O  O28  1  0.817915  0.591904  0.017538  1
  O  O29  1  0.765424  0.371205  0.739930  1
  O  O30  1  0.757072  0.642841  0.568390  1
  O  O31  1  0.893566  0.169693  0.096475  1
  O  O32  1  0.771497  0.897050  0.223993  1
  O  O33  1  0.900499  0.560723  0.347621  1
  O  O34  1  0.916240  0.194048  0.591071  1
  O  O35  1  0.861860  0.654014  0.768214  1
