# generated using pymatgen
data_ErLu3CoSi4Ru3
_symmetry_space_group_name_H-M   'P 1'
_cell_length_a   4.22680100
_cell_length_b   6.85013383
_cell_length_c   7.08234301
_cell_angle_alpha   89.96393154
_cell_angle_beta   90.00000000
_cell_angle_gamma   90.00000000
_symmetry_Int_Tables_number   1
_chemical_formula_structural   ErLu3CoSi4Ru3
_chemical_formula_sum   'Er1 Lu3 Co1 Si4 Ru3'
_cell_volume   205.06319929
_cell_formula_units_Z   1
loop_
 _symmetry_equiv_pos_site_id
 _symmetry_equiv_pos_as_xyz
  1  'x, y, z'
loop_
 _atom_site_type_symbol
 _atom_site_label
 _atom_site_symmetry_multiplicity
 _atom_site_fract_x
 _atom_site_fract_y
 _atom_site_fract_z
 _atom_site_occupancy
  Er  Er0  1  0.250000  0.492025  0.317102  1
  Lu  Lu1  1  0.750000  0.013133  0.808919  1
  Lu  Lu2  1  0.750000  0.513973  0.689359  1
  Lu  Lu3  1  0.250000  0.994595  0.191644  1
  Co  Co4  1  0.250000  0.148556  0.563904  1
  Si  Si5  1  0.750000  0.200638  0.400042  1
  Si  Si6  1  0.250000  0.295054  0.885646  1
  Si  Si7  1  0.750000  0.699128  0.105216  1
  Si  Si8  1  0.250000  0.807039  0.609046  1
  Ru  Ru9  1  0.750000  0.338404  0.061772  1
  Ru  Ru10  1  0.250000  0.651988  0.931340  1
  Ru  Ru11  1  0.750000  0.845464  0.436007  1
