# generated using pymatgen
data_YbHoTm2(B6Ru)2
_symmetry_space_group_name_H-M   'P 1'
_cell_length_a   3.62634300
_cell_length_b   9.09631865
_cell_length_c   11.48739500
_cell_angle_alpha   89.84401424
_cell_angle_beta   90.00000000
_cell_angle_gamma   90.00000000
_symmetry_Int_Tables_number   1
_chemical_formula_structural   YbHoTm2(B6Ru)2
_chemical_formula_sum   'Yb2 Ho2 Tm4 B24 Ru4'
_cell_volume   378.92607441
_cell_formula_units_Z   2
loop_
 _symmetry_equiv_pos_site_id
 _symmetry_equiv_pos_as_xyz
  1  'x, y, z'
loop_
 _atom_site_type_symbol
 _atom_site_label
 _atom_site_symmetry_multiplicity
 _atom_site_fract_x
 _atom_site_fract_y
 _atom_site_fract_z
 _atom_site_occupancy
  Yb  Yb0  1  0.000000  0.324674  0.414935  1
  Yb  Yb1  1  0.000000  0.675326  0.585065  1
  Ho  Ho2  1  0.000000  0.822103  0.086045  1
  Ho  Ho3  1  0.000000  0.177897  0.913955  1
  Tm  Tm4  1  0.000000  0.941928  0.369934  1
  Tm  Tm5  1  0.000000  0.058072  0.630066  1
  Tm  Tm6  1  0.000000  0.442635  0.130805  1
  Tm  Tm7  1  0.000000  0.557365  0.869195  1
  B  B8  1  0.500000  0.554299  0.432262  1
  B  B9  1  0.500000  0.445701  0.567738  1
  B  B10  1  0.500000  0.053900  0.066719  1
  B  B11  1  0.500000  0.946100  0.933281  1
  B  B12  1  0.500000  0.748533  0.417722  1
  B  B13  1  0.500000  0.251467  0.582278  1
  B  B14  1  0.500000  0.248937  0.081255  1
  B  B15  1  0.500000  0.751063  0.918745  1
  B  B16  1  0.500000  0.791469  0.264408  1
  B  B17  1  0.500000  0.208531  0.735592  1
  B  B18  1  0.500000  0.290365  0.234535  1
  B  B19  1  0.500000  0.709635  0.765465  1
  B  B20  1  0.500000  0.630951  0.184697  1
  B  B21  1  0.500000  0.369049  0.815303  1
  B  B22  1  0.500000  0.130449  0.314311  1
  B  B23  1  0.500000  0.869551  0.685689  1
  B  B24  1  0.500000  0.982860  0.211765  1
  B  B25  1  0.500000  0.017140  0.788235  1
  B  B26  1  0.500000  0.483465  0.287861  1
  B  B27  1  0.500000  0.516535  0.712139  1
  B  B28  1  0.500000  0.602259  0.028035  1
  B  B29  1  0.500000  0.397741  0.971965  1
  B  B30  1  0.500000  0.099089  0.472690  1
  B  B31  1  0.500000  0.900911  0.527310  1
  Ru  Ru32  1  0.000000  0.640140  0.318414  1
  Ru  Ru33  1  0.000000  0.359860  0.681586  1
  Ru  Ru34  1  0.000000  0.137241  0.178403  1
  Ru  Ru35  1  0.000000  0.862759  0.821597  1
