# generated using pymatgen
data_Lu8B24MoRu3
_symmetry_space_group_name_H-M   'P 1'
_cell_length_a   3.59448700
_cell_length_b   9.05711753
_cell_length_c   11.42792007
_cell_angle_alpha   90.12841176
_cell_angle_beta   90.00000000
_cell_angle_gamma   90.00000000
_symmetry_Int_Tables_number   1
_chemical_formula_structural   Lu8B24MoRu3
_chemical_formula_sum   'Lu8 B24 Mo1 Ru3'
_cell_volume   372.04290288
_cell_formula_units_Z   1
loop_
 _symmetry_equiv_pos_site_id
 _symmetry_equiv_pos_as_xyz
  1  'x, y, z'
loop_
 _atom_site_type_symbol
 _atom_site_label
 _atom_site_symmetry_multiplicity
 _atom_site_fract_x
 _atom_site_fract_y
 _atom_site_fract_z
 _atom_site_occupancy
  Lu  Lu0  1  0.000000  0.322005  0.415071  1
  Lu  Lu1  1  0.000000  0.680396  0.587529  1
  Lu  Lu2  1  0.000000  0.822025  0.084222  1
  Lu  Lu3  1  0.000000  0.178143  0.913487  1
  Lu  Lu4  1  0.000000  0.943207  0.370869  1
  Lu  Lu5  1  0.000000  0.057026  0.626830  1
  Lu  Lu6  1  0.000000  0.442288  0.128792  1
  Lu  Lu7  1  0.000000  0.554366  0.872584  1
  B  B8  1  0.500000  0.553828  0.433947  1
  B  B9  1  0.500000  0.446531  0.566353  1
  B  B10  1  0.500000  0.053873  0.067419  1
  B  B11  1  0.500000  0.948986  0.936174  1
  B  B12  1  0.500000  0.749585  0.419675  1
  B  B13  1  0.500000  0.250813  0.579888  1
  B  B14  1  0.500000  0.248885  0.080403  1
  B  B15  1  0.500000  0.747976  0.922159  1
  B  B16  1  0.500000  0.791692  0.264950  1
  B  B17  1  0.500000  0.208616  0.733761  1
  B  B18  1  0.500000  0.292139  0.235196  1
  B  B19  1  0.500000  0.704583  0.763834  1
  B  B20  1  0.500000  0.630523  0.184652  1
  B  B21  1  0.500000  0.368792  0.814944  1
  B  B22  1  0.500000  0.131575  0.315742  1
  B  B23  1  0.500000  0.868687  0.682244  1
  B  B24  1  0.500000  0.982345  0.212646  1
  B  B25  1  0.500000  0.022771  0.786781  1
  B  B26  1  0.500000  0.481925  0.288144  1
  B  B27  1  0.500000  0.517282  0.712491  1
  B  B28  1  0.500000  0.602519  0.029820  1
  B  B29  1  0.500000  0.394422  0.971550  1
  B  B30  1  0.500000  0.104908  0.470358  1
  B  B31  1  0.500000  0.895975  0.527251  1
  Mo  Mo32  1  0.000000  0.862217  0.820977  1
  Ru  Ru33  1  0.000000  0.637849  0.320730  1
  Ru  Ru34  1  0.000000  0.362115  0.677963  1
  Ru  Ru35  1  0.000000  0.139136  0.180563  1
