# generated using pymatgen
data_Y2B8IrRu
_symmetry_space_group_name_H-M   'P 1'
_cell_length_a   3.56864200
_cell_length_b   5.97602507
_cell_length_c   11.57896998
_cell_angle_alpha   89.90485090
_cell_angle_beta   90.00000000
_cell_angle_gamma   90.00000000
_symmetry_Int_Tables_number   1
_chemical_formula_structural   Y2B8IrRu
_chemical_formula_sum   'Y4 B16 Ir2 Ru2'
_cell_volume   246.93617802
_cell_formula_units_Z   2
loop_
 _symmetry_equiv_pos_site_id
 _symmetry_equiv_pos_as_xyz
  1  'x, y, z'
loop_
 _atom_site_type_symbol
 _atom_site_label
 _atom_site_symmetry_multiplicity
 _atom_site_fract_x
 _atom_site_fract_y
 _atom_site_fract_z
 _atom_site_occupancy
  Y  Y0  1  0.000000  0.629950  0.352252  1
  Y  Y1  1  0.000000  0.370050  0.647748  1
  Y  Y2  1  0.000000  0.131296  0.150921  1
  Y  Y3  1  0.000000  0.868704  0.849079  1
  B  B4  1  0.500000  0.790244  0.187765  1
  B  B5  1  0.500000  0.209756  0.812235  1
  B  B6  1  0.500000  0.289264  0.314221  1
  B  B7  1  0.500000  0.710736  0.685779  1
  B  B8  1  0.500000  0.863333  0.029533  1
  B  B9  1  0.500000  0.136667  0.970467  1
  B  B10  1  0.500000  0.363670  0.469354  1
  B  B11  1  0.500000  0.636330  0.530646  1
  B  B12  1  0.500000  0.888189  0.453768  1
  B  B13  1  0.500000  0.111811  0.546232  1
  B  B14  1  0.500000  0.387842  0.047253  1
  B  B15  1  0.500000  0.612158  0.952747  1
  B  B16  1  0.500000  0.975602  0.308682  1
  B  B17  1  0.500000  0.024398  0.691318  1
  B  B18  1  0.500000  0.475877  0.192782  1
  B  B19  1  0.500000  0.524123  0.807218  1
  Ir  Ir20  1  0.000000  0.644800  0.095843  1
  Ir  Ir21  1  0.000000  0.355200  0.904157  1
  Ru  Ru22  1  0.000000  0.140005  0.407112  1
  Ru  Ru23  1  0.000000  0.859995  0.592888  1
