# generated using pymatgen
data_Ho4Al3Zn3Pt8
_symmetry_space_group_name_H-M   'P 1'
_cell_length_a   8.07831513
_cell_length_b   8.07831604
_cell_length_c   7.62561207
_cell_angle_alpha   89.93920397
_cell_angle_beta   89.93921005
_cell_angle_gamma   139.72384648
_symmetry_Int_Tables_number   1
_chemical_formula_structural   Ho4Al3Zn3Pt8
_chemical_formula_sum   'Ho4 Al3 Zn3 Pt8'
_cell_volume   321.70973161
_cell_formula_units_Z   1
loop_
 _symmetry_equiv_pos_site_id
 _symmetry_equiv_pos_as_xyz
  1  'x, y, z'
loop_
 _atom_site_type_symbol
 _atom_site_label
 _atom_site_symmetry_multiplicity
 _atom_site_fract_x
 _atom_site_fract_y
 _atom_site_fract_z
 _atom_site_occupancy
  Ho  Ho0  1  0.106865  0.888629  0.408623  1
  Ho  Ho1  1  0.891259  0.111083  0.593819  1
  Ho  Ho2  1  0.388917  0.608741  0.906181  1
  Ho  Ho3  1  0.611371  0.393135  0.091377  1
  Al  Al4  1  0.999189  0.999221  0.000449  1
  Al  Al5  1  0.500779  0.500811  0.499551  1
  Al  Al6  1  0.524164  0.975836  0.250000  1
  Zn  Zn7  1  0.022695  0.477305  0.250000  1
  Zn  Zn8  1  0.476835  0.023165  0.750000  1
  Zn  Zn9  1  0.977214  0.522786  0.750000  1
  Pt  Pt10  1  0.195247  0.304753  0.250000  1
  Pt  Pt11  1  0.304860  0.195140  0.750000  1
  Pt  Pt12  1  0.805420  0.694580  0.750000  1
  Pt  Pt13  1  0.692335  0.807665  0.250000  1
  Pt  Pt14  1  0.188528  0.830005  0.032024  1
  Pt  Pt15  1  0.816731  0.172405  0.976286  1
  Pt  Pt16  1  0.327595  0.683269  0.523714  1
  Pt  Pt17  1  0.669995  0.311472  0.467976  1
