# generated using pymatgen
data_Th4SiPd
_symmetry_space_group_name_H-M   'P 1'
_cell_length_a   5.99328616
_cell_length_b   5.99328653
_cell_length_c   5.99328736
_cell_angle_alpha   103.34314274
_cell_angle_beta   103.34314839
_cell_angle_gamma   122.57717845
_symmetry_Int_Tables_number   1
_chemical_formula_structural   Th4SiPd
_chemical_formula_sum   'Th4 Si1 Pd1'
_cell_volume   159.10200576
_cell_formula_units_Z   1
loop_
 _symmetry_equiv_pos_site_id
 _symmetry_equiv_pos_as_xyz
  1  'x, y, z'
loop_
 _atom_site_type_symbol
 _atom_site_label
 _atom_site_symmetry_multiplicity
 _atom_site_fract_x
 _atom_site_fract_y
 _atom_site_fract_z
 _atom_site_occupancy
  Th  Th0  1  0.161973  0.661973  0.823946  1
  Th  Th1  1  0.338027  0.161973  0.500000  1
  Th  Th2  1  0.661973  0.838027  0.500000  1
  Th  Th3  1  0.838027  0.338027  0.176054  1
  Si  Si4  1  0.250000  0.250000  0.000000  1
  Pd  Pd5  1  0.750000  0.750000  0.000000  1
