# generated using pymatgen
data_Ti3Ga2PtN
_symmetry_space_group_name_H-M   'P 1'
_cell_length_a   8.18448841
_cell_length_b   8.18448838
_cell_length_c   8.18448800
_cell_angle_alpha   60.00000155
_cell_angle_beta   60.00000166
_cell_angle_gamma   60.00000333
_symmetry_Int_Tables_number   1
_chemical_formula_structural   Ti3Ga2PtN
_chemical_formula_sum   'Ti12 Ga8 Pt4 N4'
_cell_volume   387.66769734
_cell_formula_units_Z   4
loop_
 _symmetry_equiv_pos_site_id
 _symmetry_equiv_pos_as_xyz
  1  'x, y, z'
loop_
 _atom_site_type_symbol
 _atom_site_label
 _atom_site_symmetry_multiplicity
 _atom_site_fract_x
 _atom_site_fract_y
 _atom_site_fract_z
 _atom_site_occupancy
  Ti  Ti0  1  0.817007  0.817007  0.182993  1
  Ti  Ti1  1  0.067007  0.432993  0.432993  1
  Ti  Ti2  1  0.432993  0.067007  0.067007  1
  Ti  Ti3  1  0.067007  0.067007  0.432993  1
  Ti  Ti4  1  0.067007  0.432993  0.067007  1
  Ti  Ti5  1  0.432993  0.067007  0.432993  1
  Ti  Ti6  1  0.182993  0.817007  0.182993  1
  Ti  Ti7  1  0.182993  0.817007  0.817007  1
  Ti  Ti8  1  0.817007  0.182993  0.182993  1
  Ti  Ti9  1  0.817007  0.182993  0.817007  1
  Ti  Ti10  1  0.432993  0.432993  0.067007  1
  Ti  Ti11  1  0.182993  0.182993  0.817007  1
  Ga  Ga12  1  0.411168  0.766495  0.411168  1
  Ga  Ga13  1  0.838832  0.838832  0.483505  1
  Ga  Ga14  1  0.483505  0.838832  0.838832  1
  Ga  Ga15  1  0.838832  0.838832  0.838832  1
  Ga  Ga16  1  0.766495  0.411168  0.411168  1
  Ga  Ga17  1  0.411168  0.411168  0.411168  1
  Ga  Ga18  1  0.411168  0.411168  0.766495  1
  Ga  Ga19  1  0.838832  0.483505  0.838832  1
  Pt  Pt20  1  0.625000  0.125000  0.625000  1
  Pt  Pt21  1  0.625000  0.625000  0.125000  1
  Pt  Pt22  1  0.125000  0.625000  0.625000  1
  Pt  Pt23  1  0.625000  0.625000  0.625000  1
  N  N24  1  0.125000  0.625000  0.125000  1
  N  N25  1  0.125000  0.125000  0.625000  1
  N  N26  1  0.625000  0.125000  0.125000  1
  N  N27  1  0.125000  0.125000  0.125000  1
