# generated using pymatgen
data_Pa4Al24PdPt8
_symmetry_space_group_name_H-M   'P 1'
_cell_length_a   7.57744963
_cell_length_b   7.58950242
_cell_length_c   13.13377800
_cell_angle_alpha   84.47171436
_cell_angle_beta   78.92670994
_cell_angle_gamma   59.93547321
_symmetry_Int_Tables_number   1
_chemical_formula_structural   Pa4Al24PdPt8
_chemical_formula_sum   'Pa4 Al24 Pd1 Pt8'
_cell_volume   641.52285403
_cell_formula_units_Z   1
loop_
 _symmetry_equiv_pos_site_id
 _symmetry_equiv_pos_as_xyz
  1  'x, y, z'
loop_
 _atom_site_type_symbol
 _atom_site_label
 _atom_site_symmetry_multiplicity
 _atom_site_fract_x
 _atom_site_fract_y
 _atom_site_fract_z
 _atom_site_occupancy
  Pa  Pa0  1  0.394641  0.167782  0.805616  1
  Pa  Pa1  1  0.605359  0.832218  0.194384  1
  Pa  Pa2  1  0.734653  0.497920  0.805747  1
  Pa  Pa3  1  0.265347  0.502080  0.194253  1
  Al  Al4  1  0.683519  0.833154  0.947565  1
  Al  Al5  1  0.316481  0.166846  0.052435  1
  Al  Al6  1  0.145792  0.833418  0.560635  1
  Al  Al7  1  0.854208  0.166582  0.439365  1
  Al  Al8  1  0.481479  0.166727  0.557844  1
  Al  Al9  1  0.518521  0.833273  0.442156  1
  Al  Al10  1  0.213908  0.165620  0.331506  1
  Al  Al11  1  0.786092  0.834380  0.668494  1
  Al  Al12  1  0.435246  0.509443  0.668719  1
  Al  Al13  1  0.564754  0.490557  0.331281  1
  Al  Al14  1  0.110656  0.156970  0.667163  1
  Al  Al15  1  0.889344  0.843030  0.332837  1
  Al  Al16  1  0.351325  0.499359  0.947446  1
  Al  Al17  1  0.648675  0.500641  0.052554  1
  Al  Al18  1  0.015917  0.168501  0.952310  1
  Al  Al19  1  0.984083  0.831499  0.047690  1
  Al  Al20  1  0.186265  0.500091  0.442194  1
  Al  Al21  1  0.813735  0.499909  0.557806  1
  Al  Al22  1  0.736008  0.164705  0.182233  1
  Al  Al23  1  0.263992  0.835295  0.817767  1
  Al  Al24  1  0.060677  0.630981  0.817206  1
  Al  Al25  1  0.939323  0.369019  0.182794  1
  Al  Al26  1  0.856716  0.039241  0.817452  1
  Al  Al27  1  0.143284  0.960759  0.182548  1
  Pd  Pd28  1  0.000000  0.500000  0.000000  1
  Pt  Pt29  1  0.120116  0.491597  0.639184  1
  Pt  Pt30  1  0.879884  0.508403  0.360816  1
  Pt  Pt31  1  0.659590  0.170489  0.999847  1
  Pt  Pt32  1  0.340410  0.829511  0.000153  1
  Pt  Pt33  1  0.537204  0.167089  0.360893  1
  Pt  Pt34  1  0.462796  0.832911  0.639107  1
  Pt  Pt35  1  0.778527  0.175123  0.638283  1
  Pt  Pt36  1  0.221473  0.824877  0.361717  1
