# generated using pymatgen
data_Tm4Al15(GaIr2)3
_symmetry_space_group_name_H-M   'P 1'
_cell_length_a   7.51717210
_cell_length_b   7.51528756
_cell_length_c   9.49013900
_cell_angle_alpha   90.00000000
_cell_angle_beta   90.00000000
_cell_angle_gamma   119.47994798
_symmetry_Int_Tables_number   1
_chemical_formula_structural   Tm4Al15(GaIr2)3
_chemical_formula_sum   'Tm4 Al15 Ga3 Ir6'
_cell_volume   466.71891541
_cell_formula_units_Z   1
loop_
 _symmetry_equiv_pos_site_id
 _symmetry_equiv_pos_as_xyz
  1  'x, y, z'
loop_
 _atom_site_type_symbol
 _atom_site_label
 _atom_site_symmetry_multiplicity
 _atom_site_fract_x
 _atom_site_fract_y
 _atom_site_fract_z
 _atom_site_occupancy
  Tm  Tm0  1  0.997496  0.674244  0.250000  1
  Tm  Tm1  1  0.005822  0.326296  0.750000  1
  Tm  Tm2  1  0.670231  0.991173  0.250000  1
  Tm  Tm3  1  0.325568  0.003825  0.750000  1
  Al  Al4  1  0.000953  0.335240  0.072964  1
  Al  Al5  1  0.998795  0.664503  0.926111  1
  Al  Al6  1  0.998795  0.664503  0.573889  1
  Al  Al7  1  0.335764  0.002244  0.426740  1
  Al  Al8  1  0.000953  0.335240  0.427036  1
  Al  Al9  1  0.664741  0.999686  0.573600  1
  Al  Al10  1  0.664741  0.999686  0.926400  1
  Al  Al11  1  0.335764  0.002244  0.073260  1
  Al  Al12  1  0.333902  0.333800  0.557390  1
  Al  Al13  1  0.666398  0.666063  0.446427  1
  Al  Al14  1  0.666398  0.666063  0.053573  1
  Al  Al15  1  0.333902  0.333800  0.942610  1
  Al  Al16  1  0.662718  0.450633  0.750000  1
  Al  Al17  1  0.550060  0.339146  0.250000  1
  Al  Al18  1  0.451037  0.662544  0.750000  1
  Ga  Ga19  1  0.130749  0.131345  0.250000  1
  Ga  Ga20  1  0.866469  0.866274  0.750000  1
  Ga  Ga21  1  0.339132  0.546726  0.250000  1
  Ir  Ir22  1  0.671517  0.328980  0.000451  1
  Ir  Ir23  1  0.328166  0.672836  0.997448  1
  Ir  Ir24  1  0.328166  0.672836  0.502552  1
  Ir  Ir25  1  0.671517  0.328980  0.499549  1
  Ir  Ir26  1  0.000124  0.000546  0.000087  1
  Ir  Ir27  1  0.000124  0.000546  0.499913  1
