# generated using pymatgen
data_CaYGa(SiRh2)3
_symmetry_space_group_name_H-M   'P 1'
_cell_length_a   6.67303987
_cell_length_b   6.68824979
_cell_length_c   6.67304040
_cell_angle_alpha   130.06690721
_cell_angle_beta   114.42542072
_cell_angle_gamma   86.64491121
_symmetry_Int_Tables_number   1
_chemical_formula_structural   CaYGa(SiRh2)3
_chemical_formula_sum   'Ca1 Y1 Ga1 Si3 Rh6'
_cell_volume   198.09538159
_cell_formula_units_Z   1
loop_
 _symmetry_equiv_pos_site_id
 _symmetry_equiv_pos_as_xyz
  1  'x, y, z'
loop_
 _atom_site_type_symbol
 _atom_site_label
 _atom_site_symmetry_multiplicity
 _atom_site_fract_x
 _atom_site_fract_y
 _atom_site_fract_z
 _atom_site_occupancy
  Ca  Ca0  1  0.250094  0.543229  0.293135  1
  Y  Y1  1  0.750658  0.470650  0.719990  1
  Ga  Ga2  1  0.093122  0.890261  0.797139  1
  Si  Si3  1  0.937848  0.132855  0.195007  1
  Si  Si4  1  0.566816  0.761258  0.194442  1
  Si  Si5  1  0.405896  0.199514  0.793618  1
  Rh  Rh6  1  0.712618  0.007246  0.716791  1
  Rh  Rh7  1  0.220193  0.494632  0.725689  1
  Rh  Rh8  1  0.290454  0.007246  0.294626  1
  Rh  Rh9  1  0.768944  0.494632  0.274439  1
  Rh  Rh10  1  0.969138  0.999238  0.465021  1
  Rh  Rh11  1  0.534217  0.999238  0.030101  1
