# generated using pymatgen
data_Th8Si11Pd4Au
_symmetry_space_group_name_H-M   'P 1'
_cell_length_a   8.36996832
_cell_length_b   8.36996321
_cell_length_c   8.38316900
_cell_angle_alpha   90.00048512
_cell_angle_beta   89.99958271
_cell_angle_gamma   120.03170772
_symmetry_Int_Tables_number   1
_chemical_formula_structural   Th8Si11Pd4Au
_chemical_formula_sum   'Th8 Si11 Pd4 Au1'
_cell_volume   508.44896409
_cell_formula_units_Z   1
loop_
 _symmetry_equiv_pos_site_id
 _symmetry_equiv_pos_as_xyz
  1  'x, y, z'
loop_
 _atom_site_type_symbol
 _atom_site_label
 _atom_site_symmetry_multiplicity
 _atom_site_fract_x
 _atom_site_fract_y
 _atom_site_fract_z
 _atom_site_occupancy
  Th  Th0  1  0.499935  0.500066  0.750389  1
  Th  Th1  1  0.500135  0.499866  0.249601  1
  Th  Th2  1  0.999736  0.501877  0.752664  1
  Th  Th3  1  0.999381  0.501693  0.247334  1
  Th  Th4  1  0.498122  0.000263  0.752663  1
  Th  Th5  1  0.498306  0.000620  0.247334  1
  Th  Th6  1  0.003119  0.996882  0.746565  1
  Th  Th7  1  0.003098  0.996902  0.253412  1
  Si  Si8  1  0.165247  0.834753  0.000186  1
  Si  Si9  1  0.328759  0.163952  0.999806  1
  Si  Si10  1  0.166542  0.833458  0.499801  1
  Si  Si11  1  0.665305  0.826027  0.000202  1
  Si  Si12  1  0.834418  0.165583  0.500170  1
  Si  Si13  1  0.836049  0.671241  0.999806  1
  Si  Si14  1  0.668025  0.833910  0.499838  1
  Si  Si15  1  0.173973  0.334695  0.000202  1
  Si  Si16  1  0.332004  0.165590  0.500159  1
  Si  Si17  1  0.166090  0.331975  0.499838  1
  Si  Si18  1  0.834409  0.667995  0.500159  1
  Pd  Pd19  1  0.655765  0.344235  0.999766  1
  Pd  Pd20  1  0.331709  0.668290  0.000276  1
  Pd  Pd21  1  0.333604  0.666396  0.499748  1
  Pd  Pd22  1  0.666889  0.333111  0.500284  1
  Au  Au23  1  0.839382  0.160618  0.999796  1
