# generated using pymatgen
data_Dy2Lu3Sc(AlAu)6
_symmetry_space_group_name_H-M   'P 1'
_cell_length_a   7.30612255
_cell_length_b   7.30654633
_cell_length_c   7.87464100
_cell_angle_alpha   90.00000000
_cell_angle_beta   90.00000000
_cell_angle_gamma   119.90052004
_symmetry_Int_Tables_number   1
_chemical_formula_structural   Dy2Lu3Sc(AlAu)6
_chemical_formula_sum   'Dy2 Lu3 Sc1 Al6 Au6'
_cell_volume   364.41392723
_cell_formula_units_Z   1
loop_
 _symmetry_equiv_pos_site_id
 _symmetry_equiv_pos_as_xyz
  1  'x, y, z'
loop_
 _atom_site_type_symbol
 _atom_site_label
 _atom_site_symmetry_multiplicity
 _atom_site_fract_x
 _atom_site_fract_y
 _atom_site_fract_z
 _atom_site_occupancy
  Dy  Dy0  1  0.998473  0.584924  0.250000  1
  Dy  Dy1  1  0.586317  0.001140  0.250000  1
  Lu  Lu2  1  0.589605  0.998082  0.750000  1
  Lu  Lu3  1  0.001554  0.591275  0.750000  1
  Lu  Lu4  1  0.413992  0.412685  0.250000  1
  Sc  Sc5  1  0.405010  0.406538  0.750000  1
  Al  Al6  1  0.749355  0.749108  0.995711  1
  Al  Al7  1  0.250295  0.002440  0.995995  1
  Al  Al8  1  0.002103  0.250172  0.996034  1
  Al  Al9  1  0.749355  0.749108  0.504289  1
  Al  Al10  1  0.250295  0.002440  0.504005  1
  Al  Al11  1  0.002103  0.250172  0.503966  1
  Au  Au12  1  0.002378  0.002400  0.750000  1
  Au  Au13  1  0.003780  0.003457  0.250000  1
  Au  Au14  1  0.662446  0.335247  0.987342  1
  Au  Au15  1  0.662446  0.335247  0.512658  1
  Au  Au16  1  0.335248  0.662783  0.508581  1
  Au  Au17  1  0.335248  0.662783  0.991419  1
