# generated using pymatgen
data_Yb3(ErSi2)2
_symmetry_space_group_name_H-M   'P 1'
_cell_length_a   7.38935600
_cell_length_b   7.77865100
_cell_length_c   15.03849500
_cell_angle_alpha   90.00000000
_cell_angle_beta   90.00000000
_cell_angle_gamma   90.00000000
_symmetry_Int_Tables_number   1
_chemical_formula_structural   Yb3(ErSi2)2
_chemical_formula_sum   'Yb12 Er8 Si16'
_cell_volume   864.40098421
_cell_formula_units_Z   4
loop_
 _symmetry_equiv_pos_site_id
 _symmetry_equiv_pos_as_xyz
  1  'x, y, z'
loop_
 _atom_site_type_symbol
 _atom_site_label
 _atom_site_symmetry_multiplicity
 _atom_site_fract_x
 _atom_site_fract_y
 _atom_site_fract_z
 _atom_site_occupancy
  Yb  Yb0  1  0.971542  0.816172  0.403367  1
  Yb  Yb1  1  0.471542  0.683828  0.096633  1
  Yb  Yb2  1  0.528458  0.316172  0.596633  1
  Yb  Yb3  1  0.028458  0.183828  0.903367  1
  Yb  Yb4  1  0.028458  0.183828  0.596633  1
  Yb  Yb5  1  0.528458  0.316172  0.903367  1
  Yb  Yb6  1  0.471542  0.683828  0.403367  1
  Yb  Yb7  1  0.971542  0.816172  0.096633  1
  Yb  Yb8  1  0.353875  0.019035  0.750000  1
  Yb  Yb9  1  0.853875  0.480965  0.750000  1
  Yb  Yb10  1  0.146125  0.519035  0.250000  1
  Yb  Yb11  1  0.646125  0.980965  0.250000  1
  Er  Er12  1  0.314216  0.176789  0.121059  1
  Er  Er13  1  0.814216  0.323211  0.378941  1
  Er  Er14  1  0.185784  0.676789  0.878941  1
  Er  Er15  1  0.685784  0.823211  0.621059  1
  Er  Er16  1  0.314216  0.176789  0.378941  1
  Er  Er17  1  0.814216  0.323211  0.121059  1
  Er  Er18  1  0.185784  0.676789  0.621059  1
  Er  Er19  1  0.685784  0.823211  0.878941  1
  Si  Si20  1  0.857675  0.533494  0.538526  1
  Si  Si21  1  0.357675  0.966506  0.961474  1
  Si  Si22  1  0.642325  0.033494  0.461474  1
  Si  Si23  1  0.142325  0.466506  0.038526  1
  Si  Si24  1  0.142325  0.466506  0.461474  1
  Si  Si25  1  0.642325  0.033494  0.038526  1
  Si  Si26  1  0.357675  0.966506  0.538526  1
  Si  Si27  1  0.857675  0.533494  0.961474  1
  Si  Si28  1  0.978015  0.882430  0.750000  1
  Si  Si29  1  0.478015  0.617570  0.750000  1
  Si  Si30  1  0.521985  0.382430  0.250000  1
  Si  Si31  1  0.021985  0.117570  0.250000  1
  Si  Si32  1  0.248828  0.395097  0.750000  1
  Si  Si33  1  0.748828  0.104903  0.750000  1
  Si  Si34  1  0.251172  0.895097  0.250000  1
  Si  Si35  1  0.751172  0.604903  0.250000  1
