# generated using pymatgen
data_TbLu2Fe9
_symmetry_space_group_name_H-M   'P 1'
_cell_length_a   8.54518143
_cell_length_b   8.54518126
_cell_length_c   8.54518217
_cell_angle_alpha   34.47643877
_cell_angle_beta   34.47644009
_cell_angle_gamma   34.47644167
_symmetry_Int_Tables_number   1
_chemical_formula_structural   TbLu2Fe9
_chemical_formula_sum   'Tb1 Lu2 Fe9'
_cell_volume   178.36416376
_cell_formula_units_Z   1
loop_
 _symmetry_equiv_pos_site_id
 _symmetry_equiv_pos_as_xyz
  1  'x, y, z'
loop_
 _atom_site_type_symbol
 _atom_site_label
 _atom_site_symmetry_multiplicity
 _atom_site_fract_x
 _atom_site_fract_y
 _atom_site_fract_z
 _atom_site_occupancy
  Tb  Tb0  1  0.000000  0.000000  0.000000  1
  Lu  Lu1  1  0.142226  0.142226  0.142226  1
  Lu  Lu2  1  0.857774  0.857774  0.857774  1
  Fe  Fe3  1  0.500000  0.500000  0.500000  1
  Fe  Fe4  1  0.332636  0.332636  0.332636  1
  Fe  Fe5  1  0.667364  0.667364  0.667364  1
  Fe  Fe6  1  0.082138  0.583281  0.583281  1
  Fe  Fe7  1  0.583281  0.583281  0.082138  1
  Fe  Fe8  1  0.583281  0.082138  0.583281  1
  Fe  Fe9  1  0.416719  0.917862  0.416719  1
  Fe  Fe10  1  0.917862  0.416719  0.416719  1
  Fe  Fe11  1  0.416719  0.416719  0.917862  1
