# generated using pymatgen
data_Rb4LaNpBr10
_symmetry_space_group_name_H-M   'P 1'
_cell_length_a   8.90241389
_cell_length_b   9.47013000
_cell_length_c   14.21045432
_cell_angle_alpha   90.00000000
_cell_angle_beta   90.17990064
_cell_angle_gamma   90.00000000
_symmetry_Int_Tables_number   1
_chemical_formula_structural   Rb4LaNpBr10
_chemical_formula_sum   'Rb8 La2 Np2 Br20'
_cell_volume   1198.03510681
_cell_formula_units_Z   2
loop_
 _symmetry_equiv_pos_site_id
 _symmetry_equiv_pos_as_xyz
  1  'x, y, z'
loop_
 _atom_site_type_symbol
 _atom_site_label
 _atom_site_symmetry_multiplicity
 _atom_site_fract_x
 _atom_site_fract_y
 _atom_site_fract_z
 _atom_site_occupancy
  Rb  Rb0  1  0.946662  0.004371  0.826360  1
  Rb  Rb1  1  0.053338  0.995629  0.173640  1
  Rb  Rb2  1  0.446751  0.995353  0.670499  1
  Rb  Rb3  1  0.053338  0.504371  0.173640  1
  Rb  Rb4  1  0.553249  0.004647  0.329501  1
  Rb  Rb5  1  0.946662  0.495629  0.826360  1
  Rb  Rb6  1  0.553249  0.495353  0.329501  1
  Rb  Rb7  1  0.446751  0.504647  0.670499  1
  La  La8  1  0.427016  0.250000  0.995582  1
  La  La9  1  0.572984  0.750000  0.004418  1
  Np  Np10  1  0.933316  0.750000  0.502119  1
  Np  Np11  1  0.066684  0.250000  0.497881  1
  Br  Br12  1  0.121289  0.750000  0.673239  1
  Br  Br13  1  0.878711  0.250000  0.326761  1
  Br  Br14  1  0.622960  0.250000  0.824616  1
  Br  Br15  1  0.377040  0.750000  0.175384  1
  Br  Br16  1  0.841280  0.039373  0.571844  1
  Br  Br17  1  0.158720  0.960627  0.428156  1
  Br  Br18  1  0.337219  0.957106  0.924274  1
  Br  Br19  1  0.158720  0.539373  0.428156  1
  Br  Br20  1  0.662781  0.042894  0.075726  1
  Br  Br21  1  0.841280  0.460627  0.571844  1
  Br  Br22  1  0.662781  0.457106  0.075726  1
  Br  Br23  1  0.337219  0.542894  0.924274  1
  Br  Br24  1  0.596014  0.750000  0.510673  1
  Br  Br25  1  0.403986  0.250000  0.489327  1
  Br  Br26  1  0.086033  0.250000  0.990141  1
  Br  Br27  1  0.913967  0.750000  0.009859  1
  Br  Br28  1  0.658064  0.750000  0.801043  1
  Br  Br29  1  0.341936  0.250000  0.198957  1
  Br  Br30  1  0.156328  0.250000  0.697984  1
  Br  Br31  1  0.843672  0.750000  0.302016  1
