# generated using pymatgen
data_Hf5Ta5(Ga3N)2
_symmetry_space_group_name_H-M   'P 1'
_cell_length_a   7.83319100
_cell_length_b   7.85744255
_cell_length_c   5.46477100
_cell_angle_alpha   90.00000000
_cell_angle_beta   90.00000000
_cell_angle_gamma   119.89795789
_symmetry_Int_Tables_number   1
_chemical_formula_structural   Hf5Ta5(Ga3N)2
_chemical_formula_sum   'Hf5 Ta5 Ga6 N2'
_cell_volume   291.58701026
_cell_formula_units_Z   1
loop_
 _symmetry_equiv_pos_site_id
 _symmetry_equiv_pos_as_xyz
  1  'x, y, z'
loop_
 _atom_site_type_symbol
 _atom_site_label
 _atom_site_symmetry_multiplicity
 _atom_site_fract_x
 _atom_site_fract_y
 _atom_site_fract_z
 _atom_site_occupancy
  Hf  Hf0  1  0.767876  0.000000  0.750000  1
  Hf  Hf1  1  0.000092  0.233752  0.250000  1
  Hf  Hf2  1  0.001476  0.766935  0.750000  1
  Hf  Hf3  1  0.766341  0.766248  0.250000  1
  Hf  Hf4  1  0.234540  0.233065  0.750000  1
  Ta  Ta5  1  0.232699  0.000000  0.250000  1
  Ta  Ta6  1  0.332573  0.667558  0.999624  1
  Ta  Ta7  1  0.665016  0.332442  0.999624  1
  Ta  Ta8  1  0.665016  0.332442  0.500376  1
  Ta  Ta9  1  0.332573  0.667558  0.500376  1
  Ga  Ga10  1  0.589050  0.000000  0.250000  1
  Ga  Ga11  1  0.408741  0.000000  0.750000  1
  Ga  Ga12  1  0.000485  0.595083  0.250000  1
  Ga  Ga13  1  0.999706  0.407317  0.750000  1
  Ga  Ga14  1  0.405402  0.404917  0.250000  1
  Ga  Ga15  1  0.592389  0.592683  0.750000  1
  N  N16  1  0.003012  0.000000  0.002403  1
  N  N17  1  0.003012  0.000000  0.497597  1
