# generated using pymatgen
data_Tm8Ti11Si16Mo
_symmetry_space_group_name_H-M   'P 1'
_cell_length_a   6.99351112
_cell_length_b   6.99351112
_cell_length_c   12.84772304
_cell_angle_alpha   89.97073382
_cell_angle_beta   90.02926608
_cell_angle_gamma   90.00334452
_symmetry_Int_Tables_number   1
_chemical_formula_structural   Tm8Ti11Si16Mo
_chemical_formula_sum   'Tm8 Ti11 Si16 Mo1'
_cell_volume   628.37166200
_cell_formula_units_Z   1
loop_
 _symmetry_equiv_pos_site_id
 _symmetry_equiv_pos_as_xyz
  1  'x, y, z'
loop_
 _atom_site_type_symbol
 _atom_site_label
 _atom_site_symmetry_multiplicity
 _atom_site_fract_x
 _atom_site_fract_y
 _atom_site_fract_z
 _atom_site_occupancy
  Tm  Tm0  1  0.341068  0.002620  0.467041  1
  Tm  Tm1  1  0.497600  0.840543  0.717451  1
  Tm  Tm2  1  0.500720  0.159140  0.215553  1
  Tm  Tm3  1  0.840543  0.497600  0.282549  1
  Tm  Tm4  1  0.159140  0.500720  0.784447  1
  Tm  Tm5  1  0.657484  0.999086  0.967109  1
  Tm  Tm6  1  0.002620  0.341068  0.532959  1
  Tm  Tm7  1  0.999086  0.657484  0.032891  1
  Ti  Ti8  1  0.173834  0.827499  0.249502  1
  Ti  Ti9  1  0.827499  0.173834  0.750498  1
  Ti  Ti10  1  0.672961  0.672961  0.500000  1
  Ti  Ti11  1  0.152813  0.008206  0.876046  1
  Ti  Ti12  1  0.492508  0.651069  0.124169  1
  Ti  Ti13  1  0.506688  0.349232  0.626006  1
  Ti  Ti14  1  0.651069  0.492508  0.875831  1
  Ti  Ti15  1  0.349232  0.506688  0.373994  1
  Ti  Ti16  1  0.848721  0.992964  0.375405  1
  Ti  Ti17  1  0.008206  0.152813  0.123954  1
  Ti  Ti18  1  0.992964  0.848721  0.624595  1
  Si  Si19  1  0.202927  0.131485  0.683532  1
  Si  Si20  1  0.369047  0.702186  0.933418  1
  Si  Si21  1  0.631538  0.296830  0.433374  1
  Si  Si22  1  0.702186  0.369047  0.066582  1
  Si  Si23  1  0.296830  0.631538  0.566626  1
  Si  Si24  1  0.796986  0.868584  0.183444  1
  Si  Si25  1  0.131485  0.202927  0.316468  1
  Si  Si26  1  0.868584  0.796986  0.816556  1
  Si  Si27  1  0.291238  0.953344  0.064656  1
  Si  Si28  1  0.546312  0.792269  0.314732  1
  Si  Si29  1  0.452820  0.207872  0.815235  1
  Si  Si30  1  0.792269  0.546312  0.685268  1
  Si  Si31  1  0.207872  0.452820  0.184765  1
  Si  Si32  1  0.708103  0.047068  0.564836  1
  Si  Si33  1  0.953344  0.291238  0.935344  1
  Si  Si34  1  0.047068  0.708103  0.435164  1
  Mo  Mo35  1  0.326633  0.326633  0.000000  1
