# generated using pymatgen
data_NdHo5Ga4Pt13
_symmetry_space_group_name_H-M   'P 1'
_cell_length_a   8.26905803
_cell_length_b   8.26905896
_cell_length_c   8.26905700
_cell_angle_alpha   109.37680304
_cell_angle_beta   109.51844881
_cell_angle_gamma   109.51845265
_symmetry_Int_Tables_number   1
_chemical_formula_structural   NdHo5Ga4Pt13
_chemical_formula_sum   'Nd1 Ho5 Ga4 Pt13'
_cell_volume   435.25656581
_cell_formula_units_Z   1
loop_
 _symmetry_equiv_pos_site_id
 _symmetry_equiv_pos_as_xyz
  1  'x, y, z'
loop_
 _atom_site_type_symbol
 _atom_site_label
 _atom_site_symmetry_multiplicity
 _atom_site_fract_x
 _atom_site_fract_y
 _atom_site_fract_z
 _atom_site_occupancy
  Nd  Nd0  1  0.000000  0.704201  0.704201  1
  Ho  Ho1  1  0.698484  0.697841  0.999358  1
  Ho  Ho2  1  0.301516  0.999358  0.300872  1
  Ho  Ho3  1  0.000000  0.307126  0.307126  1
  Ho  Ho4  1  0.301516  0.300872  0.999358  1
  Ho  Ho5  1  0.698484  0.999358  0.697841  1
  Ga  Ga6  1  0.000000  0.999414  0.495888  1
  Ga  Ga7  1  0.000000  0.495888  0.999414  1
  Ga  Ga8  1  0.503525  0.999414  0.999414  1
  Ga  Ga9  1  0.496475  0.495888  0.495888  1
  Pt  Pt10  1  0.321683  0.322719  0.644403  1
  Pt  Pt11  1  0.678317  0.001037  0.322719  1
  Pt  Pt12  1  0.000000  0.680169  0.318053  1
  Pt  Pt13  1  0.678317  0.322719  0.001037  1
  Pt  Pt14  1  0.321683  0.644403  0.322719  1
  Pt  Pt15  1  0.000000  0.318053  0.680169  1
  Pt  Pt16  1  0.326679  0.675526  0.002205  1
  Pt  Pt17  1  0.326679  0.002205  0.675526  1
  Pt  Pt18  1  0.637885  0.318053  0.318053  1
  Pt  Pt19  1  0.673321  0.675526  0.348847  1
  Pt  Pt20  1  0.673321  0.348847  0.675526  1
  Pt  Pt21  1  0.362115  0.680169  0.680169  1
  Pt  Pt22  1  0.000000  0.011216  0.011216  1
