# generated using pymatgen
data_Dy4Lu4Mn(B8Ru)3
_symmetry_space_group_name_H-M   'P 1'
_cell_length_a   3.60001500
_cell_length_b   9.05688418
_cell_length_c   11.44446023
_cell_angle_alpha   89.97684951
_cell_angle_beta   90.00000000
_cell_angle_gamma   90.00000000
_symmetry_Int_Tables_number   1
_chemical_formula_structural   Dy4Lu4Mn(B8Ru)3
_chemical_formula_sum   'Dy4 Lu4 Mn1 B24 Ru3'
_cell_volume   373.14566752
_cell_formula_units_Z   1
loop_
 _symmetry_equiv_pos_site_id
 _symmetry_equiv_pos_as_xyz
  1  'x, y, z'
loop_
 _atom_site_type_symbol
 _atom_site_label
 _atom_site_symmetry_multiplicity
 _atom_site_fract_x
 _atom_site_fract_y
 _atom_site_fract_z
 _atom_site_occupancy
  Dy  Dy0  1  0.000000  0.325234  0.412884  1
  Dy  Dy1  1  0.000000  0.677164  0.582182  1
  Dy  Dy2  1  0.000000  0.819928  0.088278  1
  Dy  Dy3  1  0.000000  0.177934  0.915120  1
  Lu  Lu4  1  0.000000  0.940626  0.371573  1
  Lu  Lu5  1  0.000000  0.056673  0.627569  1
  Lu  Lu6  1  0.000000  0.446140  0.130250  1
  Lu  Lu7  1  0.000000  0.556501  0.871903  1
  Mn  Mn8  1  0.000000  0.638777  0.319904  1
  B  B9  1  0.500000  0.554854  0.431266  1
  B  B10  1  0.500000  0.446027  0.566967  1
  B  B11  1  0.500000  0.054214  0.067589  1
  B  B12  1  0.500000  0.945609  0.932822  1
  B  B13  1  0.500000  0.747851  0.417245  1
  B  B14  1  0.500000  0.250404  0.580651  1
  B  B15  1  0.500000  0.250407  0.081316  1
  B  B16  1  0.500000  0.750212  0.919260  1
  B  B17  1  0.500000  0.790090  0.266366  1
  B  B18  1  0.500000  0.208151  0.734357  1
  B  B19  1  0.500000  0.292403  0.234352  1
  B  B20  1  0.500000  0.708201  0.765488  1
  B  B21  1  0.500000  0.630971  0.186243  1
  B  B22  1  0.500000  0.369163  0.815696  1
  B  B23  1  0.500000  0.130455  0.315412  1
  B  B24  1  0.500000  0.869135  0.684162  1
  B  B25  1  0.500000  0.982309  0.213449  1
  B  B26  1  0.500000  0.017181  0.786908  1
  B  B27  1  0.500000  0.485205  0.287546  1
  B  B28  1  0.500000  0.517217  0.713039  1
  B  B29  1  0.500000  0.603568  0.028614  1
  B  B30  1  0.500000  0.396681  0.971995  1
  B  B31  1  0.500000  0.103306  0.471392  1
  B  B32  1  0.500000  0.896450  0.528084  1
  Ru  Ru33  1  0.000000  0.360837  0.680500  1
  Ru  Ru34  1  0.000000  0.138804  0.179700  1
  Ru  Ru35  1  0.000000  0.861317  0.819916  1
