# generated using pymatgen
data_Cs10Ba2TaNbAs8
_symmetry_space_group_name_H-M   'P 1'
_cell_length_a   11.25753175
_cell_length_b   11.25901967
_cell_length_c   8.58513285
_cell_angle_alpha   87.97544153
_cell_angle_beta   87.98905170
_cell_angle_gamma   121.06182621
_symmetry_Int_Tables_number   1
_chemical_formula_structural   Cs10Ba2TaNbAs8
_chemical_formula_sum   'Cs10 Ba2 Ta1 Nb1 As8'
_cell_volume   929.73524689
_cell_formula_units_Z   1
loop_
 _symmetry_equiv_pos_site_id
 _symmetry_equiv_pos_as_xyz
  1  'x, y, z'
loop_
 _atom_site_type_symbol
 _atom_site_label
 _atom_site_symmetry_multiplicity
 _atom_site_fract_x
 _atom_site_fract_y
 _atom_site_fract_z
 _atom_site_occupancy
  Cs  Cs0  1  0.463267  0.526323  0.493671  1
  Cs  Cs1  1  0.064258  0.529161  0.499298  1
  Cs  Cs2  1  0.526297  0.463291  0.993700  1
  Cs  Cs3  1  0.529222  0.064416  0.999498  1
  Cs  Cs4  1  0.866252  0.142055  0.680155  1
  Cs  Cs5  1  0.290943  0.151026  0.720078  1
  Cs  Cs6  1  0.855386  0.714613  0.655921  1
  Cs  Cs7  1  0.142127  0.866260  0.179995  1
  Cs  Cs8  1  0.714484  0.855323  0.155756  1
  Cs  Cs9  1  0.151078  0.290983  0.219980  1
  Ba  Ba10  1  0.466480  0.938977  0.496979  1
  Ba  Ba11  1  0.939022  0.466442  0.996995  1
  Ta  Ta12  1  0.328872  0.670848  0.892555  1
  Nb  Nb13  1  0.670747  0.328867  0.392635  1
  As  As14  1  0.685619  0.336553  0.685202  1
  As  As15  1  0.336355  0.685311  0.184493  1
  As  As16  1  0.787291  0.202847  0.290740  1
  As  As17  1  0.417838  0.193415  0.330906  1
  As  As18  1  0.795455  0.572412  0.269088  1
  As  As19  1  0.203182  0.787196  0.790860  1
  As  As20  1  0.572033  0.795277  0.769149  1
  As  As21  1  0.193790  0.418402  0.830919  1
