# generated using pymatgen
data_TbPrEr(Si3Pd10)2
_symmetry_space_group_name_H-M   'P 1'
_cell_length_a   8.74360214
_cell_length_b   8.74361022
_cell_length_c   8.74361300
_cell_angle_alpha   60.00005187
_cell_angle_beta   59.99991380
_cell_angle_gamma   59.99996538
_symmetry_Int_Tables_number   1
_chemical_formula_structural   TbPrEr(Si3Pd10)2
_chemical_formula_sum   'Tb1 Pr1 Er1 Si6 Pd20'
_cell_volume   472.66873883
_cell_formula_units_Z   1
loop_
 _symmetry_equiv_pos_site_id
 _symmetry_equiv_pos_as_xyz
  1  'x, y, z'
loop_
 _atom_site_type_symbol
 _atom_site_label
 _atom_site_symmetry_multiplicity
 _atom_site_fract_x
 _atom_site_fract_y
 _atom_site_fract_z
 _atom_site_occupancy
  Tb  Tb0  1  0.749997  0.750000  0.750001  1
  Pr  Pr1  1  0.249999  0.250001  0.249998  1
  Er  Er2  1  0.000079  0.999985  0.999952  1
  Si  Si3  1  0.733256  0.266740  0.266742  1
  Si  Si4  1  0.266736  0.733260  0.733261  1
  Si  Si5  1  0.266738  0.733258  0.266745  1
  Si  Si6  1  0.733256  0.266742  0.733261  1
  Si  Si7  1  0.266737  0.266743  0.733261  1
  Si  Si8  1  0.733255  0.733260  0.266743  1
  Pd  Pd9  1  0.346030  0.999082  0.999081  1
  Pd  Pd10  1  0.655811  0.999082  0.999082  1
  Pd  Pd11  1  0.999077  0.346028  0.655812  1
  Pd  Pd12  1  0.999075  0.655811  0.346035  1
  Pd  Pd13  1  0.999076  0.346033  0.999080  1
  Pd  Pd14  1  0.655809  0.999079  0.346034  1
  Pd  Pd15  1  0.999077  0.655811  0.999080  1
  Pd  Pd16  1  0.346031  0.999080  0.655808  1
  Pd  Pd17  1  0.999074  0.999079  0.346036  1
  Pd  Pd18  1  0.999077  0.999082  0.655811  1
  Pd  Pd19  1  0.655811  0.346029  0.999080  1
  Pd  Pd20  1  0.346032  0.655806  0.999080  1
  Pd  Pd21  1  0.386160  0.386160  0.386164  1
  Pd  Pd22  1  0.616556  0.616561  0.616561  1
  Pd  Pd23  1  0.386157  0.386165  0.841517  1
  Pd  Pd24  1  0.386157  0.841517  0.386167  1
  Pd  Pd25  1  0.616558  0.616561  0.150321  1
  Pd  Pd26  1  0.616557  0.150321  0.616560  1
  Pd  Pd27  1  0.841508  0.386163  0.386164  1
  Pd  Pd28  1  0.150313  0.616562  0.616563  1
