# generated using pymatgen
data_La3Pr2Sn2BiCl
_symmetry_space_group_name_H-M   'P 1'
_cell_length_a   9.71950500
_cell_length_b   9.68535423
_cell_length_c   6.79852300
_cell_angle_alpha   90.00000000
_cell_angle_beta   90.00000000
_cell_angle_gamma   120.11669831
_symmetry_Int_Tables_number   1
_chemical_formula_structural   La3Pr2Sn2BiCl
_chemical_formula_sum   'La6 Pr4 Sn4 Bi2 Cl2'
_cell_volume   553.59601829
_cell_formula_units_Z   2
loop_
 _symmetry_equiv_pos_site_id
 _symmetry_equiv_pos_as_xyz
  1  'x, y, z'
loop_
 _atom_site_type_symbol
 _atom_site_label
 _atom_site_symmetry_multiplicity
 _atom_site_fract_x
 _atom_site_fract_y
 _atom_site_fract_z
 _atom_site_occupancy
  La  La0  1  0.738319  0.004387  0.750000  1
  La  La1  1  0.734965  0.738864  0.250000  1
  La  La2  1  0.000459  0.259677  0.250000  1
  La  La3  1  0.003899  0.738864  0.750000  1
  La  La4  1  0.259218  0.259677  0.750000  1
  La  La5  1  0.266068  0.004387  0.250000  1
  Pr  Pr6  1  0.664522  0.329043  0.000000  1
  Pr  Pr7  1  0.334007  0.668016  0.500000  1
  Pr  Pr8  1  0.664522  0.329043  0.500000  1
  Pr  Pr9  1  0.334007  0.668016  0.000000  1
  Sn  Sn10  1  0.612896  0.000399  0.250000  1
  Sn  Sn11  1  0.387503  0.000399  0.750000  1
  Sn  Sn12  1  0.000691  0.387781  0.750000  1
  Sn  Sn13  1  0.387089  0.387781  0.250000  1
  Bi  Bi14  1  0.614419  0.614268  0.750000  1
  Bi  Bi15  1  0.999849  0.614268  0.250000  1
  Cl  Cl16  1  0.998783  0.997566  0.500000  1
  Cl  Cl17  1  0.998783  0.997566  0.000000  1
