# generated using pymatgen
data_NbCu3Se3S
_symmetry_space_group_name_H-M   'P 1'
_cell_length_a   5.66990303
_cell_length_b   5.66990281
_cell_length_c   5.66990290
_cell_angle_alpha   89.31621544
_cell_angle_beta   89.31621641
_cell_angle_gamma   89.31620516
_symmetry_Int_Tables_number   1
_chemical_formula_structural   NbCu3Se3S
_chemical_formula_sum   'Nb1 Cu3 Se3 S1'
_cell_volume   182.23626499
_cell_formula_units_Z   1
loop_
 _symmetry_equiv_pos_site_id
 _symmetry_equiv_pos_as_xyz
  1  'x, y, z'
loop_
 _atom_site_type_symbol
 _atom_site_label
 _atom_site_symmetry_multiplicity
 _atom_site_fract_x
 _atom_site_fract_y
 _atom_site_fract_z
 _atom_site_occupancy
  Nb  Nb0  1  0.999276  0.999276  0.999276  1
  Cu  Cu1  1  0.006342  0.497400  0.006342  1
  Cu  Cu2  1  0.006342  0.006342  0.497400  1
  Cu  Cu3  1  0.497400  0.006342  0.006342  1
  Se  Se4  1  0.256248  0.750069  0.750069  1
  Se  Se5  1  0.750069  0.750069  0.256248  1
  Se  Se6  1  0.750069  0.256248  0.750069  1
  S  S7  1  0.234252  0.234252  0.234252  1
