# generated using pymatgen
data_Ca2Ho2Ga5Ni9
_symmetry_space_group_name_H-M   'P 1'
_cell_length_a   5.21619134
_cell_length_b   5.21619203
_cell_length_c   12.09518564
_cell_angle_alpha   77.54745412
_cell_angle_beta   77.54745220
_cell_angle_gamma   60.00001127
_symmetry_Int_Tables_number   1
_chemical_formula_structural   Ca2Ho2Ga5Ni9
_chemical_formula_sum   'Ca2 Ho2 Ga5 Ni9'
_cell_volume   276.02774527
_cell_formula_units_Z   1
loop_
 _symmetry_equiv_pos_site_id
 _symmetry_equiv_pos_as_xyz
  1  'x, y, z'
loop_
 _atom_site_type_symbol
 _atom_site_label
 _atom_site_symmetry_multiplicity
 _atom_site_fract_x
 _atom_site_fract_y
 _atom_site_fract_z
 _atom_site_occupancy
  Ca  Ca0  1  0.951987  0.951987  0.144036  1
  Ca  Ca1  1  0.048013  0.048013  0.855964  1
  Ho  Ho2  1  0.854721  0.854721  0.435837  1
  Ho  Ho3  1  0.145279  0.145279  0.564163  1
  Ga  Ga4  1  0.500000  0.500000  0.500000  1
  Ga  Ga5  1  0.722290  0.722290  0.833130  1
  Ga  Ga6  1  0.277710  0.277710  0.166870  1
  Ga  Ga7  1  0.610698  0.610698  0.167906  1
  Ga  Ga8  1  0.389302  0.389302  0.832094  1
  Ni  Ni9  1  0.000000  0.500000  0.000000  1
  Ni  Ni10  1  0.500000  0.000000  0.000000  1
  Ni  Ni11  1  0.500000  0.500000  0.000000  1
  Ni  Ni12  1  0.385656  0.385656  0.333686  1
  Ni  Ni13  1  0.895004  0.385656  0.333686  1
  Ni  Ni14  1  0.385656  0.895004  0.333686  1
  Ni  Ni15  1  0.614344  0.614344  0.666314  1
  Ni  Ni16  1  0.104996  0.614344  0.666314  1
  Ni  Ni17  1  0.614344  0.104996  0.666314  1
