# generated using pymatgen
data_Ho12Co4TcPb
_symmetry_space_group_name_H-M   'P 1'
_cell_length_a   8.27645610
_cell_length_b   8.27649334
_cell_length_c   8.27645724
_cell_angle_alpha   111.61986729
_cell_angle_beta   110.56943028
_cell_angle_gamma   106.27260885
_symmetry_Int_Tables_number   1
_chemical_formula_structural   Ho12Co4TcPb
_chemical_formula_sum   'Ho12 Co4 Tc1 Pb1'
_cell_volume   435.37809697
_cell_formula_units_Z   1
loop_
 _symmetry_equiv_pos_site_id
 _symmetry_equiv_pos_as_xyz
  1  'x, y, z'
loop_
 _atom_site_type_symbol
 _atom_site_label
 _atom_site_symmetry_multiplicity
 _atom_site_fract_x
 _atom_site_fract_y
 _atom_site_fract_z
 _atom_site_occupancy
  Ho  Ho0  1  0.816381  0.716691  0.533083  1
  Ho  Ho1  1  0.183619  0.283309  0.466917  1
  Ho  Ho2  1  0.183609  0.716691  0.900309  1
  Ho  Ho3  1  0.816391  0.283309  0.099691  1
  Ho  Ho4  1  0.688858  0.381787  0.692930  1
  Ho  Ho5  1  0.311142  0.618213  0.307070  1
  Ho  Ho6  1  0.688816  0.995856  0.307040  1
  Ho  Ho7  1  0.311184  0.004144  0.692960  1
  Ho  Ho8  1  0.587501  0.783030  0.804483  1
  Ho  Ho9  1  0.412499  0.216970  0.195517  1
  Ho  Ho10  1  0.978548  0.783030  0.195529  1
  Ho  Ho11  1  0.021452  0.216970  0.804471  1
  Co  Co12  1  0.621631  0.000000  0.621631  1
  Co  Co13  1  0.378369  0.000000  0.378369  1
  Co  Co14  1  0.110881  0.610870  0.499989  1
  Co  Co15  1  0.889119  0.389130  0.500011  1
  Tc  Tc16  1  0.000000  0.000000  0.000000  1
  Pb  Pb17  1  0.500000  0.500000  0.000000  1
