# generated using pymatgen
data_Na8GeP4
_symmetry_space_group_name_H-M   'P 1'
_cell_length_a   9.52327072
_cell_length_b   9.52327092
_cell_length_c   9.52327000
_cell_angle_alpha   59.99999626
_cell_angle_beta   59.99999555
_cell_angle_gamma   59.99999975
_symmetry_Int_Tables_number   1
_chemical_formula_structural   Na8GeP4
_chemical_formula_sum   'Na16 Ge2 P8'
_cell_volume   610.72168617
_cell_formula_units_Z   2
loop_
 _symmetry_equiv_pos_site_id
 _symmetry_equiv_pos_as_xyz
  1  'x, y, z'
loop_
 _atom_site_type_symbol
 _atom_site_label
 _atom_site_symmetry_multiplicity
 _atom_site_fract_x
 _atom_site_fract_y
 _atom_site_fract_z
 _atom_site_occupancy
  Na  Na0  1  0.625000  0.625000  0.125000  1
  Na  Na1  1  0.625000  0.125000  0.625000  1
  Na  Na2  1  0.125000  0.625000  0.625000  1
  Na  Na3  1  0.625000  0.625000  0.625000  1
  Na  Na4  1  0.028236  0.471764  0.471764  1
  Na  Na5  1  0.778236  0.221764  0.221764  1
  Na  Na6  1  0.471764  0.028236  0.471764  1
  Na  Na7  1  0.471764  0.471764  0.028236  1
  Na  Na8  1  0.028236  0.028236  0.471764  1
  Na  Na9  1  0.028236  0.471764  0.028236  1
  Na  Na10  1  0.471764  0.028236  0.028236  1
  Na  Na11  1  0.778236  0.221764  0.778236  1
  Na  Na12  1  0.221764  0.778236  0.221764  1
  Na  Na13  1  0.221764  0.221764  0.778236  1
  Na  Na14  1  0.778236  0.778236  0.221764  1
  Na  Na15  1  0.221764  0.778236  0.778236  1
  Ge  Ge16  1  0.750000  0.750000  0.750000  1
  Ge  Ge17  1  0.500000  0.500000  0.500000  1
  P  P18  1  0.854124  0.854124  0.437630  1
  P  P19  1  0.854124  0.437630  0.854124  1
  P  P20  1  0.395876  0.395876  0.812370  1
  P  P21  1  0.395876  0.812370  0.395876  1
  P  P22  1  0.812370  0.395876  0.395876  1
  P  P23  1  0.854124  0.854124  0.854124  1
  P  P24  1  0.437630  0.854124  0.854124  1
  P  P25  1  0.395876  0.395876  0.395876  1
