# generated using pymatgen
data_Nd5CoRhO12
_symmetry_space_group_name_H-M   'P 1'
_cell_length_a   7.02054190
_cell_length_b   7.02054178
_cell_length_c   7.55596500
_cell_angle_alpha   74.48357916
_cell_angle_beta   74.48357943
_cell_angle_gamma   50.94117726
_symmetry_Int_Tables_number   1
_chemical_formula_structural   Nd5CoRhO12
_chemical_formula_sum   'Nd5 Co1 Rh1 O12'
_cell_volume   276.19566159
_cell_formula_units_Z   1
loop_
 _symmetry_equiv_pos_site_id
 _symmetry_equiv_pos_as_xyz
  1  'x, y, z'
loop_
 _atom_site_type_symbol
 _atom_site_label
 _atom_site_symmetry_multiplicity
 _atom_site_fract_x
 _atom_site_fract_y
 _atom_site_fract_z
 _atom_site_occupancy
  Nd  Nd0  1  0.316994  0.296679  0.356156  1
  Nd  Nd1  1  0.703321  0.683006  0.643844  1
  Nd  Nd2  1  0.694622  0.690204  0.165030  1
  Nd  Nd3  1  0.309796  0.305378  0.834970  1
  Nd  Nd4  1  0.000448  0.999552  0.500000  1
  Co  Co5  1  0.745420  0.254580  0.000000  1
  Rh  Rh6  1  0.234768  0.765232  0.000000  1
  O  O7  1  0.102797  0.594116  0.576133  1
  O  O8  1  0.981637  0.017041  0.168837  1
  O  O9  1  0.405884  0.897203  0.423867  1
  O  O10  1  0.504996  0.495730  0.170184  1
  O  O11  1  0.098842  0.581028  0.079264  1
  O  O12  1  0.910913  0.399516  0.421132  1
  O  O13  1  0.982959  0.018363  0.831163  1
  O  O14  1  0.600484  0.089086  0.578868  1
  O  O15  1  0.504270  0.495004  0.829816  1
  O  O16  1  0.585441  0.102566  0.076741  1
  O  O17  1  0.418972  0.901158  0.920736  1
  O  O18  1  0.897434  0.414559  0.923259  1
