# generated using pymatgen
data_TiHg4P2O9
_symmetry_space_group_name_H-M   'P 1'
_cell_length_a   7.20584900
_cell_length_b   9.23692100
_cell_length_c   16.98868000
_cell_angle_alpha   90.00000000
_cell_angle_beta   90.00000000
_cell_angle_gamma   90.00000000
_symmetry_Int_Tables_number   1
_chemical_formula_structural   TiHg4P2O9
_chemical_formula_sum   'Ti4 Hg16 P8 O36'
_cell_volume   1130.76412757
_cell_formula_units_Z   4
loop_
 _symmetry_equiv_pos_site_id
 _symmetry_equiv_pos_as_xyz
  1  'x, y, z'
loop_
 _atom_site_type_symbol
 _atom_site_label
 _atom_site_symmetry_multiplicity
 _atom_site_fract_x
 _atom_site_fract_y
 _atom_site_fract_z
 _atom_site_occupancy
  Ti  Ti0  1  0.127347  0.766037  0.750000  1
  Ti  Ti1  1  0.372653  0.266037  0.250000  1
  Ti  Ti2  1  0.872653  0.233963  0.250000  1
  Ti  Ti3  1  0.627347  0.733963  0.750000  1
  Hg  Hg4  1  0.636220  0.752526  0.419912  1
  Hg  Hg5  1  0.130308  0.469381  0.401157  1
  Hg  Hg6  1  0.863780  0.252526  0.919912  1
  Hg  Hg7  1  0.869692  0.530619  0.598843  1
  Hg  Hg8  1  0.136220  0.747474  0.080088  1
  Hg  Hg9  1  0.369692  0.969381  0.901157  1
  Hg  Hg10  1  0.630308  0.030619  0.098843  1
  Hg  Hg11  1  0.363780  0.247474  0.580088  1
  Hg  Hg12  1  0.363780  0.247474  0.919912  1
  Hg  Hg13  1  0.630308  0.030619  0.401157  1
  Hg  Hg14  1  0.136220  0.747474  0.419912  1
  Hg  Hg15  1  0.863780  0.252526  0.580088  1
  Hg  Hg16  1  0.130308  0.469381  0.098843  1
  Hg  Hg17  1  0.869692  0.530619  0.901157  1
  Hg  Hg18  1  0.636220  0.752526  0.080088  1
  Hg  Hg19  1  0.369692  0.969381  0.598843  1
  P  P20  1  0.356180  0.609360  0.888206  1
  P  P21  1  0.143820  0.109360  0.111794  1
  P  P22  1  0.643820  0.390640  0.388206  1
  P  P23  1  0.356180  0.609360  0.611794  1
  P  P24  1  0.143820  0.109360  0.388206  1
  P  P25  1  0.856180  0.890640  0.611794  1
  P  P26  1  0.643820  0.390640  0.111794  1
  P  P27  1  0.856180  0.890640  0.888206  1
  O  O28  1  0.968138  0.099526  0.335027  1
  O  O29  1  0.681017  0.880290  0.665757  1
  O  O30  1  0.681017  0.880290  0.834243  1
  O  O31  1  0.643299  0.167632  0.250000  1
  O  O32  1  0.663174  0.525006  0.441863  1
  O  O33  1  0.132257  0.242410  0.055328  1
  O  O34  1  0.856701  0.667632  0.750000  1
  O  O35  1  0.867743  0.757590  0.944672  1
  O  O36  1  0.818983  0.380290  0.334243  1
  O  O37  1  0.336826  0.474994  0.941863  1
  O  O38  1  0.143299  0.332368  0.250000  1
  O  O39  1  0.468138  0.400474  0.164973  1
  O  O40  1  0.163174  0.974994  0.441863  1
  O  O41  1  0.318983  0.119710  0.165757  1
  O  O42  1  0.867743  0.757590  0.555328  1
  O  O43  1  0.356701  0.832368  0.750000  1
  O  O44  1  0.367743  0.742410  0.555328  1
  O  O45  1  0.632257  0.257590  0.055328  1
  O  O46  1  0.836826  0.025006  0.941863  1
  O  O47  1  0.181017  0.619710  0.665757  1
  O  O48  1  0.181017  0.619710  0.834243  1
  O  O49  1  0.318983  0.119710  0.334243  1
  O  O50  1  0.163174  0.974994  0.058137  1
  O  O51  1  0.031862  0.900474  0.664973  1
  O  O52  1  0.818983  0.380290  0.165757  1
  O  O53  1  0.468138  0.400474  0.335027  1
  O  O54  1  0.531862  0.599526  0.835027  1
  O  O55  1  0.531862  0.599526  0.664973  1
  O  O56  1  0.031862  0.900474  0.835027  1
  O  O57  1  0.836826  0.025006  0.558137  1
  O  O58  1  0.663174  0.525006  0.058137  1
  O  O59  1  0.336826  0.474994  0.558137  1
  O  O60  1  0.132257  0.242410  0.444672  1
  O  O61  1  0.632257  0.257590  0.444672  1
  O  O62  1  0.968138  0.099526  0.164973  1
  O  O63  1  0.367743  0.742410  0.944672  1
