# generated using pymatgen
data_Sc5Fe4Co12(P4W)3
_symmetry_space_group_name_H-M   'P 1'
_cell_length_a   12.02187200
_cell_length_b   12.02912735
_cell_length_c   3.63450200
_cell_angle_alpha   90.00000000
_cell_angle_beta   90.00000000
_cell_angle_gamma   120.17235481
_symmetry_Int_Tables_number   1
_chemical_formula_structural   Sc5Fe4Co12(P4W)3
_chemical_formula_sum   'Sc5 Fe4 Co12 P12 W3'
_cell_volume   454.38593236
_cell_formula_units_Z   1
loop_
 _symmetry_equiv_pos_site_id
 _symmetry_equiv_pos_as_xyz
  1  'x, y, z'
loop_
 _atom_site_type_symbol
 _atom_site_label
 _atom_site_symmetry_multiplicity
 _atom_site_fract_x
 _atom_site_fract_y
 _atom_site_fract_z
 _atom_site_occupancy
  Sc  Sc0  1  0.816763  0.999240  0.500000  1
  Sc  Sc1  1  0.998984  0.817628  0.500000  1
  Sc  Sc2  1  0.181416  0.181547  0.500000  1
  Sc  Sc3  1  0.334427  0.667188  0.000000  1
  Sc  Sc4  1  0.666879  0.333397  0.000000  1
  Fe  Fe5  1  0.279758  0.999991  0.500000  1
  Fe  Fe6  1  0.999931  0.279740  0.500000  1
  Fe  Fe7  1  0.721246  0.718636  0.500000  1
  Fe  Fe8  1  0.624287  0.802611  0.000000  1
  Co  Co9  1  0.195262  0.821612  0.000000  1
  Co  Co10  1  0.178447  0.373705  0.000000  1
  Co  Co11  1  0.373510  0.178432  0.000000  1
  Co  Co12  1  0.805067  0.625273  0.000000  1
  Co  Co13  1  0.821020  0.195362  0.000000  1
  Co  Co14  1  0.516185  0.873330  0.500000  1
  Co  Co15  1  0.129104  0.645050  0.500000  1
  Co  Co16  1  0.356022  0.484414  0.500000  1
  Co  Co17  1  0.483429  0.355030  0.500000  1
  Co  Co18  1  0.871819  0.516042  0.500000  1
  Co  Co19  1  0.644830  0.130049  0.500000  1
  Co  Co20  1  0.999853  0.999866  0.000000  1
  P  P21  1  0.176678  0.999688  0.000000  1
  P  P22  1  0.999239  0.176648  0.000000  1
  P  P23  1  0.820762  0.822694  0.000000  1
  P  P24  1  0.521342  0.689751  0.500000  1
  P  P25  1  0.313274  0.832430  0.500000  1
  P  P26  1  0.168437  0.480882  0.500000  1
  P  P27  1  0.480849  0.168405  0.500000  1
  P  P28  1  0.687192  0.518657  0.500000  1
  P  P29  1  0.832351  0.313105  0.500000  1
  P  P30  1  0.644877  0.998167  0.000000  1
  P  P31  1  0.000072  0.644836  0.000000  1
  P  P32  1  0.355006  0.355161  0.000000  1
  W  W33  1  0.446287  0.000600  0.000000  1
  W  W34  1  0.000456  0.446548  0.000000  1
  W  W35  1  0.554939  0.554282  0.000000  1
