# generated using pymatgen
data_Ac8Tm12Si15Hg
_symmetry_space_group_name_H-M   'P 1'
_cell_length_a   7.67546725
_cell_length_b   7.96881680
_cell_length_c   15.17605900
_cell_angle_alpha   89.95946279
_cell_angle_beta   89.57089725
_cell_angle_gamma   90.19395790
_symmetry_Int_Tables_number   1
_chemical_formula_structural   Ac8Tm12Si15Hg
_chemical_formula_sum   'Ac8 Tm12 Si15 Hg1'
_cell_volume   928.20282824
_cell_formula_units_Z   1
loop_
 _symmetry_equiv_pos_site_id
 _symmetry_equiv_pos_as_xyz
  1  'x, y, z'
loop_
 _atom_site_type_symbol
 _atom_site_label
 _atom_site_symmetry_multiplicity
 _atom_site_fract_x
 _atom_site_fract_y
 _atom_site_fract_z
 _atom_site_occupancy
  Ac  Ac0  1  0.009237  0.169958  0.397809  1
  Ac  Ac1  1  0.513952  0.327274  0.398009  1
  Ac  Ac2  1  0.485525  0.672107  0.902332  1
  Ac  Ac3  1  0.492974  0.678401  0.601388  1
  Ac  Ac4  1  0.988220  0.833316  0.599326  1
  Ac  Ac5  1  0.985388  0.828429  0.902660  1
  Ac  Ac6  1  0.513706  0.327609  0.097432  1
  Ac  Ac7  1  0.014946  0.172507  0.098660  1
  Tm  Tm8  1  0.334915  0.168350  0.628838  1
  Tm  Tm9  1  0.670093  0.825760  0.373718  1
  Tm  Tm10  1  0.660371  0.999373  0.752611  1
  Tm  Tm11  1  0.171714  0.675437  0.371487  1
  Tm  Tm12  1  0.824232  0.324187  0.877007  1
  Tm  Tm13  1  0.821958  0.326596  0.626317  1
  Tm  Tm14  1  0.841141  0.500963  0.249804  1
  Tm  Tm15  1  0.342568  0.998181  0.248242  1
  Tm  Tm16  1  0.324740  0.173440  0.876474  1
  Tm  Tm17  1  0.173843  0.675230  0.123869  1
  Tm  Tm18  1  0.675012  0.825017  0.123355  1
  Tm  Tm19  1  0.157391  0.499057  0.753854  1
  Si  Si20  1  0.287966  0.881942  0.752228  1
  Si  Si21  1  0.469846  0.631666  0.248022  1
  Si  Si22  1  0.029311  0.134296  0.752697  1
  Si  Si23  1  0.530410  0.369515  0.752161  1
  Si  Si24  1  0.969053  0.869043  0.248033  1
  Si  Si25  1  0.709829  0.116877  0.247167  1
  Si  Si26  1  0.855049  0.535111  0.039283  1
  Si  Si27  1  0.354462  0.964501  0.040241  1
  Si  Si28  1  0.144480  0.464043  0.961307  1
  Si  Si29  1  0.647760  0.039545  0.538137  1
  Si  Si30  1  0.351026  0.961303  0.460030  1
  Si  Si31  1  0.843733  0.542237  0.456920  1
  Si  Si32  1  0.791376  0.618086  0.752071  1
  Si  Si33  1  0.210354  0.381858  0.248044  1
  Si  Si34  1  0.644612  0.034296  0.959989  1
  Hg  Hg35  1  0.158804  0.454487  0.540484  1
