# generated using pymatgen
data_KGaPd3O8
_symmetry_space_group_name_H-M   'P 1'
_cell_length_a   3.09815100
_cell_length_b   10.00424911
_cell_length_c   10.10409200
_cell_angle_alpha   90.57117757
_cell_angle_beta   90.00001849
_cell_angle_gamma   89.99932401
_symmetry_Int_Tables_number   1
_chemical_formula_structural   KGaPd3O8
_chemical_formula_sum   'K2 Ga2 Pd6 O16'
_cell_volume   313.15747996
_cell_formula_units_Z   2
loop_
 _symmetry_equiv_pos_site_id
 _symmetry_equiv_pos_as_xyz
  1  'x, y, z'
loop_
 _atom_site_type_symbol
 _atom_site_label
 _atom_site_symmetry_multiplicity
 _atom_site_fract_x
 _atom_site_fract_y
 _atom_site_fract_z
 _atom_site_occupancy
  K  K0  1  0.506502  0.996220  0.009132  1
  K  K1  1  0.993534  0.496218  0.509132  1
  Ga  Ga2  1  0.997712  0.165048  0.648508  1
  Ga  Ga3  1  0.502282  0.665044  0.148505  1
  Pd  Pd4  1  0.497860  0.331049  0.849561  1
  Pd  Pd5  1  0.002134  0.831049  0.349558  1
  Pd  Pd6  1  0.000957  0.652241  0.833285  1
  Pd  Pd7  1  0.499042  0.152239  0.333288  1
  Pd  Pd8  1  0.999021  0.352988  0.169632  1
  Pd  Pd9  1  0.500975  0.852992  0.669629  1
  O  O10  1  0.501294  0.675169  0.956276  1
  O  O11  1  0.998703  0.175168  0.456277  1
  O  O12  1  0.498816  0.321178  0.048196  1
  O  O13  1  0.001184  0.821187  0.548192  1
  O  O14  1  0.998294  0.454944  0.819518  1
  O  O15  1  0.501694  0.954942  0.319514  1
  O  O16  1  0.001673  0.548497  0.159930  1
  O  O17  1  0.498326  0.048498  0.659934  1
  O  O18  1  0.997917  0.197975  0.849409  1
  O  O19  1  0.502088  0.697974  0.349405  1
  O  O20  1  0.003010  0.800341  0.152738  1
  O  O21  1  0.496982  0.300341  0.652739  1
  O  O22  1  0.498534  0.355418  0.304369  1
  O  O23  1  0.001464  0.855422  0.804366  1
  O  O24  1  0.501220  0.648929  0.699450  1
  O  O25  1  0.998782  0.148930  0.199451  1
