# generated using pymatgen
data_Sm10InSi4Hg
_symmetry_space_group_name_H-M   'P 1'
_cell_length_a   7.68087300
_cell_length_b   9.11322291
_cell_length_c   7.68087300
_cell_angle_alpha   114.92387260
_cell_angle_beta   90.00000000
_cell_angle_gamma   114.92387260
_symmetry_Int_Tables_number   1
_chemical_formula_structural   Sm10InSi4Hg
_chemical_formula_sum   'Sm10 In1 Si4 Hg1'
_cell_volume   431.73051195
_cell_formula_units_Z   1
loop_
 _symmetry_equiv_pos_site_id
 _symmetry_equiv_pos_as_xyz
  1  'x, y, z'
loop_
 _atom_site_type_symbol
 _atom_site_label
 _atom_site_symmetry_multiplicity
 _atom_site_fract_x
 _atom_site_fract_y
 _atom_site_fract_z
 _atom_site_occupancy
  Sm  Sm0  1  0.979352  0.958703  0.979352  1
  Sm  Sm1  1  0.520648  0.041297  0.520648  1
  Sm  Sm2  1  0.527808  0.722734  0.678359  1
  Sm  Sm3  1  0.194927  0.722734  0.044376  1
  Sm  Sm4  1  0.678359  0.722734  0.194927  1
  Sm  Sm5  1  0.044376  0.722734  0.527808  1
  Sm  Sm6  1  0.455624  0.277266  0.305073  1
  Sm  Sm7  1  0.821641  0.277266  0.972192  1
  Sm  Sm8  1  0.305073  0.277266  0.821641  1
  Sm  Sm9  1  0.972192  0.277266  0.455624  1
  In  In10  1  0.750000  0.500000  0.750000  1
  Si  Si11  1  0.881862  0.000000  0.618138  1
  Si  Si12  1  0.118138  0.000000  0.381862  1
  Si  Si13  1  0.618138  0.000000  0.118138  1
  Si  Si14  1  0.381862  0.000000  0.881862  1
  Hg  Hg15  1  0.250000  0.500000  0.250000  1
