# generated using pymatgen
data_HoBeRu2C
_symmetry_space_group_name_H-M   'P 1'
_cell_length_a   5.65914148
_cell_length_b   5.65914156
_cell_length_c   7.00611300
_cell_angle_alpha   90.00000000
_cell_angle_beta   90.00000000
_cell_angle_gamma   140.88740466
_symmetry_Int_Tables_number   1
_chemical_formula_structural   HoBeRu2C
_chemical_formula_sum   'Ho2 Be2 Ru4 C2'
_cell_volume   141.54739134
_cell_formula_units_Z   2
loop_
 _symmetry_equiv_pos_site_id
 _symmetry_equiv_pos_as_xyz
  1  'x, y, z'
loop_
 _atom_site_type_symbol
 _atom_site_label
 _atom_site_symmetry_multiplicity
 _atom_site_fract_x
 _atom_site_fract_y
 _atom_site_fract_z
 _atom_site_occupancy
  Ho  Ho0  1  0.544593  0.455407  0.250000  1
  Ho  Ho1  1  0.455407  0.544593  0.750000  1
  Be  Be2  1  0.271504  0.728496  0.250000  1
  Be  Be3  1  0.728496  0.271504  0.750000  1
  Ru  Ru4  1  0.826809  0.173191  0.056977  1
  Ru  Ru5  1  0.173191  0.826809  0.943023  1
  Ru  Ru6  1  0.173191  0.826809  0.556977  1
  Ru  Ru7  1  0.826809  0.173191  0.443023  1
  C  C8  1  0.000000  0.000000  0.000000  1
  C  C9  1  0.000000  0.000000  0.500000  1
