# generated using pymatgen
data_OsBr3O
_symmetry_space_group_name_H-M   'P 1'
_cell_length_a   3.71166349
_cell_length_b   11.79574300
_cell_length_c   11.79368141
_cell_angle_alpha   90.00000000
_cell_angle_beta   89.14011682
_cell_angle_gamma   90.00000000
_symmetry_Int_Tables_number   1
_chemical_formula_structural   OsBr3O
_chemical_formula_sum   'Os4 Br12 O4'
_cell_volume   516.29078953
_cell_formula_units_Z   4
loop_
 _symmetry_equiv_pos_site_id
 _symmetry_equiv_pos_as_xyz
  1  'x, y, z'
loop_
 _atom_site_type_symbol
 _atom_site_label
 _atom_site_symmetry_multiplicity
 _atom_site_fract_x
 _atom_site_fract_y
 _atom_site_fract_z
 _atom_site_occupancy
  Os  Os0  1  0.490105  0.384748  0.615297  1
  Os  Os1  1  0.990105  0.115252  0.115297  1
  Os  Os2  1  0.509895  0.615252  0.384703  1
  Os  Os3  1  0.009895  0.884748  0.884703  1
  Br  Br4  1  0.484837  0.390638  0.825017  1
  Br  Br5  1  0.515163  0.609362  0.174983  1
  Br  Br6  1  0.984837  0.109362  0.325017  1
  Br  Br7  1  0.015163  0.890638  0.674983  1
  Br  Br8  1  0.514960  0.824918  0.390603  1
  Br  Br9  1  0.485040  0.175082  0.609397  1
  Br  Br10  1  0.985040  0.324918  0.109397  1
  Br  Br11  1  0.014960  0.675082  0.890603  1
  Br  Br12  1  0.499974  0.603758  0.603809  1
  Br  Br13  1  0.500026  0.396242  0.396191  1
  Br  Br14  1  0.999974  0.896242  0.103809  1
  Br  Br15  1  0.000026  0.103758  0.896191  1
  O  O16  1  0.990690  0.386877  0.613056  1
  O  O17  1  0.009310  0.613123  0.386944  1
  O  O18  1  0.490690  0.113123  0.113056  1
  O  O19  1  0.509310  0.886877  0.886944  1
