# generated using pymatgen
data_Ti2(TlCl3)3
_symmetry_space_group_name_H-M   'P 1'
_cell_length_a   7.06024600
_cell_length_b   7.06024566
_cell_length_c   17.39659800
_cell_angle_alpha   90.00000000
_cell_angle_beta   90.00000000
_cell_angle_gamma   120.00000159
_symmetry_Int_Tables_number   1
_chemical_formula_structural   Ti2(TlCl3)3
_chemical_formula_sum   'Ti4 Tl6 Cl18'
_cell_volume   750.99076860
_cell_formula_units_Z   2
loop_
 _symmetry_equiv_pos_site_id
 _symmetry_equiv_pos_as_xyz
  1  'x, y, z'
loop_
 _atom_site_type_symbol
 _atom_site_label
 _atom_site_symmetry_multiplicity
 _atom_site_fract_x
 _atom_site_fract_y
 _atom_site_fract_z
 _atom_site_occupancy
  Ti  Ti0  1  0.333333  0.666667  0.828327  1
  Ti  Ti1  1  0.333333  0.666667  0.668002  1
  Ti  Ti2  1  0.666667  0.333333  0.328327  1
  Ti  Ti3  1  0.666667  0.333333  0.168002  1
  Tl  Tl4  1  0.333333  0.666667  0.064398  1
  Tl  Tl5  1  0.333333  0.666667  0.440755  1
  Tl  Tl6  1  0.000000  0.000000  0.268711  1
  Tl  Tl7  1  0.000000  0.000000  0.768711  1
  Tl  Tl8  1  0.666667  0.333333  0.940755  1
  Tl  Tl9  1  0.666667  0.333333  0.564398  1
  Cl  Cl10  1  0.173414  0.826586  0.591132  1
  Cl  Cl11  1  0.174059  0.825941  0.907818  1
  Cl  Cl12  1  0.004293  0.502146  0.749453  1
  Cl  Cl13  1  0.497854  0.995707  0.749453  1
  Cl  Cl14  1  0.174059  0.348116  0.907818  1
  Cl  Cl15  1  0.173414  0.346828  0.591132  1
  Cl  Cl16  1  0.497854  0.502146  0.749453  1
  Cl  Cl17  1  0.651884  0.825941  0.907818  1
  Cl  Cl18  1  0.653172  0.826586  0.591132  1
  Cl  Cl19  1  0.348116  0.174059  0.407818  1
  Cl  Cl20  1  0.346828  0.173414  0.091132  1
  Cl  Cl21  1  0.502146  0.497854  0.249453  1
  Cl  Cl22  1  0.826586  0.653172  0.091132  1
  Cl  Cl23  1  0.825941  0.651884  0.407818  1
  Cl  Cl24  1  0.502146  0.004293  0.249453  1
  Cl  Cl25  1  0.995707  0.497854  0.249453  1
  Cl  Cl26  1  0.826586  0.173414  0.091132  1
  Cl  Cl27  1  0.825941  0.174059  0.407818  1
