# generated using pymatgen
data_TmU(CuSb2)2
_symmetry_space_group_name_H-M   'P 1'
_cell_length_a   4.31831500
_cell_length_b   4.31831500
_cell_length_c   9.62105000
_cell_angle_alpha   90.00000000
_cell_angle_beta   90.00000000
_cell_angle_gamma   90.00000000
_symmetry_Int_Tables_number   1
_chemical_formula_structural   TmU(CuSb2)2
_chemical_formula_sum   'Tm1 U1 Cu2 Sb4'
_cell_volume   179.41184374
_cell_formula_units_Z   1
loop_
 _symmetry_equiv_pos_site_id
 _symmetry_equiv_pos_as_xyz
  1  'x, y, z'
loop_
 _atom_site_type_symbol
 _atom_site_label
 _atom_site_symmetry_multiplicity
 _atom_site_fract_x
 _atom_site_fract_y
 _atom_site_fract_z
 _atom_site_occupancy
  Tm  Tm0  1  0.000000  0.500000  0.754185  1
  U  U1  1  0.500000  0.000000  0.253598  1
  Cu  Cu2  1  0.500000  0.500000  0.499848  1
  Cu  Cu3  1  0.000000  0.000000  0.499848  1
  Sb  Sb4  1  0.500000  0.500000  0.001760  1
  Sb  Sb5  1  0.000000  0.000000  0.001760  1
  Sb  Sb6  1  0.000000  0.500000  0.328181  1
  Sb  Sb7  1  0.500000  0.000000  0.660820  1
