# generated using pymatgen
data_Th3OsSe2
_symmetry_space_group_name_H-M   'P 1'
_cell_length_a   7.48050545
_cell_length_b   7.48050537
_cell_length_c   7.48050566
_cell_angle_alpha   147.94577002
_cell_angle_beta   132.68297342
_cell_angle_gamma   58.29893792
_symmetry_Int_Tables_number   1
_chemical_formula_structural   Th3OsSe2
_chemical_formula_sum   'Th3 Os1 Se2'
_cell_volume   162.01264114
_cell_formula_units_Z   1
loop_
 _symmetry_equiv_pos_site_id
 _symmetry_equiv_pos_as_xyz
  1  'x, y, z'
loop_
 _atom_site_type_symbol
 _atom_site_label
 _atom_site_symmetry_multiplicity
 _atom_site_fract_x
 _atom_site_fract_y
 _atom_site_fract_z
 _atom_site_occupancy
  Th  Th0  1  0.000000  0.000000  0.000000  1
  Th  Th1  1  0.646377  0.646377  0.000000  1
  Th  Th2  1  0.353623  0.353623  0.000000  1
  Os  Os3  1  0.500000  0.000000  0.500000  1
  Se  Se4  1  0.174064  0.674064  0.500000  1
  Se  Se5  1  0.825936  0.325936  0.500000  1
