# generated using pymatgen
data_Sc7Co6AgSn22
_symmetry_space_group_name_H-M   'P 1'
_cell_length_a   9.48825500
_cell_length_b   9.48825436
_cell_length_c   9.79741000
_cell_angle_alpha   90.00000000
_cell_angle_beta   90.00000000
_cell_angle_gamma   119.99999176
_symmetry_Int_Tables_number   1
_chemical_formula_structural   Sc7Co6AgSn22
_chemical_formula_sum   'Sc7 Co6 Ag1 Sn22'
_cell_volume   763.86149298
_cell_formula_units_Z   1
loop_
 _symmetry_equiv_pos_site_id
 _symmetry_equiv_pos_as_xyz
  1  'x, y, z'
loop_
 _atom_site_type_symbol
 _atom_site_label
 _atom_site_symmetry_multiplicity
 _atom_site_fract_x
 _atom_site_fract_y
 _atom_site_fract_z
 _atom_site_occupancy
  Sc  Sc0  1  0.000000  0.000000  0.000000  1
  Sc  Sc1  1  0.482073  0.517927  0.308771  1
  Sc  Sc2  1  0.517927  0.482073  0.691229  1
  Sc  Sc3  1  0.482073  0.964147  0.308771  1
  Sc  Sc4  1  0.517927  0.035853  0.691229  1
  Sc  Sc5  1  0.035853  0.517927  0.308771  1
  Sc  Sc6  1  0.964147  0.482073  0.691229  1
  Co  Co7  1  0.830368  0.169632  0.199222  1
  Co  Co8  1  0.169632  0.830368  0.800778  1
  Co  Co9  1  0.830368  0.660734  0.199222  1
  Co  Co10  1  0.169632  0.339266  0.800778  1
  Co  Co11  1  0.339266  0.169632  0.199222  1
  Co  Co12  1  0.660734  0.830368  0.800778  1
  Ag  Ag13  1  0.000000  0.000000  0.500000  1
  Sn  Sn14  1  0.345866  0.000000  0.000000  1
  Sn  Sn15  1  0.654134  0.000000  0.000000  1
  Sn  Sn16  1  0.000000  0.345866  0.000000  1
  Sn  Sn17  1  0.000000  0.654134  0.000000  1
  Sn  Sn18  1  0.654134  0.654134  0.000000  1
  Sn  Sn19  1  0.345866  0.345866  0.000000  1
  Sn  Sn20  1  0.333333  0.666667  0.819475  1
  Sn  Sn21  1  0.666667  0.333333  0.180525  1
  Sn  Sn22  1  0.781512  0.218488  0.456363  1
  Sn  Sn23  1  0.218488  0.781512  0.543637  1
  Sn  Sn24  1  0.781512  0.563025  0.456363  1
  Sn  Sn25  1  0.218488  0.436975  0.543637  1
  Sn  Sn26  1  0.436975  0.218488  0.456363  1
  Sn  Sn27  1  0.563025  0.781512  0.543637  1
  Sn  Sn28  1  0.333333  0.666667  0.135929  1
  Sn  Sn29  1  0.666667  0.333333  0.864071  1
  Sn  Sn30  1  0.117057  0.882943  0.275582  1
  Sn  Sn31  1  0.882943  0.117057  0.724418  1
  Sn  Sn32  1  0.117057  0.234116  0.275582  1
  Sn  Sn33  1  0.882943  0.765884  0.724418  1
  Sn  Sn34  1  0.765884  0.882943  0.275582  1
  Sn  Sn35  1  0.234116  0.117057  0.724418  1
