# generated using pymatgen
data_AcZn3NiRu
_symmetry_space_group_name_H-M   'P 1'
_cell_length_a   9.47443000
_cell_length_b   9.40891462
_cell_length_c   4.21448900
_cell_angle_alpha   90.00000000
_cell_angle_beta   90.00000000
_cell_angle_gamma   120.23059961
_symmetry_Int_Tables_number   1
_chemical_formula_structural   AcZn3NiRu
_chemical_formula_sum   'Ac3 Zn9 Ni3 Ru3'
_cell_volume   324.60433761
_cell_formula_units_Z   3
loop_
 _symmetry_equiv_pos_site_id
 _symmetry_equiv_pos_as_xyz
  1  'x, y, z'
loop_
 _atom_site_type_symbol
 _atom_site_label
 _atom_site_symmetry_multiplicity
 _atom_site_fract_x
 _atom_site_fract_y
 _atom_site_fract_z
 _atom_site_occupancy
  Ac  Ac0  1  0.003583  0.007167  0.500000  1
  Ac  Ac1  1  0.330610  0.661221  0.000000  1
  Ac  Ac2  1  0.661552  0.323103  0.000000  1
  Zn  Zn3  1  0.494992  0.989984  0.500000  1
  Zn  Zn4  1  0.510357  0.506351  0.500000  1
  Zn  Zn5  1  0.995994  0.506351  0.500000  1
  Zn  Zn6  1  0.283827  0.991604  0.000000  1
  Zn  Zn7  1  0.296102  0.294403  0.000000  1
  Zn  Zn8  1  0.997359  0.712535  0.000000  1
  Zn  Zn9  1  0.998301  0.294403  0.000000  1
  Zn  Zn10  1  0.715177  0.712535  0.000000  1
  Zn  Zn11  1  0.707777  0.991604  0.000000  1
  Ni  Ni12  1  0.637787  0.815115  0.500000  1
  Ni  Ni13  1  0.177329  0.815115  0.500000  1
  Ni  Ni14  1  0.821491  0.642982  0.500000  1
  Ru  Ru15  1  0.188494  0.376987  0.500000  1
  Ru  Ru16  1  0.812057  0.179271  0.500000  1
  Ru  Ru17  1  0.367213  0.179271  0.500000  1
