# generated using pymatgen
data_SmCO3F
_symmetry_space_group_name_H-M   'P 1'
_cell_length_a   4.51039582
_cell_length_b   6.49502078
_cell_length_c   6.95844296
_cell_angle_alpha   90.20069516
_cell_angle_beta   92.11789515
_cell_angle_gamma   91.68241214
_symmetry_Int_Tables_number   1
_chemical_formula_structural   SmCO3F
_chemical_formula_sum   'Sm2 C2 O6 F2'
_cell_volume   203.61917258
_cell_formula_units_Z   2
loop_
 _symmetry_equiv_pos_site_id
 _symmetry_equiv_pos_as_xyz
  1  'x, y, z'
loop_
 _atom_site_type_symbol
 _atom_site_label
 _atom_site_symmetry_multiplicity
 _atom_site_fract_x
 _atom_site_fract_y
 _atom_site_fract_z
 _atom_site_occupancy
  Sm  Sm0  1  0.501639  0.335444  0.249597  1
  Sm  Sm1  1  0.498364  0.664555  0.750404  1
  C  C2  1  0.511910  0.789165  0.250852  1
  C  C3  1  0.488089  0.210836  0.749149  1
  O  O4  1  0.527869  0.678936  0.093662  1
  O  O5  1  0.508426  0.983232  0.250464  1
  O  O6  1  0.499596  0.679400  0.408246  1
  O  O7  1  0.500407  0.320599  0.591753  1
  O  O8  1  0.491569  0.016768  0.749538  1
  O  O9  1  0.472134  0.321064  0.906339  1
  F  F10  1  0.001795  0.341306  0.248276  1
  F  F11  1  0.998207  0.658692  0.751721  1
