# generated using pymatgen
data_Ta5Nb7(ReTc)6
_symmetry_space_group_name_H-M   'P 1'
_cell_length_a   4.51218700
_cell_length_b   6.39350800
_cell_length_c   13.65053600
_cell_angle_alpha   90.00084091
_cell_angle_beta   89.99935948
_cell_angle_gamma   89.99603861
_symmetry_Int_Tables_number   1
_chemical_formula_structural   Ta5Nb7(ReTc)6
_chemical_formula_sum   'Ta5 Nb7 Re6 Tc6'
_cell_volume   393.80026766
_cell_formula_units_Z   1
loop_
 _symmetry_equiv_pos_site_id
 _symmetry_equiv_pos_as_xyz
  1  'x, y, z'
loop_
 _atom_site_type_symbol
 _atom_site_label
 _atom_site_symmetry_multiplicity
 _atom_site_fract_x
 _atom_site_fract_y
 _atom_site_fract_z
 _atom_site_occupancy
  Ta  Ta0  1  0.999985  0.749954  0.500100  1
  Ta  Ta1  1  0.500028  0.249980  0.666808  1
  Ta  Ta2  1  0.500020  0.750023  0.666626  1
  Ta  Ta3  1  0.999985  0.250037  0.833244  1
  Ta  Ta4  1  0.000007  0.749970  0.833236  1
  Nb  Nb5  1  0.500003  0.249952  0.999933  1
  Nb  Nb6  1  0.500001  0.750057  0.999928  1
  Nb  Nb7  1  0.999996  0.250098  0.166660  1
  Nb  Nb8  1  0.000002  0.749920  0.166673  1
  Nb  Nb9  1  0.499963  0.249941  0.333304  1
  Nb  Nb10  1  0.499964  0.750076  0.333453  1
  Nb  Nb11  1  0.000000  0.250045  0.500068  1
  Re  Re12  1  0.999995  0.000018  0.999792  1
  Re  Re13  1  0.499970  0.499973  0.166665  1
  Re  Re14  1  0.000015  0.999823  0.333419  1
  Re  Re15  1  0.500004  0.500285  0.500194  1
  Re  Re16  1  0.999996  0.999830  0.666767  1
  Re  Re17  1  0.500030  0.499984  0.833147  1
  Tc  Tc18  1  0.999995  0.499960  0.999824  1
  Tc  Tc19  1  0.500021  0.000026  0.166658  1
  Tc  Tc20  1  0.999992  0.500159  0.333416  1
  Tc  Tc21  1  0.500022  0.999716  0.500158  1
  Tc  Tc22  1  0.000017  0.500149  0.666734  1
  Tc  Tc23  1  0.499995  0.000028  0.833195  1
