# generated using pymatgen
data_Ta2Nb(GaIr)3
_symmetry_space_group_name_H-M   'P 1'
_cell_length_a   7.47723500
_cell_length_b   7.48421437
_cell_length_c   2.93318000
_cell_angle_alpha   90.00000000
_cell_angle_beta   90.00000000
_cell_angle_gamma   119.96916086
_symmetry_Int_Tables_number   1
_chemical_formula_structural   Ta2Nb(GaIr)3
_chemical_formula_sum   'Ta2 Nb1 Ga3 Ir3'
_cell_volume   142.19733952
_cell_formula_units_Z   1
loop_
 _symmetry_equiv_pos_site_id
 _symmetry_equiv_pos_as_xyz
  1  'x, y, z'
loop_
 _atom_site_type_symbol
 _atom_site_label
 _atom_site_symmetry_multiplicity
 _atom_site_fract_x
 _atom_site_fract_y
 _atom_site_fract_z
 _atom_site_occupancy
  Ta  Ta0  1  0.999839  0.366011  0.500001  1
  Ta  Ta1  1  0.633828  0.633990  0.500001  1
  Nb  Nb2  1  0.366819  0.000000  0.500001  1
  Ga  Ga3  1  0.703967  0.000000  0.000000  1
  Ga  Ga4  1  0.295107  0.293945  0.000000  1
  Ga  Ga5  1  0.001164  0.706056  0.000000  1
  Ir  Ir6  1  0.668373  0.335439  0.000000  1
  Ir  Ir7  1  0.332935  0.664562  0.000000  1
  Ir  Ir8  1  0.997969  0.000000  0.500001  1
