# generated using pymatgen
data_Ce3Pr(Si3Au)2
_symmetry_space_group_name_H-M   'P 1'
_cell_length_a   8.34507853
_cell_length_b   8.29693584
_cell_length_c   5.94258900
_cell_angle_alpha   69.51300588
_cell_angle_beta   68.64584884
_cell_angle_gamma   41.84114115
_symmetry_Int_Tables_number   1
_chemical_formula_structural   Ce3Pr(Si3Au)2
_chemical_formula_sum   'Ce3 Pr1 Si6 Au2'
_cell_volume   253.56604040
_cell_formula_units_Z   1
loop_
 _symmetry_equiv_pos_site_id
 _symmetry_equiv_pos_as_xyz
  1  'x, y, z'
loop_
 _atom_site_type_symbol
 _atom_site_label
 _atom_site_symmetry_multiplicity
 _atom_site_fract_x
 _atom_site_fract_y
 _atom_site_fract_z
 _atom_site_occupancy
  Ce  Ce0  1  0.250001  0.250000  0.249999  1
  Ce  Ce1  1  0.258193  0.741807  0.258193  1
  Ce  Ce2  1  0.741807  0.258193  0.741807  1
  Pr  Pr3  1  0.750000  0.749999  0.750000  1
  Si  Si4  1  0.829282  0.333674  0.176098  1
  Si  Si5  1  0.660945  0.176098  0.333673  1
  Si  Si6  1  0.663218  0.663218  0.336783  1
  Si  Si7  1  0.336782  0.336782  0.663218  1
  Si  Si8  1  0.333673  0.829283  0.660945  1
  Si  Si9  1  0.176098  0.660945  0.829282  1
  Au  Au10  1  0.834277  0.834277  0.165723  1
  Au  Au11  1  0.165722  0.165723  0.834278  1
