# generated using pymatgen
data_YLu7In3Os
_symmetry_space_group_name_H-M   'P 1'
_cell_length_a   10.21116900
_cell_length_b   10.21116996
_cell_length_c   7.01927800
_cell_angle_alpha   90.00000000
_cell_angle_beta   90.00000000
_cell_angle_gamma   120.00000661
_symmetry_Int_Tables_number   1
_chemical_formula_structural   YLu7In3Os
_chemical_formula_sum   'Y2 Lu14 In6 Os2'
_cell_volume   633.83178602
_cell_formula_units_Z   2
loop_
 _symmetry_equiv_pos_site_id
 _symmetry_equiv_pos_as_xyz
  1  'x, y, z'
loop_
 _atom_site_type_symbol
 _atom_site_label
 _atom_site_symmetry_multiplicity
 _atom_site_fract_x
 _atom_site_fract_y
 _atom_site_fract_z
 _atom_site_occupancy
  Y  Y0  1  0.000000  0.000000  0.496540  1
  Y  Y1  1  0.000000  0.000000  0.996540  1
  Lu  Lu2  1  0.465920  0.534080  0.480402  1
  Lu  Lu3  1  0.068161  0.534080  0.480402  1
  Lu  Lu4  1  0.465920  0.931839  0.480402  1
  Lu  Lu5  1  0.534080  0.465920  0.980402  1
  Lu  Lu6  1  0.931839  0.465920  0.980402  1
  Lu  Lu7  1  0.534080  0.068161  0.980402  1
  Lu  Lu8  1  0.821502  0.178498  0.277907  1
  Lu  Lu9  1  0.356995  0.178498  0.277907  1
  Lu  Lu10  1  0.821502  0.643005  0.277907  1
  Lu  Lu11  1  0.178498  0.821502  0.777907  1
  Lu  Lu12  1  0.643005  0.821502  0.777907  1
  Lu  Lu13  1  0.178498  0.356995  0.777907  1
  Lu  Lu14  1  0.333333  0.666667  0.097825  1
  Lu  Lu15  1  0.666667  0.333333  0.597825  1
  In  In16  1  0.163710  0.836290  0.233150  1
  In  In17  1  0.672580  0.836290  0.233150  1
  In  In18  1  0.163710  0.327420  0.233150  1
  In  In19  1  0.836290  0.163710  0.733150  1
  In  In20  1  0.327420  0.163710  0.733150  1
  In  In21  1  0.836290  0.672580  0.733150  1
  Os  Os22  1  0.333333  0.666667  0.703533  1
  Os  Os23  1  0.666667  0.333333  0.203533  1
