# generated using pymatgen
data_LiFeF36
_symmetry_space_group_name_H-M   'P 1'
_cell_length_a   6.96297090
_cell_length_b   9.87834248
_cell_length_c   10.86843200
_cell_angle_alpha   90.88321665
_cell_angle_beta   100.15638569
_cell_angle_gamma   73.70234779
_symmetry_Int_Tables_number   1
_chemical_formula_structural   LiFeF36
_chemical_formula_sum   'Li1 Fe1 F36'
_cell_volume   705.81697782
_cell_formula_units_Z   1
loop_
 _symmetry_equiv_pos_site_id
 _symmetry_equiv_pos_as_xyz
  1  'x, y, z'
loop_
 _atom_site_type_symbol
 _atom_site_label
 _atom_site_symmetry_multiplicity
 _atom_site_fract_x
 _atom_site_fract_y
 _atom_site_fract_z
 _atom_site_occupancy
  Li  Li0  1  0.575224  0.881169  0.827628  1
  Fe  Fe1  1  0.323545  0.168472  0.166132  1
  F  F2  1  0.347287  0.405109  0.916753  1
  F  F3  1  0.691472  0.630695  0.106005  1
  F  F4  1  0.300397  0.237522  0.568798  1
  F  F5  1  0.710206  0.703184  0.401446  1
  F  F6  1  0.950262  0.181371  0.834231  1
  F  F7  1  0.103483  0.769739  0.182379  1
  F  F8  1  0.650593  0.987818  0.978047  1
  F  F9  1  0.360254  0.094571  0.013515  1
  F  F10  1  0.875043  0.602515  0.824951  1
  F  F11  1  0.199179  0.337098  0.088937  1
  F  F12  1  0.442868  0.442708  0.821057  1
  F  F13  1  0.530404  0.593349  0.148764  1
  F  F14  1  0.718326  0.698114  0.737790  1
  F  F15  1  0.271352  0.238495  0.310289  1
  F  F16  1  0.737777  0.000788  0.529654  1
  F  F17  1  0.283978  0.949404  0.503534  1
  F  F18  1  0.272555  0.224300  0.693999  1
  F  F19  1  0.690786  0.834557  0.339551  1
  F  F20  1  0.791453  0.061941  0.646425  1
  F  F21  1  0.218660  0.938364  0.367553  1
  F  F22  1  0.849398  0.909404  0.939268  1
  F  F23  1  0.163478  0.039987  0.175364  1
  F  F24  1  0.885548  0.328298  0.801457  1
  F  F25  1  0.119968  0.622474  0.177742  1
  F  F26  1  0.244199  0.756156  0.925990  1
  F  F27  1  0.806433  0.318061  0.072115  1
  F  F28  1  0.389343  0.932202  0.687883  1
  F  F29  1  0.578325  0.073485  0.234009  1
  F  F30  1  0.065322  0.743300  0.572224  1
  F  F31  1  0.862581  0.245356  0.426967  1
  F  F32  1  0.154019  0.611282  0.639520  1
  F  F33  1  0.839142  0.381055  0.373495  1
  F  F34  1  0.296428  0.829819  0.822785  1
  F  F35  1  0.722140  0.226496  0.133525  1
  F  F36  1  0.500229  0.433702  0.533496  1
  F  F37  1  0.478344  0.567642  0.476720  1
