# generated using pymatgen
data_Nd16MgTl(AgRh2)2
_symmetry_space_group_name_H-M   'P 1'
_cell_length_a   9.90493090
_cell_length_b   9.93333287
_cell_length_c   9.93333254
_cell_angle_alpha   60.03946748
_cell_angle_beta   60.07123813
_cell_angle_gamma   60.07122882
_symmetry_Int_Tables_number   1
_chemical_formula_structural   Nd16MgTl(AgRh2)2
_chemical_formula_sum   'Nd16 Mg1 Tl1 Ag2 Rh4'
_cell_volume   692.02666790
_cell_formula_units_Z   1
loop_
 _symmetry_equiv_pos_site_id
 _symmetry_equiv_pos_as_xyz
  1  'x, y, z'
loop_
 _atom_site_type_symbol
 _atom_site_label
 _atom_site_symmetry_multiplicity
 _atom_site_fract_x
 _atom_site_fract_y
 _atom_site_fract_z
 _atom_site_occupancy
  Nd  Nd0  1  0.599275  0.597624  0.597624  1
  Nd  Nd1  1  0.598524  0.598962  0.202214  1
  Nd  Nd2  1  0.598524  0.202214  0.598962  1
  Nd  Nd3  1  0.193135  0.601564  0.601564  1
  Nd  Nd4  1  0.058095  0.440044  0.440044  1
  Nd  Nd5  1  0.441051  0.058937  0.058937  1
  Nd  Nd6  1  0.436910  0.060736  0.438380  1
  Nd  Nd7  1  0.056709  0.443350  0.057041  1
  Nd  Nd8  1  0.436910  0.438380  0.060736  1
  Nd  Nd9  1  0.056709  0.057041  0.443350  1
  Nd  Nd10  1  0.191379  0.813640  0.813640  1
  Nd  Nd11  1  0.811734  0.188714  0.188714  1
  Nd  Nd12  1  0.811377  0.194175  0.814074  1
  Nd  Nd13  1  0.186716  0.813505  0.188433  1
  Nd  Nd14  1  0.811377  0.814074  0.194175  1
  Nd  Nd15  1  0.186716  0.188433  0.813505  1
  Mg  Mg16  1  0.535001  0.819566  0.819566  1
  Tl  Tl17  1  0.833271  0.831897  0.831897  1
  Ag  Ag18  1  0.830395  0.834002  0.499787  1
  Ag  Ag19  1  0.830395  0.499787  0.834002  1
  Rh  Rh20  1  0.389403  0.392772  0.392772  1
  Rh  Rh21  1  0.392041  0.393896  0.823265  1
  Rh  Rh22  1  0.392041  0.823265  0.393896  1
  Rh  Rh23  1  0.822308  0.393420  0.393420  1
