# generated using pymatgen
data_Nb10Ga5GeC
_symmetry_space_group_name_H-M   'P 1'
_cell_length_a   7.78387952
_cell_length_b   7.77971284
_cell_length_c   5.32483376
_cell_angle_alpha   89.95363084
_cell_angle_beta   90.09268872
_cell_angle_gamma   120.01771425
_symmetry_Int_Tables_number   1
_chemical_formula_structural   Nb10Ga5GeC
_chemical_formula_sum   'Nb10 Ga5 Ge1 C1'
_cell_volume   279.20181683
_cell_formula_units_Z   1
loop_
 _symmetry_equiv_pos_site_id
 _symmetry_equiv_pos_as_xyz
  1  'x, y, z'
loop_
 _atom_site_type_symbol
 _atom_site_label
 _atom_site_symmetry_multiplicity
 _atom_site_fract_x
 _atom_site_fract_y
 _atom_site_fract_z
 _atom_site_occupancy
  Nb  Nb0  1  0.999785  0.764585  0.254152  1
  Nb  Nb1  1  0.235200  0.235415  0.254152  1
  Nb  Nb2  1  0.763259  0.000000  0.256683  1
  Nb  Nb3  1  0.999995  0.234975  0.745809  1
  Nb  Nb4  1  0.765019  0.765025  0.745809  1
  Nb  Nb5  1  0.236124  0.000000  0.743247  1
  Nb  Nb6  1  0.333917  0.667295  0.000325  1
  Nb  Nb7  1  0.666623  0.332705  0.000325  1
  Nb  Nb8  1  0.665692  0.330825  0.499652  1
  Nb  Nb9  1  0.334866  0.669175  0.499652  1
  Ga  Ga10  1  0.000814  0.400689  0.244710  1
  Ga  Ga11  1  0.600125  0.599311  0.244710  1
  Ga  Ga12  1  0.398341  0.000000  0.244425  1
  Ga  Ga13  1  0.999688  0.599634  0.755108  1
  Ga  Ga14  1  0.400054  0.400366  0.755108  1
  Ge  Ge15  1  0.599999  0.000000  0.756661  1
  C  C16  1  0.000500  0.000000  0.499470  1
