# generated using pymatgen
data_Zr16Co4CuOs3
_symmetry_space_group_name_H-M   'P 1'
_cell_length_a   8.70679110
_cell_length_b   8.70679074
_cell_length_c   8.70586900
_cell_angle_alpha   59.99650740
_cell_angle_beta   59.99650877
_cell_angle_gamma   60.00000490
_symmetry_Int_Tables_number   1
_chemical_formula_structural   Zr16Co4CuOs3
_chemical_formula_sum   'Zr16 Co4 Cu1 Os3'
_cell_volume   466.64912269
_cell_formula_units_Z   1
loop_
 _symmetry_equiv_pos_site_id
 _symmetry_equiv_pos_as_xyz
  1  'x, y, z'
loop_
 _atom_site_type_symbol
 _atom_site_label
 _atom_site_symmetry_multiplicity
 _atom_site_fract_x
 _atom_site_fract_y
 _atom_site_fract_z
 _atom_site_occupancy
  Zr  Zr0  1  0.188657  0.603379  0.604586  1
  Zr  Zr1  1  0.603379  0.188657  0.604586  1
  Zr  Zr2  1  0.603379  0.603379  0.604586  1
  Zr  Zr3  1  0.601621  0.601621  0.195137  1
  Zr  Zr4  1  0.448352  0.448352  0.051900  1
  Zr  Zr5  1  0.052538  0.052538  0.450288  1
  Zr  Zr6  1  0.448352  0.051395  0.051900  1
  Zr  Zr7  1  0.052538  0.444637  0.450288  1
  Zr  Zr8  1  0.051395  0.448352  0.051900  1
  Zr  Zr9  1  0.444637  0.052538  0.450288  1
  Zr  Zr10  1  0.814388  0.814388  0.175762  1
  Zr  Zr11  1  0.187144  0.187144  0.812310  1
  Zr  Zr12  1  0.814388  0.195462  0.175762  1
  Zr  Zr13  1  0.187144  0.813400  0.812310  1
  Zr  Zr14  1  0.195462  0.814388  0.175762  1
  Zr  Zr15  1  0.813400  0.187144  0.812310  1
  Co  Co16  1  0.825756  0.390252  0.393740  1
  Co  Co17  1  0.390252  0.825756  0.393740  1
  Co  Co18  1  0.390252  0.390252  0.393740  1
  Co  Co19  1  0.392324  0.392324  0.823028  1
  Cu  Cu20  1  0.828057  0.828057  0.515828  1
  Os  Os21  1  0.503741  0.831422  0.833417  1
  Os  Os22  1  0.831422  0.503741  0.833417  1
  Os  Os23  1  0.831422  0.831422  0.833417  1
