# generated using pymatgen
data_Ho7Lu3(ZnIn3)2
_symmetry_space_group_name_H-M   'P 1'
_cell_length_a   9.09092300
_cell_length_b   9.09092252
_cell_length_c   6.62228200
_cell_angle_alpha   90.00000000
_cell_angle_beta   90.00000000
_cell_angle_gamma   119.99999810
_symmetry_Int_Tables_number   1
_chemical_formula_structural   Ho7Lu3(ZnIn3)2
_chemical_formula_sum   'Ho7 Lu3 Zn2 In6'
_cell_volume   473.97370261
_cell_formula_units_Z   1
loop_
 _symmetry_equiv_pos_site_id
 _symmetry_equiv_pos_as_xyz
  1  'x, y, z'
loop_
 _atom_site_type_symbol
 _atom_site_label
 _atom_site_symmetry_multiplicity
 _atom_site_fract_x
 _atom_site_fract_y
 _atom_site_fract_z
 _atom_site_occupancy
  Ho  Ho0  1  0.333333  0.666667  0.500000  1
  Ho  Ho1  1  0.277484  0.000352  0.750434  1
  Ho  Ho2  1  0.722868  0.000352  0.249566  1
  Ho  Ho3  1  0.999648  0.277132  0.750434  1
  Ho  Ho4  1  0.999648  0.722516  0.249566  1
  Ho  Ho5  1  0.722868  0.722516  0.750434  1
  Ho  Ho6  1  0.277484  0.277132  0.249566  1
  Lu  Lu7  1  0.666667  0.333333  0.500000  1
  Lu  Lu8  1  0.666667  0.333333  0.000000  1
  Lu  Lu9  1  0.333333  0.666667  0.000000  1
  Zn  Zn10  1  0.000000  0.000000  0.500000  1
  Zn  Zn11  1  0.000000  0.000000  0.000000  1
  In  In12  1  0.623248  0.000682  0.750478  1
  In  In13  1  0.377435  0.000682  0.249522  1
  In  In14  1  0.999318  0.622565  0.750478  1
  In  In15  1  0.999318  0.376752  0.249522  1
  In  In16  1  0.377435  0.376752  0.750478  1
  In  In17  1  0.623248  0.622565  0.249522  1
