# generated using pymatgen
data_Pr6PtI10
_symmetry_space_group_name_H-M   'P 1'
_cell_length_a   8.03397308
_cell_length_b   10.10223081
_cell_length_c   10.11285837
_cell_angle_alpha   107.48961679
_cell_angle_beta   97.11709518
_cell_angle_gamma   105.14119293
_symmetry_Int_Tables_number   1
_chemical_formula_structural   Pr6PtI10
_chemical_formula_sum   'Pr6 Pt1 I10'
_cell_volume   737.16544452
_cell_formula_units_Z   1
loop_
 _symmetry_equiv_pos_site_id
 _symmetry_equiv_pos_as_xyz
  1  'x, y, z'
loop_
 _atom_site_type_symbol
 _atom_site_label
 _atom_site_symmetry_multiplicity
 _atom_site_fract_x
 _atom_site_fract_y
 _atom_site_fract_z
 _atom_site_occupancy
  Pr  Pr0  1  0.882275  0.958824  0.245523  1
  Pr  Pr1  1  0.117725  0.041176  0.754477  1
  Pr  Pr2  1  0.355115  0.128595  0.169839  1
  Pr  Pr3  1  0.644885  0.871405  0.830161  1
  Pr  Pr4  1  0.970024  0.291807  0.088569  1
  Pr  Pr5  1  0.029976  0.708193  0.911431  1
  Pt  Pt6  1  0.000000  0.000000  0.000000  1
  I  I7  1  0.357578  0.455666  0.273373  1
  I  I8  1  0.642422  0.544334  0.726627  1
  I  I9  1  0.913864  0.629900  0.180700  1
  I  I10  1  0.086136  0.370100  0.819300  1
  I  I11  1  0.453095  0.816728  0.091615  1
  I  I12  1  0.546905  0.183272  0.908385  1
  I  I13  1  0.262100  0.088209  0.462029  1
  I  I14  1  0.737900  0.911791  0.537971  1
  I  I15  1  0.784272  0.260791  0.349681  1
  I  I16  1  0.215728  0.739209  0.650319  1
