# generated using pymatgen
data_Nd3Y5Cd2IrPt
_symmetry_space_group_name_H-M   'P 1'
_cell_length_a   9.78291081
_cell_length_b   9.78196965
_cell_length_c   9.75469383
_cell_angle_alpha   60.19034934
_cell_angle_beta   60.15376505
_cell_angle_gamma   60.43663710
_symmetry_Int_Tables_number   1
_chemical_formula_structural   Nd3Y5Cd2IrPt
_chemical_formula_sum   'Nd6 Y10 Cd4 Ir2 Pt2'
_cell_volume   663.95347746
_cell_formula_units_Z   2
loop_
 _symmetry_equiv_pos_site_id
 _symmetry_equiv_pos_as_xyz
  1  'x, y, z'
loop_
 _atom_site_type_symbol
 _atom_site_label
 _atom_site_symmetry_multiplicity
 _atom_site_fract_x
 _atom_site_fract_y
 _atom_site_fract_z
 _atom_site_occupancy
  Nd  Nd0  1  0.940548  0.562560  0.559564  1
  Nd  Nd1  1  0.560350  0.941017  0.939556  1
  Nd  Nd2  1  0.562804  0.940568  0.559519  1
  Nd  Nd3  1  0.940978  0.560093  0.939757  1
  Nd  Nd4  1  0.560797  0.560552  0.939889  1
  Nd  Nd5  1  0.940055  0.940290  0.558979  1
  Y  Y6  1  0.349137  0.348898  0.346405  1
  Y  Y7  1  0.350176  0.350404  0.953732  1
  Y  Y8  1  0.354937  0.947143  0.350009  1
  Y  Y9  1  0.947470  0.354846  0.349693  1
  Y  Y10  1  0.808120  0.189760  0.187258  1
  Y  Y11  1  0.186590  0.808368  0.814584  1
  Y  Y12  1  0.189660  0.808092  0.187569  1
  Y  Y13  1  0.808255  0.186849  0.814604  1
  Y  Y14  1  0.188715  0.189137  0.811428  1
  Y  Y15  1  0.812709  0.812841  0.183999  1
  Cd  Cd16  1  0.579867  0.579844  0.579798  1
  Cd  Cd17  1  0.579869  0.579856  0.259755  1
  Cd  Cd18  1  0.579421  0.260901  0.579740  1
  Cd  Cd19  1  0.260884  0.579403  0.579732  1
  Ir  Ir20  1  0.140892  0.574342  0.143250  1
  Ir  Ir21  1  0.574197  0.140843  0.143227  1
  Pt  Pt22  1  0.142111  0.141988  0.144695  1
  Pt  Pt23  1  0.141458  0.141404  0.573258  1
