# generated using pymatgen
data_EuLu(BrO3)6
_symmetry_space_group_name_H-M   'P 1'
_cell_length_a   9.91100500
_cell_length_b   9.91100364
_cell_length_c   5.79495800
_cell_angle_alpha   90.00000000
_cell_angle_beta   90.00000000
_cell_angle_gamma   119.99998763
_symmetry_Int_Tables_number   1
_chemical_formula_structural   EuLu(BrO3)6
_chemical_formula_sum   'Eu1 Lu1 Br6 O18'
_cell_volume   492.96525372
_cell_formula_units_Z   1
loop_
 _symmetry_equiv_pos_site_id
 _symmetry_equiv_pos_as_xyz
  1  'x, y, z'
loop_
 _atom_site_type_symbol
 _atom_site_label
 _atom_site_symmetry_multiplicity
 _atom_site_fract_x
 _atom_site_fract_y
 _atom_site_fract_z
 _atom_site_occupancy
  Eu  Eu0  1  0.666667  0.333333  0.698889  1
  Lu  Lu1  1  0.333333  0.666667  0.199229  1
  Br  Br2  1  0.678509  0.012503  0.361717  1
  Br  Br3  1  0.310768  0.971653  0.869718  1
  Br  Br4  1  0.028347  0.339114  0.869718  1
  Br  Br5  1  0.333994  0.321491  0.361717  1
  Br  Br6  1  0.987497  0.666006  0.361717  1
  Br  Br7  1  0.660886  0.689232  0.869718  1
  O  O8  1  0.771318  0.830329  0.047248  1
  O  O9  1  0.956021  0.773759  0.543229  1
  O  O10  1  0.817739  0.043979  0.543229  1
  O  O11  1  0.169671  0.940989  0.047248  1
  O  O12  1  0.059011  0.228682  0.047248  1
  O  O13  1  0.226241  0.182261  0.543229  1
  O  O14  1  0.705701  0.545921  0.923472  1
  O  O15  1  0.175574  0.708856  0.416911  1
  O  O16  1  0.521802  0.405283  0.462009  1
  O  O17  1  0.129926  0.526264  0.975459  1
  O  O18  1  0.396338  0.870074  0.975459  1
  O  O19  1  0.594717  0.116519  0.462009  1
  O  O20  1  0.883481  0.478198  0.462009  1
  O  O21  1  0.473736  0.603662  0.975459  1
  O  O22  1  0.291144  0.466718  0.416911  1
  O  O23  1  0.840221  0.294299  0.923472  1
  O  O24  1  0.454079  0.159779  0.923472  1
  O  O25  1  0.533282  0.824426  0.416911  1
