# generated using pymatgen
data_Tb3TlSiAg3Ge
_symmetry_space_group_name_H-M   'P 1'
_cell_length_a   7.38948700
_cell_length_b   7.38948735
_cell_length_c   4.21579400
_cell_angle_alpha   90.00000000
_cell_angle_beta   90.00000000
_cell_angle_gamma   120.00001187
_symmetry_Int_Tables_number   1
_chemical_formula_structural   Tb3TlSiAg3Ge
_chemical_formula_sum   'Tb3 Tl1 Si1 Ag3 Ge1'
_cell_volume   199.36024586
_cell_formula_units_Z   1
loop_
 _symmetry_equiv_pos_site_id
 _symmetry_equiv_pos_as_xyz
  1  'x, y, z'
loop_
 _atom_site_type_symbol
 _atom_site_label
 _atom_site_symmetry_multiplicity
 _atom_site_fract_x
 _atom_site_fract_y
 _atom_site_fract_z
 _atom_site_occupancy
  Tb  Tb0  1  0.426589  0.425451  0.000000  1
  Tb  Tb1  1  0.574549  0.001138  0.000000  1
  Tb  Tb2  1  0.998862  0.573411  0.000000  1
  Tl  Tl3  1  0.000000  0.000000  0.000000  1
  Si  Si4  1  0.666667  0.333333  0.500000  1
  Ag  Ag5  1  0.733275  0.724049  0.500000  1
  Ag  Ag6  1  0.275951  0.009226  0.500000  1
  Ag  Ag7  1  0.990774  0.266725  0.500000  1
  Ge  Ge8  1  0.333333  0.666667  0.500000  1
