# generated using pymatgen
data_Dy4ScIrPd2
_symmetry_space_group_name_H-M   'P 1'
_cell_length_a   10.92351400
_cell_length_b   10.92351400
_cell_length_c   6.24678400
_cell_angle_alpha   90.00000000
_cell_angle_beta   90.00000000
_cell_angle_gamma   90.00000000
_symmetry_Int_Tables_number   1
_chemical_formula_structural   Dy4ScIrPd2
_chemical_formula_sum   'Dy16 Sc4 Ir4 Pd8'
_cell_volume   745.38599490
_cell_formula_units_Z   4
loop_
 _symmetry_equiv_pos_site_id
 _symmetry_equiv_pos_as_xyz
  1  'x, y, z'
loop_
 _atom_site_type_symbol
 _atom_site_label
 _atom_site_symmetry_multiplicity
 _atom_site_fract_x
 _atom_site_fract_y
 _atom_site_fract_z
 _atom_site_occupancy
  Dy  Dy0  1  0.291687  0.085386  0.374843  1
  Dy  Dy1  1  0.291687  0.914614  0.874843  1
  Dy  Dy2  1  0.708313  0.085386  0.874843  1
  Dy  Dy3  1  0.708313  0.914614  0.374843  1
  Dy  Dy4  1  0.585386  0.791687  0.874843  1
  Dy  Dy5  1  0.585386  0.208313  0.374843  1
  Dy  Dy6  1  0.414614  0.791687  0.374843  1
  Dy  Dy7  1  0.414614  0.208313  0.874843  1
  Dy  Dy8  1  0.208313  0.414614  0.625157  1
  Dy  Dy9  1  0.208313  0.585386  0.125157  1
  Dy  Dy10  1  0.791687  0.414614  0.125157  1
  Dy  Dy11  1  0.791687  0.585386  0.625157  1
  Dy  Dy12  1  0.914614  0.708313  0.125157  1
  Dy  Dy13  1  0.914614  0.291687  0.625157  1
  Dy  Dy14  1  0.085386  0.708313  0.625157  1
  Dy  Dy15  1  0.085386  0.291687  0.125157  1
  Sc  Sc16  1  0.000000  0.000000  0.500000  1
  Sc  Sc17  1  0.000000  0.000000  0.000000  1
  Sc  Sc18  1  0.500000  0.500000  0.000000  1
  Sc  Sc19  1  0.500000  0.500000  0.500000  1
  Ir  Ir20  1  0.500000  0.000000  0.121759  1
  Ir  Ir21  1  0.500000  0.000000  0.621759  1
  Ir  Ir22  1  0.000000  0.500000  0.878241  1
  Ir  Ir23  1  0.000000  0.500000  0.378241  1
  Pd  Pd24  1  0.852282  0.147718  0.250000  1
  Pd  Pd25  1  0.852282  0.852282  0.750000  1
  Pd  Pd26  1  0.147718  0.147718  0.750000  1
  Pd  Pd27  1  0.147718  0.852282  0.250000  1
  Pd  Pd28  1  0.647718  0.352282  0.750000  1
  Pd  Pd29  1  0.647718  0.647718  0.250000  1
  Pd  Pd30  1  0.352282  0.352282  0.250000  1
  Pd  Pd31  1  0.352282  0.647718  0.750000  1
