# generated using pymatgen
data_Al10Ga(ReRh)2
_symmetry_space_group_name_H-M   'P 1'
_cell_length_a   5.20228625
_cell_length_b   5.17026659
_cell_length_c   8.98130522
_cell_angle_alpha   105.47513811
_cell_angle_beta   87.99970376
_cell_angle_gamma   100.54464875
_symmetry_Int_Tables_number   1
_chemical_formula_structural   Al10Ga(ReRh)2
_chemical_formula_sum   'Al10 Ga1 Re2 Rh2'
_cell_volume   228.85780670
_cell_formula_units_Z   1
loop_
 _symmetry_equiv_pos_site_id
 _symmetry_equiv_pos_as_xyz
  1  'x, y, z'
loop_
 _atom_site_type_symbol
 _atom_site_label
 _atom_site_symmetry_multiplicity
 _atom_site_fract_x
 _atom_site_fract_y
 _atom_site_fract_z
 _atom_site_occupancy
  Al  Al0  1  0.831832  0.272126  0.622633  1
  Al  Al1  1  0.168168  0.727874  0.377367  1
  Al  Al2  1  0.153719  0.460922  0.871773  1
  Al  Al3  1  0.846281  0.539078  0.128227  1
  Al  Al4  1  0.523057  0.100588  0.873611  1
  Al  Al5  1  0.476943  0.899412  0.126389  1
  Al  Al6  1  0.575893  0.329642  0.373842  1
  Al  Al7  1  0.424107  0.670358  0.626158  1
  Al  Al8  1  0.941099  0.813508  0.660603  1
  Al  Al9  1  0.058901  0.186492  0.339397  1
  Ga  Ga10  1  0.000000  0.000000  0.000000  1
  Re  Re11  1  0.669885  0.612856  0.865769  1
  Re  Re12  1  0.330115  0.387144  0.134231  1
  Rh  Rh13  1  0.320542  0.154939  0.609624  1
  Rh  Rh14  1  0.679458  0.845061  0.390376  1
