# generated using pymatgen
data_LaTbPr3Ir2
_symmetry_space_group_name_H-M   'P 1'
_cell_length_a   6.71808781
_cell_length_b   7.28680317
_cell_length_c   9.06693340
_cell_angle_alpha   96.04676036
_cell_angle_beta   111.74473045
_cell_angle_gamma   89.99999819
_symmetry_Int_Tables_number   1
_chemical_formula_structural   LaTbPr3Ir2
_chemical_formula_sum   'La2 Tb2 Pr6 Ir4'
_cell_volume   409.61393707
_cell_formula_units_Z   2
loop_
 _symmetry_equiv_pos_site_id
 _symmetry_equiv_pos_as_xyz
  1  'x, y, z'
loop_
 _atom_site_type_symbol
 _atom_site_label
 _atom_site_symmetry_multiplicity
 _atom_site_fract_x
 _atom_site_fract_y
 _atom_site_fract_z
 _atom_site_occupancy
  La  La0  1  0.979811  0.918697  0.183423  1
  La  La1  1  0.796386  0.581303  0.816577  1
  Tb  Tb2  1  0.436263  0.750000  0.000000  1
  Tb  Tb3  1  0.562389  0.250000  0.000000  1
  Pr  Pr4  1  0.024283  0.077694  0.817716  1
  Pr  Pr5  1  0.206568  0.422306  0.182284  1
  Pr  Pr6  1  0.644885  0.813615  0.430658  1
  Pr  Pr7  1  0.214227  0.686385  0.569342  1
  Pr  Pr8  1  0.352856  0.186126  0.570541  1
  Pr  Pr9  1  0.782315  0.313874  0.429459  1
  Ir  Ir10  1  0.812403  0.574711  0.211548  1
  Ir  Ir11  1  0.600854  0.925289  0.788452  1
  Ir  Ir12  1  0.187607  0.429768  0.788455  1
  Ir  Ir13  1  0.399153  0.070232  0.211545  1
