# generated using pymatgen
data_Tb3Y5Re3B24Ir
_symmetry_space_group_name_H-M   'P 1'
_cell_length_a   3.68524600
_cell_length_b   9.19444997
_cell_length_c   11.58475403
_cell_angle_alpha   89.86054749
_cell_angle_beta   90.00000000
_cell_angle_gamma   90.00000000
_symmetry_Int_Tables_number   1
_chemical_formula_structural   Tb3Y5Re3B24Ir
_chemical_formula_sum   'Tb3 Y5 Re3 B24 Ir1'
_cell_volume   392.53444152
_cell_formula_units_Z   1
loop_
 _symmetry_equiv_pos_site_id
 _symmetry_equiv_pos_as_xyz
  1  'x, y, z'
loop_
 _atom_site_type_symbol
 _atom_site_label
 _atom_site_symmetry_multiplicity
 _atom_site_fract_x
 _atom_site_fract_y
 _atom_site_fract_z
 _atom_site_occupancy
  Tb  Tb0  1  0.000000  0.818514  0.084568  1
  Tb  Tb1  1  0.000000  0.178406  0.908833  1
  Tb  Tb2  1  0.000000  0.327098  0.418536  1
  Y  Y3  1  0.000000  0.677280  0.587436  1
  Y  Y4  1  0.000000  0.443986  0.129546  1
  Y  Y5  1  0.000000  0.556136  0.871184  1
  Y  Y6  1  0.000000  0.940591  0.371851  1
  Y  Y7  1  0.000000  0.056955  0.628296  1
  Re  Re8  1  0.000000  0.862816  0.822438  1
  Re  Re9  1  0.000000  0.638467  0.320041  1
  Re  Re10  1  0.000000  0.361693  0.679155  1
  B  B11  1  0.500000  0.053828  0.066565  1
  B  B12  1  0.500000  0.946750  0.932844  1
  B  B13  1  0.500000  0.553206  0.433132  1
  B  B14  1  0.500000  0.447233  0.567625  1
  B  B15  1  0.500000  0.248507  0.080154  1
  B  B16  1  0.500000  0.751370  0.918578  1
  B  B17  1  0.500000  0.748187  0.418449  1
  B  B18  1  0.500000  0.252508  0.581504  1
  B  B19  1  0.500000  0.290316  0.234533  1
  B  B20  1  0.500000  0.709125  0.766075  1
  B  B21  1  0.500000  0.790856  0.265198  1
  B  B22  1  0.500000  0.208909  0.733841  1
  B  B23  1  0.500000  0.131596  0.315270  1
  B  B24  1  0.500000  0.869414  0.686274  1
  B  B25  1  0.500000  0.630883  0.185556  1
  B  B26  1  0.500000  0.368538  0.813994  1
  B  B27  1  0.500000  0.483125  0.288052  1
  B  B28  1  0.500000  0.517400  0.712953  1
  B  B29  1  0.500000  0.982995  0.212093  1
  B  B30  1  0.500000  0.017933  0.787565  1
  B  B31  1  0.500000  0.104533  0.470307  1
  B  B32  1  0.500000  0.896218  0.528427  1
  B  B33  1  0.500000  0.602929  0.029203  1
  B  B34  1  0.500000  0.394312  0.971412  1
  Ir  Ir35  1  0.000000  0.137389  0.178511  1
