# generated using pymatgen
data_Er3Tm2Pa3(ReB6)4
_symmetry_space_group_name_H-M   'P 1'
_cell_length_a   3.69195800
_cell_length_b   9.13643893
_cell_length_c   11.49071216
_cell_angle_alpha   90.14867752
_cell_angle_beta   90.00000000
_cell_angle_gamma   90.00000000
_symmetry_Int_Tables_number   1
_chemical_formula_structural   Er3Tm2Pa3(ReB6)4
_chemical_formula_sum   'Er3 Tm2 Pa3 Re4 B24'
_cell_volume   387.59591496
_cell_formula_units_Z   1
loop_
 _symmetry_equiv_pos_site_id
 _symmetry_equiv_pos_as_xyz
  1  'x, y, z'
loop_
 _atom_site_type_symbol
 _atom_site_label
 _atom_site_symmetry_multiplicity
 _atom_site_fract_x
 _atom_site_fract_y
 _atom_site_fract_z
 _atom_site_occupancy
  Er  Er0  1  0.000000  0.179705  0.913152  1
  Er  Er1  1  0.000000  0.945473  0.374451  1
  Er  Er2  1  0.000000  0.055500  0.627537  1
  Tm  Tm3  1  0.000000  0.443488  0.124742  1
  Tm  Tm4  1  0.000000  0.553590  0.874125  1
  Pa  Pa5  1  0.000000  0.321420  0.413225  1
  Pa  Pa6  1  0.000000  0.678030  0.587338  1
  Pa  Pa7  1  0.000000  0.823046  0.085931  1
  Re  Re8  1  0.000000  0.638176  0.321367  1
  Re  Re9  1  0.000000  0.363985  0.675904  1
  Re  Re10  1  0.000000  0.138376  0.180641  1
  Re  Re11  1  0.000000  0.859307  0.821517  1
  B  B12  1  0.500000  0.553669  0.432460  1
  B  B13  1  0.500000  0.446851  0.566603  1
  B  B14  1  0.500000  0.053331  0.067543  1
  B  B15  1  0.500000  0.945833  0.933198  1
  B  B16  1  0.500000  0.749093  0.420201  1
  B  B17  1  0.500000  0.251354  0.580584  1
  B  B18  1  0.500000  0.248675  0.079196  1
  B  B19  1  0.500000  0.751215  0.920332  1
  B  B20  1  0.500000  0.792650  0.265364  1
  B  B21  1  0.500000  0.207787  0.734590  1
  B  B22  1  0.500000  0.292934  0.233221  1
  B  B23  1  0.500000  0.706788  0.766063  1
  B  B24  1  0.500000  0.632015  0.184199  1
  B  B25  1  0.500000  0.367934  0.815098  1
  B  B26  1  0.500000  0.132697  0.315151  1
  B  B27  1  0.500000  0.867754  0.686043  1
  B  B28  1  0.500000  0.982720  0.212985  1
  B  B29  1  0.500000  0.018058  0.787173  1
  B  B30  1  0.500000  0.482567  0.285430  1
  B  B31  1  0.500000  0.516923  0.714293  1
  B  B32  1  0.500000  0.607475  0.029792  1
  B  B33  1  0.500000  0.391392  0.969660  1
  B  B34  1  0.500000  0.109246  0.470302  1
  B  B35  1  0.500000  0.890942  0.530591  1
