# generated using pymatgen
data_Na3SiPPt2
_symmetry_space_group_name_H-M   'P 1'
_cell_length_a   5.79969100
_cell_length_b   7.52761400
_cell_length_c   12.89024300
_cell_angle_alpha   90.00000000
_cell_angle_beta   90.00000000
_cell_angle_gamma   90.00000000
_symmetry_Int_Tables_number   1
_chemical_formula_structural   Na3SiPPt2
_chemical_formula_sum   'Na12 Si4 P4 Pt8'
_cell_volume   562.76010416
_cell_formula_units_Z   4
loop_
 _symmetry_equiv_pos_site_id
 _symmetry_equiv_pos_as_xyz
  1  'x, y, z'
loop_
 _atom_site_type_symbol
 _atom_site_label
 _atom_site_symmetry_multiplicity
 _atom_site_fract_x
 _atom_site_fract_y
 _atom_site_fract_z
 _atom_site_occupancy
  Na  Na0  1  0.660644  0.211224  0.250000  1
  Na  Na1  1  0.339356  0.788776  0.750000  1
  Na  Na2  1  0.339356  0.711224  0.250000  1
  Na  Na3  1  0.660644  0.288776  0.750000  1
  Na  Na4  1  0.120434  0.384013  0.106968  1
  Na  Na5  1  0.879566  0.615987  0.893032  1
  Na  Na6  1  0.879566  0.615987  0.606968  1
  Na  Na7  1  0.879566  0.884013  0.393032  1
  Na  Na8  1  0.120434  0.384013  0.393032  1
  Na  Na9  1  0.120434  0.115987  0.606968  1
  Na  Na10  1  0.120434  0.115987  0.893032  1
  Na  Na11  1  0.879566  0.884013  0.106968  1
  Si  Si12  1  0.566690  0.250000  0.000000  1
  Si  Si13  1  0.433310  0.750000  0.000000  1
  Si  Si14  1  0.433310  0.750000  0.500000  1
  Si  Si15  1  0.566690  0.250000  0.500000  1
  P  P16  1  0.175097  0.067370  0.250000  1
  P  P17  1  0.824903  0.932630  0.750000  1
  P  P18  1  0.824903  0.567370  0.250000  1
  P  P19  1  0.175097  0.432630  0.750000  1
  Pt  Pt20  1  0.371379  0.020658  0.094595  1
  Pt  Pt21  1  0.628621  0.979342  0.905405  1
  Pt  Pt22  1  0.628621  0.979342  0.594595  1
  Pt  Pt23  1  0.628621  0.520658  0.405405  1
  Pt  Pt24  1  0.371379  0.020658  0.405405  1
  Pt  Pt25  1  0.371379  0.479342  0.594595  1
  Pt  Pt26  1  0.371379  0.479342  0.905405  1
  Pt  Pt27  1  0.628621  0.520658  0.094595  1
