# generated using pymatgen
data_AcHoFe3Re14C3
_symmetry_space_group_name_H-M   'P 1'
_cell_length_a   6.95895293
_cell_length_b   6.95895359
_cell_length_c   6.95895296
_cell_angle_alpha   82.79293428
_cell_angle_beta   82.79293000
_cell_angle_gamma   82.79292759
_symmetry_Int_Tables_number   1
_chemical_formula_structural   AcHoFe3Re14C3
_chemical_formula_sum   'Ac1 Ho1 Fe3 Re14 C3'
_cell_volume   329.63008094
_cell_formula_units_Z   1
loop_
 _symmetry_equiv_pos_site_id
 _symmetry_equiv_pos_as_xyz
  1  'x, y, z'
loop_
 _atom_site_type_symbol
 _atom_site_label
 _atom_site_symmetry_multiplicity
 _atom_site_fract_x
 _atom_site_fract_y
 _atom_site_fract_z
 _atom_site_occupancy
  Ac  Ac0  1  0.352847  0.352847  0.352847  1
  Ho  Ho1  1  0.650912  0.650912  0.650912  1
  Fe  Fe2  1  0.003564  0.003564  0.496878  1
  Fe  Fe3  1  0.496878  0.003564  0.003564  1
  Fe  Fe4  1  0.003564  0.496878  0.003564  1
  Re  Re5  1  0.723306  0.278108  0.998327  1
  Re  Re6  1  0.998327  0.723306  0.278108  1
  Re  Re7  1  0.278108  0.998327  0.723306  1
  Re  Re8  1  0.998327  0.278108  0.723306  1
  Re  Re9  1  0.723306  0.998327  0.278108  1
  Re  Re10  1  0.278108  0.723306  0.998327  1
  Re  Re11  1  0.346399  0.346399  0.859575  1
  Re  Re12  1  0.859575  0.346399  0.346399  1
  Re  Re13  1  0.346399  0.859575  0.346399  1
  Re  Re14  1  0.656898  0.656898  0.130724  1
  Re  Re15  1  0.130724  0.656898  0.656898  1
  Re  Re16  1  0.656898  0.130724  0.656898  1
  Re  Re17  1  0.898427  0.898427  0.898427  1
  Re  Re18  1  0.099984  0.099984  0.099984  1
  C  C19  1  0.507705  0.507705  0.982038  1
  C  C20  1  0.982038  0.507705  0.507705  1
  C  C21  1  0.507705  0.982038  0.507705  1
