# generated using pymatgen
data_YbAl6Cu7
_symmetry_space_group_name_H-M   'P 1'
_cell_length_a   8.38082819
_cell_length_b   8.38082746
_cell_length_c   8.38082747
_cell_angle_alpha   122.54663635
_cell_angle_beta   118.31322453
_cell_angle_gamma   89.29653975
_symmetry_Int_Tables_number   1
_chemical_formula_structural   YbAl6Cu7
_chemical_formula_sum   'Yb2 Al12 Cu14'
_cell_volume   412.78664994
_cell_formula_units_Z   2
loop_
 _symmetry_equiv_pos_site_id
 _symmetry_equiv_pos_as_xyz
  1  'x, y, z'
loop_
 _atom_site_type_symbol
 _atom_site_label
 _atom_site_symmetry_multiplicity
 _atom_site_fract_x
 _atom_site_fract_y
 _atom_site_fract_z
 _atom_site_occupancy
  Yb  Yb0  1  0.250000  0.750000  0.500000  1
  Yb  Yb1  1  0.750000  0.250000  0.500000  1
  Al  Al2  1  0.555255  0.545228  0.358218  1
  Al  Al3  1  0.444745  0.454772  0.641782  1
  Al  Al4  1  0.187010  0.197037  0.641782  1
  Al  Al5  1  0.312990  0.954772  0.010025  1
  Al  Al6  1  0.812990  0.802963  0.358218  1
  Al  Al7  1  0.687010  0.045228  0.989975  1
  Al  Al8  1  0.944745  0.302963  0.989975  1
  Al  Al9  1  0.055255  0.697037  0.010025  1
  Al  Al10  1  0.052515  0.312262  0.364777  1
  Al  Al11  1  0.947485  0.687738  0.635223  1
  Al  Al12  1  0.552515  0.187738  0.740252  1
  Al  Al13  1  0.447485  0.812262  0.259748  1
  Cu  Cu14  1  0.282693  0.300607  0.231802  1
  Cu  Cu15  1  0.717307  0.699393  0.768198  1
  Cu  Cu16  1  0.068805  0.050891  0.768198  1
  Cu  Cu17  1  0.431195  0.199393  0.982086  1
  Cu  Cu18  1  0.931195  0.949109  0.231802  1
  Cu  Cu19  1  0.568805  0.800607  0.017914  1
  Cu  Cu20  1  0.217307  0.449109  0.017914  1
  Cu  Cu21  1  0.782693  0.550891  0.982086  1
  Cu  Cu22  1  0.000000  0.000000  0.000000  1
  Cu  Cu23  1  0.500000  0.500000  0.000000  1
  Cu  Cu24  1  0.284724  0.067428  0.352153  1
  Cu  Cu25  1  0.715276  0.932572  0.647847  1
  Cu  Cu26  1  0.784724  0.432572  0.217297  1
  Cu  Cu27  1  0.215276  0.567428  0.782703  1
