# generated using pymatgen
data_La3Nd5(SiI6)2
_symmetry_space_group_name_H-M   'P 1'
_cell_length_a   4.38913300
_cell_length_b   14.54778706
_cell_length_c   15.36977437
_cell_angle_alpha   90.10445884
_cell_angle_beta   90.00000000
_cell_angle_gamma   90.00000000
_symmetry_Int_Tables_number   1
_chemical_formula_structural   La3Nd5(SiI6)2
_chemical_formula_sum   'La3 Nd5 Si2 I12'
_cell_volume   981.39184965
_cell_formula_units_Z   1
loop_
 _symmetry_equiv_pos_site_id
 _symmetry_equiv_pos_as_xyz
  1  'x, y, z'
loop_
 _atom_site_type_symbol
 _atom_site_label
 _atom_site_symmetry_multiplicity
 _atom_site_fract_x
 _atom_site_fract_y
 _atom_site_fract_z
 _atom_site_occupancy
  La  La0  1  0.500000  0.116447  0.344251  1
  La  La1  1  0.500000  0.883574  0.655812  1
  La  La2  1  0.500000  0.616228  0.155491  1
  Nd  Nd3  1  0.500000  0.385002  0.846129  1
  Nd  Nd4  1  0.000000  0.112914  0.575573  1
  Nd  Nd5  1  0.000000  0.887775  0.424925  1
  Nd  Nd6  1  0.000000  0.611497  0.924093  1
  Nd  Nd7  1  0.000000  0.387135  0.074042  1
  Si  Si8  1  0.500000  0.000136  0.500105  1
  Si  Si9  1  0.500000  0.499684  0.999578  1
  I  I10  1  0.500000  0.245564  0.160850  1
  I  I11  1  0.500000  0.754382  0.839098  1
  I  I12  1  0.500000  0.745390  0.338901  1
  I  I13  1  0.500000  0.254997  0.661911  1
  I  I14  1  0.000000  0.259991  0.416403  1
  I  I15  1  0.000000  0.739931  0.583582  1
  I  I16  1  0.000000  0.759791  0.083646  1
  I  I17  1  0.000000  0.242779  0.914101  1
  I  I18  1  0.000000  0.995996  0.239992  1
  I  I19  1  0.000000  0.003930  0.760086  1
  I  I20  1  0.000000  0.496140  0.259760  1
  I  I21  1  0.000000  0.500718  0.741670  1
