# generated using pymatgen
data_Ca3AlGePt2
_symmetry_space_group_name_H-M   'P 1'
_cell_length_a   5.77134100
_cell_length_b   8.06089600
_cell_length_c   13.62802000
_cell_angle_alpha   90.00000000
_cell_angle_beta   90.00000000
_cell_angle_gamma   90.00000000
_symmetry_Int_Tables_number   1
_chemical_formula_structural   Ca3AlGePt2
_chemical_formula_sum   'Ca12 Al4 Ge4 Pt8'
_cell_volume   634.00519378
_cell_formula_units_Z   4
loop_
 _symmetry_equiv_pos_site_id
 _symmetry_equiv_pos_as_xyz
  1  'x, y, z'
loop_
 _atom_site_type_symbol
 _atom_site_label
 _atom_site_symmetry_multiplicity
 _atom_site_fract_x
 _atom_site_fract_y
 _atom_site_fract_z
 _atom_site_occupancy
  Ca  Ca0  1  0.136798  0.609467  0.103582  1
  Ca  Ca1  1  0.136798  0.890533  0.896418  1
  Ca  Ca2  1  0.863202  0.109467  0.396418  1
  Ca  Ca3  1  0.863202  0.390533  0.603582  1
  Ca  Ca4  1  0.863202  0.390533  0.896418  1
  Ca  Ca5  1  0.863202  0.109467  0.103582  1
  Ca  Ca6  1  0.136798  0.890533  0.603582  1
  Ca  Ca7  1  0.136798  0.609467  0.396418  1
  Ca  Ca8  1  0.356251  0.256348  0.250000  1
  Ca  Ca9  1  0.356251  0.243652  0.750000  1
  Ca  Ca10  1  0.643749  0.756348  0.250000  1
  Ca  Ca11  1  0.643749  0.743652  0.750000  1
  Al  Al12  1  0.382399  0.250000  0.000000  1
  Al  Al13  1  0.617601  0.750000  0.500000  1
  Al  Al14  1  0.617601  0.750000  0.000000  1
  Al  Al15  1  0.382399  0.250000  0.500000  1
  Ge  Ge16  1  0.847069  0.403111  0.250000  1
  Ge  Ge17  1  0.847069  0.096889  0.750000  1
  Ge  Ge18  1  0.152931  0.903111  0.250000  1
  Ge  Ge19  1  0.152931  0.596889  0.750000  1
  Pt  Pt20  1  0.624763  0.470710  0.090795  1
  Pt  Pt21  1  0.624763  0.029290  0.909205  1
  Pt  Pt22  1  0.375237  0.970710  0.409205  1
  Pt  Pt23  1  0.375237  0.529290  0.590795  1
  Pt  Pt24  1  0.375237  0.529290  0.909205  1
  Pt  Pt25  1  0.375237  0.970710  0.090795  1
  Pt  Pt26  1  0.624763  0.029290  0.590795  1
  Pt  Pt27  1  0.624763  0.470710  0.409205  1
