# generated using pymatgen
data_TbEr2Zr(Al8Pt3)3
_symmetry_space_group_name_H-M   'P 1'
_cell_length_a   7.52222619
_cell_length_b   7.52865131
_cell_length_c   13.10084002
_cell_angle_alpha   84.54603049
_cell_angle_beta   79.01974579
_cell_angle_gamma   59.90367003
_symmetry_Int_Tables_number   1
_chemical_formula_structural   TbEr2Zr(Al8Pt3)3
_chemical_formula_sum   'Tb1 Er2 Zr1 Al24 Pt9'
_cell_volume   630.15377397
_cell_formula_units_Z   1
loop_
 _symmetry_equiv_pos_site_id
 _symmetry_equiv_pos_as_xyz
  1  'x, y, z'
loop_
 _atom_site_type_symbol
 _atom_site_label
 _atom_site_symmetry_multiplicity
 _atom_site_fract_x
 _atom_site_fract_y
 _atom_site_fract_z
 _atom_site_occupancy
  Tb  Tb0  1  0.266744  0.501435  0.191607  1
  Er  Er1  1  0.606415  0.831779  0.192195  1
  Er  Er2  1  0.733865  0.498683  0.807423  1
  Zr  Zr3  1  0.393375  0.167978  0.809215  1
  Al  Al4  1  0.682136  0.835925  0.941665  1
  Al  Al5  1  0.316923  0.165796  0.053667  1
  Al  Al6  1  0.146410  0.832841  0.562623  1
  Al  Al7  1  0.853107  0.167123  0.438352  1
  Al  Al8  1  0.479974  0.166769  0.560908  1
  Al  Al9  1  0.519256  0.833789  0.441205  1
  Al  Al10  1  0.217401  0.165054  0.330296  1
  Al  Al11  1  0.779426  0.836660  0.672984  1
  Al  Al12  1  0.436357  0.504417  0.673339  1
  Al  Al13  1  0.562398  0.493974  0.329634  1
  Al  Al14  1  0.110953  0.160145  0.672217  1
  Al  Al15  1  0.889675  0.839808  0.330903  1
  Al  Al16  1  0.354529  0.496448  0.941263  1
  Al  Al17  1  0.648204  0.500369  0.055094  1
  Al  Al18  1  0.018454  0.168372  0.950002  1
  Al  Al19  1  0.984173  0.833053  0.046131  1
  Al  Al20  1  0.186707  0.499290  0.441360  1
  Al  Al21  1  0.813566  0.500429  0.559214  1
  Al  Al22  1  0.734305  0.163173  0.183669  1
  Al  Al23  1  0.266094  0.841342  0.816279  1
  Al  Al24  1  0.066057  0.626080  0.814947  1
  Al  Al25  1  0.938740  0.368671  0.184451  1
  Al  Al26  1  0.850413  0.041731  0.815568  1
  Al  Al27  1  0.145088  0.958996  0.183812  1
  Pt  Pt28  1  0.119159  0.491044  0.639524  1
  Pt  Pt29  1  0.878637  0.508896  0.361351  1
  Pt  Pt30  1  0.657513  0.171971  0.998648  1
  Pt  Pt31  1  0.344219  0.827494  0.999045  1
  Pt  Pt32  1  0.537538  0.166211  0.361924  1
  Pt  Pt33  1  0.463588  0.832201  0.639534  1
  Pt  Pt34  1  0.778140  0.176814  0.638187  1
  Pt  Pt35  1  0.220961  0.824852  0.363035  1
  Pt  Pt36  1  0.999503  0.500389  0.998732  1
