# generated using pymatgen
data_AgHg2Au3O8
_symmetry_space_group_name_H-M   'P 1'
_cell_length_a   6.78810223
_cell_length_b   6.78209776
_cell_length_c   6.77141993
_cell_angle_alpha   126.20611635
_cell_angle_beta   126.53779093
_cell_angle_gamma   79.54159737
_symmetry_Int_Tables_number   1
_chemical_formula_structural   AgHg2Au3O8
_chemical_formula_sum   'Ag1 Hg2 Au3 O8'
_cell_volume   195.02042846
_cell_formula_units_Z   1
loop_
 _symmetry_equiv_pos_site_id
 _symmetry_equiv_pos_as_xyz
  1  'x, y, z'
loop_
 _atom_site_type_symbol
 _atom_site_label
 _atom_site_symmetry_multiplicity
 _atom_site_fract_x
 _atom_site_fract_y
 _atom_site_fract_z
 _atom_site_occupancy
  Ag  Ag0  1  0.375000  0.625000  0.750000  1
  Hg  Hg1  1  0.748394  0.251829  0.499454  1
  Hg  Hg2  1  0.001606  0.998171  0.000546  1
  Au  Au3  1  0.375000  0.125000  0.750000  1
  Au  Au4  1  0.875000  0.625000  0.250000  1
  Au  Au5  1  0.375000  0.625000  0.250000  1
  O  O6  1  0.041331  0.419104  0.046731  1
  O  O7  1  0.748731  0.291412  0.123368  1
  O  O8  1  0.165542  0.625070  0.878035  1
  O  O9  1  0.374928  0.999890  0.957658  1
  O  O10  1  0.708669  0.830896  0.453269  1
  O  O11  1  0.001269  0.958588  0.376632  1
  O  O12  1  0.375072  0.250110  0.542342  1
  O  O13  1  0.584458  0.624930  0.621965  1
