# generated using pymatgen
data_Ho10(In3Rh)3
_symmetry_space_group_name_H-M   'P 1'
_cell_length_a   3.62655100
_cell_length_b   8.15261178
_cell_length_c   18.36590836
_cell_angle_alpha   89.78369875
_cell_angle_beta   90.00000000
_cell_angle_gamma   90.00000000
_symmetry_Int_Tables_number   1
_chemical_formula_structural   Ho10(In3Rh)3
_chemical_formula_sum   'Ho10 In9 Rh3'
_cell_volume   543.00005013
_cell_formula_units_Z   1
loop_
 _symmetry_equiv_pos_site_id
 _symmetry_equiv_pos_as_xyz
  1  'x, y, z'
loop_
 _atom_site_type_symbol
 _atom_site_label
 _atom_site_symmetry_multiplicity
 _atom_site_fract_x
 _atom_site_fract_y
 _atom_site_fract_z
 _atom_site_occupancy
  Ho  Ho0  1  0.000000  0.503589  0.500936  1
  Ho  Ho1  1  0.000000  0.001112  0.998707  1
  Ho  Ho2  1  0.000000  0.703863  0.277330  1
  Ho  Ho3  1  0.000000  0.254761  0.724004  1
  Ho  Ho4  1  0.000000  0.754704  0.778208  1
  Ho  Ho5  1  0.000000  0.265717  0.210343  1
  Ho  Ho6  1  0.000000  0.616300  0.082268  1
  Ho  Ho7  1  0.000000  0.385072  0.909419  1
  Ho  Ho8  1  0.000000  0.888720  0.591532  1
  Ho  Ho9  1  0.000000  0.127617  0.429259  1
  In  In10  1  0.500000  0.707992  0.930326  1
  In  In11  1  0.500000  0.295887  0.062231  1
  In  In12  1  0.500000  0.795491  0.436667  1
  In  In13  1  0.500000  0.215059  0.574222  1
  In  In14  1  0.500000  0.572327  0.649939  1
  In  In15  1  0.500000  0.415411  0.351718  1
  In  In16  1  0.500000  0.914573  0.146215  1
  In  In17  1  0.500000  0.071159  0.850625  1
  In  In18  1  0.500000  0.023289  0.302609  1
  Rh  Rh19  1  0.500000  0.523630  0.192223  1
  Rh  Rh20  1  0.500000  0.482895  0.803959  1
  Rh  Rh21  1  0.500000  0.980834  0.697260  1
