# generated using pymatgen
data_Er3PuB16
_symmetry_space_group_name_H-M   'P 1'
_cell_length_a   7.08273683
_cell_length_b   7.08273683
_cell_length_c   4.00275900
_cell_angle_alpha   90.00000000
_cell_angle_beta   90.00000000
_cell_angle_gamma   90.30340504
_symmetry_Int_Tables_number   1
_chemical_formula_structural   Er3PuB16
_chemical_formula_sum   'Er3 Pu1 B16'
_cell_volume   200.79623414
_cell_formula_units_Z   1
loop_
 _symmetry_equiv_pos_site_id
 _symmetry_equiv_pos_as_xyz
  1  'x, y, z'
loop_
 _atom_site_type_symbol
 _atom_site_label
 _atom_site_symmetry_multiplicity
 _atom_site_fract_x
 _atom_site_fract_y
 _atom_site_fract_z
 _atom_site_occupancy
  Er  Er0  1  0.183768  0.683768  0.000000  1
  Er  Er1  1  0.683552  0.816954  0.000000  1
  Er  Er2  1  0.316954  0.183552  0.000000  1
  Pu  Pu3  1  0.814272  0.314272  0.000000  1
  B  B4  1  0.322806  0.462370  0.500000  1
  B  B5  1  0.676960  0.538269  0.500000  1
  B  B6  1  0.537796  0.323650  0.500000  1
  B  B7  1  0.461189  0.677008  0.500000  1
  B  B8  1  0.001245  0.998916  0.201879  1
  B  B9  1  0.498916  0.501245  0.798121  1
  B  B10  1  0.001245  0.998916  0.798121  1
  B  B11  1  0.498916  0.501245  0.201879  1
  B  B12  1  0.587589  0.087589  0.500000  1
  B  B13  1  0.086384  0.414005  0.500000  1
  B  B14  1  0.914005  0.586384  0.500000  1
  B  B15  1  0.413108  0.913108  0.500000  1
  B  B16  1  0.038269  0.176960  0.500000  1
  B  B17  1  0.177008  0.961189  0.500000  1
  B  B18  1  0.823650  0.037796  0.500000  1
  B  B19  1  0.962370  0.822806  0.500000  1
