# generated using pymatgen
data_YCO3F
_symmetry_space_group_name_H-M   'P 1'
_cell_length_a   6.83797300
_cell_length_b   4.39395099
_cell_length_c   6.38212703
_cell_angle_alpha   88.57579842
_cell_angle_beta   90.00000000
_cell_angle_gamma   90.00000000
_symmetry_Int_Tables_number   1
_chemical_formula_structural   YCO3F
_chemical_formula_sum   'Y2 C2 O6 F2'
_cell_volume   191.69635358
_cell_formula_units_Z   2
loop_
 _symmetry_equiv_pos_site_id
 _symmetry_equiv_pos_as_xyz
  1  'x, y, z'
loop_
 _atom_site_type_symbol
 _atom_site_label
 _atom_site_symmetry_multiplicity
 _atom_site_fract_x
 _atom_site_fract_y
 _atom_site_fract_z
 _atom_site_occupancy
  Y  Y0  1  0.250000  0.496791  0.339862  1
  Y  Y1  1  0.750000  0.503209  0.660138  1
  C  C2  1  0.750000  0.506185  0.206171  1
  C  C3  1  0.250000  0.493815  0.793829  1
  O  O4  1  0.250000  0.501867  0.991033  1
  O  O5  1  0.750000  0.498133  0.008967  1
  O  O6  1  0.590023  0.509676  0.318782  1
  O  O7  1  0.090023  0.490324  0.681218  1
  O  O8  1  0.409977  0.490324  0.681218  1
  O  O9  1  0.909977  0.509676  0.318782  1
  F  F10  1  0.250000  0.996847  0.352171  1
  F  F11  1  0.750000  0.003153  0.647829  1
