# generated using pymatgen
data_Tm12Fe2Cu3Bi
_symmetry_space_group_name_H-M   'P 1'
_cell_length_a   8.28463487
_cell_length_b   8.28463421
_cell_length_c   8.28463451
_cell_angle_alpha   109.95875673
_cell_angle_beta   110.99783252
_cell_angle_gamma   107.47704800
_symmetry_Int_Tables_number   1
_chemical_formula_structural   Tm12Fe2Cu3Bi
_chemical_formula_sum   'Tm12 Fe2 Cu3 Bi1'
_cell_volume   437.28850177
_cell_formula_units_Z   1
loop_
 _symmetry_equiv_pos_site_id
 _symmetry_equiv_pos_as_xyz
  1  'x, y, z'
loop_
 _atom_site_type_symbol
 _atom_site_label
 _atom_site_symmetry_multiplicity
 _atom_site_fract_x
 _atom_site_fract_y
 _atom_site_fract_z
 _atom_site_occupancy
  Tm  Tm0  1  0.286201  0.178973  0.465174  1
  Tm  Tm1  1  0.713799  0.821027  0.534826  1
  Tm  Tm2  1  0.286201  0.821027  0.107228  1
  Tm  Tm3  1  0.713799  0.178973  0.892772  1
  Tm  Tm4  1  0.612156  0.308330  0.303825  1
  Tm  Tm5  1  0.387844  0.691670  0.696175  1
  Tm  Tm6  1  0.004504  0.308330  0.696175  1
  Tm  Tm7  1  0.995496  0.691670  0.303825  1
  Tm  Tm8  1  0.223917  0.425161  0.201245  1
  Tm  Tm9  1  0.776083  0.574839  0.798755  1
  Tm  Tm10  1  0.223917  0.022673  0.798755  1
  Tm  Tm11  1  0.776083  0.977327  0.201245  1
  Fe  Fe12  1  0.390602  0.890602  0.500000  1
  Fe  Fe13  1  0.609398  0.109398  0.500000  1
  Cu  Cu14  1  0.000000  0.366971  0.366971  1
  Cu  Cu15  1  0.000000  0.633029  0.633029  1
  Cu  Cu16  1  0.000000  0.000000  0.000000  1
  Bi  Bi17  1  0.500000  0.500000  0.000000  1
