# generated using pymatgen
data_Li2Tb8Sc9Si16Ru
_symmetry_space_group_name_H-M   'P 1'
_cell_length_a   6.94190779
_cell_length_b   7.36837255
_cell_length_c   13.97336300
_cell_angle_alpha   90.00000000
_cell_angle_beta   90.00000000
_cell_angle_gamma   89.99478173
_symmetry_Int_Tables_number   1
_chemical_formula_structural   Li2Tb8Sc9Si16Ru
_chemical_formula_sum   'Li2 Tb8 Sc9 Si16 Ru1'
_cell_volume   714.74537956
_cell_formula_units_Z   1
loop_
 _symmetry_equiv_pos_site_id
 _symmetry_equiv_pos_as_xyz
  1  'x, y, z'
loop_
 _atom_site_type_symbol
 _atom_site_label
 _atom_site_symmetry_multiplicity
 _atom_site_fract_x
 _atom_site_fract_y
 _atom_site_fract_z
 _atom_site_occupancy
  Li  Li0  1  0.842838  0.495710  0.250000  1
  Li  Li1  1  0.341729  0.004160  0.250000  1
  Tb  Tb2  1  0.015581  0.182670  0.097043  1
  Tb  Tb3  1  0.992864  0.819361  0.900751  1
  Tb  Tb4  1  0.488381  0.672354  0.902687  1
  Tb  Tb5  1  0.992864  0.819361  0.599249  1
  Tb  Tb6  1  0.515625  0.318797  0.098545  1
  Tb  Tb7  1  0.015581  0.182670  0.402957  1
  Tb  Tb8  1  0.515625  0.318797  0.401455  1
  Tb  Tb9  1  0.488381  0.672354  0.597313  1
  Sc  Sc10  1  0.658972  0.997779  0.750000  1
  Sc  Sc11  1  0.325765  0.178309  0.626808  1
  Sc  Sc12  1  0.669549  0.822841  0.373758  1
  Sc  Sc13  1  0.171023  0.677507  0.375209  1
  Sc  Sc14  1  0.669549  0.822841  0.126242  1
  Sc  Sc15  1  0.824915  0.330738  0.627714  1
  Sc  Sc16  1  0.325765  0.178309  0.873192  1
  Sc  Sc17  1  0.824915  0.330738  0.872286  1
  Sc  Sc18  1  0.171023  0.677507  0.124791  1
  Si  Si19  1  0.029583  0.120741  0.750000  1
  Si  Si20  1  0.970000  0.892830  0.250000  1
  Si  Si21  1  0.469105  0.605455  0.250000  1
  Si  Si22  1  0.515236  0.394856  0.750000  1
  Si  Si23  1  0.286782  0.870301  0.750000  1
  Si  Si24  1  0.721218  0.117896  0.250000  1
  Si  Si25  1  0.218457  0.382592  0.250000  1
  Si  Si26  1  0.794421  0.627092  0.750000  1
  Si  Si27  1  0.153195  0.464118  0.545183  1
  Si  Si28  1  0.842462  0.538092  0.465572  1
  Si  Si29  1  0.343918  0.961884  0.466007  1
  Si  Si30  1  0.842462  0.538092  0.034428  1
  Si  Si31  1  0.657609  0.033677  0.539359  1
  Si  Si32  1  0.153195  0.464118  0.954817  1
  Si  Si33  1  0.657609  0.033677  0.960641  1
  Si  Si34  1  0.343918  0.961884  0.033993  1
  Ru  Ru35  1  0.149884  0.489896  0.750000  1
