# generated using pymatgen
data_Ca10As6SeO24
_symmetry_space_group_name_H-M   'P 1'
_cell_length_a   9.87191900
_cell_length_b   9.87192037
_cell_length_c   7.13996400
_cell_angle_alpha   89.99995937
_cell_angle_beta   90.00003482
_cell_angle_gamma   120.00007919
_symmetry_Int_Tables_number   1
_chemical_formula_structural   Ca10As6SeO24
_chemical_formula_sum   'Ca10 As6 Se1 O24'
_cell_volume   602.60056411
_cell_formula_units_Z   1
loop_
 _symmetry_equiv_pos_site_id
 _symmetry_equiv_pos_as_xyz
  1  'x, y, z'
loop_
 _atom_site_type_symbol
 _atom_site_label
 _atom_site_symmetry_multiplicity
 _atom_site_fract_x
 _atom_site_fract_y
 _atom_site_fract_z
 _atom_site_occupancy
  Ca  Ca0  1  0.333334  0.666667  0.014857  1
  Ca  Ca1  1  0.245071  0.982341  0.242991  1
  Ca  Ca2  1  0.017659  0.262729  0.242991  1
  Ca  Ca3  1  0.737271  0.754929  0.242991  1
  Ca  Ca4  1  0.666667  0.333333  0.505191  1
  Ca  Ca5  1  0.333334  0.666666  0.494809  1
  Ca  Ca6  1  0.982341  0.737272  0.757008  1
  Ca  Ca7  1  0.262729  0.245071  0.757010  1
  Ca  Ca8  1  0.754929  0.017658  0.757010  1
  Ca  Ca9  1  0.666666  0.333333  0.985143  1
  As  As10  1  0.975207  0.601977  0.249961  1
  As  As11  1  0.398022  0.373229  0.249962  1
  As  As12  1  0.626772  0.024794  0.249962  1
  As  As13  1  0.373229  0.975207  0.750038  1
  As  As14  1  0.024793  0.398022  0.750038  1
  As  As15  1  0.601978  0.626771  0.750038  1
  Se  Se16  1  0.000000  0.000000  0.500000  1
  O  O17  1  0.291573  0.219390  0.099087  1
  O  O18  1  0.927817  0.708427  0.099087  1
  O  O19  1  0.780610  0.072184  0.099087  1
  O  O20  1  0.592972  0.478081  0.185282  1
  O  O21  1  0.885107  0.407028  0.185282  1
  O  O22  1  0.521919  0.114892  0.185282  1
  O  O23  1  0.308538  0.485095  0.247244  1
  O  O24  1  0.176558  0.691462  0.247246  1
  O  O25  1  0.514905  0.823443  0.247246  1
  O  O26  1  0.402245  0.300153  0.466409  1
  O  O27  1  0.897907  0.597755  0.466409  1
  O  O28  1  0.699848  0.102094  0.466409  1
  O  O29  1  0.300151  0.897906  0.533590  1
  O  O30  1  0.102092  0.402244  0.533592  1
  O  O31  1  0.597755  0.699848  0.533592  1
  O  O32  1  0.485095  0.176557  0.752754  1
  O  O33  1  0.691462  0.514905  0.752755  1
  O  O34  1  0.823443  0.308539  0.752755  1
  O  O35  1  0.478081  0.885109  0.814719  1
  O  O36  1  0.114892  0.592971  0.814719  1
  O  O37  1  0.407028  0.521919  0.814719  1
  O  O38  1  0.219390  0.927816  0.900912  1
  O  O39  1  0.708426  0.780609  0.900912  1
  O  O40  1  0.072183  0.291573  0.900913  1
