# generated using pymatgen
data_Dy5VP12Ir13Rh5
_symmetry_space_group_name_H-M   'P 1'
_cell_length_a   12.65756354
_cell_length_b   12.78394454
_cell_length_c   3.96595500
_cell_angle_alpha   90.00000000
_cell_angle_beta   90.00000000
_cell_angle_gamma   120.31741688
_symmetry_Int_Tables_number   1
_chemical_formula_structural   Dy5VP12Ir13Rh5
_chemical_formula_sum   'Dy5 V1 P12 Ir13 Rh5'
_cell_volume   553.98168982
_cell_formula_units_Z   1
loop_
 _symmetry_equiv_pos_site_id
 _symmetry_equiv_pos_as_xyz
  1  'x, y, z'
loop_
 _atom_site_type_symbol
 _atom_site_label
 _atom_site_symmetry_multiplicity
 _atom_site_fract_x
 _atom_site_fract_y
 _atom_site_fract_z
 _atom_site_occupancy
  Dy  Dy0  1  0.329879  0.665687  0.500000  1
  Dy  Dy1  1  0.670421  0.334700  0.500000  1
  Dy  Dy2  1  0.000118  0.811191  0.000000  1
  Dy  Dy3  1  0.185075  0.187238  0.000000  1
  Dy  Dy4  1  0.813930  0.002430  0.000000  1
  V  V5  1  0.999787  0.449686  0.500000  1
  P  P6  1  0.000344  0.632012  0.500000  1
  P  P7  1  0.359447  0.357986  0.500000  1
  P  P8  1  0.640509  0.998241  0.500000  1
  P  P9  1  0.515660  0.688170  0.000000  1
  P  P10  1  0.313155  0.830478  0.000000  1
  P  P11  1  0.163883  0.484446  0.000000  1
  P  P12  1  0.484899  0.171748  0.000000  1
  P  P13  1  0.687928  0.517025  0.000000  1
  P  P14  1  0.836319  0.319541  0.000000  1
  P  P15  1  0.000005  0.175374  0.500000  1
  P  P16  1  0.819459  0.819122  0.500000  1
  P  P17  1  0.179387  0.998976  0.500000  1
  Ir  Ir18  1  0.129041  0.641818  0.000000  1
  Ir  Ir19  1  0.354438  0.494137  0.000000  1
  Ir  Ir20  1  0.491095  0.360105  0.000000  1
  Ir  Ir21  1  0.869953  0.510636  0.000000  1
  Ir  Ir22  1  0.645734  0.139147  0.000000  1
  Ir  Ir23  1  0.000519  0.286645  0.000000  1
  Ir  Ir24  1  0.715084  0.715151  0.000000  1
  Ir  Ir25  1  0.284605  0.000608  0.000000  1
  Ir  Ir26  1  0.179224  0.370838  0.500000  1
  Ir  Ir27  1  0.376603  0.181147  0.500000  1
  Ir  Ir28  1  0.803488  0.624600  0.500000  1
  Ir  Ir29  1  0.821434  0.192600  0.500000  1
  Ir  Ir30  1  0.999590  0.997218  0.500000  1
  Rh  Rh31  1  0.510013  0.869790  0.000000  1
  Rh  Rh32  1  0.535166  0.540840  0.500000  1
  Rh  Rh33  1  0.464320  0.005461  0.500000  1
  Rh  Rh34  1  0.622052  0.803098  0.500000  1
  Rh  Rh35  1  0.197436  0.822107  0.500000  1
