# generated using pymatgen
data_Dy19HoBiPb15
_symmetry_space_group_name_H-M   'P 1'
_cell_length_a   8.25512105
_cell_length_b   15.66196013
_cell_length_c   8.30851000
_cell_angle_alpha   90.06950361
_cell_angle_beta   89.95961938
_cell_angle_gamma   90.19386479
_symmetry_Int_Tables_number   1
_chemical_formula_structural   Dy19HoBiPb15
_chemical_formula_sum   'Dy19 Ho1 Bi1 Pb15'
_cell_volume   1074.21149363
_cell_formula_units_Z   1
loop_
 _symmetry_equiv_pos_site_id
 _symmetry_equiv_pos_as_xyz
  1  'x, y, z'
loop_
 _atom_site_type_symbol
 _atom_site_label
 _atom_site_symmetry_multiplicity
 _atom_site_fract_x
 _atom_site_fract_y
 _atom_site_fract_z
 _atom_site_occupancy
  Dy  Dy0  1  0.620902  0.621319  0.159920  1
  Dy  Dy1  1  0.122521  0.878960  0.341475  1
  Dy  Dy2  1  0.377396  0.121441  0.841889  1
  Dy  Dy3  1  0.878724  0.378912  0.655831  1
  Dy  Dy4  1  0.375247  0.379063  0.840857  1
  Dy  Dy5  1  0.876650  0.121374  0.658340  1
  Dy  Dy6  1  0.622884  0.878914  0.158070  1
  Dy  Dy7  1  0.122225  0.620996  0.341421  1
  Dy  Dy8  1  0.458890  0.602350  0.670569  1
  Dy  Dy9  1  0.963017  0.899440  0.825373  1
  Dy  Dy10  1  0.537051  0.100732  0.325672  1
  Dy  Dy11  1  0.042467  0.397651  0.175931  1
  Dy  Dy12  1  0.538065  0.398670  0.329242  1
  Dy  Dy13  1  0.036669  0.100666  0.174681  1
  Dy  Dy14  1  0.463433  0.899349  0.674958  1
  Dy  Dy15  1  0.964543  0.601974  0.823752  1
  Dy  Dy16  1  0.790762  0.750514  0.497020  1
  Dy  Dy17  1  0.290891  0.750134  0.002922  1
  Dy  Dy18  1  0.209233  0.249136  0.502963  1
  Ho  Ho19  1  0.709220  0.247782  0.997205  1
  Bi  Bi20  1  0.721529  0.455399  0.970403  1
  Pb  Pb21  1  0.219244  0.042785  0.533417  1
  Pb  Pb22  1  0.280725  0.957098  0.032953  1
  Pb  Pb23  1  0.779506  0.543366  0.468674  1
  Pb  Pb24  1  0.278644  0.543107  0.031435  1
  Pb  Pb25  1  0.781010  0.957155  0.466505  1
  Pb  Pb26  1  0.718727  0.042935  0.966992  1
  Pb  Pb27  1  0.219609  0.456886  0.532036  1
  Pb  Pb28  1  0.427229  0.750421  0.373237  1
  Pb  Pb29  1  0.927247  0.749224  0.126065  1
  Pb  Pb30  1  0.572214  0.250814  0.627358  1
  Pb  Pb31  1  0.071682  0.250857  0.873851  1
  Pb  Pb32  1  0.650716  0.749657  0.846814  1
  Pb  Pb33  1  0.150752  0.750655  0.652814  1
  Pb  Pb34  1  0.351097  0.250262  0.153441  1
  Pb  Pb35  1  0.849278  0.250002  0.345915  1
