# generated using pymatgen
data_AlRe6As13
_symmetry_space_group_name_H-M   'P 1'
_cell_length_a   7.64029879
_cell_length_b   7.64029819
_cell_length_c   7.64029930
_cell_angle_alpha   109.45513117
_cell_angle_beta   109.45512640
_cell_angle_gamma   109.45511995
_symmetry_Int_Tables_number   1
_chemical_formula_structural   AlRe6As13
_chemical_formula_sum   'Al1 Re6 As13'
_cell_volume   343.53236347
_cell_formula_units_Z   1
loop_
 _symmetry_equiv_pos_site_id
 _symmetry_equiv_pos_as_xyz
  1  'x, y, z'
loop_
 _atom_site_type_symbol
 _atom_site_label
 _atom_site_symmetry_multiplicity
 _atom_site_fract_x
 _atom_site_fract_y
 _atom_site_fract_z
 _atom_site_occupancy
  Al  Al0  1  0.329788  0.329788  0.329788  1
  Re  Re1  1  0.990436  0.340067  0.340067  1
  Re  Re2  1  0.003143  0.664988  0.664988  1
  Re  Re3  1  0.340067  0.990436  0.340067  1
  Re  Re4  1  0.340067  0.340067  0.990436  1
  Re  Re5  1  0.664988  0.003143  0.664988  1
  Re  Re6  1  0.664988  0.664988  0.003143  1
  As  As7  1  0.000010  0.000010  0.663302  1
  As  As8  1  0.663302  0.000010  0.000010  1
  As  As9  1  0.000010  0.663302  0.000010  1
  As  As10  1  0.660302  0.660302  0.660302  1
  As  As11  1  0.007946  0.007946  0.326919  1
  As  As12  1  0.007946  0.326919  0.007946  1
  As  As13  1  0.326919  0.007946  0.007946  1
  As  As14  1  0.501700  0.747080  0.251265  1
  As  As15  1  0.501700  0.251265  0.747080  1
  As  As16  1  0.251265  0.501700  0.747080  1
  As  As17  1  0.747080  0.251265  0.501700  1
  As  As18  1  0.747080  0.501700  0.251265  1
  As  As19  1  0.251265  0.747080  0.501700  1
