# generated using pymatgen
data_Nb12Al9Co2TcC4
_symmetry_space_group_name_H-M   'P 1'
_cell_length_a   8.30666286
_cell_length_b   8.30666472
_cell_length_c   8.33935553
_cell_angle_alpha   60.12037197
_cell_angle_beta   60.12036921
_cell_angle_gamma   59.99472592
_symmetry_Int_Tables_number   1
_chemical_formula_structural   Nb12Al9Co2TcC4
_chemical_formula_sum   'Nb12 Al9 Co2 Tc1 C4'
_cell_volume   407.60654188
_cell_formula_units_Z   1
loop_
 _symmetry_equiv_pos_site_id
 _symmetry_equiv_pos_as_xyz
  1  'x, y, z'
loop_
 _atom_site_type_symbol
 _atom_site_label
 _atom_site_symmetry_multiplicity
 _atom_site_fract_x
 _atom_site_fract_y
 _atom_site_fract_z
 _atom_site_occupancy
  Nb  Nb0  1  0.696252  0.310328  0.681659  1
  Nb  Nb1  1  0.939672  0.553748  0.568341  1
  Nb  Nb2  1  0.559678  0.939784  0.937357  1
  Nb  Nb3  1  0.939784  0.559678  0.937357  1
  Nb  Nb4  1  0.563346  0.563346  0.936149  1
  Nb  Nb5  1  0.940833  0.940833  0.563937  1
  Nb  Nb6  1  0.686654  0.686654  0.313851  1
  Nb  Nb7  1  0.310328  0.696252  0.681659  1
  Nb  Nb8  1  0.690322  0.310216  0.312643  1
  Nb  Nb9  1  0.309167  0.309167  0.686063  1
  Nb  Nb10  1  0.553748  0.939672  0.568341  1
  Nb  Nb11  1  0.310216  0.690322  0.312643  1
  Al  Al12  1  0.125000  0.125000  0.125000  1
  Al  Al13  1  0.338313  0.338313  0.323662  1
  Al  Al14  1  0.247895  0.902888  0.920812  1
  Al  Al15  1  0.902888  0.247895  0.920812  1
  Al  Al16  1  0.906895  0.906895  0.255379  1
  Al  Al17  1  0.347112  0.002105  0.329188  1
  Al  Al18  1  0.343105  0.343105  0.994621  1
  Al  Al19  1  0.002105  0.347112  0.329188  1
  Al  Al20  1  0.911687  0.911687  0.926338  1
  Co  Co21  1  0.625000  0.125000  0.125000  1
  Co  Co22  1  0.125000  0.625000  0.125000  1
  Tc  Tc23  1  0.125000  0.125000  0.625000  1
  C  C24  1  0.625000  0.625000  0.625000  1
  C  C25  1  0.125000  0.625000  0.625000  1
  C  C26  1  0.625000  0.125000  0.625000  1
  C  C27  1  0.625000  0.625000  0.125000  1
