# generated using pymatgen
data_Yb(BO2)2
_symmetry_space_group_name_H-M   'P 1'
_cell_length_a   4.29655500
_cell_length_b   6.24332100
_cell_length_c   11.46948200
_cell_angle_alpha   90.00000000
_cell_angle_beta   90.00000000
_cell_angle_gamma   90.00000000
_symmetry_Int_Tables_number   1
_chemical_formula_structural   Yb(BO2)2
_chemical_formula_sum   'Yb4 B8 O16'
_cell_volume   307.66624029
_cell_formula_units_Z   4
loop_
 _symmetry_equiv_pos_site_id
 _symmetry_equiv_pos_as_xyz
  1  'x, y, z'
loop_
 _atom_site_type_symbol
 _atom_site_label
 _atom_site_symmetry_multiplicity
 _atom_site_fract_x
 _atom_site_fract_y
 _atom_site_fract_z
 _atom_site_occupancy
  Yb  Yb0  1  0.778401  0.250000  0.500000  1
  Yb  Yb1  1  0.721599  0.750000  0.000000  1
  Yb  Yb2  1  0.221599  0.750000  0.500000  1
  Yb  Yb3  1  0.278401  0.250000  0.000000  1
  B  B4  1  0.327188  0.125812  0.308504  1
  B  B5  1  0.327188  0.374188  0.691496  1
  B  B6  1  0.172812  0.625812  0.191496  1
  B  B7  1  0.172812  0.874188  0.808504  1
  B  B8  1  0.827188  0.125812  0.191496  1
  B  B9  1  0.827188  0.374188  0.808504  1
  B  B10  1  0.672812  0.625812  0.308504  1
  B  B11  1  0.672812  0.874188  0.691496  1
  O  O12  1  0.848051  0.850091  0.793714  1
  O  O13  1  0.848051  0.649909  0.206286  1
  O  O14  1  0.651949  0.350091  0.706286  1
  O  O15  1  0.651949  0.149909  0.293714  1
  O  O16  1  0.724029  0.088662  0.084044  1
  O  O17  1  0.724029  0.411338  0.915956  1
  O  O18  1  0.775971  0.588662  0.415956  1
  O  O19  1  0.775971  0.911338  0.584044  1
  O  O20  1  0.275971  0.911338  0.915956  1
  O  O21  1  0.275971  0.588662  0.084044  1
  O  O22  1  0.224029  0.411338  0.584044  1
  O  O23  1  0.224029  0.088662  0.415956  1
  O  O24  1  0.151949  0.149909  0.206286  1
  O  O25  1  0.151949  0.350091  0.793714  1
  O  O26  1  0.348051  0.649909  0.293714  1
  O  O27  1  0.348051  0.850091  0.706286  1
