# generated using pymatgen
data_Tb8In(Pd5Pt3)3
_symmetry_space_group_name_H-M   'P 1'
_cell_length_a   8.42989500
_cell_length_b   8.43654900
_cell_length_c   8.41356400
_cell_angle_alpha   90.00000000
_cell_angle_beta   90.00000000
_cell_angle_gamma   90.00000000
_symmetry_Int_Tables_number   1
_chemical_formula_structural   Tb8In(Pd5Pt3)3
_chemical_formula_sum   'Tb8 In1 Pd15 Pt9'
_cell_volume   598.36612788
_cell_formula_units_Z   1
loop_
 _symmetry_equiv_pos_site_id
 _symmetry_equiv_pos_as_xyz
  1  'x, y, z'
loop_
 _atom_site_type_symbol
 _atom_site_label
 _atom_site_symmetry_multiplicity
 _atom_site_fract_x
 _atom_site_fract_y
 _atom_site_fract_z
 _atom_site_occupancy
  Tb  Tb0  1  0.251287  0.251725  0.251104  1
  Tb  Tb1  1  0.748597  0.747250  0.748059  1
  Tb  Tb2  1  0.748597  0.747250  0.251941  1
  Tb  Tb3  1  0.748597  0.252750  0.748059  1
  Tb  Tb4  1  0.251287  0.251725  0.748896  1
  Tb  Tb5  1  0.251287  0.748275  0.251104  1
  Tb  Tb6  1  0.251287  0.748275  0.748896  1
  Tb  Tb7  1  0.748597  0.252750  0.251941  1
  In  In8  1  0.000741  0.000000  0.000000  1
  Pd  Pd9  1  0.500326  0.000000  0.267479  1
  Pd  Pd10  1  0.266480  0.000000  0.500000  1
  Pd  Pd11  1  0.500326  0.000000  0.732521  1
  Pd  Pd12  1  0.733012  0.000000  0.500000  1
  Pd  Pd13  1  0.000037  0.500000  0.265789  1
  Pd  Pd14  1  0.000037  0.500000  0.734211  1
  Pd  Pd15  1  0.500002  0.255196  0.500000  1
  Pd  Pd16  1  0.500002  0.744804  0.500000  1
  Pd  Pd17  1  0.499954  0.500000  0.255577  1
  Pd  Pd18  1  0.499954  0.500000  0.744423  1
  Pd  Pd19  1  0.688614  0.000000  0.000000  1
  Pd  Pd20  1  0.999451  0.312337  0.000000  1
  Pd  Pd21  1  0.999451  0.687663  0.000000  1
  Pd  Pd22  1  0.999448  0.000000  0.313008  1
  Pd  Pd23  1  0.999448  0.000000  0.686992  1
  Pt  Pt24  1  0.265215  0.500000  0.000000  1
  Pt  Pt25  1  0.733820  0.500000  0.000000  1
  Pt  Pt26  1  0.000074  0.265804  0.500000  1
  Pt  Pt27  1  0.499904  0.265733  0.000000  1
  Pt  Pt28  1  0.000074  0.734196  0.500000  1
  Pt  Pt29  1  0.499904  0.734267  0.000000  1
  Pt  Pt30  1  0.254492  0.500000  0.500000  1
  Pt  Pt31  1  0.745638  0.500000  0.500000  1
  Pt  Pt32  1  0.314057  0.000000  0.000000  1
