# generated using pymatgen
data_HoPu3(GaPd)4
_symmetry_space_group_name_H-M   'P 1'
_cell_length_a   4.50461900
_cell_length_b   6.89915126
_cell_length_c   7.75590388
_cell_angle_alpha   90.03116748
_cell_angle_beta   90.00000000
_cell_angle_gamma   90.00000000
_symmetry_Int_Tables_number   1
_chemical_formula_structural   HoPu3(GaPd)4
_chemical_formula_sum   'Ho1 Pu3 Ga4 Pd4'
_cell_volume   241.03831614
_cell_formula_units_Z   1
loop_
 _symmetry_equiv_pos_site_id
 _symmetry_equiv_pos_as_xyz
  1  'x, y, z'
loop_
 _atom_site_type_symbol
 _atom_site_label
 _atom_site_symmetry_multiplicity
 _atom_site_fract_x
 _atom_site_fract_y
 _atom_site_fract_z
 _atom_site_occupancy
  Ho  Ho0  1  0.750000  0.518499  0.800504  1
  Pu  Pu1  1  0.250000  0.979581  0.301492  1
  Pu  Pu2  1  0.250000  0.482048  0.198043  1
  Pu  Pu3  1  0.750000  0.018475  0.699560  1
  Ga  Ga4  1  0.250000  0.325794  0.577396  1
  Ga  Ga5  1  0.250000  0.825518  0.922208  1
  Ga  Ga6  1  0.750000  0.675016  0.423980  1
  Ga  Ga7  1  0.750000  0.175055  0.076552  1
  Pd  Pd8  1  0.250000  0.223535  0.900837  1
  Pd  Pd9  1  0.250000  0.715259  0.599613  1
  Pd  Pd10  1  0.750000  0.778550  0.093698  1
  Pd  Pd11  1  0.750000  0.282668  0.406119  1
