# generated using pymatgen
data_La3Pr7Bi6AsBr
_symmetry_space_group_name_H-M   'P 1'
_cell_length_a   9.71598966
_cell_length_b   9.71135180
_cell_length_c   6.89553203
_cell_angle_alpha   90.00555762
_cell_angle_beta   90.00521871
_cell_angle_gamma   120.08252613
_symmetry_Int_Tables_number   1
_chemical_formula_structural   La3Pr7Bi6AsBr
_chemical_formula_sum   'La3 Pr7 Bi6 As1 Br1'
_cell_volume   562.99349863
_cell_formula_units_Z   1
loop_
 _symmetry_equiv_pos_site_id
 _symmetry_equiv_pos_as_xyz
  1  'x, y, z'
loop_
 _atom_site_type_symbol
 _atom_site_label
 _atom_site_symmetry_multiplicity
 _atom_site_fract_x
 _atom_site_fract_y
 _atom_site_fract_z
 _atom_site_occupancy
  La  La0  1  0.256541  0.999544  0.737729  1
  La  La1  1  0.742506  0.999752  0.262135  1
  La  La2  1  0.999924  0.256766  0.737853  1
  Pr  Pr3  1  0.000120  0.742596  0.262485  1
  Pr  Pr4  1  0.743024  0.742699  0.737456  1
  Pr  Pr5  1  0.257856  0.257504  0.262335  1
  Pr  Pr6  1  0.333327  0.666863  0.499693  1
  Pr  Pr7  1  0.666669  0.333668  0.499694  1
  Pr  Pr8  1  0.666646  0.333659  0.000271  1
  Pr  Pr9  1  0.333352  0.666796  0.000294  1
  Bi  Bi10  1  0.608510  0.999231  0.751242  1
  Bi  Bi11  1  0.390591  0.000085  0.248709  1
  Bi  Bi12  1  0.999180  0.608544  0.750857  1
  Bi  Bi13  1  0.000800  0.392566  0.248859  1
  Bi  Bi14  1  0.392684  0.392740  0.750695  1
  Bi  Bi15  1  0.608254  0.607551  0.249255  1
  As  As16  1  0.000016  0.999893  0.499879  1
  Br  Br17  1  0.000000  0.999544  0.000560  1
