# generated using pymatgen
data_Tm2MgB2Ir4Rh
_symmetry_space_group_name_H-M   'P 1'
_cell_length_a   9.70335931
_cell_length_b   9.69621932
_cell_length_c   3.11080100
_cell_angle_alpha   90.00000000
_cell_angle_beta   90.00000000
_cell_angle_gamma   90.02918606
_symmetry_Int_Tables_number   1
_chemical_formula_structural   Tm2MgB2Ir4Rh
_chemical_formula_sum   'Tm4 Mg2 B4 Ir8 Rh2'
_cell_volume   292.68247384
_cell_formula_units_Z   2
loop_
 _symmetry_equiv_pos_site_id
 _symmetry_equiv_pos_as_xyz
  1  'x, y, z'
loop_
 _atom_site_type_symbol
 _atom_site_label
 _atom_site_symmetry_multiplicity
 _atom_site_fract_x
 _atom_site_fract_y
 _atom_site_fract_z
 _atom_site_occupancy
  Tm  Tm0  1  0.678292  0.177998  0.000000  1
  Tm  Tm1  1  0.321708  0.822002  0.000000  1
  Tm  Tm2  1  0.178683  0.322138  0.000000  1
  Tm  Tm3  1  0.821317  0.677862  0.000000  1
  Mg  Mg4  1  0.000000  0.000000  0.000000  1
  Mg  Mg5  1  0.500000  0.500000  0.000000  1
  B  B6  1  0.123755  0.624405  0.000000  1
  B  B7  1  0.876245  0.375595  0.000000  1
  B  B8  1  0.624880  0.877920  0.000000  1
  B  B9  1  0.375120  0.122080  0.000000  1
  Ir  Ir10  1  0.500000  0.000000  0.500000  1
  Ir  Ir11  1  0.000000  0.500000  0.500000  1
  Ir  Ir12  1  0.223743  0.069071  0.500000  1
  Ir  Ir13  1  0.776257  0.930929  0.500000  1
  Ir  Ir14  1  0.067362  0.777029  0.500000  1
  Ir  Ir15  1  0.723726  0.430778  0.500000  1
  Ir  Ir16  1  0.932638  0.222971  0.500000  1
  Ir  Ir17  1  0.276274  0.569222  0.500000  1
  Rh  Rh18  1  0.568469  0.723857  0.500000  1
  Rh  Rh19  1  0.431531  0.276143  0.500000  1
