# generated using pymatgen
data_Rb4Tb11ErSe20
_symmetry_space_group_name_H-M   'P 1'
_cell_length_a   4.16699400
_cell_length_b   12.36563220
_cell_length_c   22.27398900
_cell_angle_alpha   90.01039287
_cell_angle_beta   90.00000000
_cell_angle_gamma   90.00000000
_symmetry_Int_Tables_number   1
_chemical_formula_structural   Rb4Tb11ErSe20
_chemical_formula_sum   'Rb4 Tb11 Er1 Se20'
_cell_volume   1147.72328783
_cell_formula_units_Z   1
loop_
 _symmetry_equiv_pos_site_id
 _symmetry_equiv_pos_as_xyz
  1  'x, y, z'
loop_
 _atom_site_type_symbol
 _atom_site_label
 _atom_site_symmetry_multiplicity
 _atom_site_fract_x
 _atom_site_fract_y
 _atom_site_fract_z
 _atom_site_occupancy
  Rb  Rb0  1  0.250000  0.845831  0.097596  1
  Rb  Rb1  1  0.750000  0.154136  0.902435  1
  Rb  Rb2  1  0.750000  0.345720  0.402490  1
  Rb  Rb3  1  0.250000  0.654110  0.597546  1
  Tb  Tb4  1  0.750000  0.803851  0.828607  1
  Tb  Tb5  1  0.250000  0.196146  0.171399  1
  Tb  Tb6  1  0.250000  0.303613  0.671257  1
  Tb  Tb7  1  0.750000  0.696141  0.328625  1
  Tb  Tb8  1  0.250000  0.960618  0.698616  1
  Tb  Tb9  1  0.750000  0.039556  0.301477  1
  Tb  Tb10  1  0.750000  0.460500  0.801287  1
  Tb  Tb11  1  0.250000  0.539476  0.198710  1
  Tb  Tb12  1  0.750000  0.388565  0.052512  1
  Tb  Tb13  1  0.250000  0.611437  0.947494  1
  Tb  Tb14  1  0.250000  0.888879  0.447605  1
  Er  Er15  1  0.750000  0.111309  0.552623  1
  Se  Se16  1  0.250000  0.950504  0.569600  1
  Se  Se17  1  0.750000  0.051940  0.430986  1
  Se  Se18  1  0.750000  0.448573  0.930244  1
  Se  Se19  1  0.250000  0.551431  0.069759  1
  Se  Se20  1  0.750000  0.769706  0.955975  1
  Se  Se21  1  0.250000  0.230305  0.044025  1
  Se  Se22  1  0.250000  0.267360  0.543986  1
  Se  Se23  1  0.750000  0.730314  0.455987  1
  Se  Se24  1  0.250000  0.959051  0.827498  1
  Se  Se25  1  0.750000  0.040957  0.172545  1
  Se  Se26  1  0.750000  0.459032  0.672489  1
  Se  Se27  1  0.250000  0.540973  0.327491  1
  Se  Se28  1  0.750000  0.131101  0.682410  1
  Se  Se29  1  0.250000  0.868881  0.316764  1
  Se  Se30  1  0.250000  0.631208  0.816757  1
  Se  Se31  1  0.750000  0.368799  0.183243  1
  Se  Se32  1  0.750000  0.693068  0.199744  1
  Se  Se33  1  0.250000  0.306914  0.800254  1
  Se  Se34  1  0.250000  0.193053  0.300247  1
  Se  Se35  1  0.750000  0.806940  0.699716  1
