# generated using pymatgen
data_Tb4Dy2HoFeI12
_symmetry_space_group_name_H-M   'P 1'
_cell_length_a   9.72634966
_cell_length_b   9.78353957
_cell_length_c   9.79553715
_cell_angle_alpha   106.99768942
_cell_angle_beta   107.11737733
_cell_angle_gamma   106.87388452
_symmetry_Int_Tables_number   1
_chemical_formula_structural   Tb4Dy2HoFeI12
_chemical_formula_sum   'Tb4 Dy2 Ho1 Fe1 I12'
_cell_volume   776.35785727
_cell_formula_units_Z   1
loop_
 _symmetry_equiv_pos_site_id
 _symmetry_equiv_pos_as_xyz
  1  'x, y, z'
loop_
 _atom_site_type_symbol
 _atom_site_label
 _atom_site_symmetry_multiplicity
 _atom_site_fract_x
 _atom_site_fract_y
 _atom_site_fract_z
 _atom_site_occupancy
  Tb  Tb0  1  0.281072  0.021527  0.090404  1
  Tb  Tb1  1  0.906739  0.707038  0.977594  1
  Tb  Tb2  1  0.978066  0.906602  0.706733  1
  Tb  Tb3  1  0.719050  0.978624  0.910554  1
  Dy  Dy4  1  0.499996  0.500258  0.500188  1
  Dy  Dy5  1  0.092686  0.290678  0.022651  1
  Ho  Ho6  1  0.022021  0.093228  0.290074  1
  Fe  Fe7  1  0.999975  0.999487  0.999797  1
  I  I8  1  0.462991  0.386137  0.161926  1
  I  I9  1  0.160072  0.462940  0.385889  1
  I  I10  1  0.386020  0.161796  0.463181  1
  I  I11  1  0.535354  0.614014  0.837689  1
  I  I12  1  0.839059  0.535355  0.612846  1
  I  I13  1  0.612327  0.838564  0.536978  1
  I  I14  1  0.774902  0.319824  0.927953  1
  I  I15  1  0.928514  0.776759  0.321528  1
  I  I16  1  0.320838  0.929052  0.776986  1
  I  I17  1  0.226595  0.679734  0.072461  1
  I  I18  1  0.072369  0.226693  0.679792  1
  I  I19  1  0.681354  0.071691  0.224776  1
