# generated using pymatgen
data_Pr16CdHg3Pd3Ru
_symmetry_space_group_name_H-M   'P 1'
_cell_length_a   10.06919820
_cell_length_b   10.09044267
_cell_length_c   10.09044144
_cell_angle_alpha   59.59299727
_cell_angle_beta   59.59306704
_cell_angle_gamma   59.59306581
_symmetry_Int_Tables_number   1
_chemical_formula_structural   Pr16CdHg3Pd3Ru
_chemical_formula_sum   'Pr16 Cd1 Hg3 Pd3 Ru1'
_cell_volume   718.23131879
_cell_formula_units_Z   1
loop_
 _symmetry_equiv_pos_site_id
 _symmetry_equiv_pos_as_xyz
  1  'x, y, z'
loop_
 _atom_site_type_symbol
 _atom_site_label
 _atom_site_symmetry_multiplicity
 _atom_site_fract_x
 _atom_site_fract_y
 _atom_site_fract_z
 _atom_site_occupancy
  Pr  Pr0  1  0.353929  0.353047  0.353047  1
  Pr  Pr1  1  0.348619  0.348292  0.948267  1
  Pr  Pr2  1  0.348619  0.948267  0.348292  1
  Pr  Pr3  1  0.946057  0.349050  0.349050  1
  Pr  Pr4  1  0.817404  0.189201  0.189201  1
  Pr  Pr5  1  0.188503  0.808008  0.808008  1
  Pr  Pr6  1  0.188270  0.817847  0.189032  1
  Pr  Pr7  1  0.806944  0.189965  0.806928  1
  Pr  Pr8  1  0.188270  0.189032  0.817847  1
  Pr  Pr9  1  0.806944  0.806928  0.189965  1
  Pr  Pr10  1  0.935677  0.564544  0.564544  1
  Pr  Pr11  1  0.558260  0.937311  0.937311  1
  Pr  Pr12  1  0.563913  0.936813  0.564417  1
  Pr  Pr13  1  0.936291  0.558723  0.937363  1
  Pr  Pr14  1  0.563913  0.564417  0.936813  1
  Pr  Pr15  1  0.936291  0.937363  0.558723  1
  Cd  Cd16  1  0.260161  0.580067  0.580067  1
  Hg  Hg17  1  0.581851  0.584126  0.584126  1
  Hg  Hg18  1  0.582808  0.585305  0.247206  1
  Hg  Hg19  1  0.582808  0.247206  0.585305  1
  Pd  Pd20  1  0.145429  0.145683  0.570031  1
  Pd  Pd21  1  0.145429  0.570031  0.145683  1
  Pd  Pd22  1  0.570451  0.145464  0.145464  1
  Ru  Ru23  1  0.143159  0.143312  0.143312  1
