# generated using pymatgen
data_Tm4MnFeOs6
_symmetry_space_group_name_H-M   'P 1'
_cell_length_a   5.31064900
_cell_length_b   5.31064930
_cell_length_c   8.53783400
_cell_angle_alpha   89.99941913
_cell_angle_beta   90.00057987
_cell_angle_gamma   120.00105084
_symmetry_Int_Tables_number   1
_chemical_formula_structural   Tm4MnFeOs6
_chemical_formula_sum   'Tm4 Mn1 Fe1 Os6'
_cell_volume   208.53020041
_cell_formula_units_Z   1
loop_
 _symmetry_equiv_pos_site_id
 _symmetry_equiv_pos_as_xyz
  1  'x, y, z'
loop_
 _atom_site_type_symbol
 _atom_site_label
 _atom_site_symmetry_multiplicity
 _atom_site_fract_x
 _atom_site_fract_y
 _atom_site_fract_z
 _atom_site_occupancy
  Tm  Tm0  1  0.666658  0.333342  0.565562  1
  Tm  Tm1  1  0.333342  0.666658  0.434438  1
  Tm  Tm2  1  0.333344  0.666656  0.066828  1
  Tm  Tm3  1  0.666656  0.333344  0.933172  1
  Mn  Mn4  1  0.000000  0.000000  0.000000  1
  Fe  Fe5  1  0.000000  0.000000  0.500000  1
  Os  Os6  1  0.169581  0.339162  0.748713  1
  Os  Os7  1  0.169575  0.830425  0.748717  1
  Os  Os8  1  0.660838  0.830419  0.748713  1
  Os  Os9  1  0.830419  0.660838  0.251287  1
  Os  Os10  1  0.830425  0.169575  0.251283  1
  Os  Os11  1  0.339162  0.169581  0.251287  1
