# generated using pymatgen
data_Y4Hf3ZrIr4
_symmetry_space_group_name_H-M   'P 1'
_cell_length_a   4.54487600
_cell_length_b   7.10611431
_cell_length_c   8.31543089
_cell_angle_alpha   90.24316377
_cell_angle_beta   90.00000000
_cell_angle_gamma   90.00000000
_symmetry_Int_Tables_number   1
_chemical_formula_structural   Y4Hf3ZrIr4
_chemical_formula_sum   'Y4 Hf3 Zr1 Ir4'
_cell_volume   268.55613336
_cell_formula_units_Z   1
loop_
 _symmetry_equiv_pos_site_id
 _symmetry_equiv_pos_as_xyz
  1  'x, y, z'
loop_
 _atom_site_type_symbol
 _atom_site_label
 _atom_site_symmetry_multiplicity
 _atom_site_fract_x
 _atom_site_fract_y
 _atom_site_fract_z
 _atom_site_occupancy
  Y  Y0  1  0.250000  0.983554  0.322488  1
  Y  Y1  1  0.250000  0.485041  0.176514  1
  Y  Y2  1  0.750000  0.013983  0.676962  1
  Y  Y3  1  0.750000  0.515557  0.823885  1
  Hf  Hf4  1  0.250000  0.858954  0.927965  1
  Hf  Hf5  1  0.750000  0.641875  0.426617  1
  Hf  Hf6  1  0.750000  0.141208  0.073249  1
  Zr  Zr7  1  0.250000  0.358322  0.572444  1
  Ir  Ir8  1  0.250000  0.228789  0.909225  1
  Ir  Ir9  1  0.250000  0.731963  0.592680  1
  Ir  Ir10  1  0.750000  0.770675  0.093923  1
  Ir  Ir11  1  0.750000  0.270080  0.404049  1
