# generated using pymatgen
data_CaEr6Co4Sn23Ir2
_symmetry_space_group_name_H-M   'P 1'
_cell_length_a   9.76956199
_cell_length_b   9.76956227
_cell_length_c   9.97265385
_cell_angle_alpha   90.39713035
_cell_angle_beta   89.60286191
_cell_angle_gamma   120.10612070
_symmetry_Int_Tables_number   1
_chemical_formula_structural   CaEr6Co4Sn23Ir2
_chemical_formula_sum   'Ca1 Er6 Co4 Sn23 Ir2'
_cell_volume   823.40267992
_cell_formula_units_Z   1
loop_
 _symmetry_equiv_pos_site_id
 _symmetry_equiv_pos_as_xyz
  1  'x, y, z'
loop_
 _atom_site_type_symbol
 _atom_site_label
 _atom_site_symmetry_multiplicity
 _atom_site_fract_x
 _atom_site_fract_y
 _atom_site_fract_z
 _atom_site_occupancy
  Ca  Ca0  1  0.000000  0.000000  0.000000  1
  Er  Er1  1  0.481051  0.518949  0.306470  1
  Er  Er2  1  0.518949  0.481051  0.693530  1
  Er  Er3  1  0.482894  0.962735  0.305552  1
  Er  Er4  1  0.517106  0.037265  0.694448  1
  Er  Er5  1  0.037265  0.517106  0.305552  1
  Er  Er6  1  0.962735  0.482894  0.694448  1
  Co  Co7  1  0.828421  0.660050  0.200167  1
  Co  Co8  1  0.171579  0.339950  0.799833  1
  Co  Co9  1  0.339950  0.171579  0.200167  1
  Co  Co10  1  0.660050  0.828421  0.799833  1
  Sn  Sn11  1  0.117994  0.882006  0.272926  1
  Sn  Sn12  1  0.882006  0.117994  0.727074  1
  Sn  Sn13  1  0.123528  0.236204  0.279274  1
  Sn  Sn14  1  0.876472  0.763796  0.720726  1
  Sn  Sn15  1  0.763796  0.876472  0.279274  1
  Sn  Sn16  1  0.236204  0.123528  0.720726  1
  Sn  Sn17  1  0.778072  0.221928  0.460729  1
  Sn  Sn18  1  0.221928  0.778072  0.539271  1
  Sn  Sn19  1  0.780586  0.560945  0.452883  1
  Sn  Sn20  1  0.219414  0.439055  0.547117  1
  Sn  Sn21  1  0.439055  0.219414  0.452883  1
  Sn  Sn22  1  0.560945  0.780586  0.547117  1
  Sn  Sn23  1  0.351984  0.005802  0.005072  1
  Sn  Sn24  1  0.648016  0.994198  0.994928  1
  Sn  Sn25  1  0.005802  0.351984  0.994928  1
  Sn  Sn26  1  0.994198  0.648016  0.005072  1
  Sn  Sn27  1  0.653020  0.653020  0.000000  1
  Sn  Sn28  1  0.346980  0.346980  0.000000  1
  Sn  Sn29  1  0.333795  0.666205  0.124389  1
  Sn  Sn30  1  0.666205  0.333795  0.875611  1
  Sn  Sn31  1  0.336233  0.663767  0.820289  1
  Sn  Sn32  1  0.663767  0.336233  0.179711  1
  Sn  Sn33  1  0.000000  0.000000  0.500000  1
  Ir  Ir34  1  0.830109  0.169891  0.199298  1
  Ir  Ir35  1  0.169891  0.830109  0.800702  1
