# generated using pymatgen
data_LiLa7NdPt6
_symmetry_space_group_name_H-M   'P 1'
_cell_length_a   7.82129432
_cell_length_b   7.82129443
_cell_length_c   7.82129383
_cell_angle_alpha   70.42645221
_cell_angle_beta   70.42645285
_cell_angle_gamma   70.42644788
_symmetry_Int_Tables_number   1
_chemical_formula_structural   LiLa7NdPt6
_chemical_formula_sum   'Li1 La7 Nd1 Pt6'
_cell_volume   411.15844242
_cell_formula_units_Z   1
loop_
 _symmetry_equiv_pos_site_id
 _symmetry_equiv_pos_as_xyz
  1  'x, y, z'
loop_
 _atom_site_type_symbol
 _atom_site_label
 _atom_site_symmetry_multiplicity
 _atom_site_fract_x
 _atom_site_fract_y
 _atom_site_fract_z
 _atom_site_occupancy
  Li  Li0  1  0.999543  0.999543  0.999543  1
  La  La1  1  0.186900  0.186900  0.186900  1
  La  La2  1  0.317600  0.616233  0.853969  1
  La  La3  1  0.853969  0.317600  0.616233  1
  La  La4  1  0.616233  0.853969  0.317600  1
  La  La5  1  0.681941  0.385975  0.144926  1
  La  La6  1  0.144926  0.681941  0.385975  1
  La  La7  1  0.385975  0.144926  0.681941  1
  Nd  Nd8  1  0.813551  0.813551  0.813551  1
  Pt  Pt9  1  0.177768  0.953897  0.578323  1
  Pt  Pt10  1  0.578323  0.177768  0.953897  1
  Pt  Pt11  1  0.953897  0.578323  0.177768  1
  Pt  Pt12  1  0.821748  0.045110  0.422515  1
  Pt  Pt13  1  0.422515  0.821748  0.045110  1
  Pt  Pt14  1  0.045110  0.422515  0.821748  1
