# generated using pymatgen
data_TbY6FeI12
_symmetry_space_group_name_H-M   'P 1'
_cell_length_a   9.69752507
_cell_length_b   9.75971365
_cell_length_c   9.76236663
_cell_angle_alpha   106.98455754
_cell_angle_beta   107.07094118
_cell_angle_gamma   106.83161562
_symmetry_Int_Tables_number   1
_chemical_formula_structural   TbY6FeI12
_chemical_formula_sum   'Tb1 Y6 Fe1 I12'
_cell_volume   770.26842248
_cell_formula_units_Z   1
loop_
 _symmetry_equiv_pos_site_id
 _symmetry_equiv_pos_as_xyz
  1  'x, y, z'
loop_
 _atom_site_type_symbol
 _atom_site_label
 _atom_site_symmetry_multiplicity
 _atom_site_fract_x
 _atom_site_fract_y
 _atom_site_fract_z
 _atom_site_occupancy
  Tb  Tb0  1  0.718338  0.979135  0.910958  1
  Y  Y1  1  0.978410  0.906565  0.706616  1
  Y  Y2  1  0.500092  0.499977  0.500001  1
  Y  Y3  1  0.093034  0.293368  0.022443  1
  Y  Y4  1  0.281729  0.020951  0.089008  1
  Y  Y5  1  0.907217  0.706829  0.977664  1
  Y  Y6  1  0.021619  0.093500  0.293557  1
  Fe  Fe7  1  0.999204  0.000076  0.999870  1
  I  I8  1  0.072297  0.226399  0.678287  1
  I  I9  1  0.386161  0.159233  0.461633  1
  I  I10  1  0.613844  0.840277  0.537708  1
  I  I11  1  0.227926  0.679662  0.072802  1
  I  I12  1  0.772544  0.320833  0.927398  1
  I  I13  1  0.678578  0.071923  0.225417  1
  I  I14  1  0.536904  0.615060  0.840059  1
  I  I15  1  0.841561  0.536718  0.614354  1
  I  I16  1  0.927783  0.773641  0.321726  1
  I  I17  1  0.320969  0.928104  0.775053  1
  I  I18  1  0.463220  0.384507  0.159791  1
  I  I19  1  0.158570  0.463242  0.385656  1
