# generated using pymatgen
data_TbHo7Sc11Si16Os
_symmetry_space_group_name_H-M   'P 1'
_cell_length_a   6.98862600
_cell_length_b   7.32940412
_cell_length_c   13.83603429
_cell_angle_alpha   90.02344741
_cell_angle_beta   90.00180874
_cell_angle_gamma   90.11177492
_symmetry_Int_Tables_number   1
_chemical_formula_structural   TbHo7Sc11Si16Os
_chemical_formula_sum   'Tb1 Ho7 Sc11 Si16 Os1'
_cell_volume   708.71436299
_cell_formula_units_Z   1
loop_
 _symmetry_equiv_pos_site_id
 _symmetry_equiv_pos_as_xyz
  1  'x, y, z'
loop_
 _atom_site_type_symbol
 _atom_site_label
 _atom_site_symmetry_multiplicity
 _atom_site_fract_x
 _atom_site_fract_y
 _atom_site_fract_z
 _atom_site_occupancy
  Tb  Tb0  1  0.011950  0.177591  0.092234  1
  Ho  Ho1  1  0.993604  0.819172  0.900436  1
  Ho  Ho2  1  0.489684  0.672670  0.902367  1
  Ho  Ho3  1  0.993544  0.819170  0.599337  1
  Ho  Ho4  1  0.511661  0.323772  0.094422  1
  Ho  Ho5  1  0.012132  0.178405  0.407296  1
  Ho  Ho6  1  0.511806  0.323509  0.405759  1
  Ho  Ho7  1  0.489632  0.672566  0.597407  1
  Sc  Sc8  1  0.841928  0.496339  0.250184  1
  Sc  Sc9  1  0.342292  0.003239  0.250176  1
  Sc  Sc10  1  0.657235  0.995213  0.750019  1
  Sc  Sc11  1  0.325599  0.176110  0.627392  1
  Sc  Sc12  1  0.672158  0.824756  0.374518  1
  Sc  Sc13  1  0.172577  0.673604  0.377321  1
  Sc  Sc14  1  0.672230  0.824518  0.125676  1
  Sc  Sc15  1  0.824434  0.331699  0.628502  1
  Sc  Sc16  1  0.325801  0.175962  0.872495  1
  Sc  Sc17  1  0.824168  0.332050  0.871458  1
  Sc  Sc18  1  0.172633  0.673386  0.122807  1
  Si  Si19  1  0.028174  0.119691  0.749954  1
  Si  Si20  1  0.972694  0.885225  0.250288  1
  Si  Si21  1  0.468886  0.614832  0.250052  1
  Si  Si22  1  0.513424  0.395374  0.749956  1
  Si  Si23  1  0.286366  0.859602  0.750005  1
  Si  Si24  1  0.716609  0.129596  0.250541  1
  Si  Si25  1  0.216023  0.371599  0.250507  1
  Si  Si26  1  0.795820  0.630815  0.749936  1
  Si  Si27  1  0.156372  0.465950  0.549721  1
  Si  Si28  1  0.842501  0.536333  0.463994  1
  Si  Si29  1  0.345248  0.964788  0.463022  1
  Si  Si30  1  0.842192  0.537317  0.035754  1
  Si  Si31  1  0.659196  0.034154  0.539937  1
  Si  Si32  1  0.156492  0.466654  0.949967  1
  Si  Si33  1  0.658783  0.034038  0.959939  1
  Si  Si34  1  0.346671  0.964109  0.036716  1
  Os  Os35  1  0.149478  0.496194  0.749906  1
