# generated using pymatgen
data_NaSm(PuB12)2
_symmetry_space_group_name_H-M   'P 1'
_cell_length_a   7.14511808
_cell_length_b   7.14511811
_cell_length_c   5.82864100
_cell_angle_alpha   90.00000000
_cell_angle_beta   90.00000000
_cell_angle_gamma   109.40543849
_symmetry_Int_Tables_number   1
_chemical_formula_structural   NaSm(PuB12)2
_chemical_formula_sum   'Na1 Sm1 Pu2 B24'
_cell_volume   280.66343417
_cell_formula_units_Z   1
loop_
 _symmetry_equiv_pos_site_id
 _symmetry_equiv_pos_as_xyz
  1  'x, y, z'
loop_
 _atom_site_type_symbol
 _atom_site_label
 _atom_site_symmetry_multiplicity
 _atom_site_fract_x
 _atom_site_fract_y
 _atom_site_fract_z
 _atom_site_occupancy
  Na  Na0  1  0.999785  0.000215  0.000000  1
  Sm  Sm1  1  0.248701  0.751299  0.500000  1
  Pu  Pu2  1  0.750966  0.249034  0.500000  1
  Pu  Pu3  1  0.500312  0.499688  0.000000  1
  B  B4  1  0.175495  0.325200  0.650497  1
  B  B5  1  0.924656  0.575032  0.149779  1
  B  B6  1  0.674800  0.824505  0.650497  1
  B  B7  1  0.424968  0.075344  0.149779  1
  B  B8  1  0.175495  0.325200  0.349503  1
  B  B9  1  0.924656  0.575032  0.850221  1
  B  B10  1  0.674800  0.824505  0.349503  1
  B  B11  1  0.424968  0.075344  0.850221  1
  B  B12  1  0.400404  0.400383  0.500000  1
  B  B13  1  0.149097  0.650923  0.000000  1
  B  B14  1  0.899692  0.899658  0.500000  1
  B  B15  1  0.651087  0.149284  0.000000  1
  B  B16  1  0.325059  0.175450  0.650634  1
  B  B17  1  0.075647  0.425071  0.149556  1
  B  B18  1  0.824550  0.674941  0.650634  1
  B  B19  1  0.574929  0.924353  0.149556  1
  B  B20  1  0.100342  0.100308  0.500000  1
  B  B21  1  0.850716  0.348913  0.000000  1
  B  B22  1  0.599617  0.599596  0.500000  1
  B  B23  1  0.349077  0.850903  0.000000  1
  B  B24  1  0.325059  0.175450  0.349366  1
  B  B25  1  0.075647  0.425071  0.850444  1
  B  B26  1  0.824550  0.674941  0.349366  1
  B  B27  1  0.574929  0.924353  0.850444  1
