# generated using pymatgen
data_Yb2YSc(CuSe3)2
_symmetry_space_group_name_H-M   'P 1'
_cell_length_a   6.79020724
_cell_length_b   6.79020595
_cell_length_c   10.42277572
_cell_angle_alpha   92.72273101
_cell_angle_beta   87.27726949
_cell_angle_gamma   146.14929264
_symmetry_Int_Tables_number   1
_chemical_formula_structural   Yb2YSc(CuSe3)2
_chemical_formula_sum   'Yb2 Y1 Sc1 Cu2 Se6'
_cell_volume   267.35762141
_cell_formula_units_Z   1
loop_
 _symmetry_equiv_pos_site_id
 _symmetry_equiv_pos_as_xyz
  1  'x, y, z'
loop_
 _atom_site_type_symbol
 _atom_site_label
 _atom_site_symmetry_multiplicity
 _atom_site_fract_x
 _atom_site_fract_y
 _atom_site_fract_z
 _atom_site_occupancy
  Yb  Yb0  1  0.242154  0.757847  0.226302  1
  Yb  Yb1  1  0.757847  0.242154  0.773698  1
  Y  Y2  1  0.000000  0.000000  0.500000  1
  Sc  Sc3  1  0.000000  0.000000  0.000000  1
  Cu  Cu4  1  0.525602  0.474399  0.247937  1
  Cu  Cu5  1  0.474399  0.525602  0.752063  1
  Se  Se6  1  0.638600  0.361401  0.052770  1
  Se  Se7  1  0.911787  0.088214  0.246798  1
  Se  Se8  1  0.647221  0.352780  0.417472  1
  Se  Se9  1  0.352780  0.647221  0.582527  1
  Se  Se10  1  0.088214  0.911787  0.753202  1
  Se  Se11  1  0.361401  0.638600  0.947231  1
