# generated using pymatgen
data_PrNd6Th(Si3Pd)4
_symmetry_space_group_name_H-M   'P 1'
_cell_length_a   8.26718100
_cell_length_b   8.26718145
_cell_length_c   8.54782400
_cell_angle_alpha   90.00000000
_cell_angle_beta   90.00000000
_cell_angle_gamma   120.00000218
_symmetry_Int_Tables_number   1
_chemical_formula_structural   PrNd6Th(Si3Pd)4
_chemical_formula_sum   'Pr1 Nd6 Th1 Si12 Pd4'
_cell_volume   505.94243856
_cell_formula_units_Z   1
loop_
 _symmetry_equiv_pos_site_id
 _symmetry_equiv_pos_as_xyz
  1  'x, y, z'
loop_
 _atom_site_type_symbol
 _atom_site_label
 _atom_site_symmetry_multiplicity
 _atom_site_fract_x
 _atom_site_fract_y
 _atom_site_fract_z
 _atom_site_occupancy
  Pr  Pr0  1  0.000000  0.000000  0.250000  1
  Nd  Nd1  1  0.499585  0.500415  0.750000  1
  Nd  Nd2  1  0.500413  0.499587  0.250000  1
  Nd  Nd3  1  0.000829  0.500415  0.750000  1
  Nd  Nd4  1  0.999174  0.499587  0.250000  1
  Nd  Nd5  1  0.499585  0.999171  0.750000  1
  Nd  Nd6  1  0.500413  0.000826  0.250000  1
  Th  Th7  1  0.000000  0.000000  0.750000  1
  Si  Si8  1  0.834202  0.165798  0.998969  1
  Si  Si9  1  0.165812  0.834188  0.999494  1
  Si  Si10  1  0.331597  0.165798  0.998969  1
  Si  Si11  1  0.165812  0.834188  0.500506  1
  Si  Si12  1  0.668375  0.834188  0.999494  1
  Si  Si13  1  0.834202  0.165798  0.501031  1
  Si  Si14  1  0.834202  0.668403  0.998969  1
  Si  Si15  1  0.668375  0.834188  0.500506  1
  Si  Si16  1  0.165812  0.331625  0.999494  1
  Si  Si17  1  0.331597  0.165798  0.501031  1
  Si  Si18  1  0.165812  0.331625  0.500506  1
  Si  Si19  1  0.834202  0.668403  0.501031  1
  Pd  Pd20  1  0.666667  0.333333  0.998694  1
  Pd  Pd21  1  0.333333  0.666667  0.001280  1
  Pd  Pd22  1  0.333333  0.666667  0.498720  1
  Pd  Pd23  1  0.666667  0.333333  0.501306  1
