# generated using pymatgen
data_La4ThCo2
_symmetry_space_group_name_H-M   'P 1'
_cell_length_a   9.18854729
_cell_length_b   9.18854850
_cell_length_c   6.98586864
_cell_angle_alpha   83.72746909
_cell_angle_beta   83.72746131
_cell_angle_gamma   41.49402525
_symmetry_Int_Tables_number   1
_chemical_formula_structural   La4ThCo2
_chemical_formula_sum   'La8 Th2 Co4'
_cell_volume   388.09946016
_cell_formula_units_Z   2
loop_
 _symmetry_equiv_pos_site_id
 _symmetry_equiv_pos_as_xyz
  1  'x, y, z'
loop_
 _atom_site_type_symbol
 _atom_site_label
 _atom_site_symmetry_multiplicity
 _atom_site_fract_x
 _atom_site_fract_y
 _atom_site_fract_z
 _atom_site_occupancy
  La  La0  1  0.015332  0.800412  0.910238  1
  La  La1  1  0.199588  0.984668  0.589762  1
  La  La2  1  0.984668  0.199588  0.089762  1
  La  La3  1  0.800412  0.015332  0.410238  1
  La  La4  1  0.358768  0.220939  0.831713  1
  La  La5  1  0.779061  0.641232  0.668287  1
  La  La6  1  0.641232  0.779061  0.168287  1
  La  La7  1  0.220939  0.358768  0.331713  1
  Th  Th8  1  0.577423  0.422577  0.750000  1
  Th  Th9  1  0.422577  0.577423  0.250000  1
  Co  Co10  1  0.226683  0.580541  0.569847  1
  Co  Co11  1  0.419459  0.773317  0.930153  1
  Co  Co12  1  0.773317  0.419459  0.430153  1
  Co  Co13  1  0.580541  0.226683  0.069847  1
