# generated using pymatgen
data_Rb12Ga2SbAs5
_symmetry_space_group_name_H-M   'P 1'
_cell_length_a   6.09971500
_cell_length_b   10.41803891
_cell_length_c   12.05375722
_cell_angle_alpha   78.60877525
_cell_angle_beta   90.00000000
_cell_angle_gamma   90.00000000
_symmetry_Int_Tables_number   1
_chemical_formula_structural   Rb12Ga2SbAs5
_chemical_formula_sum   'Rb12 Ga2 Sb1 As5'
_cell_volume   750.89220812
_cell_formula_units_Z   1
loop_
 _symmetry_equiv_pos_site_id
 _symmetry_equiv_pos_as_xyz
  1  'x, y, z'
loop_
 _atom_site_type_symbol
 _atom_site_label
 _atom_site_symmetry_multiplicity
 _atom_site_fract_x
 _atom_site_fract_y
 _atom_site_fract_z
 _atom_site_occupancy
  Rb  Rb0  1  0.750000  0.463410  0.073295  1
  Rb  Rb1  1  0.250000  0.538153  0.921935  1
  Rb  Rb2  1  0.750000  0.741406  0.228765  1
  Rb  Rb3  1  0.250000  0.264881  0.770581  1
  Rb  Rb4  1  0.250000  0.564340  0.534995  1
  Rb  Rb5  1  0.750000  0.437402  0.469410  1
  Rb  Rb6  1  0.250000  0.857325  0.017031  1
  Rb  Rb7  1  0.750000  0.131696  0.969183  1
  Rb  Rb8  1  0.250000  0.874666  0.677556  1
  Rb  Rb9  1  0.750000  0.124972  0.325184  1
  Rb  Rb10  1  0.250000  0.914050  0.372025  1
  Rb  Rb11  1  0.750000  0.078112  0.632370  1
  Ga  Ga12  1  0.250000  0.334799  0.289556  1
  Ga  Ga13  1  0.750000  0.672953  0.719185  1
  Sb  Sb14  1  0.250000  0.185110  0.123315  1
  As  As15  1  0.750000  0.810412  0.869884  1
  As  As16  1  0.250000  0.215592  0.487014  1
  As  As17  1  0.750000  0.785390  0.517416  1
  As  As18  1  0.250000  0.571079  0.228911  1
  As  As19  1  0.750000  0.434250  0.772392  1
