# generated using pymatgen
data_Ac2TbMg3Tl2Au
_symmetry_space_group_name_H-M   'P 1'
_cell_length_a   7.92393026
_cell_length_b   7.92393073
_cell_length_c   4.69690100
_cell_angle_alpha   90.00000000
_cell_angle_beta   90.00000000
_cell_angle_gamma   119.56752272
_symmetry_Int_Tables_number   1
_chemical_formula_structural   Ac2TbMg3Tl2Au
_chemical_formula_sum   'Ac2 Tb1 Mg3 Tl2 Au1'
_cell_volume   256.50718151
_cell_formula_units_Z   1
loop_
 _symmetry_equiv_pos_site_id
 _symmetry_equiv_pos_as_xyz
  1  'x, y, z'
loop_
 _atom_site_type_symbol
 _atom_site_label
 _atom_site_symmetry_multiplicity
 _atom_site_fract_x
 _atom_site_fract_y
 _atom_site_fract_z
 _atom_site_occupancy
  Ac  Ac0  1  0.589783  0.998214  0.000000  1
  Ac  Ac1  1  0.998214  0.589783  0.000000  1
  Tb  Tb2  1  0.401930  0.401930  0.000000  1
  Mg  Mg3  1  0.230646  0.005625  0.500000  1
  Mg  Mg4  1  0.005625  0.230646  0.500000  1
  Mg  Mg5  1  0.768860  0.768860  0.500000  1
  Tl  Tl6  1  0.339900  0.649665  0.500000  1
  Tl  Tl7  1  0.649665  0.339900  0.500000  1
  Au  Au8  1  0.015378  0.015378  0.000000  1
