# generated using pymatgen
data_CeNb5Rh18
_symmetry_space_group_name_H-M   'P 1'
_cell_length_a   5.57651800
_cell_length_b   5.57651778
_cell_length_c   13.59535900
_cell_angle_alpha   90.00000000
_cell_angle_beta   90.00000000
_cell_angle_gamma   120.00000130
_symmetry_Int_Tables_number   1
_chemical_formula_structural   CeNb5Rh18
_chemical_formula_sum   'Ce1 Nb5 Rh18'
_cell_volume   366.14027702
_cell_formula_units_Z   1
loop_
 _symmetry_equiv_pos_site_id
 _symmetry_equiv_pos_as_xyz
  1  'x, y, z'
loop_
 _atom_site_type_symbol
 _atom_site_label
 _atom_site_symmetry_multiplicity
 _atom_site_fract_x
 _atom_site_fract_y
 _atom_site_fract_z
 _atom_site_occupancy
  Ce  Ce0  1  0.333333  0.666667  0.414389  1
  Nb  Nb1  1  0.000000  0.000000  0.250273  1
  Nb  Nb2  1  0.000000  0.000000  0.751010  1
  Nb  Nb3  1  0.666667  0.333333  0.589619  1
  Nb  Nb4  1  0.666667  0.333333  0.912051  1
  Nb  Nb5  1  0.333333  0.666667  0.087802  1
  Rh  Rh6  1  0.505894  0.494106  0.244474  1
  Rh  Rh7  1  0.505894  0.011788  0.244474  1
  Rh  Rh8  1  0.988212  0.494106  0.244474  1
  Rh  Rh9  1  0.496431  0.503569  0.751579  1
  Rh  Rh10  1  0.496431  0.992862  0.751579  1
  Rh  Rh11  1  0.007138  0.503569  0.751579  1
  Rh  Rh12  1  0.166191  0.332381  0.916626  1
  Rh  Rh13  1  0.667619  0.833809  0.916626  1
  Rh  Rh14  1  0.166191  0.833809  0.916626  1
  Rh  Rh15  1  0.835240  0.670481  0.080358  1
  Rh  Rh16  1  0.329519  0.164760  0.080358  1
  Rh  Rh17  1  0.835240  0.164760  0.080358  1
  Rh  Rh18  1  0.834013  0.668026  0.417128  1
  Rh  Rh19  1  0.331974  0.165987  0.417128  1
  Rh  Rh20  1  0.834013  0.165987  0.417128  1
  Rh  Rh21  1  0.163654  0.327306  0.588119  1
  Rh  Rh22  1  0.672694  0.836346  0.588119  1
  Rh  Rh23  1  0.163654  0.836346  0.588119  1
