# generated using pymatgen
data_Pr2ZnSiI
_symmetry_space_group_name_H-M   'P 1'
_cell_length_a   4.17790800
_cell_length_b   4.17790847
_cell_length_c   17.65251500
_cell_angle_alpha   90.00000000
_cell_angle_beta   90.00000000
_cell_angle_gamma   119.99999632
_symmetry_Int_Tables_number   1
_chemical_formula_structural   Pr2ZnSiI
_chemical_formula_sum   'Pr4 Zn2 Si2 I2'
_cell_volume   266.84251796
_cell_formula_units_Z   2
loop_
 _symmetry_equiv_pos_site_id
 _symmetry_equiv_pos_as_xyz
  1  'x, y, z'
loop_
 _atom_site_type_symbol
 _atom_site_label
 _atom_site_symmetry_multiplicity
 _atom_site_fract_x
 _atom_site_fract_y
 _atom_site_fract_z
 _atom_site_occupancy
  Pr  Pr0  1  0.000000  0.000000  0.614760  1
  Pr  Pr1  1  0.000000  0.000000  0.384362  1
  Pr  Pr2  1  0.000000  0.000000  0.114760  1
  Pr  Pr3  1  0.000000  0.000000  0.884362  1
  Zn  Zn4  1  0.666667  0.333333  0.505323  1
  Zn  Zn5  1  0.333333  0.666667  0.005323  1
  Si  Si6  1  0.666667  0.333333  0.995378  1
  Si  Si7  1  0.333333  0.666667  0.495378  1
  I  I8  1  0.666667  0.333333  0.250178  1
  I  I9  1  0.333333  0.666667  0.750178  1
