# generated using pymatgen
data_La5Yb5(Sn5Pd2)4
_symmetry_space_group_name_H-M   'P 1'
_cell_length_a   14.32719000
_cell_length_b   14.32719000
_cell_length_c   4.67114500
_cell_angle_alpha   90.00000000
_cell_angle_beta   90.00000000
_cell_angle_gamma   90.00000000
_symmetry_Int_Tables_number   1
_chemical_formula_structural   La5Yb5(Sn5Pd2)4
_chemical_formula_sum   'La5 Yb5 Sn20 Pd8'
_cell_volume   958.83833558
_cell_formula_units_Z   1
loop_
 _symmetry_equiv_pos_site_id
 _symmetry_equiv_pos_as_xyz
  1  'x, y, z'
loop_
 _atom_site_type_symbol
 _atom_site_label
 _atom_site_symmetry_multiplicity
 _atom_site_fract_x
 _atom_site_fract_y
 _atom_site_fract_z
 _atom_site_occupancy
  La  La0  1  0.000000  0.000000  0.000000  1
  La  La1  1  0.891309  0.391511  0.500000  1
  La  La2  1  0.108691  0.608489  0.500000  1
  La  La3  1  0.391511  0.108691  0.500000  1
  La  La4  1  0.608489  0.891309  0.500000  1
  Yb  Yb5  1  0.500000  0.500000  0.000000  1
  Yb  Yb6  1  0.678285  0.178475  0.500000  1
  Yb  Yb7  1  0.321715  0.821525  0.500000  1
  Yb  Yb8  1  0.178475  0.321715  0.500000  1
  Yb  Yb9  1  0.821525  0.678285  0.500000  1
  Sn  Sn10  1  0.569255  0.069466  0.000000  1
  Sn  Sn11  1  0.430745  0.930534  0.000000  1
  Sn  Sn12  1  0.069466  0.430745  0.000000  1
  Sn  Sn13  1  0.930534  0.569255  0.000000  1
  Sn  Sn14  1  0.653569  0.698550  0.000000  1
  Sn  Sn15  1  0.346431  0.301450  0.000000  1
  Sn  Sn16  1  0.153739  0.800433  0.000000  1
  Sn  Sn17  1  0.846261  0.199567  0.000000  1
  Sn  Sn18  1  0.301450  0.653569  0.000000  1
  Sn  Sn19  1  0.698550  0.346431  0.000000  1
  Sn  Sn20  1  0.199567  0.153739  0.000000  1
  Sn  Sn21  1  0.800433  0.846261  0.000000  1
  Sn  Sn22  1  0.659779  0.503019  0.500000  1
  Sn  Sn23  1  0.340221  0.496981  0.500000  1
  Sn  Sn24  1  0.163112  0.997576  0.500000  1
  Sn  Sn25  1  0.836888  0.002424  0.500000  1
  Sn  Sn26  1  0.496981  0.659779  0.500000  1
  Sn  Sn27  1  0.503019  0.340221  0.500000  1
  Sn  Sn28  1  0.002424  0.163112  0.500000  1
  Sn  Sn29  1  0.997576  0.836888  0.500000  1
  Pd  Pd30  1  0.746013  0.530289  0.000000  1
  Pd  Pd31  1  0.253987  0.469711  0.000000  1
  Pd  Pd32  1  0.246752  0.968869  0.000000  1
  Pd  Pd33  1  0.753248  0.031131  0.000000  1
  Pd  Pd34  1  0.469711  0.746013  0.000000  1
  Pd  Pd35  1  0.530289  0.253987  0.000000  1
  Pd  Pd36  1  0.031131  0.246752  0.000000  1
  Pd  Pd37  1  0.968869  0.753248  0.000000  1
