# generated using pymatgen
data_UCo4TcP3
_symmetry_space_group_name_H-M   'P 1'
_cell_length_a   3.71630000
_cell_length_b   10.36996700
_cell_length_c   11.82958600
_cell_angle_alpha   90.00000000
_cell_angle_beta   90.00000000
_cell_angle_gamma   90.00000000
_symmetry_Int_Tables_number   1
_chemical_formula_structural   UCo4TcP3
_chemical_formula_sum   'U4 Co16 Tc4 P12'
_cell_volume   455.88750123
_cell_formula_units_Z   4
loop_
 _symmetry_equiv_pos_site_id
 _symmetry_equiv_pos_as_xyz
  1  'x, y, z'
loop_
 _atom_site_type_symbol
 _atom_site_label
 _atom_site_symmetry_multiplicity
 _atom_site_fract_x
 _atom_site_fract_y
 _atom_site_fract_z
 _atom_site_occupancy
  U  U0  1  0.250000  0.913771  0.206321  1
  U  U1  1  0.750000  0.086229  0.793679  1
  U  U2  1  0.750000  0.413771  0.293679  1
  U  U3  1  0.250000  0.586229  0.706321  1
  Co  Co4  1  0.250000  0.091025  0.988632  1
  Co  Co5  1  0.750000  0.908975  0.011368  1
  Co  Co6  1  0.750000  0.591025  0.511368  1
  Co  Co7  1  0.250000  0.408975  0.488632  1
  Co  Co8  1  0.250000  0.282647  0.674183  1
  Co  Co9  1  0.750000  0.717353  0.325817  1
  Co  Co10  1  0.750000  0.782647  0.825817  1
  Co  Co11  1  0.250000  0.217353  0.174183  1
  Co  Co12  1  0.250000  0.612830  0.204110  1
  Co  Co13  1  0.750000  0.387170  0.795890  1
  Co  Co14  1  0.750000  0.112830  0.295890  1
  Co  Co15  1  0.250000  0.887170  0.704110  1
  Co  Co16  1  0.250000  0.035672  0.429785  1
  Co  Co17  1  0.750000  0.964328  0.570215  1
  Co  Co18  1  0.750000  0.535672  0.070215  1
  Co  Co19  1  0.250000  0.464328  0.929785  1
  Tc  Tc20  1  0.250000  0.786138  0.492228  1
  Tc  Tc21  1  0.750000  0.213862  0.507772  1
  Tc  Tc22  1  0.750000  0.286138  0.007772  1
  Tc  Tc23  1  0.250000  0.713862  0.992228  1
  P  P24  1  0.250000  0.081784  0.612132  1
  P  P25  1  0.750000  0.918216  0.387868  1
  P  P26  1  0.750000  0.581784  0.887868  1
  P  P27  1  0.250000  0.418216  0.112132  1
  P  P28  1  0.250000  0.229766  0.364389  1
  P  P29  1  0.750000  0.770234  0.635611  1
  P  P30  1  0.750000  0.729766  0.135611  1
  P  P31  1  0.250000  0.270234  0.864389  1
  P  P32  1  0.250000  0.902830  0.891759  1
  P  P33  1  0.750000  0.097170  0.108241  1
  P  P34  1  0.750000  0.402830  0.608241  1
  P  P35  1  0.250000  0.597170  0.391759  1
