# generated using pymatgen
data_Tb3DyCu2(Si2Ru)2
_symmetry_space_group_name_H-M   'P 1'
_cell_length_a   4.23714300
_cell_length_b   6.98476594
_cell_length_c   7.35591471
_cell_angle_alpha   91.58514140
_cell_angle_beta   90.00000000
_cell_angle_gamma   90.00000000
_symmetry_Int_Tables_number   1
_chemical_formula_structural   Tb3DyCu2(Si2Ru)2
_chemical_formula_sum   'Tb3 Dy1 Cu2 Si4 Ru2'
_cell_volume   217.61831177
_cell_formula_units_Z   1
loop_
 _symmetry_equiv_pos_site_id
 _symmetry_equiv_pos_as_xyz
  1  'x, y, z'
loop_
 _atom_site_type_symbol
 _atom_site_label
 _atom_site_symmetry_multiplicity
 _atom_site_fract_x
 _atom_site_fract_y
 _atom_site_fract_z
 _atom_site_occupancy
  Tb  Tb0  1  0.250000  0.991992  0.797048  1
  Tb  Tb1  1  0.750000  0.008168  0.203288  1
  Tb  Tb2  1  0.250000  0.492006  0.686641  1
  Dy  Dy3  1  0.750000  0.508421  0.312287  1
  Cu  Cu4  1  0.750000  0.833241  0.573233  1
  Cu  Cu5  1  0.250000  0.166057  0.426031  1
  Si  Si6  1  0.250000  0.300578  0.089003  1
  Si  Si7  1  0.750000  0.699551  0.911696  1
  Si  Si8  1  0.250000  0.796761  0.388479  1
  Si  Si9  1  0.750000  0.203176  0.611368  1
  Ru  Ru10  1  0.750000  0.348157  0.934113  1
  Ru  Ru11  1  0.250000  0.651891  0.066815  1
