# generated using pymatgen
data_Lu5Tl2SnSe
_symmetry_space_group_name_H-M   'P 1'
_cell_length_a   8.94835600
_cell_length_b   8.94835635
_cell_length_c   6.65617800
_cell_angle_alpha   90.00000000
_cell_angle_beta   90.00000000
_cell_angle_gamma   120.23812586
_symmetry_Int_Tables_number   1
_chemical_formula_structural   Lu5Tl2SnSe
_chemical_formula_sum   'Lu10 Tl4 Sn2 Se2'
_cell_volume   460.46325423
_cell_formula_units_Z   2
loop_
 _symmetry_equiv_pos_site_id
 _symmetry_equiv_pos_as_xyz
  1  'x, y, z'
loop_
 _atom_site_type_symbol
 _atom_site_label
 _atom_site_symmetry_multiplicity
 _atom_site_fract_x
 _atom_site_fract_y
 _atom_site_fract_z
 _atom_site_occupancy
  Lu  Lu0  1  0.668131  0.331892  0.997310  1
  Lu  Lu1  1  0.331892  0.668131  0.997310  1
  Lu  Lu2  1  0.331892  0.668131  0.502690  1
  Lu  Lu3  1  0.668131  0.331892  0.502690  1
  Lu  Lu4  1  0.749351  0.749351  0.750000  1
  Lu  Lu5  1  0.254050  0.999207  0.750000  1
  Lu  Lu6  1  0.999207  0.254050  0.750000  1
  Lu  Lu7  1  0.248892  0.248892  0.250000  1
  Lu  Lu8  1  0.746078  0.998888  0.250000  1
  Lu  Lu9  1  0.998888  0.746078  0.250000  1
  Tl  Tl10  1  0.402761  0.402761  0.750000  1
  Tl  Tl11  1  0.602654  0.001057  0.750000  1
  Tl  Tl12  1  0.001057  0.602654  0.750000  1
  Tl  Tl13  1  0.598036  0.598036  0.250000  1
  Sn  Sn14  1  0.397986  0.000832  0.250000  1
  Sn  Sn15  1  0.000832  0.397986  0.250000  1
  Se  Se16  1  0.000080  0.000080  0.000797  1
  Se  Se17  1  0.000080  0.000080  0.499203  1
