# generated using pymatgen
data_TmLuNi2B6Ir
_symmetry_space_group_name_H-M   'P 1'
_cell_length_a   5.84183990
_cell_length_b   5.84184035
_cell_length_c   3.45790400
_cell_angle_alpha   90.00000000
_cell_angle_beta   90.00000000
_cell_angle_gamma   94.54124658
_symmetry_Int_Tables_number   1
_chemical_formula_structural   TmLuNi2B6Ir
_chemical_formula_sum   'Tm1 Lu1 Ni2 B6 Ir1'
_cell_volume   117.63774617
_cell_formula_units_Z   1
loop_
 _symmetry_equiv_pos_site_id
 _symmetry_equiv_pos_as_xyz
  1  'x, y, z'
loop_
 _atom_site_type_symbol
 _atom_site_label
 _atom_site_symmetry_multiplicity
 _atom_site_fract_x
 _atom_site_fract_y
 _atom_site_fract_z
 _atom_site_occupancy
  Tm  Tm0  1  0.273512  0.726488  0.000000  1
  Lu  Lu1  1  0.725737  0.274263  0.000000  1
  Ni  Ni2  1  0.762469  0.760465  0.000000  1
  Ni  Ni3  1  0.239535  0.237531  0.000000  1
  B  B4  1  0.608829  0.608296  0.500000  1
  B  B5  1  0.391704  0.391171  0.500000  1
  B  B6  1  0.612702  0.912879  0.500000  1
  B  B7  1  0.387900  0.087507  0.500000  1
  B  B8  1  0.912493  0.612100  0.500000  1
  B  B9  1  0.087121  0.387298  0.500000  1
  Ir  Ir10  1  0.997998  0.002002  0.500000  1
