# generated using pymatgen
data_Cd9Bi7O24
_symmetry_space_group_name_H-M   'P 1'
_cell_length_a   9.21836407
_cell_length_b   9.21836404
_cell_length_c   9.21836400
_cell_angle_alpha   109.47122055
_cell_angle_beta   109.47122048
_cell_angle_gamma   109.47121775
_symmetry_Int_Tables_number   1
_chemical_formula_structural   Cd9Bi7O24
_chemical_formula_sum   'Cd9 Bi7 O24'
_cell_volume   603.03107075
_cell_formula_units_Z   1
loop_
 _symmetry_equiv_pos_site_id
 _symmetry_equiv_pos_as_xyz
  1  'x, y, z'
loop_
 _atom_site_type_symbol
 _atom_site_label
 _atom_site_symmetry_multiplicity
 _atom_site_fract_x
 _atom_site_fract_y
 _atom_site_fract_z
 _atom_site_occupancy
  Cd  Cd0  1  0.782423  0.244073  0.034105  1
  Cd  Cd1  1  0.717577  0.751682  0.461650  1
  Cd  Cd2  1  0.250000  0.031552  0.781552  1
  Cd  Cd3  1  0.750000  0.469452  0.719452  1
  Cd  Cd4  1  0.033320  0.789730  0.250874  1
  Cd  Cd5  1  0.466680  0.717554  0.756410  1
  Cd  Cd6  1  0.216401  0.751086  0.966076  1
  Cd  Cd7  1  0.283599  0.249675  0.534685  1
  Cd  Cd8  1  0.750000  0.963754  0.213754  1
  Bi  Bi9  1  0.496016  0.001314  0.502866  1
  Bi  Bi10  1  0.507663  0.506971  0.997156  1
  Bi  Bi11  1  0.003984  0.506850  0.505298  1
  Bi  Bi12  1  0.992337  0.989493  0.999308  1
  Bi  Bi13  1  0.250000  0.539587  0.289587  1
  Bi  Bi14  1  0.962459  0.210065  0.746893  1
  Bi  Bi15  1  0.537541  0.284434  0.247606  1
  O  O16  1  0.045316  0.051212  0.262747  1
  O  O17  1  0.214734  0.454196  0.492507  1
  O  O18  1  0.454684  0.717432  0.005896  1
  O  O19  1  0.285266  0.777772  0.239462  1
  O  O20  1  0.042457  0.256838  0.031279  1
  O  O21  1  0.457543  0.488822  0.214381  1
  O  O22  1  0.724628  0.010640  0.463899  1
  O  O23  1  0.775372  0.239273  0.286013  1
  O  O24  1  0.260039  0.046546  0.044994  1
  O  O25  1  0.501727  0.216207  0.452787  1
  O  O26  1  0.998273  0.451060  0.714481  1
  O  O27  1  0.239961  0.284954  0.786506  1
  O  O28  1  0.951639  0.954888  0.736253  1
  O  O29  1  0.777459  0.541501  0.494925  1
  O  O30  1  0.548361  0.284612  0.003249  1
  O  O31  1  0.722541  0.217467  0.764042  1
  O  O32  1  0.957267  0.735643  0.956359  1
  O  O33  1  0.542733  0.499092  0.778375  1
  O  O34  1  0.281876  0.000157  0.544374  1
  O  O35  1  0.218124  0.762497  0.718280  1
  O  O36  1  0.737543  0.957304  0.953541  1
  O  O37  1  0.499180  0.783016  0.544782  1
  O  O38  1  0.000820  0.545601  0.283834  1
  O  O39  1  0.762457  0.715998  0.219762  1
