# generated using pymatgen
data_Lu2Fe10P7Os2
_symmetry_space_group_name_H-M   'P 1'
_cell_length_a   8.93725125
_cell_length_b   8.91108110
_cell_length_c   3.67936700
_cell_angle_alpha   90.00000000
_cell_angle_beta   90.00000000
_cell_angle_gamma   119.82744145
_symmetry_Int_Tables_number   1
_chemical_formula_structural   Lu2Fe10P7Os2
_chemical_formula_sum   'Lu2 Fe10 P7 Os2'
_cell_volume   254.20883383
_cell_formula_units_Z   1
loop_
 _symmetry_equiv_pos_site_id
 _symmetry_equiv_pos_as_xyz
  1  'x, y, z'
loop_
 _atom_site_type_symbol
 _atom_site_label
 _atom_site_symmetry_multiplicity
 _atom_site_fract_x
 _atom_site_fract_y
 _atom_site_fract_z
 _atom_site_occupancy
  Lu  Lu0  1  0.666666  0.334631  0.000000  1
  Lu  Lu1  1  0.001005  0.000791  0.500000  1
  Fe  Fe2  1  0.758511  0.724018  0.000000  1
  Fe  Fe3  1  0.274780  0.035533  0.000000  1
  Fe  Fe4  1  0.963724  0.238541  0.000000  1
  Fe  Fe5  1  0.491987  0.941583  0.000000  1
  Fe  Fe6  1  0.058352  0.548307  0.000000  1
  Fe  Fe7  1  0.454350  0.512117  0.000000  1
  Fe  Fe8  1  0.718244  0.099905  0.500000  1
  Fe  Fe9  1  0.895873  0.615779  0.500000  1
  Fe  Fe10  1  0.385758  0.282218  0.500000  1
  Fe  Fe11  1  0.546983  0.760807  0.500000  1
  P  P12  1  0.453929  0.076380  0.500000  1
  P  P13  1  0.921431  0.373956  0.500000  1
  P  P14  1  0.623388  0.552591  0.500000  1
  P  P15  1  0.748229  0.967139  0.000000  1
  P  P16  1  0.029092  0.779899  0.000000  1
  P  P17  1  0.220942  0.250941  0.000000  1
  P  P18  1  0.337095  0.668771  0.000000  1
  Os  Os19  1  0.236684  0.786225  0.500000  1
  Os  Os20  1  0.212978  0.449871  0.500000  1
