# generated using pymatgen
data_Tb20CoIr3Pt8
_symmetry_space_group_name_H-M   'P 1'
_cell_length_a   11.08371200
_cell_length_b   11.08371200
_cell_length_c   6.35882900
_cell_angle_alpha   90.00000000
_cell_angle_beta   90.00000000
_cell_angle_gamma   90.00000000
_symmetry_Int_Tables_number   1
_chemical_formula_structural   Tb20CoIr3Pt8
_chemical_formula_sum   'Tb20 Co1 Ir3 Pt8'
_cell_volume   781.17369621
_cell_formula_units_Z   1
loop_
 _symmetry_equiv_pos_site_id
 _symmetry_equiv_pos_as_xyz
  1  'x, y, z'
loop_
 _atom_site_type_symbol
 _atom_site_label
 _atom_site_symmetry_multiplicity
 _atom_site_fract_x
 _atom_site_fract_y
 _atom_site_fract_z
 _atom_site_occupancy
  Tb  Tb0  1  0.296444  0.086960  0.371261  1
  Tb  Tb1  1  0.297157  0.912805  0.876068  1
  Tb  Tb2  1  0.702843  0.087195  0.876068  1
  Tb  Tb3  1  0.703556  0.913040  0.371261  1
  Tb  Tb4  1  0.587195  0.797157  0.876068  1
  Tb  Tb5  1  0.586960  0.203556  0.371261  1
  Tb  Tb6  1  0.413040  0.796444  0.371261  1
  Tb  Tb7  1  0.412805  0.202843  0.876068  1
  Tb  Tb8  1  0.205428  0.411262  0.627062  1
  Tb  Tb9  1  0.205540  0.588432  0.126827  1
  Tb  Tb10  1  0.794460  0.411568  0.126827  1
  Tb  Tb11  1  0.794572  0.588738  0.627062  1
  Tb  Tb12  1  0.911568  0.705540  0.126827  1
  Tb  Tb13  1  0.911262  0.294572  0.627062  1
  Tb  Tb14  1  0.088738  0.705428  0.627062  1
  Tb  Tb15  1  0.088432  0.294460  0.126827  1
  Tb  Tb16  1  0.000000  0.000000  0.499517  1
  Tb  Tb17  1  0.000000  0.000000  0.999294  1
  Tb  Tb18  1  0.500000  0.500000  0.999294  1
  Tb  Tb19  1  0.500000  0.500000  0.499517  1
  Co  Co20  1  0.500000  0.000000  0.118441  1
  Ir  Ir21  1  0.500000  0.000000  0.618027  1
  Ir  Ir22  1  0.000000  0.500000  0.882072  1
  Ir  Ir23  1  0.000000  0.500000  0.382190  1
  Pt  Pt24  1  0.845783  0.153205  0.249565  1
  Pt  Pt25  1  0.845775  0.846733  0.749629  1
  Pt  Pt26  1  0.154225  0.153267  0.749629  1
  Pt  Pt27  1  0.154217  0.846795  0.249565  1
  Pt  Pt28  1  0.653267  0.345775  0.749629  1
  Pt  Pt29  1  0.653205  0.654217  0.249565  1
  Pt  Pt30  1  0.346795  0.345783  0.249565  1
  Pt  Pt31  1  0.346733  0.654225  0.749629  1
