# generated using pymatgen
data_RbAlPt3O8
_symmetry_space_group_name_H-M   'P 1'
_cell_length_a   3.13206824
_cell_length_b   7.41339040
_cell_length_c   7.32621841
_cell_angle_alpha   87.55817630
_cell_angle_beta   102.35212038
_cell_angle_gamma   102.18384320
_symmetry_Int_Tables_number   1
_chemical_formula_structural   RbAlPt3O8
_chemical_formula_sum   'Rb1 Al1 Pt3 O8'
_cell_volume   162.42794963
_cell_formula_units_Z   1
loop_
 _symmetry_equiv_pos_site_id
 _symmetry_equiv_pos_as_xyz
  1  'x, y, z'
loop_
 _atom_site_type_symbol
 _atom_site_label
 _atom_site_symmetry_multiplicity
 _atom_site_fract_x
 _atom_site_fract_y
 _atom_site_fract_z
 _atom_site_occupancy
  Rb  Rb0  1  0.044109  0.010566  0.006893  1
  Al  Al1  1  0.164402  0.484752  0.810863  1
  Pt  Pt2  1  0.862516  0.515480  0.175241  1
  Pt  Pt3  1  0.686931  0.813220  0.526919  1
  Pt  Pt4  1  0.354699  0.185601  0.489578  1
  O  O5  1  0.339233  0.367654  0.276440  1
  O  O6  1  0.675895  0.606418  0.712612  1
  O  O7  1  0.979739  0.297024  0.628459  1
  O  O8  1  0.063997  0.717909  0.376654  1
  O  O9  1  0.355903  0.639206  0.038373  1
  O  O10  1  0.668253  0.360419  0.940442  1
  O  O11  1  0.722537  0.050784  0.359460  1
  O  O12  1  0.321786  0.950967  0.658065  1
