# generated using pymatgen
data_K2U3OF12
_symmetry_space_group_name_H-M   'P 1'
_cell_length_a   11.08506121
_cell_length_b   11.08506155
_cell_length_c   11.08506187
_cell_angle_alpha   44.20795204
_cell_angle_beta   44.20794665
_cell_angle_gamma   44.20795206
_symmetry_Int_Tables_number   1
_chemical_formula_structural   K2U3OF12
_chemical_formula_sum   'K4 U6 O2 F24'
_cell_volume   601.74624201
_cell_formula_units_Z   2
loop_
 _symmetry_equiv_pos_site_id
 _symmetry_equiv_pos_as_xyz
  1  'x, y, z'
loop_
 _atom_site_type_symbol
 _atom_site_label
 _atom_site_symmetry_multiplicity
 _atom_site_fract_x
 _atom_site_fract_y
 _atom_site_fract_z
 _atom_site_occupancy
  K  K0  1  0.000000  0.000000  0.000000  1
  K  K1  1  0.500000  0.500000  0.500000  1
  K  K2  1  0.135536  0.135536  0.135536  1
  K  K3  1  0.864464  0.864464  0.864464  1
  U  U4  1  0.581450  0.581450  0.036742  1
  U  U5  1  0.036742  0.581450  0.581450  1
  U  U6  1  0.581450  0.036742  0.581450  1
  U  U7  1  0.418550  0.963258  0.418550  1
  U  U8  1  0.963258  0.418550  0.418550  1
  U  U9  1  0.418550  0.418550  0.963258  1
  O  O10  1  0.720829  0.720829  0.720829  1
  O  O11  1  0.279171  0.279171  0.279171  1
  F  F12  1  0.693787  0.693787  0.366442  1
  F  F13  1  0.366442  0.693787  0.693787  1
  F  F14  1  0.693787  0.366442  0.693787  1
  F  F15  1  0.306213  0.633558  0.306213  1
  F  F16  1  0.306213  0.306213  0.633558  1
  F  F17  1  0.633558  0.306213  0.306213  1
  F  F18  1  0.920038  0.920038  0.400112  1
  F  F19  1  0.400112  0.920038  0.920038  1
  F  F20  1  0.647611  0.352389  0.000000  1
  F  F21  1  0.352389  0.000000  0.647611  1
  F  F22  1  0.000000  0.647611  0.352389  1
  F  F23  1  0.352389  0.647611  0.000000  1
  F  F24  1  0.647611  0.000000  0.352389  1
  F  F25  1  0.000000  0.352389  0.647611  1
  F  F26  1  0.915446  0.335773  0.335773  1
  F  F27  1  0.335773  0.335773  0.915446  1
  F  F28  1  0.335773  0.915446  0.335773  1
  F  F29  1  0.664227  0.084554  0.664227  1
  F  F30  1  0.084554  0.664227  0.664227  1
  F  F31  1  0.664227  0.664227  0.084554  1
  F  F32  1  0.599888  0.079962  0.079962  1
  F  F33  1  0.079962  0.079962  0.599888  1
  F  F34  1  0.079962  0.599888  0.079962  1
  F  F35  1  0.920038  0.400112  0.920038  1
