# generated using pymatgen
data_Yb2Zn2CuP3
_symmetry_space_group_name_H-M   'P 1'
_cell_length_a   4.02693300
_cell_length_b   4.02693388
_cell_length_c   21.12517200
_cell_angle_alpha   90.00000000
_cell_angle_beta   90.00000000
_cell_angle_gamma   120.00000102
_symmetry_Int_Tables_number   1
_chemical_formula_structural   Yb2Zn2CuP3
_chemical_formula_sum   'Yb4 Zn4 Cu2 P6'
_cell_volume   296.67420216
_cell_formula_units_Z   2
loop_
 _symmetry_equiv_pos_site_id
 _symmetry_equiv_pos_as_xyz
  1  'x, y, z'
loop_
 _atom_site_type_symbol
 _atom_site_label
 _atom_site_symmetry_multiplicity
 _atom_site_fract_x
 _atom_site_fract_y
 _atom_site_fract_z
 _atom_site_occupancy
  Yb  Yb0  1  0.000000  0.000000  0.659596  1
  Yb  Yb1  1  0.000000  0.000000  0.340404  1
  Yb  Yb2  1  0.000000  0.000000  0.159596  1
  Yb  Yb3  1  0.000000  0.000000  0.840404  1
  Zn  Zn4  1  0.333333  0.666667  0.956848  1
  Zn  Zn5  1  0.666667  0.333333  0.456848  1
  Zn  Zn6  1  0.666667  0.333333  0.043152  1
  Zn  Zn7  1  0.333333  0.666667  0.543152  1
  Cu  Cu8  1  0.666667  0.333333  0.750000  1
  Cu  Cu9  1  0.333333  0.666667  0.250000  1
  P  P10  1  0.666667  0.333333  0.576964  1
  P  P11  1  0.333333  0.666667  0.423036  1
  P  P12  1  0.333333  0.666667  0.750000  1
  P  P13  1  0.666667  0.333333  0.923036  1
  P  P14  1  0.333333  0.666667  0.076964  1
  P  P15  1  0.666667  0.333333  0.250000  1
