# generated using pymatgen
data_Tm4Lu16BiSb11
_symmetry_space_group_name_H-M   'P 1'
_cell_length_a   7.97844267
_cell_length_b   9.19177479
_cell_length_c   11.62816008
_cell_angle_alpha   90.04308657
_cell_angle_beta   89.92847936
_cell_angle_gamma   89.98051510
_symmetry_Int_Tables_number   1
_chemical_formula_structural   Tm4Lu16BiSb11
_chemical_formula_sum   'Tm4 Lu16 Bi1 Sb11'
_cell_volume   852.76235284
_cell_formula_units_Z   1
loop_
 _symmetry_equiv_pos_site_id
 _symmetry_equiv_pos_as_xyz
  1  'x, y, z'
loop_
 _atom_site_type_symbol
 _atom_site_label
 _atom_site_symmetry_multiplicity
 _atom_site_fract_x
 _atom_site_fract_y
 _atom_site_fract_z
 _atom_site_occupancy
  Tm  Tm0  1  0.184686  0.247350  0.781051  1
  Tm  Tm1  1  0.812886  0.749946  0.218543  1
  Tm  Tm2  1  0.313070  0.750012  0.281519  1
  Tm  Tm3  1  0.688469  0.248351  0.717844  1
  Lu  Lu4  1  0.026992  0.249947  0.510424  1
  Lu  Lu5  1  0.972615  0.750130  0.489384  1
  Lu  Lu6  1  0.473539  0.751953  0.012102  1
  Lu  Lu7  1  0.527839  0.247963  0.990755  1
  Lu  Lu8  1  0.355333  0.250021  0.283947  1
  Lu  Lu9  1  0.647207  0.752410  0.715195  1
  Lu  Lu10  1  0.142549  0.751841  0.783566  1
  Lu  Lu11  1  0.855160  0.249988  0.216098  1
  Lu  Lu12  1  0.192864  0.063336  0.060563  1
  Lu  Lu13  1  0.807206  0.936540  0.939660  1
  Lu  Lu14  1  0.306839  0.936604  0.560448  1
  Lu  Lu15  1  0.808972  0.564137  0.940222  1
  Lu  Lu16  1  0.693276  0.063456  0.439429  1
  Lu  Lu17  1  0.191927  0.436048  0.061962  1
  Lu  Lu18  1  0.693106  0.436425  0.439533  1
  Lu  Lu19  1  0.305766  0.563934  0.558406  1
  Bi  Bi20  1  0.432980  0.503944  0.825538  1
  Sb  Sb21  1  0.407473  0.250045  0.541401  1
  Sb  Sb22  1  0.592449  0.750015  0.458543  1
  Sb  Sb23  1  0.092943  0.749992  0.041292  1
  Sb  Sb24  1  0.907330  0.250016  0.958754  1
  Sb  Sb25  1  0.066384  0.004310  0.326571  1
  Sb  Sb26  1  0.933656  0.995689  0.673295  1
  Sb  Sb27  1  0.433555  0.995592  0.826576  1
  Sb  Sb28  1  0.933691  0.504347  0.673558  1
  Sb  Sb29  1  0.566548  0.004327  0.173844  1
  Sb  Sb30  1  0.066318  0.495636  0.326619  1
  Sb  Sb31  1  0.566370  0.495694  0.173359  1
