# generated using pymatgen
data_NaZrScS4
_symmetry_space_group_name_H-M   'P 1'
_cell_length_a   6.42296100
_cell_length_b   7.41228200
_cell_length_c   14.07006400
_cell_angle_alpha   90.00000000
_cell_angle_beta   90.00000000
_cell_angle_gamma   90.00000000
_symmetry_Int_Tables_number   1
_chemical_formula_structural   NaZrScS4
_chemical_formula_sum   'Na4 Zr4 Sc4 S16'
_cell_volume   669.85883774
_cell_formula_units_Z   4
loop_
 _symmetry_equiv_pos_site_id
 _symmetry_equiv_pos_as_xyz
  1  'x, y, z'
loop_
 _atom_site_type_symbol
 _atom_site_label
 _atom_site_symmetry_multiplicity
 _atom_site_fract_x
 _atom_site_fract_y
 _atom_site_fract_z
 _atom_site_occupancy
  Na  Na0  1  0.338657  0.000000  0.000000  1
  Na  Na1  1  0.661343  0.500000  0.500000  1
  Na  Na2  1  0.010077  0.000000  0.500000  1
  Na  Na3  1  0.989923  0.500000  0.000000  1
  Zr  Zr4  1  0.500000  0.250000  0.250000  1
  Zr  Zr5  1  0.500000  0.750000  0.750000  1
  Zr  Zr6  1  0.500000  0.750000  0.250000  1
  Zr  Zr7  1  0.500000  0.250000  0.750000  1
  Sc  Sc8  1  0.000901  0.000000  0.245108  1
  Sc  Sc9  1  0.000901  0.000000  0.754892  1
  Sc  Sc10  1  0.999099  0.500000  0.254892  1
  Sc  Sc11  1  0.999099  0.500000  0.745108  1
  S  S12  1  0.831774  0.246519  0.353329  1
  S  S13  1  0.831774  0.753481  0.646671  1
  S  S14  1  0.168226  0.746519  0.146671  1
  S  S15  1  0.168226  0.253481  0.853329  1
  S  S16  1  0.168226  0.253481  0.146671  1
  S  S17  1  0.168226  0.746519  0.853329  1
  S  S18  1  0.831774  0.753481  0.353329  1
  S  S19  1  0.831774  0.246519  0.646671  1
  S  S20  1  0.663408  0.000000  0.145729  1
  S  S21  1  0.663408  0.000000  0.854271  1
  S  S22  1  0.336592  0.500000  0.354271  1
  S  S23  1  0.336592  0.500000  0.645729  1
  S  S24  1  0.331635  0.000000  0.351828  1
  S  S25  1  0.331635  0.000000  0.648172  1
  S  S26  1  0.668365  0.500000  0.148172  1
  S  S27  1  0.668365  0.500000  0.851828  1
