# generated using pymatgen
data_Tm6Th2MgCdIr2
_symmetry_space_group_name_H-M   'P 1'
_cell_length_a   9.67971491
_cell_length_b   9.67967055
_cell_length_c   9.69035900
_cell_angle_alpha   59.96349448
_cell_angle_beta   59.96348928
_cell_angle_gamma   59.82947905
_symmetry_Int_Tables_number   1
_chemical_formula_structural   Tm6Th2MgCdIr2
_chemical_formula_sum   'Tm12 Th4 Mg2 Cd2 Ir4'
_cell_volume   640.83459341
_cell_formula_units_Z   2
loop_
 _symmetry_equiv_pos_site_id
 _symmetry_equiv_pos_as_xyz
  1  'x, y, z'
loop_
 _atom_site_type_symbol
 _atom_site_label
 _atom_site_symmetry_multiplicity
 _atom_site_fract_x
 _atom_site_fract_y
 _atom_site_fract_z
 _atom_site_occupancy
  Tm  Tm0  1  0.063061  0.437232  0.436340  1
  Tm  Tm1  1  0.437233  0.063061  0.063366  1
  Tm  Tm2  1  0.437232  0.063062  0.436342  1
  Tm  Tm3  1  0.063060  0.437235  0.063366  1
  Tm  Tm4  1  0.438064  0.438062  0.061936  1
  Tm  Tm5  1  0.064015  0.064013  0.435987  1
  Tm  Tm6  1  0.187209  0.816007  0.815159  1
  Tm  Tm7  1  0.816007  0.187207  0.181623  1
  Tm  Tm8  1  0.816005  0.187206  0.815166  1
  Tm  Tm9  1  0.187207  0.816008  0.181622  1
  Tm  Tm10  1  0.816694  0.816697  0.183303  1
  Tm  Tm11  1  0.185345  0.185346  0.814654  1
  Th  Th12  1  0.600269  0.600271  0.598821  1
  Th  Th13  1  0.600272  0.600270  0.200637  1
  Th  Th14  1  0.600903  0.199265  0.599916  1
  Th  Th15  1  0.199268  0.600906  0.599911  1
  Mg  Mg16  1  0.828599  0.828595  0.832753  1
  Mg  Mg17  1  0.828591  0.828585  0.510067  1
  Cd  Cd18  1  0.832827  0.499174  0.833999  1
  Cd  Cd19  1  0.499172  0.832826  0.834000  1
  Ir  Ir20  1  0.392318  0.392320  0.393496  1
  Ir  Ir21  1  0.392318  0.392319  0.821866  1
  Ir  Ir22  1  0.391530  0.822802  0.392834  1
  Ir  Ir23  1  0.822800  0.391530  0.392833  1
