# generated using pymatgen
data_Mg4ZnGe3Pt4
_symmetry_space_group_name_H-M   'P 1'
_cell_length_a   6.53411713
_cell_length_b   4.03079700
_cell_length_c   7.94920898
_cell_angle_alpha   90.00000000
_cell_angle_beta   91.12806967
_cell_angle_gamma   90.00000000
_symmetry_Int_Tables_number   1
_chemical_formula_structural   Mg4ZnGe3Pt4
_chemical_formula_sum   'Mg4 Zn1 Ge3 Pt4'
_cell_volume   209.32330162
_cell_formula_units_Z   1
loop_
 _symmetry_equiv_pos_site_id
 _symmetry_equiv_pos_as_xyz
  1  'x, y, z'
loop_
 _atom_site_type_symbol
 _atom_site_label
 _atom_site_symmetry_multiplicity
 _atom_site_fract_x
 _atom_site_fract_y
 _atom_site_fract_z
 _atom_site_occupancy
  Mg  Mg0  1  0.962354  0.750001  0.163507  1
  Mg  Mg1  1  0.473000  0.750001  0.323732  1
  Mg  Mg2  1  0.527951  0.250001  0.671380  1
  Mg  Mg3  1  0.029060  0.250001  0.836209  1
  Zn  Zn4  1  0.655274  0.250001  0.059587  1
  Ge  Ge5  1  0.164785  0.250001  0.440294  1
  Ge  Ge6  1  0.845124  0.750001  0.559259  1
  Ge  Ge7  1  0.349996  0.750001  0.944908  1
  Pt  Pt8  1  0.264381  0.250001  0.136588  1
  Pt  Pt9  1  0.776520  0.250001  0.373190  1
  Pt  Pt10  1  0.228349  0.750001  0.636176  1
  Pt  Pt11  1  0.723204  0.750001  0.855173  1
