# generated using pymatgen
data_Er12Th8Si15Bi
_symmetry_space_group_name_H-M   'P 1'
_cell_length_a   7.51897937
_cell_length_b   7.70810398
_cell_length_c   14.60735800
_cell_angle_alpha   89.91196130
_cell_angle_beta   89.04183530
_cell_angle_gamma   90.06927442
_symmetry_Int_Tables_number   1
_chemical_formula_structural   Er12Th8Si15Bi
_chemical_formula_sum   'Er12 Th8 Si15 Bi1'
_cell_volume   846.47971624
_cell_formula_units_Z   1
loop_
 _symmetry_equiv_pos_site_id
 _symmetry_equiv_pos_as_xyz
  1  'x, y, z'
loop_
 _atom_site_type_symbol
 _atom_site_label
 _atom_site_symmetry_multiplicity
 _atom_site_fract_x
 _atom_site_fract_y
 _atom_site_fract_z
 _atom_site_occupancy
  Er  Er0  1  0.174065  0.508428  0.756389  1
  Er  Er1  1  0.824731  0.491958  0.248609  1
  Er  Er2  1  0.324404  0.008385  0.248545  1
  Er  Er3  1  0.678904  0.991042  0.754204  1
  Er  Er4  1  0.362007  0.154159  0.626758  1
  Er  Er5  1  0.644604  0.827897  0.376484  1
  Er  Er6  1  0.141426  0.680246  0.370284  1
  Er  Er7  1  0.655687  0.822813  0.122123  1
  Er  Er8  1  0.838100  0.329534  0.625145  1
  Er  Er9  1  0.342896  0.176312  0.877727  1
  Er  Er10  1  0.842396  0.325051  0.877639  1
  Er  Er11  1  0.157449  0.674835  0.122591  1
  Th  Th12  1  0.004077  0.179693  0.095265  1
  Th  Th13  1  0.996202  0.821878  0.905346  1
  Th  Th14  1  0.496536  0.679338  0.905166  1
  Th  Th15  1  0.002962  0.829480  0.599159  1
  Th  Th16  1  0.503667  0.321024  0.096324  1
  Th  Th17  1  0.990853  0.173571  0.399090  1
  Th  Th18  1  0.506047  0.312942  0.397587  1
  Th  Th19  1  0.519091  0.690576  0.601308  1
  Si  Si20  1  0.052496  0.113714  0.750120  1
  Si  Si21  1  0.945959  0.891718  0.246793  1
  Si  Si22  1  0.447684  0.608201  0.249513  1
  Si  Si23  1  0.547741  0.392758  0.751127  1
  Si  Si24  1  0.296177  0.870250  0.753394  1
  Si  Si25  1  0.704974  0.124031  0.246128  1
  Si  Si26  1  0.204606  0.373246  0.248511  1
  Si  Si27  1  0.799517  0.628583  0.752739  1
  Si  Si28  1  0.801821  0.536872  0.457608  1
  Si  Si29  1  0.305351  0.964076  0.458038  1
  Si  Si30  1  0.825191  0.533463  0.040508  1
  Si  Si31  1  0.695689  0.038339  0.539766  1
  Si  Si32  1  0.174142  0.466212  0.960115  1
  Si  Si33  1  0.673545  0.033988  0.960149  1
  Si  Si34  1  0.325602  0.966550  0.040623  1
  Bi  Bi35  1  0.193396  0.458840  0.539124  1
