# generated using pymatgen
data_YHo9(Pb3Cl)2
_symmetry_space_group_name_H-M   'P 1'
_cell_length_a   9.16885200
_cell_length_b   9.16872354
_cell_length_c   6.59534600
_cell_angle_alpha   90.00000000
_cell_angle_beta   90.00000000
_cell_angle_gamma   120.00045625
_symmetry_Int_Tables_number   1
_chemical_formula_structural   YHo9(Pb3Cl)2
_chemical_formula_sum   'Y1 Ho9 Pb6 Cl2'
_cell_volume   480.16451254
_cell_formula_units_Z   1
loop_
 _symmetry_equiv_pos_site_id
 _symmetry_equiv_pos_as_xyz
  1  'x, y, z'
loop_
 _atom_site_type_symbol
 _atom_site_label
 _atom_site_symmetry_multiplicity
 _atom_site_fract_x
 _atom_site_fract_y
 _atom_site_fract_z
 _atom_site_occupancy
  Y  Y0  1  0.260226  0.000000  0.750000  1
  Ho  Ho1  1  0.739871  0.000000  0.250000  1
  Ho  Ho2  1  0.999973  0.260058  0.750000  1
  Ho  Ho3  1  0.999922  0.739862  0.250000  1
  Ho  Ho4  1  0.739916  0.739942  0.750000  1
  Ho  Ho5  1  0.260060  0.260138  0.250000  1
  Ho  Ho6  1  0.333331  0.666581  0.499981  1
  Ho  Ho7  1  0.666752  0.333419  0.499981  1
  Ho  Ho8  1  0.666752  0.333419  0.000019  1
  Ho  Ho9  1  0.333331  0.666581  0.000019  1
  Pb  Pb10  1  0.610046  0.000000  0.750000  1
  Pb  Pb11  1  0.390428  0.000000  0.250000  1
  Pb  Pb12  1  0.999666  0.609227  0.750000  1
  Pb  Pb13  1  0.000052  0.390373  0.250000  1
  Pb  Pb14  1  0.390439  0.390773  0.750000  1
  Pb  Pb15  1  0.609679  0.609627  0.250000  1
  Cl  Cl16  1  0.999778  0.000000  0.499731  1
  Cl  Cl17  1  0.999778  0.000000  0.000269  1
