# generated using pymatgen
data_CsBe3NiF9
_symmetry_space_group_name_H-M   'P 1'
_cell_length_a   6.85957300
_cell_length_b   6.85957542
_cell_length_c   9.78205900
_cell_angle_alpha   90.00000000
_cell_angle_beta   90.00000000
_cell_angle_gamma   120.00086152
_symmetry_Int_Tables_number   1
_chemical_formula_structural   CsBe3NiF9
_chemical_formula_sum   'Cs2 Be6 Ni2 F18'
_cell_volume   398.61299880
_cell_formula_units_Z   2
loop_
 _symmetry_equiv_pos_site_id
 _symmetry_equiv_pos_as_xyz
  1  'x, y, z'
loop_
 _atom_site_type_symbol
 _atom_site_label
 _atom_site_symmetry_multiplicity
 _atom_site_fract_x
 _atom_site_fract_y
 _atom_site_fract_z
 _atom_site_occupancy
  Cs  Cs0  1  0.333333  0.666667  0.500000  1
  Cs  Cs1  1  0.333333  0.666667  0.000000  1
  Be  Be2  1  0.868801  0.258095  0.250000  1
  Be  Be3  1  0.868800  0.610705  0.750000  1
  Be  Be4  1  0.389294  0.258095  0.750000  1
  Be  Be5  1  0.741905  0.131199  0.750000  1
  Be  Be6  1  0.741904  0.610705  0.250000  1
  Be  Be7  1  0.389296  0.131200  0.250000  1
  Ni  Ni8  1  0.000000  0.000000  0.500003  1
  Ni  Ni9  1  0.000000  0.000000  0.999997  1
  F  F10  1  0.767425  0.018115  0.620007  1
  F  F11  1  0.250690  0.232575  0.620007  1
  F  F12  1  0.981885  0.749310  0.620006  1
  F  F13  1  0.981886  0.232575  0.379995  1
  F  F14  1  0.905687  0.509338  0.250000  1
  F  F15  1  0.603650  0.094312  0.250000  1
  F  F16  1  0.490663  0.396351  0.250000  1
  F  F17  1  0.490663  0.094315  0.750000  1
  F  F18  1  0.603650  0.509335  0.750000  1
  F  F19  1  0.905685  0.396349  0.750000  1
  F  F20  1  0.981886  0.232575  0.120005  1
  F  F21  1  0.250690  0.018114  0.379995  1
  F  F22  1  0.767424  0.749310  0.379995  1
  F  F23  1  0.767424  0.749310  0.120005  1
  F  F24  1  0.250690  0.018114  0.120005  1
  F  F25  1  0.767425  0.018115  0.879993  1
  F  F26  1  0.250690  0.232575  0.879993  1
  F  F27  1  0.981885  0.749310  0.879994  1
