# generated using pymatgen
data_Ba3ZnPtO6
_symmetry_space_group_name_H-M   'P 1'
_cell_length_a   7.08687490
_cell_length_b   7.08687466
_cell_length_c   7.08687549
_cell_angle_alpha   92.59881823
_cell_angle_beta   92.59882291
_cell_angle_gamma   92.59882303
_symmetry_Int_Tables_number   1
_chemical_formula_structural   Ba3ZnPtO6
_chemical_formula_sum   'Ba6 Zn2 Pt2 O12'
_cell_volume   354.79713975
_cell_formula_units_Z   2
loop_
 _symmetry_equiv_pos_site_id
 _symmetry_equiv_pos_as_xyz
  1  'x, y, z'
loop_
 _atom_site_type_symbol
 _atom_site_label
 _atom_site_symmetry_multiplicity
 _atom_site_fract_x
 _atom_site_fract_y
 _atom_site_fract_z
 _atom_site_occupancy
  Ba  Ba0  1  0.250000  0.612149  0.887851  1
  Ba  Ba1  1  0.887851  0.250000  0.612149  1
  Ba  Ba2  1  0.612149  0.887851  0.250000  1
  Ba  Ba3  1  0.750000  0.387851  0.112149  1
  Ba  Ba4  1  0.112149  0.750000  0.387851  1
  Ba  Ba5  1  0.387851  0.112149  0.750000  1
  Zn  Zn6  1  0.750000  0.750000  0.750000  1
  Zn  Zn7  1  0.250000  0.250000  0.250000  1
  Pt  Pt8  1  0.500000  0.500000  0.500000  1
  Pt  Pt9  1  0.000000  0.000000  0.000000  1
  O  O10  1  0.097248  0.276451  0.968035  1
  O  O11  1  0.968035  0.097248  0.276451  1
  O  O12  1  0.276451  0.968035  0.097248  1
  O  O13  1  0.402752  0.531965  0.223549  1
  O  O14  1  0.223549  0.402752  0.531965  1
  O  O15  1  0.531965  0.223549  0.402752  1
  O  O16  1  0.902752  0.723549  0.031965  1
  O  O17  1  0.031965  0.902752  0.723549  1
  O  O18  1  0.723549  0.031965  0.902752  1
  O  O19  1  0.597248  0.468035  0.776451  1
  O  O20  1  0.468035  0.776451  0.597248  1
  O  O21  1  0.776451  0.597248  0.468035  1
