# generated using pymatgen
data_HoLu7(ScIr3)2
_symmetry_space_group_name_H-M   'P 1'
_cell_length_a   10.59389502
_cell_length_b   10.60247700
_cell_length_c   6.19100001
_cell_angle_alpha   90.00000000
_cell_angle_beta   90.00687093
_cell_angle_gamma   90.00000000
_symmetry_Int_Tables_number   1
_chemical_formula_structural   HoLu7(ScIr3)2
_chemical_formula_sum   'Ho2 Lu14 Sc4 Ir12'
_cell_volume   695.38257783
_cell_formula_units_Z   2
loop_
 _symmetry_equiv_pos_site_id
 _symmetry_equiv_pos_as_xyz
  1  'x, y, z'
loop_
 _atom_site_type_symbol
 _atom_site_label
 _atom_site_symmetry_multiplicity
 _atom_site_fract_x
 _atom_site_fract_y
 _atom_site_fract_z
 _atom_site_occupancy
  Ho  Ho0  1  0.086766  0.712050  0.624165  1
  Ho  Ho1  1  0.086766  0.287950  0.124165  1
  Lu  Lu2  1  0.289218  0.085891  0.377106  1
  Lu  Lu3  1  0.289218  0.914109  0.877106  1
  Lu  Lu4  1  0.711125  0.086307  0.876512  1
  Lu  Lu5  1  0.711125  0.913693  0.376512  1
  Lu  Lu6  1  0.586310  0.788883  0.876758  1
  Lu  Lu7  1  0.586310  0.211117  0.376758  1
  Lu  Lu8  1  0.413817  0.788857  0.376521  1
  Lu  Lu9  1  0.413817  0.211143  0.876521  1
  Lu  Lu10  1  0.211451  0.413556  0.623361  1
  Lu  Lu11  1  0.211451  0.586444  0.123361  1
  Lu  Lu12  1  0.788336  0.413816  0.123348  1
  Lu  Lu13  1  0.788336  0.586184  0.623348  1
  Lu  Lu14  1  0.913323  0.711167  0.123425  1
  Lu  Lu15  1  0.913323  0.288833  0.623425  1
  Sc  Sc16  1  0.999753  0.000342  0.499789  1
  Sc  Sc17  1  0.999753  0.999658  0.999789  1
  Sc  Sc18  1  0.500061  0.500038  0.999836  1
  Sc  Sc19  1  0.500061  0.499962  0.499836  1
  Ir  Ir20  1  0.849709  0.149181  0.250460  1
  Ir  Ir21  1  0.849709  0.850819  0.750460  1
  Ir  Ir22  1  0.149878  0.148946  0.748253  1
  Ir  Ir23  1  0.149878  0.851054  0.248253  1
  Ir  Ir24  1  0.649525  0.350510  0.750082  1
  Ir  Ir25  1  0.649525  0.649490  0.250082  1
  Ir  Ir26  1  0.351403  0.350700  0.250490  1
  Ir  Ir27  1  0.351403  0.649300  0.750490  1
  Ir  Ir28  1  0.500062  0.000026  0.123070  1
  Ir  Ir29  1  0.500062  0.999974  0.623070  1
  Ir  Ir30  1  0.999264  0.500094  0.876824  1
  Ir  Ir31  1  0.999264  0.499906  0.376824  1
