# generated using pymatgen
data_Cs2Np3TiO12
_symmetry_space_group_name_H-M   'P 1'
_cell_length_a   7.52416825
_cell_length_b   7.52416866
_cell_length_c   7.52416821
_cell_angle_alpha   62.88773690
_cell_angle_beta   62.88773613
_cell_angle_gamma   62.88773780
_symmetry_Int_Tables_number   1
_chemical_formula_structural   Cs2Np3TiO12
_chemical_formula_sum   'Cs2 Np3 Ti1 O12'
_cell_volume   320.53054447
_cell_formula_units_Z   1
loop_
 _symmetry_equiv_pos_site_id
 _symmetry_equiv_pos_as_xyz
  1  'x, y, z'
loop_
 _atom_site_type_symbol
 _atom_site_label
 _atom_site_symmetry_multiplicity
 _atom_site_fract_x
 _atom_site_fract_y
 _atom_site_fract_z
 _atom_site_occupancy
  Cs  Cs0  1  0.630256  0.630256  0.630256  1
  Cs  Cs1  1  0.369744  0.369744  0.369744  1
  Np  Np2  1  0.500000  0.000000  0.000000  1
  Np  Np3  1  0.000000  0.000000  0.500000  1
  Np  Np4  1  0.000000  0.500000  0.000000  1
  Ti  Ti5  1  0.000000  0.000000  0.000000  1
  O  O6  1  0.938137  0.322131  0.322131  1
  O  O7  1  0.302194  0.941255  0.941255  1
  O  O8  1  0.322131  0.322131  0.938137  1
  O  O9  1  0.941255  0.941255  0.302194  1
  O  O10  1  0.941255  0.302194  0.941255  1
  O  O11  1  0.322131  0.938137  0.322131  1
  O  O12  1  0.061863  0.677869  0.677869  1
  O  O13  1  0.697806  0.058745  0.058745  1
  O  O14  1  0.677869  0.677869  0.061863  1
  O  O15  1  0.058745  0.058745  0.697806  1
  O  O16  1  0.058745  0.697806  0.058745  1
  O  O17  1  0.677869  0.061863  0.677869  1
