# generated using pymatgen
data_Nd4Ga4IrPt2Rh
_symmetry_space_group_name_H-M   'P 1'
_cell_length_a   4.47841200
_cell_length_b   7.08438861
_cell_length_c   7.85962621
_cell_angle_alpha   90.14409521
_cell_angle_beta   90.00000000
_cell_angle_gamma   90.00000000
_symmetry_Int_Tables_number   1
_chemical_formula_structural   Nd4Ga4IrPt2Rh
_chemical_formula_sum   'Nd4 Ga4 Ir1 Pt2 Rh1'
_cell_volume   249.36008623
_cell_formula_units_Z   1
loop_
 _symmetry_equiv_pos_site_id
 _symmetry_equiv_pos_as_xyz
  1  'x, y, z'
loop_
 _atom_site_type_symbol
 _atom_site_label
 _atom_site_symmetry_multiplicity
 _atom_site_fract_x
 _atom_site_fract_y
 _atom_site_fract_z
 _atom_site_occupancy
  Nd  Nd0  1  0.250000  0.029987  0.685089  1
  Nd  Nd1  1  0.250000  0.530232  0.815263  1
  Nd  Nd2  1  0.750000  0.976072  0.309019  1
  Nd  Nd3  1  0.750000  0.474577  0.191455  1
  Ga  Ga4  1  0.250000  0.153666  0.072021  1
  Ga  Ga5  1  0.250000  0.653126  0.428622  1
  Ga  Ga6  1  0.750000  0.842142  0.933533  1
  Ga  Ga7  1  0.750000  0.342023  0.566590  1
  Ir  Ir8  1  0.250000  0.278583  0.389860  1
  Pt  Pt9  1  0.750000  0.720420  0.610993  1
  Pt  Pt10  1  0.750000  0.220458  0.888881  1
  Rh  Rh11  1  0.250000  0.778715  0.108674  1
