# generated using pymatgen
data_La2CdSi5AsPd20
_symmetry_space_group_name_H-M   'P 1'
_cell_length_a   8.79042385
_cell_length_b   8.79037824
_cell_length_c   8.75584800
_cell_angle_alpha   60.12977015
_cell_angle_beta   60.12984887
_cell_angle_gamma   59.74014750
_symmetry_Int_Tables_number   1
_chemical_formula_structural   La2CdSi5AsPd20
_chemical_formula_sum   'La2 Cd1 Si5 As1 Pd20'
_cell_volume   478.39482390
_cell_formula_units_Z   1
loop_
 _symmetry_equiv_pos_site_id
 _symmetry_equiv_pos_as_xyz
  1  'x, y, z'
loop_
 _atom_site_type_symbol
 _atom_site_label
 _atom_site_symmetry_multiplicity
 _atom_site_fract_x
 _atom_site_fract_y
 _atom_site_fract_z
 _atom_site_occupancy
  La  La0  1  0.750114  0.750117  0.749884  1
  La  La1  1  0.250126  0.250136  0.249867  1
  Cd  Cd2  1  0.001618  0.001619  0.998383  1
  Si  Si3  1  0.266185  0.266189  0.733812  1
  Si  Si4  1  0.734327  0.265805  0.734191  1
  Si  Si5  1  0.265805  0.734325  0.265678  1
  Si  Si6  1  0.265801  0.734330  0.734197  1
  Si  Si7  1  0.734332  0.265799  0.265672  1
  As  As8  1  0.734337  0.734333  0.265665  1
  Pd  Pd9  1  0.611664  0.611657  0.620408  1
  Pd  Pd10  1  0.385096  0.385092  0.386645  1
  Pd  Pd11  1  0.156814  0.613368  0.614907  1
  Pd  Pd12  1  0.613364  0.156825  0.614902  1
  Pd  Pd13  1  0.843744  0.379579  0.388340  1
  Pd  Pd14  1  0.379585  0.843732  0.388347  1
  Pd  Pd15  1  0.611661  0.611650  0.156280  1
  Pd  Pd16  1  0.385094  0.385101  0.843161  1
  Pd  Pd17  1  0.000733  0.000735  0.654455  1
  Pd  Pd18  1  0.000755  0.000753  0.344059  1
  Pd  Pd19  1  0.345565  0.655939  0.999250  1
  Pd  Pd20  1  0.655927  0.345549  0.999261  1
  Pd  Pd21  1  0.005981  0.653845  0.994017  1
  Pd  Pd22  1  0.653828  0.005994  0.346143  1
  Pd  Pd23  1  0.999736  0.344123  0.000262  1
  Pd  Pd24  1  0.344131  0.999722  0.655896  1
  Pd  Pd25  1  0.653826  0.005996  0.994027  1
  Pd  Pd26  1  0.344129  0.999728  0.000257  1
  Pd  Pd27  1  0.005996  0.653831  0.346145  1
  Pd  Pd28  1  0.999726  0.344129  0.655888  1
