# generated using pymatgen
data_Tb16AgHg3Pt3Rh
_symmetry_space_group_name_H-M   'P 1'
_cell_length_a   9.66853282
_cell_length_b   9.66853268
_cell_length_c   9.66853202
_cell_angle_alpha   59.96040825
_cell_angle_beta   59.96040538
_cell_angle_gamma   59.96041710
_symmetry_Int_Tables_number   1
_chemical_formula_structural   Tb16AgHg3Pt3Rh
_chemical_formula_sum   'Tb16 Ag1 Hg3 Pt3 Rh1'
_cell_volume   638.52306985
_cell_formula_units_Z   1
loop_
 _symmetry_equiv_pos_site_id
 _symmetry_equiv_pos_as_xyz
  1  'x, y, z'
loop_
 _atom_site_type_symbol
 _atom_site_label
 _atom_site_symmetry_multiplicity
 _atom_site_fract_x
 _atom_site_fract_y
 _atom_site_fract_z
 _atom_site_occupancy
  Tb  Tb0  1  0.353735  0.353735  0.353735  1
  Tb  Tb1  1  0.351872  0.351872  0.941746  1
  Tb  Tb2  1  0.351872  0.941746  0.351872  1
  Tb  Tb3  1  0.941746  0.351872  0.351872  1
  Tb  Tb4  1  0.813186  0.190004  0.190004  1
  Tb  Tb5  1  0.189654  0.810070  0.810070  1
  Tb  Tb6  1  0.190004  0.813186  0.190004  1
  Tb  Tb7  1  0.810070  0.189654  0.810070  1
  Tb  Tb8  1  0.190004  0.190004  0.813186  1
  Tb  Tb9  1  0.810070  0.810070  0.189654  1
  Tb  Tb10  1  0.934328  0.564215  0.564215  1
  Tb  Tb11  1  0.563376  0.935323  0.935323  1
  Tb  Tb12  1  0.564215  0.934328  0.564215  1
  Tb  Tb13  1  0.935323  0.563376  0.935323  1
  Tb  Tb14  1  0.564215  0.564215  0.934328  1
  Tb  Tb15  1  0.935323  0.935323  0.563376  1
  Ag  Ag16  1  0.583420  0.583420  0.583420  1
  Hg  Hg17  1  0.586670  0.586670  0.243208  1
  Hg  Hg18  1  0.586670  0.243208  0.586670  1
  Hg  Hg19  1  0.243208  0.586670  0.586670  1
  Pt  Pt20  1  0.143864  0.143864  0.569537  1
  Pt  Pt21  1  0.143864  0.569537  0.143864  1
  Pt  Pt22  1  0.569537  0.143864  0.143864  1
  Rh  Rh23  1  0.143773  0.143773  0.143773  1
