# generated using pymatgen
data_NdTm2(Co3P2)3
_symmetry_space_group_name_H-M   'P 1'
_cell_length_a   3.69436600
_cell_length_b   10.50831300
_cell_length_c   12.17470200
_cell_angle_alpha   90.00000000
_cell_angle_beta   90.00000000
_cell_angle_gamma   90.00000000
_symmetry_Int_Tables_number   1
_chemical_formula_structural   NdTm2(Co3P2)3
_chemical_formula_sum   'Nd2 Tm4 Co18 P12'
_cell_volume   472.64085435
_cell_formula_units_Z   2
loop_
 _symmetry_equiv_pos_site_id
 _symmetry_equiv_pos_as_xyz
  1  'x, y, z'
loop_
 _atom_site_type_symbol
 _atom_site_label
 _atom_site_symmetry_multiplicity
 _atom_site_fract_x
 _atom_site_fract_y
 _atom_site_fract_z
 _atom_site_occupancy
  Nd  Nd0  1  0.000000  0.500000  0.522666  1
  Nd  Nd1  1  0.500000  0.000000  0.477334  1
  Tm  Tm2  1  0.500000  0.817667  0.204648  1
  Tm  Tm3  1  0.500000  0.182333  0.204648  1
  Tm  Tm4  1  0.000000  0.682333  0.795352  1
  Tm  Tm5  1  0.000000  0.317667  0.795352  1
  Co  Co6  1  0.500000  0.500000  0.156768  1
  Co  Co7  1  0.000000  0.000000  0.843232  1
  Co  Co8  1  0.500000  0.500000  0.707231  1
  Co  Co9  1  0.000000  0.000000  0.292769  1
  Co  Co10  1  0.000000  0.500000  0.986492  1
  Co  Co11  1  0.500000  0.000000  0.013508  1
  Co  Co12  1  0.500000  0.333090  0.994833  1
  Co  Co13  1  0.500000  0.666910  0.994833  1
  Co  Co14  1  0.000000  0.166910  0.005167  1
  Co  Co15  1  0.000000  0.833090  0.005167  1
  Co  Co16  1  0.500000  0.296660  0.428731  1
  Co  Co17  1  0.500000  0.703340  0.428731  1
  Co  Co18  1  0.000000  0.203340  0.571269  1
  Co  Co19  1  0.000000  0.796660  0.571269  1
  Co  Co20  1  0.500000  0.879020  0.712886  1
  Co  Co21  1  0.500000  0.120980  0.712886  1
  Co  Co22  1  0.000000  0.620980  0.287114  1
  Co  Co23  1  0.000000  0.379020  0.287114  1
  P  P24  1  0.500000  0.500000  0.883566  1
  P  P25  1  0.000000  0.000000  0.116434  1
  P  P26  1  0.500000  0.500000  0.340008  1
  P  P27  1  0.000000  0.000000  0.659992  1
  P  P28  1  0.500000  0.307833  0.618538  1
  P  P29  1  0.500000  0.692167  0.618538  1
  P  P30  1  0.000000  0.192167  0.381462  1
  P  P31  1  0.000000  0.807833  0.381462  1
  P  P32  1  0.500000  0.846194  0.893594  1
  P  P33  1  0.500000  0.153806  0.893594  1
  P  P34  1  0.000000  0.653806  0.106406  1
  P  P35  1  0.000000  0.346194  0.106406  1
