# generated using pymatgen
data_Pr3P2S
_symmetry_space_group_name_H-M   'P 1'
_cell_length_a   7.24955506
_cell_length_b   7.24955469
_cell_length_c   7.24955519
_cell_angle_alpha   146.55463992
_cell_angle_beta   132.08294848
_cell_angle_gamma   59.69403599
_symmetry_Int_Tables_number   1
_chemical_formula_structural   Pr3P2S
_chemical_formula_sum   'Pr3 P2 S1'
_cell_volume   154.45370013
_cell_formula_units_Z   1
loop_
 _symmetry_equiv_pos_site_id
 _symmetry_equiv_pos_as_xyz
  1  'x, y, z'
loop_
 _atom_site_type_symbol
 _atom_site_label
 _atom_site_symmetry_multiplicity
 _atom_site_fract_x
 _atom_site_fract_y
 _atom_site_fract_z
 _atom_site_occupancy
  Pr  Pr0  1  0.500000  0.000000  0.500000  1
  Pr  Pr1  1  0.170200  0.670200  0.500000  1
  Pr  Pr2  1  0.829800  0.329800  0.500000  1
  P  P3  1  0.666312  0.666312  0.000000  1
  P  P4  1  0.333688  0.333688  0.000000  1
  S  S5  1  0.000000  0.000000  0.000000  1
