# generated using pymatgen
data_MnHgBi2(Pt2O7)2
_symmetry_space_group_name_H-M   'P 1'
_cell_length_a   7.22953834
_cell_length_b   7.28922922
_cell_length_c   7.28922854
_cell_angle_alpha   61.07572446
_cell_angle_beta   60.38439570
_cell_angle_gamma   60.38439227
_symmetry_Int_Tables_number   1
_chemical_formula_structural   MnHgBi2(Pt2O7)2
_chemical_formula_sum   'Mn1 Hg1 Bi2 Pt4 O14'
_cell_volume   275.36312328
_cell_formula_units_Z   1
loop_
 _symmetry_equiv_pos_site_id
 _symmetry_equiv_pos_as_xyz
  1  'x, y, z'
loop_
 _atom_site_type_symbol
 _atom_site_label
 _atom_site_symmetry_multiplicity
 _atom_site_fract_x
 _atom_site_fract_y
 _atom_site_fract_z
 _atom_site_occupancy
  Mn  Mn0  1  0.625000  0.125000  0.125000  1
  Hg  Hg1  1  0.125000  0.125000  0.125000  1
  Bi  Bi2  1  0.125000  0.125000  0.625000  1
  Bi  Bi3  1  0.125000  0.625000  0.125000  1
  Pt  Pt4  1  0.625000  0.625000  0.125000  1
  Pt  Pt5  1  0.625000  0.125000  0.625000  1
  Pt  Pt6  1  0.125000  0.625000  0.625000  1
  Pt  Pt7  1  0.625000  0.625000  0.625000  1
  O  O8  1  0.293622  0.240559  0.240559  1
  O  O9  1  0.956378  0.009441  0.009441  1
  O  O10  1  0.544493  0.957552  0.536720  1
  O  O11  1  0.289625  0.707612  0.291453  1
  O  O12  1  0.544493  0.536720  0.957552  1
  O  O13  1  0.960030  0.539105  0.539105  1
  O  O14  1  0.553433  0.959698  0.959698  1
  O  O15  1  0.960375  0.958547  0.542388  1
  O  O16  1  0.960375  0.542388  0.958547  1
  O  O17  1  0.696567  0.290302  0.290302  1
  O  O18  1  0.289970  0.710895  0.710895  1
  O  O19  1  0.705507  0.292448  0.713280  1
  O  O20  1  0.289625  0.291453  0.707612  1
  O  O21  1  0.705507  0.713280  0.292448  1
