# generated using pymatgen
data_Y6Ho13Er(Cd3Os)2
_symmetry_space_group_name_H-M   'P 1'
_cell_length_a   9.58623000
_cell_length_b   9.58656024
_cell_length_c   9.85019500
_cell_angle_alpha   89.99993314
_cell_angle_beta   89.99989482
_cell_angle_gamma   120.00143091
_symmetry_Int_Tables_number   1
_chemical_formula_structural   Y6Ho13Er(Cd3Os)2
_chemical_formula_sum   'Y6 Ho13 Er1 Cd6 Os2'
_cell_volume   783.93462727
_cell_formula_units_Z   1
loop_
 _symmetry_equiv_pos_site_id
 _symmetry_equiv_pos_as_xyz
  1  'x, y, z'
loop_
 _atom_site_type_symbol
 _atom_site_label
 _atom_site_symmetry_multiplicity
 _atom_site_fract_x
 _atom_site_fract_y
 _atom_site_fract_z
 _atom_site_occupancy
  Y  Y0  1  0.539862  0.460131  0.249961  1
  Y  Y1  1  0.539868  0.079735  0.249956  1
  Y  Y2  1  0.920273  0.460135  0.249962  1
  Y  Y3  1  0.460138  0.539869  0.750039  1
  Y  Y4  1  0.460132  0.920265  0.750044  1
  Y  Y5  1  0.079727  0.539865  0.750038  1
  Ho  Ho6  1  0.000000  0.000000  0.500000  1
  Ho  Ho7  1  0.209742  0.790260  0.440346  1
  Ho  Ho8  1  0.209745  0.419491  0.440348  1
  Ho  Ho9  1  0.580514  0.790256  0.440348  1
  Ho  Ho10  1  0.790258  0.209740  0.559654  1
  Ho  Ho11  1  0.790255  0.580509  0.559652  1
  Ho  Ho12  1  0.419486  0.209744  0.559652  1
  Ho  Ho13  1  0.790379  0.209626  0.940317  1
  Ho  Ho14  1  0.790374  0.580746  0.940321  1
  Ho  Ho15  1  0.419249  0.209626  0.940319  1
  Ho  Ho16  1  0.209621  0.790374  0.059683  1
  Ho  Ho17  1  0.209626  0.419254  0.059679  1
  Ho  Ho18  1  0.580751  0.790374  0.059681  1
  Er  Er19  1  0.000000  0.000000  0.000000  1
  Cd  Cd20  1  0.885750  0.114265  0.249721  1
  Cd  Cd21  1  0.885776  0.771509  0.249736  1
  Cd  Cd22  1  0.228495  0.114232  0.249723  1
  Cd  Cd23  1  0.114250  0.885735  0.750279  1
  Cd  Cd24  1  0.114224  0.228491  0.750264  1
  Cd  Cd25  1  0.771505  0.885768  0.750277  1
  Os  Os26  1  0.333334  0.666667  0.249980  1
  Os  Os27  1  0.666666  0.333333  0.750020  1
