# generated using pymatgen
data_Pr6LuRhO12
_symmetry_space_group_name_H-M   'P 1'
_cell_length_a   6.86970804
_cell_length_b   6.86970699
_cell_length_c   6.86970755
_cell_angle_alpha   96.58182561
_cell_angle_beta   96.58182372
_cell_angle_gamma   96.58180941
_symmetry_Int_Tables_number   1
_chemical_formula_structural   Pr6LuRhO12
_chemical_formula_sum   'Pr6 Lu1 Rh1 O12'
_cell_volume   317.24940897
_cell_formula_units_Z   1
loop_
 _symmetry_equiv_pos_site_id
 _symmetry_equiv_pos_as_xyz
  1  'x, y, z'
loop_
 _atom_site_type_symbol
 _atom_site_label
 _atom_site_symmetry_multiplicity
 _atom_site_fract_x
 _atom_site_fract_y
 _atom_site_fract_z
 _atom_site_occupancy
  Pr  Pr0  1  0.585424  0.097939  0.272679  1
  Pr  Pr1  1  0.097939  0.272679  0.585424  1
  Pr  Pr2  1  0.727321  0.414576  0.902061  1
  Pr  Pr3  1  0.272679  0.585424  0.097939  1
  Pr  Pr4  1  0.902061  0.727321  0.414576  1
  Pr  Pr5  1  0.414576  0.902061  0.727321  1
  Lu  Lu6  1  0.000000  0.000000  0.000000  1
  Rh  Rh7  1  0.500000  0.500000  0.500000  1
  O  O8  1  0.690269  0.072607  0.937820  1
  O  O9  1  0.927393  0.062180  0.309731  1
  O  O10  1  0.427852  0.206444  0.560147  1
  O  O11  1  0.062180  0.309731  0.927393  1
  O  O12  1  0.560147  0.427852  0.206444  1
  O  O13  1  0.793556  0.439853  0.572148  1
  O  O14  1  0.206444  0.560147  0.427852  1
  O  O15  1  0.439853  0.572148  0.793556  1
  O  O16  1  0.937820  0.690269  0.072607  1
  O  O17  1  0.572148  0.793556  0.439853  1
  O  O18  1  0.072607  0.937820  0.690269  1
  O  O19  1  0.309731  0.927393  0.062180  1
