# generated using pymatgen
data_Dy2Er2Ga5Tc3
_symmetry_space_group_name_H-M   'P 1'
_cell_length_a   5.46832014
_cell_length_b   5.53021627
_cell_length_c   8.68964611
_cell_angle_alpha   89.99999954
_cell_angle_beta   90.01596415
_cell_angle_gamma   120.37515848
_symmetry_Int_Tables_number   1
_chemical_formula_structural   Dy2Er2Ga5Tc3
_chemical_formula_sum   'Dy2 Er2 Ga5 Tc3'
_cell_volume   226.71200579
_cell_formula_units_Z   1
loop_
 _symmetry_equiv_pos_site_id
 _symmetry_equiv_pos_as_xyz
  1  'x, y, z'
loop_
 _atom_site_type_symbol
 _atom_site_label
 _atom_site_symmetry_multiplicity
 _atom_site_fract_x
 _atom_site_fract_y
 _atom_site_fract_z
 _atom_site_occupancy
  Dy  Dy0  1  0.334319  0.667160  0.443212  1
  Dy  Dy1  1  0.662624  0.331312  0.552297  1
  Er  Er2  1  0.662686  0.331343  0.947934  1
  Er  Er3  1  0.334608  0.667305  0.056539  1
  Ga  Ga4  1  0.835599  0.164599  0.249638  1
  Ga  Ga5  1  0.835599  0.671000  0.249638  1
  Ga  Ga6  1  0.326136  0.163068  0.249667  1
  Ga  Ga7  1  0.189056  0.841173  0.750368  1
  Ga  Ga8  1  0.189056  0.347883  0.750368  1
  Tc  Tc9  1  0.975860  0.987931  0.510049  1
  Tc  Tc10  1  0.975284  0.987642  0.989862  1
  Tc  Tc11  1  0.679171  0.839585  0.750429  1
