# generated using pymatgen
data_Os(SeI)4
_symmetry_space_group_name_H-M   'P 1'
_cell_length_a   10.16218800
_cell_length_b   10.75944916
_cell_length_c   13.09875404
_cell_angle_alpha   73.09502557
_cell_angle_beta   90.00000000
_cell_angle_gamma   90.00000000
_symmetry_Int_Tables_number   1
_chemical_formula_structural   Os(SeI)4
_chemical_formula_sum   'Os4 Se16 I16'
_cell_volume   1370.32356117
_cell_formula_units_Z   4
loop_
 _symmetry_equiv_pos_site_id
 _symmetry_equiv_pos_as_xyz
  1  'x, y, z'
loop_
 _atom_site_type_symbol
 _atom_site_label
 _atom_site_symmetry_multiplicity
 _atom_site_fract_x
 _atom_site_fract_y
 _atom_site_fract_z
 _atom_site_occupancy
  Os  Os0  1  0.798203  0.061324  0.782175  1
  Os  Os1  1  0.298203  0.938676  0.217825  1
  Os  Os2  1  0.670645  0.304951  0.715982  1
  Os  Os3  1  0.170645  0.695049  0.284018  1
  Se  Se4  1  0.786920  0.481897  0.780085  1
  Se  Se5  1  0.286920  0.518103  0.219915  1
  Se  Se6  1  0.405582  0.016231  0.880274  1
  Se  Se7  1  0.905582  0.983769  0.119726  1
  Se  Se8  1  0.977004  0.143896  0.205641  1
  Se  Se9  1  0.477004  0.856104  0.794359  1
  Se  Se10  1  0.317404  0.157730  0.715200  1
  Se  Se11  1  0.817404  0.842270  0.284800  1
  Se  Se12  1  0.514781  0.218863  0.616377  1
  Se  Se13  1  0.014781  0.781137  0.383623  1
  Se  Se14  1  0.859750  0.240787  0.631084  1
  Se  Se15  1  0.359750  0.759213  0.368916  1
  Se  Se16  1  0.646231  0.973009  0.681886  1
  Se  Se17  1  0.146231  0.026991  0.318114  1
  Se  Se18  1  0.644608  0.143698  0.883155  1
  Se  Se19  1  0.144608  0.856302  0.116845  1
  I  I20  1  0.486057  0.071408  0.305852  1
  I  I21  1  0.986057  0.928592  0.694148  1
  I  I22  1  0.013821  0.135137  0.882867  1
  I  I23  1  0.513821  0.864863  0.117133  1
  I  I24  1  0.797020  0.194164  0.447410  1
  I  I25  1  0.297020  0.805836  0.552590  1
  I  I26  1  0.803170  0.403059  0.992619  1
  I  I27  1  0.303170  0.596941  0.007381  1
  I  I28  1  0.484106  0.444645  0.792157  1
  I  I29  1  0.984106  0.555355  0.207843  1
  I  I30  1  0.037498  0.513750  0.724362  1
  I  I31  1  0.537498  0.486250  0.275638  1
  I  I32  1  0.694565  0.538233  0.549162  1
  I  I33  1  0.194565  0.461767  0.450838  1
  I  I34  1  0.805634  0.835273  0.950396  1
  I  I35  1  0.305634  0.164727  0.049604  1
