# generated using pymatgen
data_K3YIr2O9
_symmetry_space_group_name_H-M   'P 1'
_cell_length_a   5.98778300
_cell_length_b   5.98778753
_cell_length_c   14.53803500
_cell_angle_alpha   90.00000000
_cell_angle_beta   90.00000000
_cell_angle_gamma   60.00323212
_symmetry_Int_Tables_number   1
_chemical_formula_structural   K3YIr2O9
_chemical_formula_sum   'K6 Y2 Ir4 O18'
_cell_volume   451.42220726
_cell_formula_units_Z   2
loop_
 _symmetry_equiv_pos_site_id
 _symmetry_equiv_pos_as_xyz
  1  'x, y, z'
loop_
 _atom_site_type_symbol
 _atom_site_label
 _atom_site_symmetry_multiplicity
 _atom_site_fract_x
 _atom_site_fract_y
 _atom_site_fract_z
 _atom_site_occupancy
  K  K0  1  0.333346  0.333344  0.100991  1
  K  K1  1  0.999996  0.000004  0.250000  1
  K  K2  1  0.333346  0.333344  0.399009  1
  K  K3  1  0.666654  0.666656  0.600991  1
  K  K4  1  0.000004  0.999996  0.750000  1
  K  K5  1  0.666654  0.666656  0.899009  1
  Y  Y6  1  0.000000  0.000000  0.000000  1
  Y  Y7  1  0.000000  0.000000  0.500000  1
  Ir  Ir8  1  0.666675  0.666590  0.157333  1
  Ir  Ir9  1  0.666675  0.666590  0.342667  1
  Ir  Ir10  1  0.333325  0.333410  0.657333  1
  Ir  Ir11  1  0.333325  0.333410  0.842667  1
  O  O12  1  0.820702  0.358580  0.085927  1
  O  O13  1  0.358579  0.820688  0.085926  1
  O  O14  1  0.820722  0.820692  0.085930  1
  O  O15  1  0.952912  0.523536  0.250000  1
  O  O16  1  0.523512  0.523509  0.250000  1
  O  O17  1  0.523560  0.952869  0.250000  1
  O  O18  1  0.820722  0.820692  0.414070  1
  O  O19  1  0.820702  0.358580  0.414073  1
  O  O20  1  0.358579  0.820688  0.414074  1
  O  O21  1  0.641421  0.179313  0.585926  1
  O  O22  1  0.179299  0.641420  0.585927  1
  O  O23  1  0.179278  0.179308  0.585929  1
  O  O24  1  0.476440  0.047131  0.750000  1
  O  O25  1  0.476488  0.476491  0.750000  1
  O  O26  1  0.047088  0.476464  0.750000  1
  O  O27  1  0.179278  0.179308  0.914070  1
  O  O28  1  0.641421  0.179313  0.914073  1
  O  O29  1  0.179299  0.641420  0.914072  1
