# generated using pymatgen
data_Li2Sm7Y(Si6Pd)2
_symmetry_space_group_name_H-M   'P 1'
_cell_length_a   8.21460896
_cell_length_b   8.20773337
_cell_length_c   8.30336501
_cell_angle_alpha   89.99999810
_cell_angle_beta   90.00412164
_cell_angle_gamma   119.97231820
_symmetry_Int_Tables_number   1
_chemical_formula_structural   Li2Sm7Y(Si6Pd)2
_chemical_formula_sum   'Li2 Sm7 Y1 Si12 Pd2'
_cell_volume   484.97122232
_cell_formula_units_Z   1
loop_
 _symmetry_equiv_pos_site_id
 _symmetry_equiv_pos_as_xyz
  1  'x, y, z'
loop_
 _atom_site_type_symbol
 _atom_site_label
 _atom_site_symmetry_multiplicity
 _atom_site_fract_x
 _atom_site_fract_y
 _atom_site_fract_z
 _atom_site_occupancy
  Li  Li0  1  0.333184  0.666592  0.002047  1
  Li  Li1  1  0.666839  0.333419  0.997144  1
  Sm  Sm2  1  0.500668  0.001332  0.250262  1
  Sm  Sm3  1  0.499288  0.998624  0.749783  1
  Sm  Sm4  1  0.998666  0.499333  0.250231  1
  Sm  Sm5  1  0.500668  0.499337  0.250262  1
  Sm  Sm6  1  0.499288  0.500664  0.749783  1
  Sm  Sm7  1  0.999997  0.999999  0.247684  1
  Sm  Sm8  1  0.999997  0.999999  0.752180  1
  Y  Y9  1  0.001436  0.500718  0.748979  1
  Si  Si10  1  0.166630  0.334138  0.997982  1
  Si  Si11  1  0.833319  0.665897  0.000889  1
  Si  Si12  1  0.666481  0.833241  0.998293  1
  Si  Si13  1  0.834380  0.668156  0.502172  1
  Si  Si14  1  0.333515  0.166758  0.001078  1
  Si  Si15  1  0.165648  0.331836  0.498810  1
  Si  Si16  1  0.166630  0.832492  0.997982  1
  Si  Si17  1  0.331775  0.165888  0.501878  1
  Si  Si18  1  0.833319  0.167422  0.000889  1
  Si  Si19  1  0.668229  0.834114  0.498589  1
  Si  Si20  1  0.834380  0.166226  0.502172  1
  Si  Si21  1  0.165648  0.833810  0.498810  1
  Pd  Pd22  1  0.667298  0.333649  0.502458  1
  Pd  Pd23  1  0.332713  0.666357  0.499644  1
