# generated using pymatgen
data_Dy4Al18Co5Cu
_symmetry_space_group_name_H-M   'P 1'
_cell_length_a   7.39304746
_cell_length_b   7.39304723
_cell_length_c   9.29628609
_cell_angle_alpha   89.97634812
_cell_angle_beta   89.97634368
_cell_angle_gamma   119.32633042
_symmetry_Int_Tables_number   1
_chemical_formula_structural   Dy4Al18Co5Cu
_chemical_formula_sum   'Dy4 Al18 Co5 Cu1'
_cell_volume   442.99133780
_cell_formula_units_Z   1
loop_
 _symmetry_equiv_pos_site_id
 _symmetry_equiv_pos_as_xyz
  1  'x, y, z'
loop_
 _atom_site_type_symbol
 _atom_site_label
 _atom_site_symmetry_multiplicity
 _atom_site_fract_x
 _atom_site_fract_y
 _atom_site_fract_z
 _atom_site_occupancy
  Dy  Dy0  1  0.994306  0.674678  0.250456  1
  Dy  Dy1  1  0.005694  0.325322  0.749544  1
  Dy  Dy2  1  0.674678  0.994306  0.250456  1
  Dy  Dy3  1  0.325322  0.005694  0.749544  1
  Al  Al4  1  0.130515  0.130515  0.257047  1
  Al  Al5  1  0.869485  0.869485  0.742953  1
  Al  Al6  1  0.332089  0.332089  0.542092  1
  Al  Al7  1  0.661461  0.661461  0.046172  1
  Al  Al8  1  0.338539  0.338539  0.953828  1
  Al  Al9  1  0.667911  0.667911  0.457908  1
  Al  Al10  1  0.339504  0.555393  0.251236  1
  Al  Al11  1  0.660496  0.444607  0.748764  1
  Al  Al12  1  0.555393  0.339504  0.251236  1
  Al  Al13  1  0.444607  0.660496  0.748764  1
  Al  Al14  1  0.999543  0.342523  0.074198  1
  Al  Al15  1  0.003134  0.664638  0.569717  1
  Al  Al16  1  0.335362  0.996866  0.430283  1
  Al  Al17  1  0.657477  0.000457  0.925802  1
  Al  Al18  1  0.000457  0.657477  0.925802  1
  Al  Al19  1  0.996866  0.335362  0.430283  1
  Al  Al20  1  0.664638  0.003134  0.569717  1
  Al  Al21  1  0.342523  0.999543  0.074198  1
  Co  Co22  1  0.000000  0.000000  0.500000  1
  Co  Co23  1  0.670899  0.329101  0.000000  1
  Co  Co24  1  0.329129  0.670871  0.500000  1
  Co  Co25  1  0.329101  0.670899  0.000000  1
  Co  Co26  1  0.670871  0.329129  0.500000  1
  Cu  Cu27  1  0.000000  0.000000  0.000000  1
