# generated using pymatgen
data_Nd20Si15Bi
_symmetry_space_group_name_H-M   'P 1'
_cell_length_a   7.90843019
_cell_length_b   7.92845279
_cell_length_c   15.28840291
_cell_angle_alpha   89.72396607
_cell_angle_beta   90.12584916
_cell_angle_gamma   90.15744245
_symmetry_Int_Tables_number   1
_chemical_formula_structural   Nd20Si15Bi
_chemical_formula_sum   'Nd20 Si15 Bi1'
_cell_volume   958.59053104
_cell_formula_units_Z   1
loop_
 _symmetry_equiv_pos_site_id
 _symmetry_equiv_pos_as_xyz
  1  'x, y, z'
loop_
 _atom_site_type_symbol
 _atom_site_label
 _atom_site_symmetry_multiplicity
 _atom_site_fract_x
 _atom_site_fract_y
 _atom_site_fract_z
 _atom_site_occupancy
  Nd  Nd0  1  0.481529  0.371606  0.125102  1
  Nd  Nd1  1  0.967800  0.140005  0.630041  1
  Nd  Nd2  1  0.871825  0.019446  0.877125  1
  Nd  Nd3  1  0.126071  0.979655  0.372076  1
  Nd  Nd4  1  0.523822  0.619372  0.626961  1
  Nd  Nd5  1  0.371055  0.481423  0.876185  1
  Nd  Nd6  1  0.633056  0.514830  0.370004  1
  Nd  Nd7  1  0.018406  0.872799  0.122592  1
  Nd  Nd8  1  0.628186  0.988553  0.441743  1
  Nd  Nd9  1  0.379342  0.011326  0.949389  1
  Nd  Nd10  1  0.988044  0.616928  0.554409  1
  Nd  Nd11  1  0.488233  0.876301  0.197373  1
  Nd  Nd12  1  0.520592  0.137389  0.708554  1
  Nd  Nd13  1  0.880149  0.489363  0.806471  1
  Nd  Nd14  1  0.119131  0.507022  0.299310  1
  Nd  Nd15  1  0.010015  0.376608  0.052199  1
  Nd  Nd16  1  0.306494  0.325231  0.496630  1
  Nd  Nd17  1  0.190553  0.807135  0.760512  1
  Nd  Nd18  1  0.809591  0.187983  0.247928  1
  Nd  Nd19  1  0.689035  0.691546  0.999305  1
  Si  Si20  1  0.711056  0.077596  0.059964  1
  Si  Si21  1  0.922181  0.282224  0.438961  1
  Si  Si22  1  0.423587  0.207431  0.308713  1
  Si  Si23  1  0.576972  0.787360  0.809549  1
  Si  Si24  1  0.211522  0.425003  0.690940  1
  Si  Si25  1  0.787181  0.577419  0.186855  1
  Si  Si26  1  0.075098  0.711295  0.943535  1
  Si  Si27  1  0.806326  0.829200  0.703487  1
  Si  Si28  1  0.196365  0.166819  0.200659  1
  Si  Si29  1  0.831885  0.804514  0.294822  1
  Si  Si30  1  0.335687  0.684366  0.436885  1
  Si  Si31  1  0.666132  0.303236  0.951130  1
  Si  Si32  1  0.689863  0.328050  0.543314  1
  Si  Si33  1  0.304712  0.668867  0.049205  1
  Si  Si34  1  0.168480  0.196363  0.800669  1
  Bi  Bi35  1  0.290026  0.935735  0.567403  1
