# generated using pymatgen
data_TbDy4Cd3InNi2
_symmetry_space_group_name_H-M   'P 1'
_cell_length_a   3.58177000
_cell_length_b   7.89470993
_cell_length_c   18.17310807
_cell_angle_alpha   89.59055103
_cell_angle_beta   90.00000000
_cell_angle_gamma   90.00000000
_symmetry_Int_Tables_number   1
_chemical_formula_structural   TbDy4Cd3InNi2
_chemical_formula_sum   'Tb2 Dy8 Cd6 In2 Ni4'
_cell_volume   513.86849479
_cell_formula_units_Z   2
loop_
 _symmetry_equiv_pos_site_id
 _symmetry_equiv_pos_as_xyz
  1  'x, y, z'
loop_
 _atom_site_type_symbol
 _atom_site_label
 _atom_site_symmetry_multiplicity
 _atom_site_fract_x
 _atom_site_fract_y
 _atom_site_fract_z
 _atom_site_occupancy
  Tb  Tb0  1  0.000000  0.500000  0.500000  1
  Tb  Tb1  1  0.000000  0.000000  0.000000  1
  Dy  Dy2  1  0.000000  0.749490  0.279108  1
  Dy  Dy3  1  0.000000  0.250510  0.720892  1
  Dy  Dy4  1  0.000000  0.748837  0.778315  1
  Dy  Dy5  1  0.000000  0.251163  0.221685  1
  Dy  Dy6  1  0.000000  0.615835  0.089109  1
  Dy  Dy7  1  0.000000  0.384165  0.910891  1
  Dy  Dy8  1  0.000000  0.886129  0.588220  1
  Dy  Dy9  1  0.000000  0.113871  0.411780  1
  Cd  Cd10  1  0.500000  0.709029  0.930051  1
  Cd  Cd11  1  0.500000  0.290971  0.069949  1
  Cd  Cd12  1  0.500000  0.789375  0.429735  1
  Cd  Cd13  1  0.500000  0.210625  0.570265  1
  Cd  Cd14  1  0.500000  0.567945  0.650735  1
  Cd  Cd15  1  0.500000  0.432055  0.349265  1
  In  In16  1  0.500000  0.934245  0.151828  1
  In  In17  1  0.500000  0.065755  0.848172  1
  Ni  Ni18  1  0.500000  0.530326  0.196737  1
  Ni  Ni19  1  0.500000  0.469674  0.803263  1
  Ni  Ni20  1  0.500000  0.970759  0.696812  1
  Ni  Ni21  1  0.500000  0.029241  0.303188  1
