# generated using pymatgen
data_Dy2Mn2Co10P7
_symmetry_space_group_name_H-M   'P 1'
_cell_length_a   9.05617265
_cell_length_b   9.03313077
_cell_length_c   3.60032500
_cell_angle_alpha   90.00000000
_cell_angle_beta   90.00000000
_cell_angle_gamma   120.04085337
_symmetry_Int_Tables_number   1
_chemical_formula_structural   Dy2Mn2Co10P7
_chemical_formula_sum   'Dy2 Mn2 Co10 P7'
_cell_volume   254.96255203
_cell_formula_units_Z   1
loop_
 _symmetry_equiv_pos_site_id
 _symmetry_equiv_pos_as_xyz
  1  'x, y, z'
loop_
 _atom_site_type_symbol
 _atom_site_label
 _atom_site_symmetry_multiplicity
 _atom_site_fract_x
 _atom_site_fract_y
 _atom_site_fract_z
 _atom_site_occupancy
  Dy  Dy0  1  0.665842  0.331270  0.000000  1
  Dy  Dy1  1  0.332739  0.666489  0.500000  1
  Mn  Mn2  1  0.100790  0.221360  0.500000  1
  Mn  Mn3  1  0.779424  0.878710  0.500000  1
  Co  Co4  1  0.368678  0.940002  0.000000  1
  Co  Co5  1  0.060381  0.431226  0.000000  1
  Co  Co6  1  0.569476  0.629862  0.000000  1
  Co  Co7  1  0.883179  0.725586  0.000000  1
  Co  Co8  1  0.274324  0.156096  0.000000  1
  Co  Co9  1  0.841671  0.116262  0.000000  1
  Co  Co10  1  0.950959  0.565501  0.500000  1
  Co  Co11  1  0.436263  0.384872  0.500000  1
  Co  Co12  1  0.612995  0.050040  0.500000  1
  Co  Co13  1  0.126131  0.905419  0.500000  1
  P  P14  1  0.111836  0.702529  0.000000  1
  P  P15  1  0.299183  0.411117  0.000000  1
  P  P16  1  0.587136  0.887959  0.000000  1
  P  P17  1  0.709834  0.592509  0.500000  1
  P  P18  1  0.401894  0.113249  0.500000  1
  P  P19  1  0.885888  0.289603  0.500000  1
  P  P20  1  0.001376  0.000339  0.000000  1
