# generated using pymatgen
data_Lu4ZnPd
_symmetry_space_group_name_H-M   'P 1'
_cell_length_a   9.30808965
_cell_length_b   9.30809024
_cell_length_c   9.30809000
_cell_angle_alpha   60.00000085
_cell_angle_beta   59.99999877
_cell_angle_gamma   60.00000126
_symmetry_Int_Tables_number   1
_chemical_formula_structural   Lu4ZnPd
_chemical_formula_sum   'Lu16 Zn4 Pd4'
_cell_volume   570.25187446
_cell_formula_units_Z   4
loop_
 _symmetry_equiv_pos_site_id
 _symmetry_equiv_pos_as_xyz
  1  'x, y, z'
loop_
 _atom_site_type_symbol
 _atom_site_label
 _atom_site_symmetry_multiplicity
 _atom_site_fract_x
 _atom_site_fract_y
 _atom_site_fract_z
 _atom_site_occupancy
  Lu  Lu0  1  0.615786  0.615786  0.615786  1
  Lu  Lu1  1  0.615786  0.615786  0.152641  1
  Lu  Lu2  1  0.615786  0.152641  0.615786  1
  Lu  Lu3  1  0.152641  0.615786  0.615786  1
  Lu  Lu4  1  0.061699  0.438301  0.438301  1
  Lu  Lu5  1  0.438301  0.061699  0.061699  1
  Lu  Lu6  1  0.438301  0.061699  0.438301  1
  Lu  Lu7  1  0.061699  0.438301  0.061699  1
  Lu  Lu8  1  0.438301  0.438301  0.061699  1
  Lu  Lu9  1  0.061699  0.061699  0.438301  1
  Lu  Lu10  1  0.184592  0.815408  0.815408  1
  Lu  Lu11  1  0.815408  0.184592  0.184592  1
  Lu  Lu12  1  0.815408  0.184592  0.815408  1
  Lu  Lu13  1  0.184592  0.815408  0.184592  1
  Lu  Lu14  1  0.815408  0.815408  0.184592  1
  Lu  Lu15  1  0.184592  0.184592  0.815408  1
  Zn  Zn16  1  0.833437  0.833437  0.833437  1
  Zn  Zn17  1  0.833437  0.833437  0.499690  1
  Zn  Zn18  1  0.833437  0.499690  0.833437  1
  Zn  Zn19  1  0.499690  0.833437  0.833437  1
  Pd  Pd20  1  0.401273  0.401273  0.401273  1
  Pd  Pd21  1  0.401273  0.401273  0.796181  1
  Pd  Pd22  1  0.401273  0.796181  0.401273  1
  Pd  Pd23  1  0.796181  0.401273  0.401273  1
