# generated using pymatgen
data_Hf2Mn7Ni5P7
_symmetry_space_group_name_H-M   'P 1'
_cell_length_a   9.12036503
_cell_length_b   9.11864086
_cell_length_c   3.53417200
_cell_angle_alpha   90.00000000
_cell_angle_beta   90.00000000
_cell_angle_gamma   120.11397996
_symmetry_Int_Tables_number   1
_chemical_formula_structural   Hf2Mn7Ni5P7
_chemical_formula_sum   'Hf2 Mn7 Ni5 P7'
_cell_volume   254.24984392
_cell_formula_units_Z   1
loop_
 _symmetry_equiv_pos_site_id
 _symmetry_equiv_pos_as_xyz
  1  'x, y, z'
loop_
 _atom_site_type_symbol
 _atom_site_label
 _atom_site_symmetry_multiplicity
 _atom_site_fract_x
 _atom_site_fract_y
 _atom_site_fract_z
 _atom_site_occupancy
  Hf  Hf0  1  0.000001  0.002713  0.000000  1
  Hf  Hf1  1  0.329958  0.664440  0.500000  1
  Mn  Mn2  1  0.095410  0.392352  0.000000  1
  Mn  Mn3  1  0.053668  0.771278  0.500000  1
  Mn  Mn4  1  0.716243  0.945583  0.500000  1
  Mn  Mn5  1  0.235103  0.286636  0.500000  1
  Mn  Mn6  1  0.892369  0.430964  0.500000  1
  Mn  Mn7  1  0.538458  0.112320  0.500000  1
  Mn  Mn8  1  0.571909  0.459886  0.500000  1
  Ni  Ni9  1  0.300110  0.900734  0.000000  1
  Ni  Ni10  1  0.602242  0.700971  0.000000  1
  Ni  Ni11  1  0.825826  0.612310  0.000000  1
  Ni  Ni12  1  0.781732  0.172586  0.000000  1
  Ni  Ni13  1  0.389197  0.213540  0.000000  1
  P  P14  1  0.667740  0.334555  0.000000  1
  P  P15  1  0.084192  0.631868  0.000000  1
  P  P16  1  0.547514  0.914159  0.000000  1
  P  P17  1  0.367921  0.452822  0.000000  1
  P  P18  1  0.793915  0.750622  0.500000  1
  P  P19  1  0.957524  0.206259  0.500000  1
  P  P20  1  0.248971  0.043401  0.500000  1
