# generated using pymatgen
data_Ho5Lu5Si5Sn
_symmetry_space_group_name_H-M   'P 1'
_cell_length_a   8.40192895
_cell_length_b   8.42110386
_cell_length_c   6.25851500
_cell_angle_alpha   90.00000000
_cell_angle_beta   90.00000000
_cell_angle_gamma   119.82876741
_symmetry_Int_Tables_number   1
_chemical_formula_structural   Ho5Lu5Si5Sn
_chemical_formula_sum   'Ho5 Lu5 Si5 Sn1'
_cell_volume   384.14636590
_cell_formula_units_Z   1
loop_
 _symmetry_equiv_pos_site_id
 _symmetry_equiv_pos_as_xyz
  1  'x, y, z'
loop_
 _atom_site_type_symbol
 _atom_site_label
 _atom_site_symmetry_multiplicity
 _atom_site_fract_x
 _atom_site_fract_y
 _atom_site_fract_z
 _atom_site_occupancy
  Ho  Ho0  1  0.765789  0.000510  0.750000  1
  Ho  Ho1  1  0.755141  0.756538  0.250000  1
  Ho  Ho2  1  0.999102  0.242671  0.250000  1
  Ho  Ho3  1  0.990048  0.749546  0.750000  1
  Ho  Ho4  1  0.240961  0.000612  0.250000  1
  Lu  Lu5  1  0.673506  0.342158  0.002771  1
  Lu  Lu6  1  0.331331  0.657341  0.497361  1
  Lu  Lu7  1  0.331331  0.657341  0.002639  1
  Lu  Lu8  1  0.673506  0.342158  0.497229  1
  Lu  Lu9  1  0.240782  0.251387  0.750000  1
  Si  Si10  1  0.395450  0.394048  0.250000  1
  Si  Si11  1  0.001598  0.606476  0.250000  1
  Si  Si12  1  0.999854  0.395146  0.750000  1
  Si  Si13  1  0.601751  0.603179  0.750000  1
  Si  Si14  1  0.604183  0.000262  0.250000  1
  Sn  Sn15  1  0.395667  0.000627  0.750000  1
