# generated using pymatgen
data_Na3NpF8
_symmetry_space_group_name_H-M   'P 1'
_cell_length_a   6.79106394
_cell_length_b   6.74303704
_cell_length_c   6.79292016
_cell_angle_alpha   131.96319989
_cell_angle_beta   132.01913308
_cell_angle_gamma   71.29047753
_symmetry_Int_Tables_number   1
_chemical_formula_structural   Na3NpF8
_chemical_formula_sum   'Na3 Np1 F8'
_cell_volume   167.24827667
_cell_formula_units_Z   1
loop_
 _symmetry_equiv_pos_site_id
 _symmetry_equiv_pos_as_xyz
  1  'x, y, z'
loop_
 _atom_site_type_symbol
 _atom_site_label
 _atom_site_symmetry_multiplicity
 _atom_site_fract_x
 _atom_site_fract_y
 _atom_site_fract_z
 _atom_site_occupancy
  Na  Na0  1  0.500000  0.500000  0.000000  1
  Na  Na1  1  0.249383  0.751357  0.500610  1
  Na  Na2  1  0.750617  0.248643  0.499390  1
  Np  Np3  1  0.000000  0.000000  0.000000  1
  F  F4  1  0.885455  0.885224  0.540465  1
  F  F5  1  0.886558  0.345654  0.001382  1
  F  F6  1  0.343842  0.885962  0.000231  1
  F  F7  1  0.350673  0.351476  0.467573  1
  F  F8  1  0.649327  0.648524  0.532427  1
  F  F9  1  0.656158  0.114038  0.999769  1
  F  F10  1  0.113442  0.654346  0.998618  1
  F  F11  1  0.114545  0.114776  0.459535  1
