# generated using pymatgen
data_Dy7Tm3IrRu3
_symmetry_space_group_name_H-M   'P 1'
_cell_length_a   6.33640702
_cell_length_b   7.27587452
_cell_length_c   8.43118491
_cell_angle_alpha   96.77785849
_cell_angle_beta   111.79844484
_cell_angle_gamma   90.07227450
_symmetry_Int_Tables_number   1
_chemical_formula_structural   Dy7Tm3IrRu3
_chemical_formula_sum   'Dy7 Tm3 Ir1 Ru3'
_cell_volume   357.95721666
_cell_formula_units_Z   1
loop_
 _symmetry_equiv_pos_site_id
 _symmetry_equiv_pos_as_xyz
  1  'x, y, z'
loop_
 _atom_site_type_symbol
 _atom_site_label
 _atom_site_symmetry_multiplicity
 _atom_site_fract_x
 _atom_site_fract_y
 _atom_site_fract_z
 _atom_site_occupancy
  Dy  Dy0  1  0.791758  0.081682  0.815215  1
  Dy  Dy1  1  0.978527  0.415288  0.186795  1
  Dy  Dy2  1  0.208225  0.915195  0.185842  1
  Dy  Dy3  1  0.025466  0.585897  0.815374  1
  Dy  Dy4  1  0.206231  0.183890  0.565702  1
  Dy  Dy5  1  0.641472  0.316632  0.433618  1
  Dy  Dy6  1  0.792903  0.814524  0.433666  1
  Tm  Tm7  1  0.357468  0.684907  0.565319  1
  Tm  Tm8  1  0.421950  0.249743  0.000103  1
  Tm  Tm9  1  0.578068  0.750996  0.999732  1
  Ir  Ir10  1  0.599841  0.425280  0.780083  1
  Ru  Ru11  1  0.821710  0.076282  0.217704  1
  Ru  Ru12  1  0.395518  0.575735  0.220206  1
  Ru  Ru13  1  0.180862  0.923950  0.780643  1
