# generated using pymatgen
data_Tb2Ni11P7Ru
_symmetry_space_group_name_H-M   'P 1'
_cell_length_a   9.12191730
_cell_length_b   9.06291229
_cell_length_c   3.68600700
_cell_angle_alpha   90.00000000
_cell_angle_beta   90.00000000
_cell_angle_gamma   120.35660176
_symmetry_Int_Tables_number   1
_chemical_formula_structural   Tb2Ni11P7Ru
_chemical_formula_sum   'Tb2 Ni11 P7 Ru1'
_cell_volume   262.94739823
_cell_formula_units_Z   1
loop_
 _symmetry_equiv_pos_site_id
 _symmetry_equiv_pos_as_xyz
  1  'x, y, z'
loop_
 _atom_site_type_symbol
 _atom_site_label
 _atom_site_symmetry_multiplicity
 _atom_site_fract_x
 _atom_site_fract_y
 _atom_site_fract_z
 _atom_site_occupancy
  Tb  Tb0  1  0.668517  0.335596  0.000000  1
  Tb  Tb1  1  0.332844  0.663921  0.500000  1
  Ni  Ni2  1  0.060880  0.628144  0.000000  1
  Ni  Ni3  1  0.562928  0.938355  0.000000  1
  Ni  Ni4  1  0.373086  0.434480  0.000000  1
  Ni  Ni5  1  0.280573  0.121771  0.000000  1
  Ni  Ni6  1  0.849779  0.730251  0.000000  1
  Ni  Ni7  1  0.871505  0.151892  0.000000  1
  Ni  Ni8  1  0.433672  0.051250  0.500000  1
  Ni  Ni9  1  0.618066  0.568343  0.500000  1
  Ni  Ni10  1  0.948459  0.384541  0.500000  1
  Ni  Ni11  1  0.102623  0.873754  0.500000  1
  Ni  Ni12  1  0.772938  0.899937  0.500000  1
  P  P13  1  0.295059  0.886251  0.000000  1
  P  P14  1  0.594943  0.707465  0.000000  1
  P  P15  1  0.109452  0.405909  0.000000  1
  P  P16  1  0.407916  0.295127  0.500000  1
  P  P17  1  0.889360  0.598217  0.500000  1
  P  P18  1  0.706562  0.110534  0.500000  1
  P  P19  1  0.003029  0.005405  0.000000  1
  Ru  Ru20  1  0.117805  0.208857  0.500000  1
