# generated using pymatgen
data_Zr2Cu4Ni3
_symmetry_space_group_name_H-M   'P 1'
_cell_length_a   4.78346612
_cell_length_b   4.78745209
_cell_length_c   12.39522690
_cell_angle_alpha   87.16992291
_cell_angle_beta   93.08589248
_cell_angle_gamma   60.22085304
_symmetry_Int_Tables_number   1
_chemical_formula_structural   Zr2Cu4Ni3
_chemical_formula_sum   'Zr4 Cu8 Ni6'
_cell_volume   245.06604301
_cell_formula_units_Z   2
loop_
 _symmetry_equiv_pos_site_id
 _symmetry_equiv_pos_as_xyz
  1  'x, y, z'
loop_
 _atom_site_type_symbol
 _atom_site_label
 _atom_site_symmetry_multiplicity
 _atom_site_fract_x
 _atom_site_fract_y
 _atom_site_fract_z
 _atom_site_occupancy
  Zr  Zr0  1  0.282339  0.717757  0.876142  1
  Zr  Zr1  1  0.717717  0.282239  0.123598  1
  Zr  Zr2  1  0.216936  0.782978  0.623817  1
  Zr  Zr3  1  0.783064  0.217018  0.376444  1
  Cu  Cu4  1  0.366488  0.959224  0.076960  1
  Cu  Cu5  1  0.960088  0.366294  0.922878  1
  Cu  Cu6  1  0.633652  0.040643  0.922930  1
  Cu  Cu7  1  0.040130  0.633642  0.077042  1
  Cu  Cu8  1  0.460636  0.865713  0.422999  1
  Cu  Cu9  1  0.865839  0.460003  0.577093  1
  Cu  Cu10  1  0.539284  0.134284  0.577123  1
  Cu  Cu11  1  0.134167  0.540108  0.422994  1
  Ni  Ni12  1  0.250460  0.749686  0.250040  1
  Ni  Ni13  1  0.749373  0.250717  0.750018  1
  Ni  Ni14  1  0.250293  0.249341  0.250052  1
  Ni  Ni15  1  0.249704  0.249896  0.749934  1
  Ni  Ni16  1  0.749537  0.750564  0.749879  1
  Ni  Ni17  1  0.750287  0.749891  0.250055  1
