# generated using pymatgen
data_Y4TmIrRh2
_symmetry_space_group_name_H-M   'P 1'
_cell_length_a   10.91993900
_cell_length_b   10.91993900
_cell_length_c   6.37827900
_cell_angle_alpha   90.00000000
_cell_angle_beta   90.00000000
_cell_angle_gamma   90.00000000
_symmetry_Int_Tables_number   1
_chemical_formula_structural   Y4TmIrRh2
_chemical_formula_sum   'Y16 Tm4 Ir4 Rh8'
_cell_volume   760.57831157
_cell_formula_units_Z   4
loop_
 _symmetry_equiv_pos_site_id
 _symmetry_equiv_pos_as_xyz
  1  'x, y, z'
loop_
 _atom_site_type_symbol
 _atom_site_label
 _atom_site_symmetry_multiplicity
 _atom_site_fract_x
 _atom_site_fract_y
 _atom_site_fract_z
 _atom_site_occupancy
  Y  Y0  1  0.290735  0.089638  0.379177  1
  Y  Y1  1  0.290735  0.910362  0.879177  1
  Y  Y2  1  0.709265  0.089638  0.879177  1
  Y  Y3  1  0.709265  0.910362  0.379177  1
  Y  Y4  1  0.587140  0.789033  0.879750  1
  Y  Y5  1  0.587140  0.210967  0.379750  1
  Y  Y6  1  0.412860  0.789033  0.379750  1
  Y  Y7  1  0.412860  0.210967  0.879750  1
  Y  Y8  1  0.210967  0.412860  0.620250  1
  Y  Y9  1  0.210967  0.587140  0.120250  1
  Y  Y10  1  0.789033  0.412860  0.120250  1
  Y  Y11  1  0.789033  0.587140  0.620250  1
  Y  Y12  1  0.910362  0.709265  0.120823  1
  Y  Y13  1  0.910362  0.290735  0.620823  1
  Y  Y14  1  0.089638  0.709265  0.620823  1
  Y  Y15  1  0.089638  0.290735  0.120823  1
  Tm  Tm16  1  0.000000  0.000000  0.500000  1
  Tm  Tm17  1  0.000000  0.000000  0.000000  1
  Tm  Tm18  1  0.500000  0.500000  0.000000  1
  Tm  Tm19  1  0.500000  0.500000  0.500000  1
  Ir  Ir20  1  0.652249  0.347751  0.750000  1
  Ir  Ir21  1  0.652249  0.652249  0.250000  1
  Ir  Ir22  1  0.347751  0.347751  0.250000  1
  Ir  Ir23  1  0.347751  0.652249  0.750000  1
  Rh  Rh24  1  0.849569  0.150431  0.250000  1
  Rh  Rh25  1  0.849569  0.849569  0.750000  1
  Rh  Rh26  1  0.150431  0.150431  0.750000  1
  Rh  Rh27  1  0.150431  0.849569  0.250000  1
  Rh  Rh28  1  0.500000  0.000000  0.125343  1
  Rh  Rh29  1  0.500000  0.000000  0.625343  1
  Rh  Rh30  1  0.000000  0.500000  0.874657  1
  Rh  Rh31  1  0.000000  0.500000  0.374657  1
