# generated using pymatgen
data_Li3TmAs6Ir7
_symmetry_space_group_name_H-M   'P 1'
_cell_length_a   6.96086202
_cell_length_b   7.09003044
_cell_length_c   7.09002883
_cell_angle_alpha   109.83731949
_cell_angle_beta   109.10258497
_cell_angle_gamma   109.10259397
_symmetry_Int_Tables_number   1
_chemical_formula_structural   Li3TmAs6Ir7
_chemical_formula_sum   'Li3 Tm1 As6 Ir7'
_cell_volume   270.57822239
_cell_formula_units_Z   1
loop_
 _symmetry_equiv_pos_site_id
 _symmetry_equiv_pos_as_xyz
  1  'x, y, z'
loop_
 _atom_site_type_symbol
 _atom_site_label
 _atom_site_symmetry_multiplicity
 _atom_site_fract_x
 _atom_site_fract_y
 _atom_site_fract_z
 _atom_site_occupancy
  Li  Li0  1  0.000000  0.000000  0.500000  1
  Li  Li1  1  0.000000  0.500000  0.000000  1
  Li  Li2  1  0.500000  0.500000  0.500000  1
  Tm  Tm3  1  0.500000  0.000000  0.000000  1
  As  As4  1  0.693732  0.680743  0.000000  1
  As  As5  1  0.306268  0.319257  0.000000  1
  As  As6  1  0.987012  0.680743  0.680743  1
  As  As7  1  0.012988  0.319257  0.319257  1
  As  As8  1  0.693732  0.000000  0.680743  1
  As  As9  1  0.306268  0.000000  0.319257  1
  Ir  Ir10  1  0.000000  0.000000  0.000000  1
  Ir  Ir11  1  0.248093  0.496186  0.748093  1
  Ir  Ir12  1  0.751907  0.251907  0.503814  1
  Ir  Ir13  1  0.500000  0.251907  0.748093  1
  Ir  Ir14  1  0.500000  0.748093  0.251907  1
  Ir  Ir15  1  0.751907  0.503814  0.251907  1
  Ir  Ir16  1  0.248093  0.748093  0.496186  1
