# generated using pymatgen
data_Er2Al16MoPt8
_symmetry_space_group_name_H-M   'P 1'
_cell_length_a   11.20968581
_cell_length_b   11.20968664
_cell_length_c   11.20967254
_cell_angle_alpha   158.76144555
_cell_angle_beta   117.17663203
_cell_angle_gamma   67.11930093
_symmetry_Int_Tables_number   1
_chemical_formula_structural   Er2Al16MoPt8
_chemical_formula_sum   'Er2 Al16 Mo1 Pt8'
_cell_volume   450.94196972
_cell_formula_units_Z   1
loop_
 _symmetry_equiv_pos_site_id
 _symmetry_equiv_pos_as_xyz
  1  'x, y, z'
loop_
 _atom_site_type_symbol
 _atom_site_label
 _atom_site_symmetry_multiplicity
 _atom_site_fract_x
 _atom_site_fract_y
 _atom_site_fract_z
 _atom_site_occupancy
  Er  Er0  1  0.231351  0.232440  0.998948  1
  Er  Er1  1  0.766508  0.767597  0.998948  1
  Al  Al2  1  0.271545  0.391197  0.880344  1
  Al  Al3  1  0.088574  0.923818  0.164749  1
  Al  Al4  1  0.504465  0.201660  0.302804  1
  Al  Al5  1  0.240930  0.076175  0.164749  1
  Al  Al6  1  0.910362  0.416536  0.493816  1
  Al  Al7  1  0.725073  0.599710  0.125369  1
  Al  Al8  1  0.901786  0.209574  0.692219  1
  Al  Al9  1  0.482646  0.790432  0.692219  1
  Al  Al10  1  0.390004  0.999996  0.390000  1
  Al  Al11  1  0.628090  0.000006  0.628096  1
  Al  Al12  1  0.489147  0.608799  0.880344  1
  Al  Al13  1  0.101145  0.798339  0.302804  1
  Al  Al14  1  0.913261  0.089151  0.824101  1
  Al  Al15  1  0.734950  0.910840  0.824101  1
  Al  Al16  1  0.525660  0.400296  0.125369  1
  Al  Al17  1  0.077280  0.583455  0.493816  1
  Mo  Mo18  1  0.788047  0.499998  0.288044  1
  Pt  Pt19  1  0.019361  0.342148  0.677210  1
  Pt  Pt20  1  0.630174  0.128576  0.501597  1
  Pt  Pt21  1  0.255357  0.499995  0.755352  1
  Pt  Pt22  1  0.373021  0.871423  0.501597  1
  Pt  Pt23  1  0.984919  0.999996  0.984915  1
  Pt  Pt24  1  0.649825  0.334183  0.315640  1
  Pt  Pt25  1  0.335062  0.657850  0.677210  1
  Pt  Pt26  1  0.981457  0.665815  0.315640  1
