# generated using pymatgen
data_Ta12Al3Re4Si5C4
_symmetry_space_group_name_H-M   'P 1'
_cell_length_a   8.25237073
_cell_length_b   8.25396674
_cell_length_c   8.25237046
_cell_angle_alpha   60.12557071
_cell_angle_beta   60.03926751
_cell_angle_gamma   60.12556824
_symmetry_Int_Tables_number   1
_chemical_formula_structural   Ta12Al3Re4Si5C4
_chemical_formula_sum   'Ta12 Al3 Re4 Si5 C4'
_cell_volume   398.34195273
_cell_formula_units_Z   1
loop_
 _symmetry_equiv_pos_site_id
 _symmetry_equiv_pos_as_xyz
  1  'x, y, z'
loop_
 _atom_site_type_symbol
 _atom_site_label
 _atom_site_symmetry_multiplicity
 _atom_site_fract_x
 _atom_site_fract_y
 _atom_site_fract_z
 _atom_site_occupancy
  Ta  Ta0  1  0.553312  0.947330  0.553312  1
  Ta  Ta1  1  0.309223  0.692764  0.689345  1
  Ta  Ta2  1  0.696983  0.305150  0.306055  1
  Ta  Ta3  1  0.305726  0.698597  0.305726  1
  Ta  Ta4  1  0.689345  0.692764  0.309223  1
  Ta  Ta5  1  0.306055  0.305150  0.696983  1
  Ta  Ta6  1  0.561260  0.552359  0.943433  1
  Ta  Ta7  1  0.943433  0.552359  0.561260  1
  Ta  Ta8  1  0.559877  0.943432  0.942393  1
  Ta  Ta9  1  0.942393  0.943432  0.559877  1
  Ta  Ta10  1  0.690589  0.309027  0.690589  1
  Ta  Ta11  1  0.938969  0.559272  0.938969  1
  Al  Al12  1  0.919103  0.914530  0.252300  1
  Al  Al13  1  0.252300  0.914530  0.919103  1
  Al  Al14  1  0.334457  0.334359  0.334457  1
  Re  Re15  1  0.127584  0.133508  0.127584  1
  Re  Re16  1  0.627591  0.124134  0.117358  1
  Re  Re17  1  0.121727  0.619455  0.121727  1
  Re  Re18  1  0.117358  0.124134  0.627591  1
  Si  Si19  1  0.916697  0.910496  0.916697  1
  Si  Si20  1  0.990155  0.338026  0.339824  1
  Si  Si21  1  0.337460  0.994586  0.337460  1
  Si  Si22  1  0.339824  0.338026  0.990155  1
  Si  Si23  1  0.918408  0.252293  0.918408  1
  C  C24  1  0.625609  0.625844  0.625609  1
  C  C25  1  0.125294  0.625066  0.624421  1
  C  C26  1  0.624850  0.124311  0.624850  1
  C  C27  1  0.624421  0.625066  0.125294  1
