# generated using pymatgen
data_Yb6Ho2Si12HgPd3
_symmetry_space_group_name_H-M   'P 1'
_cell_length_a   8.26733600
_cell_length_b   8.26733600
_cell_length_c   8.17294700
_cell_angle_alpha   90.00000000
_cell_angle_beta   90.00000000
_cell_angle_gamma   119.99999999
_symmetry_Int_Tables_number   1
_chemical_formula_structural   Yb6Ho2Si12HgPd3
_chemical_formula_sum   'Yb6 Ho2 Si12 Hg1 Pd3'
_cell_volume   483.77173607
_cell_formula_units_Z   1
loop_
 _symmetry_equiv_pos_site_id
 _symmetry_equiv_pos_as_xyz
  1  'x, y, z'
loop_
 _atom_site_type_symbol
 _atom_site_label
 _atom_site_symmetry_multiplicity
 _atom_site_fract_x
 _atom_site_fract_y
 _atom_site_fract_z
 _atom_site_occupancy
  Yb  Yb0  1  0.502404  0.004810  0.257473  1
  Yb  Yb1  1  0.503550  0.007099  0.742551  1
  Yb  Yb2  1  0.995190  0.497596  0.257473  1
  Yb  Yb3  1  0.992901  0.496450  0.742551  1
  Yb  Yb4  1  0.502404  0.497596  0.257473  1
  Yb  Yb5  1  0.503550  0.496450  0.742551  1
  Ho  Ho6  1  0.000000  0.000000  0.255112  1
  Ho  Ho7  1  0.000000  0.000000  0.745404  1
  Si  Si8  1  0.155461  0.310919  0.000282  1
  Si  Si9  1  0.833234  0.666469  0.000300  1
  Si  Si10  1  0.689081  0.844539  0.000282  1
  Si  Si11  1  0.837099  0.674200  0.500120  1
  Si  Si12  1  0.333531  0.166766  0.000300  1
  Si  Si13  1  0.163991  0.327981  0.499940  1
  Si  Si14  1  0.155461  0.844539  0.000282  1
  Si  Si15  1  0.325800  0.162901  0.500120  1
  Si  Si16  1  0.833234  0.166766  0.000300  1
  Si  Si17  1  0.672019  0.836009  0.499940  1
  Si  Si18  1  0.837099  0.162901  0.500120  1
  Si  Si19  1  0.163991  0.836009  0.499940  1
  Hg  Hg20  1  0.333333  0.666667  0.995057  1
  Pd  Pd21  1  0.666667  0.333333  0.001781  1
  Pd  Pd22  1  0.666667  0.333333  0.498993  1
  Pd  Pd23  1  0.333333  0.666667  0.501651  1
