# generated using pymatgen
data_Ca2Y2(Ga8Pt3)3
_symmetry_space_group_name_H-M   'P 1'
_cell_length_a   7.51595348
_cell_length_b   7.58525261
_cell_length_c   13.37441000
_cell_angle_alpha   84.77263359
_cell_angle_beta   79.51958925
_cell_angle_gamma   60.21791601
_symmetry_Int_Tables_number   1
_chemical_formula_structural   Ca2Y2(Ga8Pt3)3
_chemical_formula_sum   'Ca2 Y2 Ga24 Pt9'
_cell_volume   650.73222138
_cell_formula_units_Z   1
loop_
 _symmetry_equiv_pos_site_id
 _symmetry_equiv_pos_as_xyz
  1  'x, y, z'
loop_
 _atom_site_type_symbol
 _atom_site_label
 _atom_site_symmetry_multiplicity
 _atom_site_fract_x
 _atom_site_fract_y
 _atom_site_fract_z
 _atom_site_occupancy
  Ca  Ca0  1  0.732774  0.498155  0.809654  1
  Ca  Ca1  1  0.267226  0.501845  0.190346  1
  Y  Y2  1  0.395409  0.167893  0.809789  1
  Y  Y3  1  0.604591  0.832107  0.190211  1
  Ga  Ga4  1  0.687602  0.833153  0.939383  1
  Ga  Ga5  1  0.312398  0.166847  0.060617  1
  Ga  Ga6  1  0.145218  0.833227  0.559894  1
  Ga  Ga7  1  0.854782  0.166773  0.440106  1
  Ga  Ga8  1  0.478187  0.166310  0.556650  1
  Ga  Ga9  1  0.521813  0.833690  0.443350  1
  Ga  Ga10  1  0.220111  0.165770  0.324747  1
  Ga  Ga11  1  0.779889  0.834230  0.675253  1
  Ga  Ga12  1  0.437296  0.504240  0.674681  1
  Ga  Ga13  1  0.562704  0.495760  0.325319  1
  Ga  Ga14  1  0.106727  0.163348  0.673705  1
  Ga  Ga15  1  0.893273  0.836652  0.326295  1
  Ga  Ga16  1  0.357536  0.498369  0.940757  1
  Ga  Ga17  1  0.642464  0.501631  0.059243  1
  Ga  Ga18  1  0.020392  0.168430  0.945337  1
  Ga  Ga19  1  0.979608  0.831570  0.054663  1
  Ga  Ga20  1  0.187608  0.498558  0.443342  1
  Ga  Ga21  1  0.812392  0.501442  0.556658  1
  Ga  Ga22  1  0.735483  0.162880  0.182148  1
  Ga  Ga23  1  0.264517  0.837120  0.817852  1
  Ga  Ga24  1  0.062909  0.629895  0.816899  1
  Ga  Ga25  1  0.937091  0.370105  0.183101  1
  Ga  Ga26  1  0.856601  0.037829  0.816260  1
  Ga  Ga27  1  0.143399  0.962171  0.183740  1
  Pt  Pt28  1  0.117775  0.495059  0.638638  1
  Pt  Pt29  1  0.882225  0.504941  0.361362  1
  Pt  Pt30  1  0.660409  0.169483  0.998998  1
  Pt  Pt31  1  0.339591  0.830517  0.001002  1
  Pt  Pt32  1  0.541478  0.166799  0.360547  1
  Pt  Pt33  1  0.458522  0.833201  0.639453  1
  Pt  Pt34  1  0.778314  0.173405  0.636932  1
  Pt  Pt35  1  0.221686  0.826595  0.363068  1
  Pt  Pt36  1  0.000000  0.500000  0.000000  1
