# generated using pymatgen
data_KHgPS4
_symmetry_space_group_name_H-M   'P 1'
_cell_length_a   12.16277700
_cell_length_b   6.57531416
_cell_length_c   12.12627529
_cell_angle_alpha   56.90734024
_cell_angle_beta   90.00000000
_cell_angle_gamma   90.00000000
_symmetry_Int_Tables_number   1
_chemical_formula_structural   KHgPS4
_chemical_formula_sum   'K4 Hg4 P4 S16'
_cell_volume   812.47715536
_cell_formula_units_Z   4
loop_
 _symmetry_equiv_pos_site_id
 _symmetry_equiv_pos_as_xyz
  1  'x, y, z'
loop_
 _atom_site_type_symbol
 _atom_site_label
 _atom_site_symmetry_multiplicity
 _atom_site_fract_x
 _atom_site_fract_y
 _atom_site_fract_z
 _atom_site_occupancy
  K  K0  1  0.356625  0.470875  0.759336  1
  K  K1  1  0.856625  0.529125  0.740664  1
  K  K2  1  0.643375  0.529125  0.240664  1
  K  K3  1  0.143375  0.470875  0.259336  1
  Hg  Hg4  1  0.097252  0.937448  0.869298  1
  Hg  Hg5  1  0.597252  0.062552  0.630702  1
  Hg  Hg6  1  0.902748  0.062552  0.130702  1
  Hg  Hg7  1  0.402748  0.937448  0.369298  1
  P  P8  1  0.308564  0.200133  0.546137  1
  P  P9  1  0.808564  0.799867  0.953863  1
  P  P10  1  0.691436  0.799867  0.453863  1
  P  P11  1  0.191436  0.200133  0.046137  1
  S  S12  1  0.408591  0.015589  0.714963  1
  S  S13  1  0.908591  0.984411  0.785037  1
  S  S14  1  0.591409  0.984411  0.285037  1
  S  S15  1  0.091409  0.015589  0.214963  1
  S  S16  1  0.115017  0.480270  0.886588  1
  S  S17  1  0.615017  0.519730  0.613412  1
  S  S18  1  0.884983  0.519730  0.113412  1
  S  S19  1  0.384983  0.480270  0.386588  1
  S  S20  1  0.171053  0.297475  0.598966  1
  S  S21  1  0.671053  0.702525  0.901034  1
  S  S22  1  0.828947  0.702525  0.401034  1
  S  S23  1  0.328947  0.297475  0.098966  1
  S  S24  1  0.253344  0.949973  0.500371  1
  S  S25  1  0.753344  0.050027  0.999629  1
  S  S26  1  0.746656  0.050027  0.499629  1
  S  S27  1  0.246656  0.949973  0.000371  1
