# generated using pymatgen
data_Yb3Pa7O20
_symmetry_space_group_name_H-M   'P 1'
_cell_length_a   10.12568999
_cell_length_b   10.12569146
_cell_length_c   6.56634574
_cell_angle_alpha   83.73895497
_cell_angle_beta   83.73895832
_cell_angle_gamma   141.74298185
_symmetry_Int_Tables_number   1
_chemical_formula_structural   Yb3Pa7O20
_chemical_formula_sum   'Yb3 Pa7 O20'
_cell_volume   393.10238129
_cell_formula_units_Z   1
loop_
 _symmetry_equiv_pos_site_id
 _symmetry_equiv_pos_as_xyz
  1  'x, y, z'
loop_
 _atom_site_type_symbol
 _atom_site_label
 _atom_site_symmetry_multiplicity
 _atom_site_fract_x
 _atom_site_fract_y
 _atom_site_fract_z
 _atom_site_occupancy
  Yb  Yb0  1  0.500000  0.500000  0.000000  1
  Yb  Yb1  1  0.201887  0.798113  0.500000  1
  Yb  Yb2  1  0.798113  0.201887  0.500000  1
  Pa  Pa3  1  0.899521  0.100479  0.000000  1
  Pa  Pa4  1  0.398159  0.601841  0.500000  1
  Pa  Pa5  1  0.100479  0.899521  0.000000  1
  Pa  Pa6  1  0.000000  0.000000  0.500000  1
  Pa  Pa7  1  0.699001  0.300999  0.000000  1
  Pa  Pa8  1  0.601841  0.398159  0.500000  1
  Pa  Pa9  1  0.300999  0.699001  0.000000  1
  O  O10  1  0.266442  0.466842  0.875405  1
  O  O11  1  0.887690  0.887690  0.868680  1
  O  O12  1  0.775283  0.971663  0.371280  1
  O  O13  1  0.028337  0.224717  0.628720  1
  O  O14  1  0.466842  0.266442  0.875405  1
  O  O15  1  0.368555  0.368555  0.388069  1
  O  O16  1  0.631445  0.631445  0.611931  1
  O  O17  1  0.069415  0.670822  0.890660  1
  O  O18  1  0.533158  0.733558  0.124595  1
  O  O19  1  0.971663  0.775283  0.371280  1
  O  O20  1  0.224717  0.028337  0.628720  1
  O  O21  1  0.670822  0.069415  0.890660  1
  O  O22  1  0.112310  0.112310  0.131320  1
  O  O23  1  0.582525  0.191743  0.359484  1
  O  O24  1  0.808257  0.417475  0.640516  1
  O  O25  1  0.417475  0.808257  0.640516  1
  O  O26  1  0.733558  0.533158  0.124595  1
  O  O27  1  0.191743  0.582525  0.359484  1
  O  O28  1  0.329178  0.930585  0.109340  1
  O  O29  1  0.930585  0.329178  0.109340  1
