# generated using pymatgen
data_SrNd2(H6Ru)2
_symmetry_space_group_name_H-M   'P 1'
_cell_length_a   5.07170400
_cell_length_b   5.07170493
_cell_length_c   8.36877400
_cell_angle_alpha   90.00000000
_cell_angle_beta   90.00000000
_cell_angle_gamma   120.00000698
_symmetry_Int_Tables_number   1
_chemical_formula_structural   SrNd2(H6Ru)2
_chemical_formula_sum   'Sr1 Nd2 H12 Ru2'
_cell_volume   186.42335444
_cell_formula_units_Z   1
loop_
 _symmetry_equiv_pos_site_id
 _symmetry_equiv_pos_as_xyz
  1  'x, y, z'
loop_
 _atom_site_type_symbol
 _atom_site_label
 _atom_site_symmetry_multiplicity
 _atom_site_fract_x
 _atom_site_fract_y
 _atom_site_fract_z
 _atom_site_occupancy
  Sr  Sr0  1  0.000000  0.000000  0.000000  1
  Nd  Nd1  1  0.666667  0.333333  0.358157  1
  Nd  Nd2  1  0.333333  0.666667  0.641843  1
  H  H3  1  0.170340  0.829660  0.380371  1
  H  H4  1  0.659319  0.829660  0.380371  1
  H  H5  1  0.170340  0.340681  0.380371  1
  H  H6  1  0.829660  0.170340  0.619629  1
  H  H7  1  0.340681  0.170340  0.619629  1
  H  H8  1  0.829660  0.659319  0.619629  1
  H  H9  1  0.512851  0.025701  0.859553  1
  H  H10  1  0.512851  0.487149  0.859553  1
  H  H11  1  0.974299  0.487149  0.859553  1
  H  H12  1  0.487149  0.974299  0.140447  1
  H  H13  1  0.487149  0.512851  0.140447  1
  H  H14  1  0.025701  0.512851  0.140447  1
  Ru  Ru15  1  0.666667  0.333333  0.733861  1
  Ru  Ru16  1  0.333333  0.666667  0.266139  1
