# generated using pymatgen
data_Zn22CuNiRu
_symmetry_space_group_name_H-M   'P 1'
_cell_length_a   7.73330460
_cell_length_b   7.73330453
_cell_length_c   7.72821213
_cell_angle_alpha   72.14596982
_cell_angle_beta   72.14596839
_cell_angle_gamma   57.87558513
_symmetry_Int_Tables_number   1
_chemical_formula_structural   Zn22CuNiRu
_chemical_formula_sum   'Zn22 Cu1 Ni1 Ru1'
_cell_volume   366.61037441
_cell_formula_units_Z   1
loop_
 _symmetry_equiv_pos_site_id
 _symmetry_equiv_pos_as_xyz
  1  'x, y, z'
loop_
 _atom_site_type_symbol
 _atom_site_label
 _atom_site_symmetry_multiplicity
 _atom_site_fract_x
 _atom_site_fract_y
 _atom_site_fract_z
 _atom_site_occupancy
  Zn  Zn0  1  0.346712  0.736085  0.313797  1
  Zn  Zn1  1  0.649881  0.263225  0.689991  1
  Zn  Zn2  1  0.263225  0.649881  0.689991  1
  Zn  Zn3  1  0.736085  0.346712  0.313797  1
  Zn  Zn4  1  0.677739  0.321549  0.998681  1
  Zn  Zn5  1  0.321549  0.677739  0.998681  1
  Zn  Zn6  1  0.830036  0.830036  0.785340  1
  Zn  Zn7  1  0.171495  0.171495  0.212399  1
  Zn  Zn8  1  0.977163  0.977163  0.172717  1
  Zn  Zn9  1  0.023057  0.023057  0.826724  1
  Zn  Zn10  1  0.354831  0.354831  0.271526  1
  Zn  Zn11  1  0.645359  0.645359  0.726688  1
  Zn  Zn12  1  0.688240  0.688240  0.375104  1
  Zn  Zn13  1  0.313137  0.313137  0.623610  1
  Zn  Zn14  1  0.659230  0.023744  0.461130  1
  Zn  Zn15  1  0.341263  0.975634  0.538566  1
  Zn  Zn16  1  0.975634  0.341263  0.538566  1
  Zn  Zn17  1  0.023744  0.659230  0.461130  1
  Zn  Zn18  1  0.615416  0.002938  0.101813  1
  Zn  Zn19  1  0.381866  0.001945  0.898024  1
  Zn  Zn20  1  0.001945  0.381866  0.898024  1
  Zn  Zn21  1  0.002938  0.615416  0.101813  1
  Cu  Cu22  1  0.657504  0.657504  0.055690  1
  Ni  Ni23  1  0.341520  0.341520  0.946147  1
  Ru  Ru24  1  0.000428  0.000428  0.500051  1
