# generated using pymatgen
data_Ba6Lu3Fe(ReO9)2
_symmetry_space_group_name_H-M   'P 1'
_cell_length_a   5.95241915
_cell_length_b   8.41907604
_cell_length_c   10.31783500
_cell_angle_alpha   65.92159024
_cell_angle_beta   73.23463958
_cell_angle_gamma   89.99999624
_symmetry_Int_Tables_number   1
_chemical_formula_structural   Ba6Lu3Fe(ReO9)2
_chemical_formula_sum   'Ba6 Lu3 Fe1 Re2 O18'
_cell_volume   447.89491207
_cell_formula_units_Z   1
loop_
 _symmetry_equiv_pos_site_id
 _symmetry_equiv_pos_as_xyz
  1  'x, y, z'
loop_
 _atom_site_type_symbol
 _atom_site_label
 _atom_site_symmetry_multiplicity
 _atom_site_fract_x
 _atom_site_fract_y
 _atom_site_fract_z
 _atom_site_occupancy
  Ba  Ba0  1  0.500000  0.268762  0.000000  1
  Ba  Ba1  1  0.841731  0.581281  0.316537  1
  Ba  Ba2  1  0.158269  0.897819  0.683463  1
  Ba  Ba3  1  0.500000  0.731238  0.000000  1
  Ba  Ba4  1  0.841731  0.102181  0.316537  1
  Ba  Ba5  1  0.158269  0.418719  0.683463  1
  Lu  Lu6  1  0.000000  0.000000  0.000000  1
  Lu  Lu7  1  0.333025  0.333025  0.333951  1
  Lu  Lu8  1  0.666975  0.666975  0.666049  1
  Fe  Fe9  1  0.000000  0.500000  0.000000  1
  Re  Re10  1  0.333145  0.833145  0.333708  1
  Re  Re11  1  0.666855  0.166855  0.666291  1
  O  O12  1  0.000000  0.254614  0.000000  1
  O  O13  1  0.331859  0.598604  0.336281  1
  O  O14  1  0.668141  0.934886  0.663719  1
  O  O15  1  0.161333  0.416041  0.167918  1
  O  O16  1  0.489335  0.757160  0.485677  1
  O  O17  1  0.821400  0.089357  0.821285  1
  O  O18  1  0.329248  0.583959  0.832082  1
  O  O19  1  0.642686  0.910643  0.178715  1
  O  O20  1  0.975014  0.242840  0.514323  1
  O  O21  1  0.000000  0.745386  0.000000  1
  O  O22  1  0.331859  0.065114  0.336281  1
  O  O23  1  0.668141  0.401396  0.663719  1
  O  O24  1  0.838667  0.583959  0.832082  1
  O  O25  1  0.178600  0.910643  0.178715  1
  O  O26  1  0.510665  0.242840  0.514323  1
  O  O27  1  0.670752  0.416041  0.167918  1
  O  O28  1  0.024986  0.757160  0.485677  1
  O  O29  1  0.357314  0.089357  0.821285  1
