# generated using pymatgen
data_SmEu2(B3Rh4)2
_symmetry_space_group_name_H-M   'P 1'
_cell_length_a   9.98848425
_cell_length_b   9.10835578
_cell_length_c   5.68325145
_cell_angle_alpha   81.39425936
_cell_angle_beta   64.37172879
_cell_angle_gamma   34.23401529
_symmetry_Int_Tables_number   1
_chemical_formula_structural   SmEu2(B3Rh4)2
_chemical_formula_sum   'Sm1 Eu2 B6 Rh8'
_cell_volume   239.20868556
_cell_formula_units_Z   1
loop_
 _symmetry_equiv_pos_site_id
 _symmetry_equiv_pos_as_xyz
  1  'x, y, z'
loop_
 _atom_site_type_symbol
 _atom_site_label
 _atom_site_symmetry_multiplicity
 _atom_site_fract_x
 _atom_site_fract_y
 _atom_site_fract_z
 _atom_site_occupancy
  Sm  Sm0  1  0.500000  0.500000  0.500000  1
  Eu  Eu1  1  0.316277  0.316277  0.683723  1
  Eu  Eu2  1  0.683723  0.683723  0.316277  1
  B  B3  1  0.834069  0.165931  0.834069  1
  B  B4  1  0.667665  0.990400  0.009600  1
  B  B5  1  0.990400  0.667665  0.332335  1
  B  B6  1  0.009600  0.332335  0.667665  1
  B  B7  1  0.332335  0.009600  0.990400  1
  B  B8  1  0.165931  0.834069  0.165931  1
  Rh  Rh9  1  0.915295  0.915295  0.584705  1
  Rh  Rh10  1  0.084705  0.084705  0.415295  1
  Rh  Rh11  1  0.750000  0.750000  0.750000  1
  Rh  Rh12  1  0.086668  0.086668  0.913332  1
  Rh  Rh13  1  0.913332  0.913332  0.086668  1
  Rh  Rh14  1  0.415295  0.415295  0.084705  1
  Rh  Rh15  1  0.584705  0.584705  0.915295  1
  Rh  Rh16  1  0.250000  0.250000  0.250000  1
