# generated using pymatgen
data_Hf2Mn(CoCu2)2
_symmetry_space_group_name_H-M   'P 1'
_cell_length_a   4.79862668
_cell_length_b   4.74137717
_cell_length_c   6.43033243
_cell_angle_alpha   82.28081381
_cell_angle_beta   74.60742914
_cell_angle_gamma   59.59977021
_symmetry_Int_Tables_number   1
_chemical_formula_structural   Hf2Mn(CoCu2)2
_chemical_formula_sum   'Hf2 Mn1 Co2 Cu4'
_cell_volume   121.66211949
_cell_formula_units_Z   1
loop_
 _symmetry_equiv_pos_site_id
 _symmetry_equiv_pos_as_xyz
  1  'x, y, z'
loop_
 _atom_site_type_symbol
 _atom_site_label
 _atom_site_symmetry_multiplicity
 _atom_site_fract_x
 _atom_site_fract_y
 _atom_site_fract_z
 _atom_site_occupancy
  Hf  Hf0  1  0.093639  0.000000  0.248384  1
  Hf  Hf1  1  0.906361  0.000000  0.751616  1
  Mn  Mn2  1  0.500000  0.000000  0.500000  1
  Co  Co3  1  0.500000  0.500000  0.500000  1
  Co  Co4  1  0.000000  0.500000  0.500000  1
  Cu  Cu5  1  0.537072  0.674062  0.847263  1
  Cu  Cu6  1  0.211134  0.325938  0.847263  1
  Cu  Cu7  1  0.462928  0.325938  0.152737  1
  Cu  Cu8  1  0.788866  0.674062  0.152737  1
