# generated using pymatgen
data_Tb3Yb4Ho3(CuPb3)2
_symmetry_space_group_name_H-M   'P 1'
_cell_length_a   9.22430814
_cell_length_b   9.22694521
_cell_length_c   6.79627000
_cell_angle_alpha   90.00000000
_cell_angle_beta   90.00000000
_cell_angle_gamma   119.97064422
_symmetry_Int_Tables_number   1
_chemical_formula_structural   Tb3Yb4Ho3(CuPb3)2
_chemical_formula_sum   'Tb3 Yb4 Ho3 Cu2 Pb6'
_cell_volume   501.09652572
_cell_formula_units_Z   1
loop_
 _symmetry_equiv_pos_site_id
 _symmetry_equiv_pos_as_xyz
  1  'x, y, z'
loop_
 _atom_site_type_symbol
 _atom_site_label
 _atom_site_symmetry_multiplicity
 _atom_site_fract_x
 _atom_site_fract_y
 _atom_site_fract_z
 _atom_site_occupancy
  Tb  Tb0  1  0.258508  0.000009  0.750000  1
  Tb  Tb1  1  0.741466  0.999951  0.250000  1
  Tb  Tb2  1  0.000048  0.258449  0.750000  1
  Yb  Yb3  1  0.333339  0.666671  0.499935  1
  Yb  Yb4  1  0.666669  0.333524  0.499937  1
  Yb  Yb5  1  0.666669  0.333524  0.000063  1
  Yb  Yb6  1  0.333339  0.666671  0.000065  1
  Ho  Ho7  1  0.999956  0.741661  0.250000  1
  Ho  Ho8  1  0.741771  0.741743  0.750000  1
  Ho  Ho9  1  0.258232  0.258251  0.250000  1
  Cu  Cu10  1  0.999999  0.999625  0.499745  1
  Cu  Cu11  1  0.999999  0.999625  0.000255  1
  Pb  Pb12  1  0.613641  0.999621  0.750000  1
  Pb  Pb13  1  0.385840  0.999989  0.250000  1
  Pb  Pb14  1  0.999636  0.613686  0.750000  1
  Pb  Pb15  1  0.000357  0.386862  0.250000  1
  Pb  Pb16  1  0.386964  0.386948  0.750000  1
  Pb  Pb17  1  0.613567  0.613190  0.250000  1
