# generated using pymatgen
data_Mg2AlPt5
_symmetry_space_group_name_H-M   'P 1'
_cell_length_a   4.10206400
_cell_length_b   5.51229100
_cell_length_c   10.89530400
_cell_angle_alpha   90.00000000
_cell_angle_beta   90.00000000
_cell_angle_gamma   90.00000000
_symmetry_Int_Tables_number   1
_chemical_formula_structural   Mg2AlPt5
_chemical_formula_sum   'Mg4 Al2 Pt10'
_cell_volume   246.36211323
_cell_formula_units_Z   2
loop_
 _symmetry_equiv_pos_site_id
 _symmetry_equiv_pos_as_xyz
  1  'x, y, z'
loop_
 _atom_site_type_symbol
 _atom_site_label
 _atom_site_symmetry_multiplicity
 _atom_site_fract_x
 _atom_site_fract_y
 _atom_site_fract_z
 _atom_site_occupancy
  Mg  Mg0  1  0.500000  0.184524  0.639182  1
  Mg  Mg1  1  0.500000  0.815476  0.360818  1
  Mg  Mg2  1  0.500000  0.684524  0.860818  1
  Mg  Mg3  1  0.500000  0.315476  0.139182  1
  Al  Al4  1  0.000000  0.500000  0.500000  1
  Al  Al5  1  0.000000  0.000000  0.000000  1
  Pt  Pt6  1  0.500000  0.307082  0.393403  1
  Pt  Pt7  1  0.500000  0.692918  0.606597  1
  Pt  Pt8  1  0.500000  0.807082  0.106597  1
  Pt  Pt9  1  0.500000  0.192918  0.893403  1
  Pt  Pt10  1  0.000000  0.438662  0.739819  1
  Pt  Pt11  1  0.000000  0.561338  0.260181  1
  Pt  Pt12  1  0.000000  0.938662  0.760181  1
  Pt  Pt13  1  0.000000  0.061338  0.239819  1
  Pt  Pt14  1  0.000000  0.500000  0.000000  1
  Pt  Pt15  1  0.000000  0.000000  0.500000  1
