# generated using pymatgen
data_Tm4Ga7Au5
_symmetry_space_group_name_H-M   'P 1'
_cell_length_a   4.34317500
_cell_length_b   6.87200648
_cell_length_c   10.32466271
_cell_angle_alpha   90.82630333
_cell_angle_beta   90.00000000
_cell_angle_gamma   90.00000000
_symmetry_Int_Tables_number   1
_chemical_formula_structural   Tm4Ga7Au5
_chemical_formula_sum   'Tm4 Ga7 Au5'
_cell_volume   308.12121159
_cell_formula_units_Z   1
loop_
 _symmetry_equiv_pos_site_id
 _symmetry_equiv_pos_as_xyz
  1  'x, y, z'
loop_
 _atom_site_type_symbol
 _atom_site_label
 _atom_site_symmetry_multiplicity
 _atom_site_fract_x
 _atom_site_fract_y
 _atom_site_fract_z
 _atom_site_occupancy
  Tm  Tm0  1  0.500000  0.765481  0.177172  1
  Tm  Tm1  1  0.500000  0.263647  0.332500  1
  Tm  Tm2  1  0.000000  0.235887  0.829532  1
  Tm  Tm3  1  0.000000  0.742377  0.661431  1
  Ga  Ga4  1  0.500000  0.931193  0.849360  1
  Ga  Ga5  1  0.500000  0.434292  0.654589  1
  Ga  Ga6  1  0.000000  0.069930  0.145928  1
  Ga  Ga7  1  0.000000  0.564493  0.350033  1
  Ga  Ga8  1  0.500000  0.208558  0.036012  1
  Ga  Ga9  1  0.000000  0.290178  0.538766  1
  Ga  Ga10  1  0.000000  0.789205  0.962689  1
  Au  Au11  1  0.500000  0.545028  0.899141  1
  Au  Au12  1  0.500000  0.050136  0.608150  1
  Au  Au13  1  0.000000  0.457068  0.105621  1
  Au  Au14  1  0.000000  0.961489  0.387306  1
  Au  Au15  1  0.500000  0.691040  0.461769  1
