# generated using pymatgen
data_Na2Pa(CuS2)2
_symmetry_space_group_name_H-M   'P 1'
_cell_length_a   7.29529282
_cell_length_b   7.29529370
_cell_length_c   7.34166620
_cell_angle_alpha   67.15854093
_cell_angle_beta   67.15853677
_cell_angle_gamma   30.34661753
_symmetry_Int_Tables_number   1
_chemical_formula_structural   Na2Pa(CuS2)2
_chemical_formula_sum   'Na2 Pa1 Cu2 S4'
_cell_volume   180.73877213
_cell_formula_units_Z   1
loop_
 _symmetry_equiv_pos_site_id
 _symmetry_equiv_pos_as_xyz
  1  'x, y, z'
loop_
 _atom_site_type_symbol
 _atom_site_label
 _atom_site_symmetry_multiplicity
 _atom_site_fract_x
 _atom_site_fract_y
 _atom_site_fract_z
 _atom_site_occupancy
  Na  Na0  1  0.866557  0.866557  0.562888  1
  Na  Na1  1  0.133443  0.133443  0.437112  1
  Pa  Pa2  1  0.000000  0.000000  0.000000  1
  Cu  Cu3  1  0.318619  0.318619  0.986877  1
  Cu  Cu4  1  0.681381  0.681381  0.013123  1
  S  S5  1  0.790067  0.790067  0.197920  1
  S  S6  1  0.209933  0.209933  0.802080  1
  S  S7  1  0.485949  0.485949  0.743743  1
  S  S8  1  0.514051  0.514051  0.256257  1
