# generated using pymatgen
data_Y16MgHg3Pd4
_symmetry_space_group_name_H-M   'P 1'
_cell_length_a   9.71532276
_cell_length_b   9.74750630
_cell_length_c   9.74751600
_cell_angle_alpha   59.99991925
_cell_angle_beta   59.88996506
_cell_angle_gamma   59.89011932
_symmetry_Int_Tables_number   1
_chemical_formula_structural   Y16MgHg3Pd4
_chemical_formula_sum   'Y16 Mg1 Hg3 Pd4'
_cell_volume   651.63686750
_cell_formula_units_Z   1
loop_
 _symmetry_equiv_pos_site_id
 _symmetry_equiv_pos_as_xyz
  1  'x, y, z'
loop_
 _atom_site_type_symbol
 _atom_site_label
 _atom_site_symmetry_multiplicity
 _atom_site_fract_x
 _atom_site_fract_y
 _atom_site_fract_z
 _atom_site_occupancy
  Y  Y0  1  0.357863  0.353330  0.353327  1
  Y  Y1  1  0.357864  0.353328  0.935479  1
  Y  Y2  1  0.357863  0.935478  0.353328  1
  Y  Y3  1  0.921474  0.359508  0.359509  1
  Y  Y4  1  0.809267  0.189732  0.189731  1
  Y  Y5  1  0.184927  0.813181  0.813180  1
  Y  Y6  1  0.184928  0.813181  0.188710  1
  Y  Y7  1  0.809269  0.189730  0.811270  1
  Y  Y8  1  0.184928  0.188713  0.813179  1
  Y  Y9  1  0.809267  0.811269  0.189732  1
  Y  Y10  1  0.934122  0.565797  0.565798  1
  Y  Y11  1  0.565003  0.934652  0.934654  1
  Y  Y12  1  0.564998  0.934654  0.565695  1
  Y  Y13  1  0.934122  0.565796  0.934285  1
  Y  Y14  1  0.564999  0.565693  0.934656  1
  Y  Y15  1  0.934123  0.934284  0.565796  1
  Mg  Mg16  1  0.284103  0.571964  0.571964  1
  Hg  Hg17  1  0.583174  0.590118  0.590117  1
  Hg  Hg18  1  0.583172  0.590117  0.236591  1
  Hg  Hg19  1  0.583170  0.236593  0.590116  1
  Pd  Pd20  1  0.142156  0.147433  0.147435  1
  Pd  Pd21  1  0.142153  0.147437  0.562974  1
  Pd  Pd22  1  0.142155  0.562975  0.147438  1
  Pd  Pd23  1  0.564897  0.145037  0.145034  1
