# generated using pymatgen
data_LaNd4PPb3
_symmetry_space_group_name_H-M   'P 1'
_cell_length_a   9.53236423
_cell_length_b   9.53236419
_cell_length_c   7.11167200
_cell_angle_alpha   90.00000000
_cell_angle_beta   90.00000000
_cell_angle_gamma   119.97466925
_symmetry_Int_Tables_number   1
_chemical_formula_structural   LaNd4PPb3
_chemical_formula_sum   'La2 Nd8 P2 Pb6'
_cell_volume   559.77616406
_cell_formula_units_Z   2
loop_
 _symmetry_equiv_pos_site_id
 _symmetry_equiv_pos_as_xyz
  1  'x, y, z'
loop_
 _atom_site_type_symbol
 _atom_site_label
 _atom_site_symmetry_multiplicity
 _atom_site_fract_x
 _atom_site_fract_y
 _atom_site_fract_z
 _atom_site_occupancy
  La  La0  1  0.761538  0.000050  0.750000  1
  La  La1  1  0.000050  0.761538  0.750000  1
  Nd  Nd2  1  0.763969  0.763969  0.250000  1
  Nd  Nd3  1  0.237548  0.000891  0.250000  1
  Nd  Nd4  1  0.000891  0.237548  0.250000  1
  Nd  Nd5  1  0.236278  0.236278  0.750000  1
  Nd  Nd6  1  0.665372  0.333761  0.498727  1
  Nd  Nd7  1  0.333761  0.665372  0.498727  1
  Nd  Nd8  1  0.333761  0.665372  0.001273  1
  Nd  Nd9  1  0.665372  0.333761  0.001273  1
  P  P10  1  0.000840  0.000840  0.498038  1
  P  P11  1  0.000840  0.000840  0.001962  1
  Pb  Pb12  1  0.399875  0.399875  0.250000  1
  Pb  Pb13  1  0.600182  0.000511  0.250000  1
  Pb  Pb14  1  0.000511  0.600182  0.250000  1
  Pb  Pb15  1  0.595716  0.595716  0.750000  1
  Pb  Pb16  1  0.401344  0.002154  0.750000  1
  Pb  Pb17  1  0.002154  0.401344  0.750000  1
