# generated using pymatgen
data_HoTh2(CoSn)3
_symmetry_space_group_name_H-M   'P 1'
_cell_length_a   7.37778748
_cell_length_b   7.28197805
_cell_length_c   4.01540600
_cell_angle_alpha   90.00000000
_cell_angle_beta   90.00000000
_cell_angle_gamma   119.57133674
_symmetry_Int_Tables_number   1
_chemical_formula_structural   HoTh2(CoSn)3
_chemical_formula_sum   'Ho1 Th2 Co3 Sn3'
_cell_volume   187.62701759
_cell_formula_units_Z   1
loop_
 _symmetry_equiv_pos_site_id
 _symmetry_equiv_pos_as_xyz
  1  'x, y, z'
loop_
 _atom_site_type_symbol
 _atom_site_label
 _atom_site_symmetry_multiplicity
 _atom_site_fract_x
 _atom_site_fract_y
 _atom_site_fract_z
 _atom_site_occupancy
  Ho  Ho0  1  0.000000  0.591861  0.500000  1
  Th  Th1  1  0.413095  0.414896  0.500000  1
  Th  Th2  1  0.586905  0.001800  0.500000  1
  Co  Co3  1  0.348232  0.667220  0.000000  1
  Co  Co4  1  0.000000  0.006254  0.500000  1
  Co  Co5  1  0.651768  0.318987  0.000000  1
  Sn  Sn6  1  0.759544  0.749065  0.000000  1
  Sn  Sn7  1  0.000000  0.260396  0.000000  1
  Sn  Sn8  1  0.240456  0.989521  0.000000  1
