# generated using pymatgen
data_Tb2YMg3Ag2Ru
_symmetry_space_group_name_H-M   'P 1'
_cell_length_a   7.74952140
_cell_length_b   7.76439197
_cell_length_c   3.98460100
_cell_angle_alpha   90.00000000
_cell_angle_beta   90.00000000
_cell_angle_gamma   119.80157633
_symmetry_Int_Tables_number   1
_chemical_formula_structural   Tb2YMg3Ag2Ru
_chemical_formula_sum   'Tb2 Y1 Mg3 Ag2 Ru1'
_cell_volume   208.04758869
_cell_formula_units_Z   1
loop_
 _symmetry_equiv_pos_site_id
 _symmetry_equiv_pos_as_xyz
  1  'x, y, z'
loop_
 _atom_site_type_symbol
 _atom_site_label
 _atom_site_symmetry_multiplicity
 _atom_site_fract_x
 _atom_site_fract_y
 _atom_site_fract_z
 _atom_site_occupancy
  Tb  Tb0  1  0.036227  0.602603  0.000000  1
  Tb  Tb1  1  0.398114  0.434009  0.000000  1
  Y  Y2  1  0.567689  0.965545  0.000000  1
  Mg  Mg3  1  0.254491  0.999199  0.500000  1
  Mg  Mg4  1  0.000572  0.254596  0.500000  1
  Mg  Mg5  1  0.745199  0.746626  0.500000  1
  Ag  Ag6  1  0.666615  0.333456  0.500000  1
  Ag  Ag7  1  0.999944  0.000023  0.000000  1
  Ru  Ru8  1  0.331147  0.663943  0.500000  1
