# generated using pymatgen
data_Ta10AlPt4
_symmetry_space_group_name_H-M   'P 1'
_cell_length_a   9.90116500
_cell_length_b   9.90116500
_cell_length_c   5.17570700
_cell_angle_alpha   90.00000000
_cell_angle_beta   90.00000000
_cell_angle_gamma   90.00000000
_symmetry_Int_Tables_number   1
_chemical_formula_structural   Ta10AlPt4
_chemical_formula_sum   'Ta20 Al2 Pt8'
_cell_volume   507.39043813
_cell_formula_units_Z   2
loop_
 _symmetry_equiv_pos_site_id
 _symmetry_equiv_pos_as_xyz
  1  'x, y, z'
loop_
 _atom_site_type_symbol
 _atom_site_label
 _atom_site_symmetry_multiplicity
 _atom_site_fract_x
 _atom_site_fract_y
 _atom_site_fract_z
 _atom_site_occupancy
  Ta  Ta0  1  0.464440  0.128222  0.000000  1
  Ta  Ta1  1  0.399033  0.399033  0.000000  1
  Ta  Ta2  1  0.128222  0.464440  0.000000  1
  Ta  Ta3  1  0.871779  0.535560  0.000000  1
  Ta  Ta4  1  0.600967  0.600967  0.000000  1
  Ta  Ta5  1  0.535560  0.871779  0.000000  1
  Ta  Ta6  1  0.682973  0.317027  0.246872  1
  Ta  Ta7  1  0.317027  0.682973  0.246872  1
  Ta  Ta8  1  0.182973  0.182973  0.253129  1
  Ta  Ta9  1  0.817027  0.817027  0.253129  1
  Ta  Ta10  1  0.628222  0.035560  0.500001  1
  Ta  Ta11  1  0.899033  0.100967  0.500001  1
  Ta  Ta12  1  0.964440  0.371778  0.500001  1
  Ta  Ta13  1  0.035560  0.628222  0.500001  1
  Ta  Ta14  1  0.100967  0.899033  0.500001  1
  Ta  Ta15  1  0.371778  0.964440  0.500001  1
  Ta  Ta16  1  0.182973  0.182973  0.746871  1
  Ta  Ta17  1  0.817027  0.817027  0.746871  1
  Ta  Ta18  1  0.682973  0.317027  0.753129  1
  Ta  Ta19  1  0.317027  0.682973  0.753129  1
  Al  Al20  1  0.000000  0.000000  0.000000  1
  Al  Al21  1  0.500000  0.500000  0.500001  1
  Pt  Pt22  1  0.738894  0.061912  0.000000  1
  Pt  Pt23  1  0.938089  0.261106  0.000000  1
  Pt  Pt24  1  0.061912  0.738894  0.000000  1
  Pt  Pt25  1  0.261106  0.938089  0.000000  1
  Pt  Pt26  1  0.438088  0.238895  0.500001  1
  Pt  Pt27  1  0.238895  0.438088  0.500001  1
  Pt  Pt28  1  0.761106  0.561911  0.500001  1
  Pt  Pt29  1  0.561911  0.761106  0.500001  1
