# generated using pymatgen
data_VBiSb2F20
_symmetry_space_group_name_H-M   'P 1'
_cell_length_a   8.88923036
_cell_length_b   8.88923064
_cell_length_c   5.55111608
_cell_angle_alpha   88.54503458
_cell_angle_beta   88.54503573
_cell_angle_gamma   110.88960987
_symmetry_Int_Tables_number   1
_chemical_formula_structural   VBiSb2F20
_chemical_formula_sum   'V1 Bi1 Sb2 F20'
_cell_volume   409.39737851
_cell_formula_units_Z   1
loop_
 _symmetry_equiv_pos_site_id
 _symmetry_equiv_pos_as_xyz
  1  'x, y, z'
loop_
 _atom_site_type_symbol
 _atom_site_label
 _atom_site_symmetry_multiplicity
 _atom_site_fract_x
 _atom_site_fract_y
 _atom_site_fract_z
 _atom_site_occupancy
  V  V0  1  0.201085  0.798915  0.000000  1
  Bi  Bi1  1  0.793052  0.206948  0.000000  1
  Sb  Sb2  1  0.254878  0.245927  0.241442  1
  Sb  Sb3  1  0.754073  0.745122  0.758558  1
  F  F4  1  0.262693  0.450432  0.340617  1
  F  F5  1  0.459918  0.256252  0.339671  1
  F  F6  1  0.743748  0.540082  0.660329  1
  F  F7  1  0.549568  0.737307  0.659383  1
  F  F8  1  0.327209  0.322909  0.924229  1
  F  F9  1  0.677091  0.672791  0.075771  1
  F  F10  1  0.841738  0.422963  0.145964  1
  F  F11  1  0.388025  0.830940  0.116501  1
  F  F12  1  0.169060  0.611975  0.883499  1
  F  F13  1  0.577037  0.158262  0.854036  1
  F  F14  1  0.028147  0.206321  0.121006  1
  F  F15  1  0.212136  0.023140  0.119167  1
  F  F16  1  0.976860  0.787864  0.880833  1
  F  F17  1  0.793679  0.971853  0.878994  1
  F  F18  1  0.146200  0.138813  0.526848  1
  F  F19  1  0.861187  0.853800  0.473152  1
  F  F20  1  0.919025  0.295057  0.691137  1
  F  F21  1  0.268242  0.909597  0.727987  1
  F  F22  1  0.090403  0.731758  0.272013  1
  F  F23  1  0.704943  0.080975  0.308863  1
