# generated using pymatgen
data_Gd6IrCl10
_symmetry_space_group_name_H-M   'P 1'
_cell_length_a   7.40859034
_cell_length_b   9.07333489
_cell_length_c   9.20143800
_cell_angle_alpha   110.00492382
_cell_angle_beta   107.50080213
_cell_angle_gamma   96.53522332
_symmetry_Int_Tables_number   1
_chemical_formula_structural   Gd6IrCl10
_chemical_formula_sum   'Gd6 Ir1 Cl10'
_cell_volume   537.85619111
_cell_formula_units_Z   1
loop_
 _symmetry_equiv_pos_site_id
 _symmetry_equiv_pos_as_xyz
  1  'x, y, z'
loop_
 _atom_site_type_symbol
 _atom_site_label
 _atom_site_symmetry_multiplicity
 _atom_site_fract_x
 _atom_site_fract_y
 _atom_site_fract_z
 _atom_site_occupancy
  Gd  Gd0  1  0.862892  0.246865  0.946120  1
  Gd  Gd1  1  0.137108  0.753135  0.053880  1
  Gd  Gd2  1  0.021289  0.892410  0.687550  1
  Gd  Gd3  1  0.978711  0.107590  0.312450  1
  Gd  Gd4  1  0.373361  0.196895  0.148985  1
  Gd  Gd5  1  0.626639  0.803105  0.851015  1
  Ir  Ir6  1  0.000000  0.000000  0.000000  1
  Cl  Cl7  1  0.910683  0.157468  0.630675  1
  Cl  Cl8  1  0.089317  0.842532  0.369325  1
  Cl  Cl9  1  0.451956  0.073355  0.833716  1
  Cl  Cl10  1  0.548044  0.926645  0.166284  1
  Cl  Cl11  1  0.206821  0.654817  0.749843  1
  Cl  Cl12  1  0.793179  0.345183  0.250157  1
  Cl  Cl13  1  0.236751  0.452462  0.079274  1
  Cl  Cl14  1  0.763249  0.547538  0.920726  1
  Cl  Cl15  1  0.644432  0.720350  0.544031  1
  Cl  Cl16  1  0.355568  0.279650  0.455969  1
