# generated using pymatgen
data_Si4IrPd7
_symmetry_space_group_name_H-M   'P 1'
_cell_length_a   3.85153900
_cell_length_b   6.16650447
_cell_length_c   7.36577128
_cell_angle_alpha   90.48947029
_cell_angle_beta   90.00000000
_cell_angle_gamma   90.00000000
_symmetry_Int_Tables_number   1
_chemical_formula_structural   Si4IrPd7
_chemical_formula_sum   'Si4 Ir1 Pd7'
_cell_volume   174.93460620
_cell_formula_units_Z   1
loop_
 _symmetry_equiv_pos_site_id
 _symmetry_equiv_pos_as_xyz
  1  'x, y, z'
loop_
 _atom_site_type_symbol
 _atom_site_label
 _atom_site_symmetry_multiplicity
 _atom_site_fract_x
 _atom_site_fract_y
 _atom_site_fract_z
 _atom_site_occupancy
  Si  Si0  1  0.250000  0.247120  0.880936  1
  Si  Si1  1  0.750000  0.746329  0.127046  1
  Si  Si2  1  0.250000  0.754549  0.608857  1
  Si  Si3  1  0.750000  0.258917  0.379204  1
  Ir  Ir4  1  0.750000  0.645544  0.433057  1
  Pd  Pd5  1  0.750000  0.522674  0.843358  1
  Pd  Pd6  1  0.250000  0.463907  0.162982  1
  Pd  Pd7  1  0.750000  0.035946  0.664596  1
  Pd  Pd8  1  0.250000  0.978269  0.330298  1
  Pd  Pd9  1  0.250000  0.851936  0.926452  1
  Pd  Pd10  1  0.750000  0.138584  0.069103  1
  Pd  Pd11  1  0.250000  0.356226  0.574111  1
