# generated using pymatgen
data_Ho2Er10InCo4Ni
_symmetry_space_group_name_H-M   'P 1'
_cell_length_a   8.22193469
_cell_length_b   8.22193327
_cell_length_c   8.22113105
_cell_angle_alpha   110.75047874
_cell_angle_beta   110.93735243
_cell_angle_gamma   106.76360268
_symmetry_Int_Tables_number   1
_chemical_formula_structural   Ho2Er10InCo4Ni
_chemical_formula_sum   'Ho2 Er10 In1 Co4 Ni1'
_cell_volume   427.08013471
_cell_formula_units_Z   1
loop_
 _symmetry_equiv_pos_site_id
 _symmetry_equiv_pos_as_xyz
  1  'x, y, z'
loop_
 _atom_site_type_symbol
 _atom_site_label
 _atom_site_symmetry_multiplicity
 _atom_site_fract_x
 _atom_site_fract_y
 _atom_site_fract_z
 _atom_site_occupancy
  Ho  Ho0  1  0.185962  0.290249  0.476211  1
  Ho  Ho1  1  0.814038  0.709751  0.523789  1
  Er  Er2  1  0.186093  0.709854  0.895947  1
  Er  Er3  1  0.813907  0.290146  0.104053  1
  Er  Er4  1  0.315007  0.619826  0.304549  1
  Er  Er5  1  0.684993  0.380174  0.695451  1
  Er  Er6  1  0.315277  0.010458  0.695451  1
  Er  Er7  1  0.684723  0.989542  0.304549  1
  Er  Er8  1  0.409101  0.213748  0.195060  1
  Er  Er9  1  0.590899  0.786252  0.804940  1
  Er  Er10  1  0.018687  0.214041  0.804940  1
  Er  Er11  1  0.981313  0.785959  0.195060  1
  In  In12  1  0.500000  0.500000  0.000000  1
  Co  Co13  1  0.112840  0.612840  0.500000  1
  Co  Co14  1  0.887160  0.387160  0.500000  1
  Co  Co15  1  0.376647  0.999951  0.376598  1
  Co  Co16  1  0.623353  0.000049  0.623402  1
  Ni  Ni17  1  0.000000  0.000000  0.000000  1
