# generated using pymatgen
data_Nb3CrCoNi2B7
_symmetry_space_group_name_H-M   'P 1'
_cell_length_a   9.30655845
_cell_length_b   9.30655885
_cell_length_c   8.97650200
_cell_angle_alpha   90.00000000
_cell_angle_beta   90.00000000
_cell_angle_gamma   159.98439028
_symmetry_Int_Tables_number   1
_chemical_formula_structural   Nb3CrCoNi2B7
_chemical_formula_sum   'Nb6 Cr2 Co2 Ni4 B14'
_cell_volume   266.11049128
_cell_formula_units_Z   2
loop_
 _symmetry_equiv_pos_site_id
 _symmetry_equiv_pos_as_xyz
  1  'x, y, z'
loop_
 _atom_site_type_symbol
 _atom_site_label
 _atom_site_symmetry_multiplicity
 _atom_site_fract_x
 _atom_site_fract_y
 _atom_site_fract_z
 _atom_site_occupancy
  Nb  Nb0  1  0.698257  0.301743  0.250000  1
  Nb  Nb1  1  0.301743  0.698257  0.750000  1
  Nb  Nb2  1  0.582158  0.417842  0.554677  1
  Nb  Nb3  1  0.417842  0.582158  0.445323  1
  Nb  Nb4  1  0.417842  0.582158  0.054677  1
  Nb  Nb5  1  0.582158  0.417842  0.945323  1
  Cr  Cr6  1  0.541579  0.458421  0.250000  1
  Cr  Cr7  1  0.458421  0.541579  0.750000  1
  Co  Co8  1  0.844295  0.155705  0.250000  1
  Co  Co9  1  0.155705  0.844295  0.750000  1
  Ni  Ni10  1  0.800830  0.199170  0.504756  1
  Ni  Ni11  1  0.199170  0.800830  0.495244  1
  Ni  Ni12  1  0.199170  0.800830  0.004756  1
  Ni  Ni13  1  0.800830  0.199170  0.995244  1
  B  B14  1  0.955129  0.044871  0.250000  1
  B  B15  1  0.044871  0.955129  0.750000  1
  B  B16  1  0.890084  0.109916  0.650199  1
  B  B17  1  0.109916  0.890084  0.349801  1
  B  B18  1  0.109916  0.890084  0.150199  1
  B  B19  1  0.890084  0.109916  0.849801  1
  B  B20  1  0.709024  0.290976  0.649227  1
  B  B21  1  0.290976  0.709024  0.350773  1
  B  B22  1  0.290976  0.709024  0.149227  1
  B  B23  1  0.709024  0.290976  0.850773  1
  B  B24  1  0.984942  0.015058  0.591996  1
  B  B25  1  0.015058  0.984942  0.408004  1
  B  B26  1  0.015058  0.984942  0.091996  1
  B  B27  1  0.984942  0.015058  0.908004  1
