# generated using pymatgen
data_V19Ga10Mo
_symmetry_space_group_name_H-M   'P 1'
_cell_length_a   9.34461502
_cell_length_b   9.33878425
_cell_length_c   4.75728500
_cell_angle_alpha   90.00000000
_cell_angle_beta   90.00000000
_cell_angle_gamma   90.01702915
_symmetry_Int_Tables_number   1
_chemical_formula_structural   V19Ga10Mo
_chemical_formula_sum   'V19 Ga10 Mo1'
_cell_volume   415.15560632
_cell_formula_units_Z   1
loop_
 _symmetry_equiv_pos_site_id
 _symmetry_equiv_pos_as_xyz
  1  'x, y, z'
loop_
 _atom_site_type_symbol
 _atom_site_label
 _atom_site_symmetry_multiplicity
 _atom_site_fract_x
 _atom_site_fract_y
 _atom_site_fract_z
 _atom_site_occupancy
  V  V0  1  0.397299  0.396433  0.000000  1
  V  V1  1  0.897132  0.103737  0.500000  1
  V  V2  1  0.102936  0.896474  0.500000  1
  V  V3  1  0.601384  0.603563  0.000000  1
  V  V4  1  0.966026  0.372388  0.500000  1
  V  V5  1  0.035207  0.627077  0.500000  1
  V  V6  1  0.871938  0.535061  0.000000  1
  V  V7  1  0.372078  0.964954  0.500000  1
  V  V8  1  0.628137  0.034623  0.500000  1
  V  V9  1  0.465348  0.128106  0.000000  1
  V  V10  1  0.534686  0.872265  0.000000  1
  V  V11  1  0.181535  0.180326  0.255620  1
  V  V12  1  0.681439  0.318478  0.754700  1
  V  V13  1  0.318853  0.682840  0.754041  1
  V  V14  1  0.817754  0.818526  0.254785  1
  V  V15  1  0.318853  0.682840  0.245959  1
  V  V16  1  0.681439  0.318478  0.245300  1
  V  V17  1  0.181535  0.180326  0.744380  1
  V  V18  1  0.817754  0.818526  0.745215  1
  Ga  Ga19  1  0.999687  0.000213  0.000000  1
  Ga  Ga20  1  0.500649  0.500211  0.500000  1
  Ga  Ga21  1  0.266982  0.934654  0.000000  1
  Ga  Ga22  1  0.434921  0.232530  0.500000  1
  Ga  Ga23  1  0.565749  0.766957  0.500000  1
  Ga  Ga24  1  0.732700  0.065414  0.000000  1
  Ga  Ga25  1  0.236460  0.432923  0.500000  1
  Ga  Ga26  1  0.766852  0.565841  0.500000  1
  Ga  Ga27  1  0.931822  0.264441  0.000000  1
  Ga  Ga28  1  0.064902  0.736707  0.000000  1
  Mo  Mo29  1  0.127945  0.465086  0.000000  1
