# generated using pymatgen
data_Sm2YEr5(Si3Ir)4
_symmetry_space_group_name_H-M   'P 1'
_cell_length_a   8.17424826
_cell_length_b   8.17424870
_cell_length_c   7.95081200
_cell_angle_alpha   90.00000000
_cell_angle_beta   90.00000000
_cell_angle_gamma   120.06954291
_symmetry_Int_Tables_number   1
_chemical_formula_structural   Sm2YEr5(Si3Ir)4
_chemical_formula_sum   'Sm2 Y1 Er5 Si12 Ir4'
_cell_volume   459.76194718
_cell_formula_units_Z   1
loop_
 _symmetry_equiv_pos_site_id
 _symmetry_equiv_pos_as_xyz
  1  'x, y, z'
loop_
 _atom_site_type_symbol
 _atom_site_label
 _atom_site_symmetry_multiplicity
 _atom_site_fract_x
 _atom_site_fract_y
 _atom_site_fract_z
 _atom_site_occupancy
  Sm  Sm0  1  0.999971  0.000029  0.250000  1
  Sm  Sm1  1  0.999966  0.000034  0.750000  1
  Y  Y2  1  0.491014  0.508986  0.250000  1
  Er  Er3  1  0.491541  0.983155  0.250000  1
  Er  Er4  1  0.016845  0.508459  0.250000  1
  Er  Er5  1  0.509227  0.490773  0.750000  1
  Er  Er6  1  0.981343  0.490642  0.750000  1
  Er  Er7  1  0.509358  0.018657  0.750000  1
  Si  Si8  1  0.832560  0.167440  0.501693  1
  Si  Si9  1  0.832328  0.664493  0.502092  1
  Si  Si10  1  0.335507  0.167672  0.502092  1
  Si  Si11  1  0.832560  0.167440  0.998307  1
  Si  Si12  1  0.832328  0.664493  0.997908  1
  Si  Si13  1  0.335507  0.167672  0.997908  1
  Si  Si14  1  0.167788  0.832212  0.001581  1
  Si  Si15  1  0.664161  0.832223  0.000350  1
  Si  Si16  1  0.167777  0.335839  0.000350  1
  Si  Si17  1  0.167788  0.832212  0.498419  1
  Si  Si18  1  0.664161  0.832223  0.499650  1
  Si  Si19  1  0.167777  0.335839  0.499650  1
  Ir  Ir20  1  0.667285  0.332715  0.467777  1
  Ir  Ir21  1  0.667285  0.332715  0.032223  1
  Ir  Ir22  1  0.332961  0.667039  0.964090  1
  Ir  Ir23  1  0.332961  0.667039  0.535910  1
