# generated using pymatgen
data_Ba4Si8Ru7Rh
_symmetry_space_group_name_H-M   'P 1'
_cell_length_a   6.48993882
_cell_length_b   8.05385145
_cell_length_c   8.05461368
_cell_angle_alpha   80.97263901
_cell_angle_beta   90.11784927
_cell_angle_gamma   89.83901687
_symmetry_Int_Tables_number   1
_chemical_formula_structural   Ba4Si8Ru7Rh
_chemical_formula_sum   'Ba4 Si8 Ru7 Rh1'
_cell_volume   415.78886838
_cell_formula_units_Z   1
loop_
 _symmetry_equiv_pos_site_id
 _symmetry_equiv_pos_as_xyz
  1  'x, y, z'
loop_
 _atom_site_type_symbol
 _atom_site_label
 _atom_site_symmetry_multiplicity
 _atom_site_fract_x
 _atom_site_fract_y
 _atom_site_fract_z
 _atom_site_occupancy
  Ba  Ba0  1  0.374924  0.000668  0.251664  1
  Ba  Ba1  1  0.875134  0.501099  0.750099  1
  Ba  Ba2  1  0.624953  0.998528  0.748569  1
  Ba  Ba3  1  0.125039  0.499998  0.249767  1
  Si  Si4  1  0.374266  0.326253  0.921569  1
  Si  Si5  1  0.875714  0.171129  0.076271  1
  Si  Si6  1  0.620595  0.678703  0.075534  1
  Si  Si7  1  0.125602  0.825396  0.924869  1
  Si  Si8  1  0.629308  0.326240  0.428516  1
  Si  Si9  1  0.124841  0.174538  0.575221  1
  Si  Si10  1  0.374815  0.674283  0.574638  1
  Si  Si11  1  0.874875  0.824728  0.424644  1
  Ru  Ru12  1  0.124833  0.874911  0.624995  1
  Ru  Ru13  1  0.624777  0.624553  0.374690  1
  Ru  Ru14  1  0.874160  0.125273  0.374426  1
  Ru  Ru15  1  0.375408  0.374832  0.623500  1
  Ru  Ru16  1  0.874898  0.873767  0.124901  1
  Ru  Ru17  1  0.375906  0.624281  0.875473  1
  Ru  Ru18  1  0.124837  0.125533  0.875727  1
  Rh  Rh19  1  0.625116  0.375287  0.124929  1
