# generated using pymatgen
data_Dy2Ho2C5
_symmetry_space_group_name_H-M   'P 1'
_cell_length_a   3.66883500
_cell_length_b   6.56104900
_cell_length_c   11.91273700
_cell_angle_alpha   90.00000000
_cell_angle_beta   90.00000000
_cell_angle_gamma   90.00000000
_symmetry_Int_Tables_number   1
_chemical_formula_structural   Dy2Ho2C5
_chemical_formula_sum   'Dy4 Ho4 C10'
_cell_volume   286.75633138
_cell_formula_units_Z   2
loop_
 _symmetry_equiv_pos_site_id
 _symmetry_equiv_pos_as_xyz
  1  'x, y, z'
loop_
 _atom_site_type_symbol
 _atom_site_label
 _atom_site_symmetry_multiplicity
 _atom_site_fract_x
 _atom_site_fract_y
 _atom_site_fract_z
 _atom_site_occupancy
  Dy  Dy0  1  0.500000  0.392252  0.303711  1
  Dy  Dy1  1  0.500000  0.607748  0.696289  1
  Dy  Dy2  1  0.500000  0.107748  0.803711  1
  Dy  Dy3  1  0.500000  0.892252  0.196289  1
  Ho  Ho4  1  0.000000  0.243491  0.042633  1
  Ho  Ho5  1  0.000000  0.756509  0.957367  1
  Ho  Ho6  1  0.000000  0.256509  0.542633  1
  Ho  Ho7  1  0.000000  0.743491  0.457367  1
  C  C8  1  0.500000  0.000000  0.000000  1
  C  C9  1  0.500000  0.500000  0.500000  1
  C  C10  1  0.000000  0.139098  0.235016  1
  C  C11  1  0.000000  0.860903  0.764984  1
  C  C12  1  0.000000  0.360903  0.735016  1
  C  C13  1  0.000000  0.639097  0.264984  1
  C  C14  1  0.000000  0.094076  0.344224  1
  C  C15  1  0.000000  0.905924  0.655776  1
  C  C16  1  0.000000  0.405924  0.844224  1
  C  C17  1  0.000000  0.594076  0.155776  1
