# generated using pymatgen
data_Nd4ThBi3C
_symmetry_space_group_name_H-M   'P 1'
_cell_length_a   9.45992334
_cell_length_b   9.51116244
_cell_length_c   6.62389800
_cell_angle_alpha   90.00000000
_cell_angle_beta   90.00000000
_cell_angle_gamma   120.17933025
_symmetry_Int_Tables_number   1
_chemical_formula_structural   Nd4ThBi3C
_chemical_formula_sum   'Nd8 Th2 Bi6 C2'
_cell_volume   515.20237013
_cell_formula_units_Z   2
loop_
 _symmetry_equiv_pos_site_id
 _symmetry_equiv_pos_as_xyz
  1  'x, y, z'
loop_
 _atom_site_type_symbol
 _atom_site_label
 _atom_site_symmetry_multiplicity
 _atom_site_fract_x
 _atom_site_fract_y
 _atom_site_fract_z
 _atom_site_occupancy
  Nd  Nd0  1  0.665315  0.333954  0.999514  1
  Nd  Nd1  1  0.334685  0.668640  0.999514  1
  Nd  Nd2  1  0.334685  0.668640  0.500486  1
  Nd  Nd3  1  0.665315  0.333954  0.500486  1
  Nd  Nd4  1  0.000000  0.221894  0.750000  1
  Nd  Nd5  1  0.216567  0.215909  0.250000  1
  Nd  Nd6  1  0.783433  0.999342  0.250000  1
  Nd  Nd7  1  0.000000  0.781088  0.250000  1
  Th  Th8  1  0.789185  0.791205  0.750000  1
  Th  Th9  1  0.210815  0.002021  0.750000  1
  Bi  Bi10  1  0.400500  0.402912  0.750000  1
  Bi  Bi11  1  0.599500  0.002412  0.750000  1
  Bi  Bi12  1  0.000000  0.597837  0.750000  1
  Bi  Bi13  1  0.599271  0.599508  0.250000  1
  Bi  Bi14  1  0.400729  0.000237  0.250000  1
  Bi  Bi15  1  0.000000  0.397547  0.250000  1
  C  C16  1  0.000000  0.991450  0.990461  1
  C  C17  1  0.000000  0.991450  0.509539  1
