# generated using pymatgen
data_Dy5Lu2P12Ir17
_symmetry_space_group_name_H-M   'P 1'
_cell_length_a   12.71566800
_cell_length_b   12.97301920
_cell_length_c   3.97798300
_cell_angle_alpha   90.00000000
_cell_angle_beta   90.00000000
_cell_angle_gamma   119.34592475
_symmetry_Int_Tables_number   1
_chemical_formula_structural   Dy5Lu2P12Ir17
_chemical_formula_sum   'Dy5 Lu2 P12 Ir17'
_cell_volume   572.00341012
_cell_formula_units_Z   1
loop_
 _symmetry_equiv_pos_site_id
 _symmetry_equiv_pos_as_xyz
  1  'x, y, z'
loop_
 _atom_site_type_symbol
 _atom_site_label
 _atom_site_symmetry_multiplicity
 _atom_site_fract_x
 _atom_site_fract_y
 _atom_site_fract_z
 _atom_site_occupancy
  Dy  Dy0  1  0.330031  0.661611  0.500000  1
  Dy  Dy1  1  0.668420  0.338389  0.500000  1
  Dy  Dy2  1  0.001917  0.815666  0.000000  1
  Dy  Dy3  1  0.186251  0.184334  0.000000  1
  Dy  Dy4  1  0.810334  0.000000  0.000000  1
  Lu  Lu5  1  0.996617  0.443673  0.500000  1
  Lu  Lu6  1  0.552945  0.556327  0.500000  1
  P  P7  1  0.008650  0.656026  0.500000  1
  P  P8  1  0.352623  0.343974  0.500000  1
  P  P9  1  0.643800  0.000000  0.500000  1
  P  P10  1  0.515897  0.689319  0.000000  1
  P  P11  1  0.308878  0.824314  0.000000  1
  P  P12  1  0.166976  0.480505  0.000000  1
  P  P13  1  0.484564  0.175686  0.000000  1
  P  P14  1  0.686470  0.519495  0.000000  1
  P  P15  1  0.826577  0.310681  0.000000  1
  P  P16  1  0.999201  0.174634  0.500000  1
  P  P17  1  0.824567  0.825366  0.500000  1
  P  P18  1  0.181109  0.000000  0.500000  1
  Ir  Ir19  1  0.504050  0.865371  0.000000  1
  Ir  Ir20  1  0.123150  0.643946  0.000000  1
  Ir  Ir21  1  0.357954  0.499609  0.000000  1
  Ir  Ir22  1  0.479204  0.356054  0.000000  1
  Ir  Ir23  1  0.858347  0.500391  0.000000  1
  Ir  Ir24  1  0.638679  0.134629  0.000000  1
  Ir  Ir25  1  0.464533  0.000000  0.500000  1
  Ir  Ir26  1  0.996179  0.272970  0.000000  1
  Ir  Ir27  1  0.723209  0.727030  0.000000  1
  Ir  Ir28  1  0.286561  0.000000  0.000000  1
  Ir  Ir29  1  0.623450  0.810032  0.500000  1
  Ir  Ir30  1  0.207512  0.827733  0.500000  1
  Ir  Ir31  1  0.180006  0.364973  0.500000  1
  Ir  Ir32  1  0.379779  0.172267  0.500000  1
  Ir  Ir33  1  0.815033  0.635027  0.500000  1
  Ir  Ir34  1  0.813418  0.189968  0.500000  1
  Ir  Ir35  1  0.003107  0.000000  0.500000  1
