# generated using pymatgen
data_Y2Pu6Si13Sn
_symmetry_space_group_name_H-M   'P 1'
_cell_length_a   7.98042311
_cell_length_b   7.84456058
_cell_length_c   8.59742100
_cell_angle_alpha   89.74006109
_cell_angle_beta   90.22786489
_cell_angle_gamma   120.89801858
_symmetry_Int_Tables_number   1
_chemical_formula_structural   Y2Pu6Si13Sn
_chemical_formula_sum   'Y2 Pu6 Si13 Sn1'
_cell_volume   461.83473258
_cell_formula_units_Z   1
loop_
 _symmetry_equiv_pos_site_id
 _symmetry_equiv_pos_as_xyz
  1  'x, y, z'
loop_
 _atom_site_type_symbol
 _atom_site_label
 _atom_site_symmetry_multiplicity
 _atom_site_fract_x
 _atom_site_fract_y
 _atom_site_fract_z
 _atom_site_occupancy
  Y  Y0  1  0.267953  0.256403  0.991226  1
  Y  Y1  1  0.746328  0.749425  0.001683  1
  Pu  Pu2  1  0.744512  0.749618  0.498072  1
  Pu  Pu3  1  0.271080  0.259818  0.509588  1
  Pu  Pu4  1  0.253440  0.748774  0.495307  1
  Pu  Pu5  1  0.736077  0.254678  0.514116  1
  Pu  Pu6  1  0.736582  0.255424  0.986982  1
  Pu  Pu7  1  0.254500  0.746888  0.004262  1
  Si  Si8  1  0.949738  0.647860  0.748322  1
  Si  Si9  1  0.587781  0.421862  0.252756  1
  Si  Si10  1  0.413407  0.584573  0.747992  1
  Si  Si11  1  0.412531  0.590788  0.249905  1
  Si  Si12  1  0.595170  0.418893  0.749800  1
  Si  Si13  1  0.068738  0.942234  0.252373  1
  Si  Si14  1  0.940495  0.061006  0.746274  1
  Si  Si15  1  0.624773  0.944947  0.252717  1
  Si  Si16  1  0.371933  0.055623  0.748021  1
  Si  Si17  1  0.929727  0.589232  0.247800  1
  Si  Si18  1  0.066586  0.415091  0.750688  1
  Si  Si19  1  0.412125  0.072246  0.249178  1
  Si  Si20  1  0.592899  0.933643  0.751896  1
  Sn  Sn21  1  0.023626  0.300971  0.251039  1
