# generated using pymatgen
data_Re3Se2I5
_symmetry_space_group_name_H-M   'P 1'
_cell_length_a   10.33050231
_cell_length_b   10.34277976
_cell_length_c   14.02369159
_cell_angle_alpha   82.43376225
_cell_angle_beta   83.82924263
_cell_angle_gamma   83.11133211
_symmetry_Int_Tables_number   1
_chemical_formula_structural   Re3Se2I5
_chemical_formula_sum   'Re12 Se8 I20'
_cell_volume   1468.19328499
_cell_formula_units_Z   4
loop_
 _symmetry_equiv_pos_site_id
 _symmetry_equiv_pos_as_xyz
  1  'x, y, z'
loop_
 _atom_site_type_symbol
 _atom_site_label
 _atom_site_symmetry_multiplicity
 _atom_site_fract_x
 _atom_site_fract_y
 _atom_site_fract_z
 _atom_site_occupancy
  Re  Re0  1  0.069906  0.052515  0.106281  1
  Re  Re1  1  0.027523  0.823503  0.054356  1
  Re  Re2  1  0.170063  0.981890  0.935408  1
  Re  Re3  1  0.334307  0.595968  0.497808  1
  Re  Re4  1  0.420809  0.342489  0.506502  1
  Re  Re5  1  0.485225  0.490128  0.637110  1
  Re  Re6  1  0.513786  0.508922  0.363404  1
  Re  Re7  1  0.578010  0.656544  0.493900  1
  Re  Re8  1  0.664819  0.403027  0.502775  1
  Re  Re9  1  0.829107  0.017987  0.062973  1
  Re  Re10  1  0.975023  0.176314  0.942467  1
  Re  Re11  1  0.934620  0.948661  0.892583  1
  Se  Se12  1  0.073705  0.100694  0.784649  1
  Se  Se13  1  0.123181  0.766455  0.890776  1
  Se  Se14  1  0.283203  0.451613  0.375851  1
  Se  Se15  1  0.248905  0.866318  0.092618  1
  Se  Se16  1  0.403938  0.729710  0.620319  1
  Se  Se17  1  0.595202  0.269218  0.380294  1
  Se  Se18  1  0.752127  0.134304  0.906996  1
  Se  Se19  1  0.715645  0.547902  0.624715  1
  I  I20  1  0.076094  0.564708  0.131585  1
  I  I21  1  0.177883  0.121733  0.261088  1
  I  I22  1  0.089875  0.737447  0.493541  1
  I  I23  1  0.226716  0.429730  0.647184  1
  I  I24  1  0.222812  0.220526  0.988025  1
  I  I25  1  0.305843  0.115758  0.513721  1
  I  I26  1  0.419790  0.775704  0.349401  1
  I  I27  1  0.575463  0.047767  0.149374  1
  I  I28  1  0.468939  0.481931  0.836143  1
  I  I29  1  0.529476  0.516608  0.163961  1
  I  I30  1  0.418378  0.948478  0.841629  1
  I  I31  1  0.579233  0.222966  0.650767  1
  I  I32  1  0.691703  0.884573  0.486009  1
  I  I33  1  0.778042  0.780957  0.011883  1
  I  I34  1  0.772636  0.568214  0.352788  1
  I  I35  1  0.864459  0.256524  0.119599  1
  I  I36  1  0.909154  0.262050  0.506546  1
  I  I37  1  0.839188  0.877539  0.734069  1
  I  I38  1  0.921919  0.892924  0.236809  1
  I  I39  1  0.933293  0.429706  0.854099  1
