# generated using pymatgen
data_Dy12Cd2Tc3
_symmetry_space_group_name_H-M   'P 1'
_cell_length_a   8.42832871
_cell_length_b   8.42864033
_cell_length_c   8.42832903
_cell_angle_alpha   109.69686482
_cell_angle_beta   109.69860296
_cell_angle_gamma   109.01763966
_symmetry_Int_Tables_number   1
_chemical_formula_structural   Dy12Cd2Tc3
_chemical_formula_sum   'Dy12 Cd2 Tc3'
_cell_volume   460.89954595
_cell_formula_units_Z   1
loop_
 _symmetry_equiv_pos_site_id
 _symmetry_equiv_pos_as_xyz
  1  'x, y, z'
loop_
 _atom_site_type_symbol
 _atom_site_label
 _atom_site_symmetry_multiplicity
 _atom_site_fract_x
 _atom_site_fract_y
 _atom_site_fract_z
 _atom_site_occupancy
  Dy  Dy0  1  0.187168  0.431749  0.244581  1
  Dy  Dy1  1  0.812832  0.568251  0.755419  1
  Dy  Dy2  1  0.187173  0.942599  0.755425  1
  Dy  Dy3  1  0.942594  0.187169  0.755424  1
  Dy  Dy4  1  0.812827  0.057401  0.244575  1
  Dy  Dy5  1  0.057406  0.812831  0.244576  1
  Dy  Dy6  1  0.431746  0.187169  0.244577  1
  Dy  Dy7  1  0.568254  0.812831  0.755423  1
  Dy  Dy8  1  0.318883  0.318882  0.637774  1
  Dy  Dy9  1  0.681117  0.681118  0.362226  1
  Dy  Dy10  1  0.681109  0.318882  0.999999  1
  Dy  Dy11  1  0.318891  0.681118  0.000001  1
  Cd  Cd12  1  0.000000  0.500000  0.500000  1
  Cd  Cd13  1  0.500000  0.000000  0.500000  1
  Tc  Tc14  1  0.338377  0.338375  0.999997  1
  Tc  Tc15  1  0.661623  0.661625  0.000003  1
  Tc  Tc16  1  0.000000  0.000000  0.000000  1
