# generated using pymatgen
data_Pr3HoO6
_symmetry_space_group_name_H-M   'P 1'
_cell_length_a   7.01030809
_cell_length_b   7.01030727
_cell_length_c   7.01030732
_cell_angle_alpha   91.99535355
_cell_angle_beta   91.99535213
_cell_angle_gamma   91.99533250
_symmetry_Int_Tables_number   1
_chemical_formula_structural   Pr3HoO6
_chemical_formula_sum   'Pr6 Ho2 O12'
_cell_volume   343.87580853
_cell_formula_units_Z   2
loop_
 _symmetry_equiv_pos_site_id
 _symmetry_equiv_pos_as_xyz
  1  'x, y, z'
loop_
 _atom_site_type_symbol
 _atom_site_label
 _atom_site_symmetry_multiplicity
 _atom_site_fract_x
 _atom_site_fract_y
 _atom_site_fract_z
 _atom_site_occupancy
  Pr  Pr0  1  0.557718  0.064635  0.252752  1
  Pr  Pr1  1  0.064635  0.252752  0.557718  1
  Pr  Pr2  1  0.747248  0.442282  0.935365  1
  Pr  Pr3  1  0.252752  0.557718  0.064635  1
  Pr  Pr4  1  0.935365  0.747248  0.442282  1
  Pr  Pr5  1  0.442282  0.935365  0.747248  1
  Ho  Ho6  1  0.000000  0.000000  0.000000  1
  Ho  Ho7  1  0.500000  0.500000  0.500000  1
  O  O8  1  0.692439  0.088277  0.934482  1
  O  O9  1  0.911723  0.065518  0.307561  1
  O  O10  1  0.404524  0.192054  0.534471  1
  O  O11  1  0.065518  0.307561  0.911723  1
  O  O12  1  0.534471  0.404524  0.192054  1
  O  O13  1  0.807946  0.465529  0.595476  1
  O  O14  1  0.192054  0.534471  0.404524  1
  O  O15  1  0.465529  0.595476  0.807946  1
  O  O16  1  0.934482  0.692439  0.088277  1
  O  O17  1  0.595476  0.807946  0.465529  1
  O  O18  1  0.088277  0.934482  0.692439  1
  O  O19  1  0.307561  0.911723  0.065518  1
