# generated using pymatgen
data_RuCl3F2
_symmetry_space_group_name_H-M   'P 1'
_cell_length_a   10.01071924
_cell_length_b   10.01071937
_cell_length_c   10.01071919
_cell_angle_alpha   97.80558841
_cell_angle_beta   97.80559531
_cell_angle_gamma   136.75037304
_symmetry_Int_Tables_number   1
_chemical_formula_structural   RuCl3F2
_chemical_formula_sum   'Ru4 Cl12 F8'
_cell_volume   639.00384021
_cell_formula_units_Z   4
loop_
 _symmetry_equiv_pos_site_id
 _symmetry_equiv_pos_as_xyz
  1  'x, y, z'
loop_
 _atom_site_type_symbol
 _atom_site_label
 _atom_site_symmetry_multiplicity
 _atom_site_fract_x
 _atom_site_fract_y
 _atom_site_fract_z
 _atom_site_occupancy
  Ru  Ru0  1  0.532753  0.269821  0.829676  1
  Ru  Ru1  1  0.730179  0.559855  0.262932  1
  Ru  Ru2  1  0.296923  0.467247  0.737068  1
  Ru  Ru3  1  0.440145  0.703077  0.170324  1
  Cl  Cl4  1  0.682739  0.190610  0.892924  1
  Cl  Cl5  1  0.536540  0.837629  0.405452  1
  Cl  Cl6  1  0.868912  0.463460  0.301089  1
  Cl  Cl7  1  0.432177  0.131088  0.594548  1
  Cl  Cl8  1  0.140912  0.379775  0.151351  1
  Cl  Cl9  1  0.620225  0.771576  0.761136  1
  Cl  Cl10  1  0.010439  0.859088  0.238864  1
  Cl  Cl11  1  0.228424  0.989561  0.848649  1
  Cl  Cl12  1  0.210185  0.317261  0.507871  1
  Cl  Cl13  1  0.297687  0.789815  0.107076  1
  Cl  Cl14  1  0.162371  0.567823  0.698911  1
  Cl  Cl15  1  0.809390  0.702313  0.492129  1
  F  F16  1  0.786881  0.535811  0.832708  1
  F  F17  1  0.464189  0.296896  0.251070  1
  F  F18  1  0.045827  0.213119  0.748930  1
  F  F19  1  0.703104  0.954173  0.167292  1
  F  F20  1  0.381488  0.583360  0.957208  1
  F  F21  1  0.575720  0.618512  0.201872  1
  F  F22  1  0.416640  0.373849  0.798128  1
  F  F23  1  0.626151  0.424280  0.042792  1
