# generated using pymatgen
data_TmNbReB6
_symmetry_space_group_name_H-M   'P 1'
_cell_length_a   3.54343500
_cell_length_b   8.93085500
_cell_length_c   11.27506700
_cell_angle_alpha   90.00000000
_cell_angle_beta   90.00000000
_cell_angle_gamma   90.00000000
_symmetry_Int_Tables_number   1
_chemical_formula_structural   TmNbReB6
_chemical_formula_sum   'Tm4 Nb4 Re4 B24'
_cell_volume   356.80968998
_cell_formula_units_Z   4
loop_
 _symmetry_equiv_pos_site_id
 _symmetry_equiv_pos_as_xyz
  1  'x, y, z'
loop_
 _atom_site_type_symbol
 _atom_site_label
 _atom_site_symmetry_multiplicity
 _atom_site_fract_x
 _atom_site_fract_y
 _atom_site_fract_z
 _atom_site_occupancy
  Tm  Tm0  1  0.000000  0.322381  0.413050  1
  Tm  Tm1  1  0.000000  0.677619  0.586950  1
  Tm  Tm2  1  0.000000  0.822381  0.086950  1
  Tm  Tm3  1  0.000000  0.177619  0.913050  1
  Nb  Nb4  1  0.000000  0.945198  0.374576  1
  Nb  Nb5  1  0.000000  0.054802  0.625424  1
  Nb  Nb6  1  0.000000  0.445198  0.125424  1
  Nb  Nb7  1  0.000000  0.554802  0.874576  1
  Re  Re8  1  0.000000  0.642774  0.318389  1
  Re  Re9  1  0.000000  0.357226  0.681611  1
  Re  Re10  1  0.000000  0.142774  0.181611  1
  Re  Re11  1  0.000000  0.857226  0.818389  1
  B  B12  1  0.500000  0.553905  0.434533  1
  B  B13  1  0.500000  0.446095  0.565467  1
  B  B14  1  0.500000  0.053905  0.065467  1
  B  B15  1  0.500000  0.946095  0.934533  1
  B  B16  1  0.500000  0.753693  0.419335  1
  B  B17  1  0.500000  0.246307  0.580665  1
  B  B18  1  0.500000  0.253693  0.080665  1
  B  B19  1  0.500000  0.746307  0.919335  1
  B  B20  1  0.500000  0.796806  0.263041  1
  B  B21  1  0.500000  0.203194  0.736959  1
  B  B22  1  0.500000  0.296806  0.236959  1
  B  B23  1  0.500000  0.703194  0.763041  1
  B  B24  1  0.500000  0.629521  0.181598  1
  B  B25  1  0.500000  0.370479  0.818402  1
  B  B26  1  0.500000  0.129521  0.318402  1
  B  B27  1  0.500000  0.870479  0.681598  1
  B  B28  1  0.500000  0.980616  0.213126  1
  B  B29  1  0.500000  0.019384  0.786874  1
  B  B30  1  0.500000  0.480616  0.286874  1
  B  B31  1  0.500000  0.519384  0.713126  1
  B  B32  1  0.500000  0.599611  0.027005  1
  B  B33  1  0.500000  0.400389  0.972995  1
  B  B34  1  0.500000  0.099611  0.472995  1
  B  B35  1  0.500000  0.900389  0.527005  1
