# generated using pymatgen
data_LuNi3As2
_symmetry_space_group_name_H-M   'P 1'
_cell_length_a   3.83948000
_cell_length_b   10.80442600
_cell_length_c   12.64602500
_cell_angle_alpha   90.00000000
_cell_angle_beta   90.00000000
_cell_angle_gamma   90.00000000
_symmetry_Int_Tables_number   1
_chemical_formula_structural   LuNi3As2
_chemical_formula_sum   'Lu6 Ni18 As12'
_cell_volume   524.59982944
_cell_formula_units_Z   6
loop_
 _symmetry_equiv_pos_site_id
 _symmetry_equiv_pos_as_xyz
  1  'x, y, z'
loop_
 _atom_site_type_symbol
 _atom_site_label
 _atom_site_symmetry_multiplicity
 _atom_site_fract_x
 _atom_site_fract_y
 _atom_site_fract_z
 _atom_site_occupancy
  Lu  Lu0  1  0.000000  0.500000  0.524575  1
  Lu  Lu1  1  0.500000  0.000000  0.475425  1
  Lu  Lu2  1  0.500000  0.818240  0.207582  1
  Lu  Lu3  1  0.500000  0.181760  0.207582  1
  Lu  Lu4  1  0.000000  0.681760  0.792418  1
  Lu  Lu5  1  0.000000  0.318240  0.792418  1
  Ni  Ni6  1  0.500000  0.500000  0.157850  1
  Ni  Ni7  1  0.000000  0.000000  0.842150  1
  Ni  Ni8  1  0.500000  0.500000  0.699282  1
  Ni  Ni9  1  0.000000  0.000000  0.300718  1
  Ni  Ni10  1  0.000000  0.500000  0.983304  1
  Ni  Ni11  1  0.500000  0.000000  0.016696  1
  Ni  Ni12  1  0.500000  0.332799  0.997256  1
  Ni  Ni13  1  0.500000  0.667201  0.997256  1
  Ni  Ni14  1  0.000000  0.167201  0.002744  1
  Ni  Ni15  1  0.000000  0.832799  0.002744  1
  Ni  Ni16  1  0.500000  0.303407  0.427409  1
  Ni  Ni17  1  0.500000  0.696593  0.427409  1
  Ni  Ni18  1  0.000000  0.196593  0.572591  1
  Ni  Ni19  1  0.000000  0.803407  0.572591  1
  Ni  Ni20  1  0.500000  0.878298  0.706938  1
  Ni  Ni21  1  0.500000  0.121702  0.706938  1
  Ni  Ni22  1  0.000000  0.621702  0.293062  1
  Ni  Ni23  1  0.000000  0.378298  0.293062  1
  As  As24  1  0.500000  0.500000  0.875758  1
  As  As25  1  0.000000  0.000000  0.124242  1
  As  As26  1  0.500000  0.500000  0.347835  1
  As  As27  1  0.000000  0.000000  0.652165  1
  As  As28  1  0.500000  0.316065  0.613973  1
  As  As29  1  0.500000  0.683935  0.613973  1
  As  As30  1  0.000000  0.183935  0.386027  1
  As  As31  1  0.000000  0.816065  0.386027  1
  As  As32  1  0.500000  0.845667  0.888686  1
  As  As33  1  0.500000  0.154333  0.888686  1
  As  As34  1  0.000000  0.654333  0.111314  1
  As  As35  1  0.000000  0.345667  0.111314  1
