# generated using pymatgen
data_ErLu19Pt12
_symmetry_space_group_name_H-M   'P 1'
_cell_length_a   10.79939702
_cell_length_b   10.80019526
_cell_length_c   6.37493700
_cell_angle_alpha   89.98752248
_cell_angle_beta   90.00371382
_cell_angle_gamma   89.99830849
_symmetry_Int_Tables_number   1
_chemical_formula_structural   ErLu19Pt12
_chemical_formula_sum   'Er1 Lu19 Pt12'
_cell_volume   743.54456041
_cell_formula_units_Z   1
loop_
 _symmetry_equiv_pos_site_id
 _symmetry_equiv_pos_as_xyz
  1  'x, y, z'
loop_
 _atom_site_type_symbol
 _atom_site_label
 _atom_site_symmetry_multiplicity
 _atom_site_fract_x
 _atom_site_fract_y
 _atom_site_fract_z
 _atom_site_occupancy
  Er  Er0  1  0.087415  0.291294  0.123073  1
  Lu  Lu1  1  0.292500  0.086818  0.377471  1
  Lu  Lu2  1  0.292316  0.912915  0.877598  1
  Lu  Lu3  1  0.707722  0.087201  0.877260  1
  Lu  Lu4  1  0.707698  0.912878  0.377403  1
  Lu  Lu5  1  0.587131  0.792188  0.877635  1
  Lu  Lu6  1  0.587122  0.207898  0.377274  1
  Lu  Lu7  1  0.412942  0.792168  0.377414  1
  Lu  Lu8  1  0.412787  0.207875  0.877309  1
  Lu  Lu9  1  0.207846  0.413051  0.622571  1
  Lu  Lu10  1  0.207791  0.587538  0.122720  1
  Lu  Lu11  1  0.791882  0.412969  0.122654  1
  Lu  Lu12  1  0.792148  0.587184  0.622727  1
  Lu  Lu13  1  0.912716  0.707746  0.122740  1
  Lu  Lu14  1  0.912489  0.292270  0.622734  1
  Lu  Lu15  1  0.087436  0.707838  0.622607  1
  Lu  Lu16  1  0.999854  0.999976  0.499918  1
  Lu  Lu17  1  0.999791  0.999557  0.999613  1
  Lu  Lu18  1  0.499813  0.500007  0.999724  1
  Lu  Lu19  1  0.500078  0.500068  0.500087  1
  Pt  Pt20  1  0.845439  0.153442  0.250160  1
  Pt  Pt21  1  0.845953  0.846214  0.750017  1
  Pt  Pt22  1  0.154245  0.153199  0.748023  1
  Pt  Pt23  1  0.153793  0.846447  0.250120  1
  Pt  Pt24  1  0.653742  0.346120  0.750151  1
  Pt  Pt25  1  0.653659  0.653888  0.250021  1
  Pt  Pt26  1  0.347271  0.346458  0.250584  1
  Pt  Pt27  1  0.346253  0.653961  0.750164  1
  Pt  Pt28  1  0.500200  0.000058  0.118740  1
  Pt  Pt29  1  0.500121  0.999920  0.618897  1
  Pt  Pt30  1  0.999901  0.500539  0.881067  1
  Pt  Pt31  1  0.999946  0.500315  0.381527  1
