# generated using pymatgen
data_Zr5InBi2P
_symmetry_space_group_name_H-M   'P 1'
_cell_length_a   8.70028303
_cell_length_b   8.70028292
_cell_length_c   6.04728000
_cell_angle_alpha   90.00000000
_cell_angle_beta   90.00000000
_cell_angle_gamma   119.72533447
_symmetry_Int_Tables_number   1
_chemical_formula_structural   Zr5InBi2P
_chemical_formula_sum   'Zr10 In2 Bi4 P2'
_cell_volume   397.51436447
_cell_formula_units_Z   2
loop_
 _symmetry_equiv_pos_site_id
 _symmetry_equiv_pos_as_xyz
  1  'x, y, z'
loop_
 _atom_site_type_symbol
 _atom_site_label
 _atom_site_symmetry_multiplicity
 _atom_site_fract_x
 _atom_site_fract_y
 _atom_site_fract_z
 _atom_site_occupancy
  Zr  Zr0  1  0.753323  0.005661  0.250000  1
  Zr  Zr1  1  0.005661  0.753323  0.250000  1
  Zr  Zr2  1  0.247503  0.247503  0.250000  1
  Zr  Zr3  1  0.240361  0.998137  0.750000  1
  Zr  Zr4  1  0.998137  0.240361  0.750000  1
  Zr  Zr5  1  0.757416  0.757416  0.750000  1
  Zr  Zr6  1  0.332338  0.667516  0.495368  1
  Zr  Zr7  1  0.667516  0.332338  0.495368  1
  Zr  Zr8  1  0.667516  0.332338  0.004632  1
  Zr  Zr9  1  0.332338  0.667516  0.004632  1
  In  In10  1  0.397550  0.001374  0.250000  1
  In  In11  1  0.001374  0.397550  0.250000  1
  Bi  Bi12  1  0.605306  0.605306  0.250000  1
  Bi  Bi13  1  0.594221  0.000131  0.750000  1
  Bi  Bi14  1  0.000131  0.594221  0.750000  1
  Bi  Bi15  1  0.399453  0.399453  0.750000  1
  P  P16  1  0.999927  0.999927  0.495675  1
  P  P17  1  0.999927  0.999927  0.004325  1
