# generated using pymatgen
data_YbEr(Ga3Ir)3
_symmetry_space_group_name_H-M   'P 1'
_cell_length_a   7.56155200
_cell_length_b   7.55673153
_cell_length_c   9.58395000
_cell_angle_alpha   90.00000000
_cell_angle_beta   90.00000000
_cell_angle_gamma   119.73935545
_symmetry_Int_Tables_number   1
_chemical_formula_structural   YbEr(Ga3Ir)3
_chemical_formula_sum   'Yb2 Er2 Ga18 Ir6'
_cell_volume   475.50465107
_cell_formula_units_Z   2
loop_
 _symmetry_equiv_pos_site_id
 _symmetry_equiv_pos_as_xyz
  1  'x, y, z'
loop_
 _atom_site_type_symbol
 _atom_site_label
 _atom_site_symmetry_multiplicity
 _atom_site_fract_x
 _atom_site_fract_y
 _atom_site_fract_z
 _atom_site_occupancy
  Yb  Yb0  1  0.669062  0.996513  0.250000  1
  Yb  Yb1  1  0.330938  0.003487  0.750000  1
  Er  Er2  1  0.998012  0.669469  0.250000  1
  Er  Er3  1  0.001988  0.330531  0.750000  1
  Ga  Ga4  1  0.128735  0.126589  0.250000  1
  Ga  Ga5  1  0.871265  0.873411  0.750000  1
  Ga  Ga6  1  0.998935  0.333697  0.079065  1
  Ga  Ga7  1  0.001065  0.666303  0.920935  1
  Ga  Ga8  1  0.001065  0.666303  0.579065  1
  Ga  Ga9  1  0.335223  0.000156  0.422055  1
  Ga  Ga10  1  0.998935  0.333697  0.420935  1
  Ga  Ga11  1  0.664777  0.999844  0.577945  1
  Ga  Ga12  1  0.664777  0.999844  0.922055  1
  Ga  Ga13  1  0.335223  0.000156  0.077945  1
  Ga  Ga14  1  0.332570  0.332285  0.564766  1
  Ga  Ga15  1  0.667430  0.667715  0.435234  1
  Ga  Ga16  1  0.667430  0.667715  0.064766  1
  Ga  Ga17  1  0.332570  0.332285  0.935234  1
  Ga  Ga18  1  0.335876  0.545900  0.250000  1
  Ga  Ga19  1  0.664124  0.454100  0.750000  1
  Ga  Ga20  1  0.547262  0.339005  0.250000  1
  Ga  Ga21  1  0.452738  0.660995  0.750000  1
  Ir  Ir22  1  0.671915  0.328671  0.999717  1
  Ir  Ir23  1  0.328085  0.671329  0.000283  1
  Ir  Ir24  1  0.328085  0.671329  0.499717  1
  Ir  Ir25  1  0.671915  0.328671  0.500283  1
  Ir  Ir26  1  0.000000  0.000000  0.000000  1
  Ir  Ir27  1  0.000000  0.000000  0.500000  1
