# generated using pymatgen
data_Y3VB7
_symmetry_space_group_name_H-M   'P 1'
_cell_length_a   8.16049424
_cell_length_b   8.16049345
_cell_length_c   9.43767300
_cell_angle_alpha   90.00000000
_cell_angle_beta   90.00000000
_cell_angle_gamma   155.63353981
_symmetry_Int_Tables_number   1
_chemical_formula_structural   Y3VB7
_chemical_formula_sum   'Y6 V2 B14'
_cell_volume   259.29657677
_cell_formula_units_Z   2
loop_
 _symmetry_equiv_pos_site_id
 _symmetry_equiv_pos_as_xyz
  1  'x, y, z'
loop_
 _atom_site_type_symbol
 _atom_site_label
 _atom_site_symmetry_multiplicity
 _atom_site_fract_x
 _atom_site_fract_y
 _atom_site_fract_z
 _atom_site_occupancy
  Y  Y0  1  0.894430  0.105570  0.940577  1
  Y  Y1  1  0.105570  0.894430  0.059423  1
  Y  Y2  1  0.758063  0.241937  0.250000  1
  Y  Y3  1  0.241937  0.758063  0.750000  1
  Y  Y4  1  0.894430  0.105570  0.559423  1
  Y  Y5  1  0.105570  0.894430  0.440577  1
  V  V6  1  0.052717  0.947283  0.750000  1
  V  V7  1  0.947283  0.052717  0.250000  1
  B  B8  1  0.540796  0.459204  0.250000  1
  B  B9  1  0.459204  0.540796  0.750000  1
  B  B10  1  0.520987  0.479013  0.904857  1
  B  B11  1  0.479013  0.520987  0.095143  1
  B  B12  1  0.479013  0.520987  0.404857  1
  B  B13  1  0.520987  0.479013  0.595143  1
  B  B14  1  0.632058  0.367942  0.850347  1
  B  B15  1  0.367942  0.632058  0.149653  1
  B  B16  1  0.727009  0.272991  0.968590  1
  B  B17  1  0.272991  0.727009  0.031410  1
  B  B18  1  0.272991  0.727009  0.468590  1
  B  B19  1  0.727009  0.272991  0.531410  1
  B  B20  1  0.632058  0.367942  0.649653  1
  B  B21  1  0.367942  0.632058  0.350347  1
