# generated using pymatgen
data_Tb3Pr17(BiPb)8
_symmetry_space_group_name_H-M   'P 1'
_cell_length_a   8.49315200
_cell_length_b   16.25062300
_cell_length_c   8.56842800
_cell_angle_alpha   90.00000000
_cell_angle_beta   89.87259951
_cell_angle_gamma   90.00000000
_symmetry_Int_Tables_number   1
_chemical_formula_structural   Tb3Pr17(BiPb)8
_chemical_formula_sum   'Tb3 Pr17 Bi8 Pb8'
_cell_volume   1182.60303630
_cell_formula_units_Z   1
loop_
 _symmetry_equiv_pos_site_id
 _symmetry_equiv_pos_as_xyz
  1  'x, y, z'
loop_
 _atom_site_type_symbol
 _atom_site_label
 _atom_site_symmetry_multiplicity
 _atom_site_fract_x
 _atom_site_fract_y
 _atom_site_fract_z
 _atom_site_occupancy
  Tb  Tb0  1  0.290068  0.750000  0.996361  1
  Tb  Tb1  1  0.209967  0.250000  0.495879  1
  Tb  Tb2  1  0.709822  0.250000  0.004942  1
  Pr  Pr3  1  0.620687  0.619471  0.159123  1
  Pr  Pr4  1  0.120920  0.879871  0.340358  1
  Pr  Pr5  1  0.378050  0.119928  0.841902  1
  Pr  Pr6  1  0.878633  0.378404  0.659476  1
  Pr  Pr7  1  0.378050  0.380072  0.841902  1
  Pr  Pr8  1  0.878633  0.121596  0.659476  1
  Pr  Pr9  1  0.620687  0.880529  0.159123  1
  Pr  Pr10  1  0.120920  0.620129  0.340358  1
  Pr  Pr11  1  0.458206  0.603998  0.673778  1
  Pr  Pr12  1  0.957708  0.896017  0.824214  1
  Pr  Pr13  1  0.543168  0.105291  0.327015  1
  Pr  Pr14  1  0.042393  0.396244  0.174614  1
  Pr  Pr15  1  0.543168  0.394709  0.327015  1
  Pr  Pr16  1  0.042393  0.103756  0.174614  1
  Pr  Pr17  1  0.458206  0.896002  0.673778  1
  Pr  Pr18  1  0.957708  0.603983  0.824214  1
  Pr  Pr19  1  0.791588  0.750000  0.504628  1
  Bi  Bi20  1  0.724396  0.450931  0.975888  1
  Bi  Bi21  1  0.224164  0.048665  0.524633  1
  Bi  Bi22  1  0.275279  0.950990  0.023209  1
  Bi  Bi23  1  0.775269  0.544979  0.473624  1
  Bi  Bi24  1  0.275279  0.549010  0.023209  1
  Bi  Bi25  1  0.775269  0.955021  0.473624  1
  Bi  Bi26  1  0.724396  0.049069  0.975888  1
  Bi  Bi27  1  0.224164  0.451335  0.524633  1
  Pb  Pb28  1  0.423657  0.750000  0.371140  1
  Pb  Pb29  1  0.927012  0.750000  0.123572  1
  Pb  Pb30  1  0.572144  0.250000  0.627957  1
  Pb  Pb31  1  0.073774  0.250000  0.874675  1
  Pb  Pb32  1  0.647415  0.750000  0.855892  1
  Pb  Pb33  1  0.154816  0.750000  0.649689  1
  Pb  Pb34  1  0.350309  0.250000  0.148865  1
  Pb  Pb35  1  0.851690  0.250000  0.350735  1
