# generated using pymatgen
data_Dy2ErZn2Co9B4
_symmetry_space_group_name_H-M   'P 1'
_cell_length_a   5.11342600
_cell_length_b   5.11342616
_cell_length_c   9.68956200
_cell_angle_alpha   90.00000000
_cell_angle_beta   90.00000000
_cell_angle_gamma   119.99999897
_symmetry_Int_Tables_number   1
_chemical_formula_structural   Dy2ErZn2Co9B4
_chemical_formula_sum   'Dy2 Er1 Zn2 Co9 B4'
_cell_volume   219.41117660
_cell_formula_units_Z   1
loop_
 _symmetry_equiv_pos_site_id
 _symmetry_equiv_pos_as_xyz
  1  'x, y, z'
loop_
 _atom_site_type_symbol
 _atom_site_label
 _atom_site_symmetry_multiplicity
 _atom_site_fract_x
 _atom_site_fract_y
 _atom_site_fract_z
 _atom_site_occupancy
  Dy  Dy0  1  0.000000  0.000000  0.000705  1
  Dy  Dy1  1  0.000000  0.000000  0.657486  1
  Er  Er2  1  0.000000  0.000000  0.342263  1
  Zn  Zn3  1  0.666667  0.333333  0.000214  1
  Zn  Zn4  1  0.333333  0.666667  0.000214  1
  Co  Co5  1  0.500000  0.500000  0.499535  1
  Co  Co6  1  0.500000  0.000000  0.499535  1
  Co  Co7  1  0.000000  0.500000  0.499535  1
  Co  Co8  1  0.500000  0.500000  0.789058  1
  Co  Co9  1  0.500000  0.000000  0.789058  1
  Co  Co10  1  0.000000  0.500000  0.789058  1
  Co  Co11  1  0.500000  0.500000  0.211361  1
  Co  Co12  1  0.500000  0.000000  0.211361  1
  Co  Co13  1  0.000000  0.500000  0.211361  1
  B  B14  1  0.666667  0.333333  0.648608  1
  B  B15  1  0.333333  0.666667  0.648608  1
  B  B16  1  0.333333  0.666667  0.351021  1
  B  B17  1  0.666667  0.333333  0.351021  1
