# generated using pymatgen
data_MnCdI4
_symmetry_space_group_name_H-M   'P 1'
_cell_length_a   7.79408190
_cell_length_b   7.79408146
_cell_length_c   7.79408066
_cell_angle_alpha   127.51569579
_cell_angle_beta   127.51569280
_cell_angle_gamma   77.41090702
_symmetry_Int_Tables_number   1
_chemical_formula_structural   MnCdI4
_chemical_formula_sum   'Mn1 Cd1 I4'
_cell_volume   288.95236443
_cell_formula_units_Z   1
loop_
 _symmetry_equiv_pos_site_id
 _symmetry_equiv_pos_as_xyz
  1  'x, y, z'
loop_
 _atom_site_type_symbol
 _atom_site_label
 _atom_site_symmetry_multiplicity
 _atom_site_fract_x
 _atom_site_fract_y
 _atom_site_fract_z
 _atom_site_occupancy
  Mn  Mn0  1  0.750000  0.250000  0.500000  1
  Cd  Cd1  1  0.500000  0.500000  0.000000  1
  I  I2  1  0.632827  0.146600  0.035475  1
  I  I3  1  0.853401  0.888877  0.486227  1
  I  I4  1  0.402649  0.367173  0.513774  1
  I  I5  1  0.111124  0.597352  0.964525  1
