# generated using pymatgen
data_Ca2TmTaO6
_symmetry_space_group_name_H-M   'P 1'
_cell_length_a   5.81784400
_cell_length_b   5.61176484
_cell_length_c   9.85149821
_cell_angle_alpha   55.09984101
_cell_angle_beta   90.00000000
_cell_angle_gamma   90.00000000
_symmetry_Int_Tables_number   1
_chemical_formula_structural   Ca2TmTaO6
_chemical_formula_sum   'Ca4 Tm2 Ta2 O12'
_cell_volume   263.78935173
_cell_formula_units_Z   2
loop_
 _symmetry_equiv_pos_site_id
 _symmetry_equiv_pos_as_xyz
  1  'x, y, z'
loop_
 _atom_site_type_symbol
 _atom_site_label
 _atom_site_symmetry_multiplicity
 _atom_site_fract_x
 _atom_site_fract_y
 _atom_site_fract_z
 _atom_site_occupancy
  Ca  Ca0  1  0.447200  0.234948  0.751191  1
  Ca  Ca1  1  0.552800  0.765052  0.248809  1
  Ca  Ca2  1  0.947200  0.765052  0.748809  1
  Ca  Ca3  1  0.052800  0.234948  0.251191  1
  Tm  Tm4  1  0.000000  0.000000  0.000000  1
  Tm  Tm5  1  0.500000  0.000000  0.500000  1
  Ta  Ta6  1  0.000000  0.500000  0.500000  1
  Ta  Ta7  1  0.500000  0.500000  0.000000  1
  O  O8  1  0.041585  0.371768  0.736216  1
  O  O9  1  0.958415  0.628232  0.263784  1
  O  O10  1  0.541585  0.628232  0.763784  1
  O  O11  1  0.458415  0.371768  0.236216  1
  O  O12  1  0.687236  0.844369  0.945529  1
  O  O13  1  0.312764  0.155631  0.054471  1
  O  O14  1  0.187236  0.155631  0.554471  1
  O  O15  1  0.812764  0.844369  0.445529  1
  O  O16  1  0.212167  0.742423  0.939733  1
  O  O17  1  0.787833  0.257577  0.060267  1
  O  O18  1  0.712167  0.257577  0.560267  1
  O  O19  1  0.287833  0.742423  0.439733  1
