# generated using pymatgen
data_Pr3In3HgRh2
_symmetry_space_group_name_H-M   'P 1'
_cell_length_a   8.00583400
_cell_length_b   8.00583433
_cell_length_c   3.96265700
_cell_angle_alpha   90.00000000
_cell_angle_beta   90.00000000
_cell_angle_gamma   119.99999865
_symmetry_Int_Tables_number   1
_chemical_formula_structural   Pr3In3HgRh2
_chemical_formula_sum   'Pr3 In3 Hg1 Rh2'
_cell_volume   219.95320736
_cell_formula_units_Z   1
loop_
 _symmetry_equiv_pos_site_id
 _symmetry_equiv_pos_as_xyz
  1  'x, y, z'
loop_
 _atom_site_type_symbol
 _atom_site_label
 _atom_site_symmetry_multiplicity
 _atom_site_fract_x
 _atom_site_fract_y
 _atom_site_fract_z
 _atom_site_occupancy
  Pr  Pr0  1  0.974162  0.580454  0.500000  1
  Pr  Pr1  1  0.419546  0.393708  0.500000  1
  Pr  Pr2  1  0.606292  0.025838  0.500000  1
  In  In3  1  0.754385  0.751247  0.000000  1
  In  In4  1  0.996862  0.245615  0.000000  1
  In  In5  1  0.248753  0.003138  0.000000  1
  Hg  Hg6  1  0.333333  0.666667  0.000000  1
  Rh  Rh7  1  0.000000  0.000000  0.500000  1
  Rh  Rh8  1  0.666667  0.333333  0.000000  1
