# generated using pymatgen
data_Ho8MnFeI8
_symmetry_space_group_name_H-M   'P 1'
_cell_length_a   11.35307799
_cell_length_b   11.35307934
_cell_length_c   6.09688700
_cell_angle_alpha   89.89248972
_cell_angle_beta   89.89248971
_cell_angle_gamma   88.53631070
_symmetry_Int_Tables_number   1
_chemical_formula_structural   Ho8MnFeI8
_chemical_formula_sum   'Ho8 Mn1 Fe1 I8'
_cell_volume   785.58326155
_cell_formula_units_Z   1
loop_
 _symmetry_equiv_pos_site_id
 _symmetry_equiv_pos_as_xyz
  1  'x, y, z'
loop_
 _atom_site_type_symbol
 _atom_site_label
 _atom_site_symmetry_multiplicity
 _atom_site_fract_x
 _atom_site_fract_y
 _atom_site_fract_z
 _atom_site_occupancy
  Ho  Ho0  1  0.191112  0.919484  0.001144  1
  Ho  Ho1  1  0.808833  0.080612  0.001791  1
  Ho  Ho2  1  0.080516  0.808888  0.498856  1
  Ho  Ho3  1  0.919388  0.191167  0.498209  1
  Ho  Ho4  1  0.809074  0.922799  0.499458  1
  Ho  Ho5  1  0.190850  0.077196  0.497345  1
  Ho  Ho6  1  0.077201  0.190926  0.000542  1
  Ho  Ho7  1  0.922804  0.809150  0.002655  1
  Mn  Mn8  1  0.999921  0.000079  0.250000  1
  Fe  Fe9  1  0.000015  0.999985  0.750000  1
  I  I10  1  0.353551  0.849045  0.493428  1
  I  I11  1  0.646334  0.150761  0.496678  1
  I  I12  1  0.150955  0.646449  0.006572  1
  I  I13  1  0.849239  0.353666  0.003322  1
  I  I14  1  0.349949  0.142426  0.004719  1
  I  I15  1  0.650158  0.857476  0.005286  1
  I  I16  1  0.857574  0.650051  0.495281  1
  I  I17  1  0.142524  0.349842  0.494714  1
