# generated using pymatgen
data_YTm3(ScRh)4
_symmetry_space_group_name_H-M   'P 1'
_cell_length_a   4.25711400
_cell_length_b   7.16558548
_cell_length_c   8.61272300
_cell_angle_alpha   89.65052574
_cell_angle_beta   90.00000000
_cell_angle_gamma   90.00000000
_symmetry_Int_Tables_number   1
_chemical_formula_structural   YTm3(ScRh)4
_chemical_formula_sum   'Y1 Tm3 Sc4 Rh4'
_cell_volume   262.72376677
_cell_formula_units_Z   1
loop_
 _symmetry_equiv_pos_site_id
 _symmetry_equiv_pos_as_xyz
  1  'x, y, z'
loop_
 _atom_site_type_symbol
 _atom_site_label
 _atom_site_symmetry_multiplicity
 _atom_site_fract_x
 _atom_site_fract_y
 _atom_site_fract_z
 _atom_site_occupancy
  Y  Y0  1  0.250000  0.984831  0.325497  1
  Tm  Tm1  1  0.750000  0.518175  0.826558  1
  Tm  Tm2  1  0.250000  0.481563  0.172667  1
  Tm  Tm3  1  0.750000  0.017248  0.673110  1
  Sc  Sc4  1  0.750000  0.640682  0.434089  1
  Sc  Sc5  1  0.750000  0.140066  0.063314  1
  Sc  Sc6  1  0.250000  0.360277  0.568615  1
  Sc  Sc7  1  0.250000  0.857409  0.932488  1
  Rh  Rh8  1  0.750000  0.754672  0.101517  1
  Rh  Rh9  1  0.750000  0.263023  0.398428  1
  Rh  Rh10  1  0.250000  0.241318  0.896668  1
  Rh  Rh11  1  0.250000  0.740736  0.607047  1
