# generated using pymatgen
data_Pr3Nd(TaN2)4
_symmetry_space_group_name_H-M   'P 1'
_cell_length_a   3.39424000
_cell_length_b   5.84976227
_cell_length_c   11.10922952
_cell_angle_alpha   89.96506117
_cell_angle_beta   90.00000000
_cell_angle_gamma   90.00000000
_symmetry_Int_Tables_number   1
_chemical_formula_structural   Pr3Nd(TaN2)4
_chemical_formula_sum   'Pr3 Nd1 Ta4 N8'
_cell_volume   220.57923337
_cell_formula_units_Z   1
loop_
 _symmetry_equiv_pos_site_id
 _symmetry_equiv_pos_as_xyz
  1  'x, y, z'
loop_
 _atom_site_type_symbol
 _atom_site_label
 _atom_site_symmetry_multiplicity
 _atom_site_fract_x
 _atom_site_fract_y
 _atom_site_fract_z
 _atom_site_occupancy
  Pr  Pr0  1  0.250000  0.586215  0.864187  1
  Pr  Pr1  1  0.750000  0.413892  0.135707  1
  Pr  Pr2  1  0.750000  0.913844  0.364649  1
  Nd  Nd3  1  0.250000  0.086147  0.635975  1
  Ta  Ta4  1  0.250000  0.919914  0.112177  1
  Ta  Ta5  1  0.750000  0.080299  0.887341  1
  Ta  Ta6  1  0.750000  0.580462  0.612025  1
  Ta  Ta7  1  0.250000  0.419375  0.388119  1
  N  N8  1  0.250000  0.663875  0.246977  1
  N  N9  1  0.750000  0.335002  0.752301  1
  N  N10  1  0.750000  0.837371  0.745715  1
  N  N11  1  0.250000  0.164109  0.253417  1
  N  N12  1  0.250000  0.718313  0.515078  1
  N  N13  1  0.750000  0.281188  0.486756  1
  N  N14  1  0.750000  0.783336  0.014056  1
  N  N15  1  0.250000  0.216660  0.985521  1
