# generated using pymatgen
data_TbSc6Co6Sn23
_symmetry_space_group_name_H-M   'P 1'
_cell_length_a   9.55034400
_cell_length_b   9.55034492
_cell_length_c   9.80399100
_cell_angle_alpha   90.00000000
_cell_angle_beta   90.00000000
_cell_angle_gamma   120.00000375
_symmetry_Int_Tables_number   1
_chemical_formula_structural   TbSc6Co6Sn23
_chemical_formula_sum   'Tb1 Sc6 Co6 Sn23'
_cell_volume   774.41113845
_cell_formula_units_Z   1
loop_
 _symmetry_equiv_pos_site_id
 _symmetry_equiv_pos_as_xyz
  1  'x, y, z'
loop_
 _atom_site_type_symbol
 _atom_site_label
 _atom_site_symmetry_multiplicity
 _atom_site_fract_x
 _atom_site_fract_y
 _atom_site_fract_z
 _atom_site_occupancy
  Tb  Tb0  1  0.000000  0.000000  0.000000  1
  Sc  Sc1  1  0.481353  0.518647  0.307727  1
  Sc  Sc2  1  0.518647  0.481353  0.692273  1
  Sc  Sc3  1  0.481353  0.962705  0.307727  1
  Sc  Sc4  1  0.518647  0.037295  0.692273  1
  Sc  Sc5  1  0.037295  0.518647  0.307727  1
  Sc  Sc6  1  0.962705  0.481353  0.692273  1
  Co  Co7  1  0.831075  0.168925  0.198589  1
  Co  Co8  1  0.168925  0.831075  0.801411  1
  Co  Co9  1  0.831075  0.662149  0.198589  1
  Co  Co10  1  0.168925  0.337851  0.801411  1
  Co  Co11  1  0.337851  0.168925  0.198589  1
  Co  Co12  1  0.662149  0.831075  0.801411  1
  Sn  Sn13  1  0.347776  0.000000  0.000000  1
  Sn  Sn14  1  0.652224  0.000000  0.000000  1
  Sn  Sn15  1  0.000000  0.347776  0.000000  1
  Sn  Sn16  1  0.000000  0.652224  0.000000  1
  Sn  Sn17  1  0.652224  0.652224  0.000000  1
  Sn  Sn18  1  0.347776  0.347776  0.000000  1
  Sn  Sn19  1  0.333333  0.666667  0.820106  1
  Sn  Sn20  1  0.666667  0.333333  0.179894  1
  Sn  Sn21  1  0.000000  0.000000  0.500000  1
  Sn  Sn22  1  0.779297  0.220703  0.452751  1
  Sn  Sn23  1  0.220703  0.779297  0.547249  1
  Sn  Sn24  1  0.779297  0.558594  0.452751  1
  Sn  Sn25  1  0.220703  0.441406  0.547249  1
  Sn  Sn26  1  0.441406  0.220703  0.452751  1
  Sn  Sn27  1  0.558594  0.779297  0.547249  1
  Sn  Sn28  1  0.333333  0.666667  0.134337  1
  Sn  Sn29  1  0.666667  0.333333  0.865663  1
  Sn  Sn30  1  0.122046  0.877954  0.276594  1
  Sn  Sn31  1  0.877954  0.122046  0.723406  1
  Sn  Sn32  1  0.122046  0.244094  0.276594  1
  Sn  Sn33  1  0.877954  0.755906  0.723406  1
  Sn  Sn34  1  0.755906  0.877954  0.276594  1
  Sn  Sn35  1  0.244094  0.122046  0.723406  1
