# generated using pymatgen
data_Nb6Ga2Cu4O
_symmetry_space_group_name_H-M   'P 1'
_cell_length_a   8.08817970
_cell_length_b   8.08817961
_cell_length_c   8.08818000
_cell_angle_alpha   59.99999841
_cell_angle_beta   59.99999876
_cell_angle_gamma   60.00000119
_symmetry_Int_Tables_number   1
_chemical_formula_structural   Nb6Ga2Cu4O
_chemical_formula_sum   'Nb12 Ga4 Cu8 O2'
_cell_volume   374.14279219
_cell_formula_units_Z   2
loop_
 _symmetry_equiv_pos_site_id
 _symmetry_equiv_pos_as_xyz
  1  'x, y, z'
loop_
 _atom_site_type_symbol
 _atom_site_label
 _atom_site_symmetry_multiplicity
 _atom_site_fract_x
 _atom_site_fract_y
 _atom_site_fract_z
 _atom_site_occupancy
  Nb  Nb0  1  0.054772  0.054772  0.445228  1
  Nb  Nb1  1  0.445228  0.054772  0.445228  1
  Nb  Nb2  1  0.054772  0.445228  0.445228  1
  Nb  Nb3  1  0.445228  0.445228  0.054772  1
  Nb  Nb4  1  0.054772  0.445228  0.054772  1
  Nb  Nb5  1  0.445228  0.054772  0.054772  1
  Nb  Nb6  1  0.195228  0.195228  0.804772  1
  Nb  Nb7  1  0.804772  0.195228  0.804772  1
  Nb  Nb8  1  0.195228  0.804772  0.804772  1
  Nb  Nb9  1  0.804772  0.804772  0.195228  1
  Nb  Nb10  1  0.195228  0.804772  0.195228  1
  Nb  Nb11  1  0.804772  0.195228  0.195228  1
  Ga  Ga12  1  0.625000  0.625000  0.125000  1
  Ga  Ga13  1  0.625000  0.125000  0.625000  1
  Ga  Ga14  1  0.125000  0.625000  0.625000  1
  Ga  Ga15  1  0.625000  0.625000  0.625000  1
  Cu  Cu16  1  0.418132  0.418132  0.745604  1
  Cu  Cu17  1  0.418132  0.745604  0.418132  1
  Cu  Cu18  1  0.745604  0.418132  0.418132  1
  Cu  Cu19  1  0.418132  0.418132  0.418132  1
  Cu  Cu20  1  0.831868  0.831868  0.504396  1
  Cu  Cu21  1  0.831868  0.504396  0.831868  1
  Cu  Cu22  1  0.504396  0.831868  0.831868  1
  Cu  Cu23  1  0.831868  0.831868  0.831868  1
  O  O24  1  0.250000  0.250000  0.250000  1
  O  O25  1  0.000000  0.000000  0.000000  1
