# generated using pymatgen
data_SrTiP7Ru12
_symmetry_space_group_name_H-M   'P 1'
_cell_length_a   9.44390900
_cell_length_b   9.44390816
_cell_length_c   3.91711900
_cell_angle_alpha   90.00000000
_cell_angle_beta   90.00000000
_cell_angle_gamma   119.99999850
_symmetry_Int_Tables_number   1
_chemical_formula_structural   SrTiP7Ru12
_chemical_formula_sum   'Sr1 Ti1 P7 Ru12'
_cell_volume   302.55264375
_cell_formula_units_Z   1
loop_
 _symmetry_equiv_pos_site_id
 _symmetry_equiv_pos_as_xyz
  1  'x, y, z'
loop_
 _atom_site_type_symbol
 _atom_site_label
 _atom_site_symmetry_multiplicity
 _atom_site_fract_x
 _atom_site_fract_y
 _atom_site_fract_z
 _atom_site_occupancy
  Sr  Sr0  1  0.333333  0.666667  0.000000  1
  Ti  Ti1  1  0.666667  0.333333  0.500000  1
  P  P2  1  0.606222  0.719519  0.500000  1
  P  P3  1  0.000000  0.000000  0.000000  1
  P  P4  1  0.280481  0.886704  0.500000  1
  P  P5  1  0.113296  0.393778  0.500000  1
  P  P6  1  0.885816  0.568707  0.000000  1
  P  P7  1  0.431293  0.317109  0.000000  1
  P  P8  1  0.682891  0.114184  0.000000  1
  Ru  Ru9  1  0.563994  0.967459  0.500000  1
  Ru  Ru10  1  0.403466  0.436006  0.500000  1
  Ru  Ru11  1  0.914836  0.118448  0.500000  1
  Ru  Ru12  1  0.203612  0.085164  0.500000  1
  Ru  Ru13  1  0.881552  0.796388  0.500000  1
  Ru  Ru14  1  0.727497  0.889881  0.000000  1
  Ru  Ru15  1  0.110119  0.837615  0.000000  1
  Ru  Ru16  1  0.162385  0.272503  0.000000  1
  Ru  Ru17  1  0.425444  0.078052  0.000000  1
  Ru  Ru18  1  0.921948  0.347394  0.000000  1
  Ru  Ru19  1  0.652606  0.574556  0.000000  1
  Ru  Ru20  1  0.032541  0.596534  0.500000  1
