# generated using pymatgen
data_CeErTc3Os
_symmetry_space_group_name_H-M   'P 1'
_cell_length_a   5.24665100
_cell_length_b   5.24665121
_cell_length_c   9.27242600
_cell_angle_alpha   90.00000000
_cell_angle_beta   90.00000000
_cell_angle_gamma   120.00000501
_symmetry_Int_Tables_number   1
_chemical_formula_structural   CeErTc3Os
_chemical_formula_sum   'Ce2 Er2 Tc6 Os2'
_cell_volume   221.04889888
_cell_formula_units_Z   2
loop_
 _symmetry_equiv_pos_site_id
 _symmetry_equiv_pos_as_xyz
  1  'x, y, z'
loop_
 _atom_site_type_symbol
 _atom_site_label
 _atom_site_symmetry_multiplicity
 _atom_site_fract_x
 _atom_site_fract_y
 _atom_site_fract_z
 _atom_site_occupancy
  Ce  Ce0  1  0.333333  0.666667  0.441616  1
  Ce  Ce1  1  0.666667  0.333333  0.558384  1
  Er  Er2  1  0.666667  0.333333  0.935797  1
  Er  Er3  1  0.333333  0.666667  0.064203  1
  Tc  Tc4  1  0.829449  0.170551  0.244716  1
  Tc  Tc5  1  0.829449  0.658897  0.244716  1
  Tc  Tc6  1  0.341103  0.170551  0.244716  1
  Tc  Tc7  1  0.170551  0.829449  0.755284  1
  Tc  Tc8  1  0.170551  0.341103  0.755284  1
  Tc  Tc9  1  0.658897  0.829449  0.755284  1
  Os  Os10  1  0.000000  0.000000  0.500000  1
  Os  Os11  1  0.000000  0.000000  0.000000  1
