# generated using pymatgen
data_Ba2P4HRhO14
_symmetry_space_group_name_H-M   'P 1'
_cell_length_a   4.84903600
_cell_length_b   7.66363984
_cell_length_c   8.68009654
_cell_angle_alpha   108.07905052
_cell_angle_beta   97.03796422
_cell_angle_gamma   105.77939730
_symmetry_Int_Tables_number   1
_chemical_formula_structural   Ba2P4HRhO14
_chemical_formula_sum   'Ba2 P4 H1 Rh1 O14'
_cell_volume   287.43546587
_cell_formula_units_Z   1
loop_
 _symmetry_equiv_pos_site_id
 _symmetry_equiv_pos_as_xyz
  1  'x, y, z'
loop_
 _atom_site_type_symbol
 _atom_site_label
 _atom_site_symmetry_multiplicity
 _atom_site_fract_x
 _atom_site_fract_y
 _atom_site_fract_z
 _atom_site_occupancy
  Ba  Ba0  1  0.150920  0.472670  0.738532  1
  Ba  Ba1  1  0.849080  0.527330  0.261468  1
  P  P2  1  0.452241  0.813699  0.139163  1
  P  P3  1  0.626001  0.828851  0.624871  1
  P  P4  1  0.373999  0.171149  0.375129  1
  P  P5  1  0.547759  0.186301  0.860837  1
  H  H6  1  0.000000  0.000000  0.500000  1
  Rh  Rh7  1  0.000000  0.000000  0.000000  1
  O  O8  1  0.268334  0.832717  0.990663  1
  O  O9  1  0.334946  0.671335  0.531271  1
  O  O10  1  0.414050  0.958963  0.309356  1
  O  O11  1  0.219078  0.140285  0.862782  1
  O  O12  1  0.155819  0.147181  0.488764  1
  O  O13  1  0.340141  0.611242  0.145493  1
  O  O14  1  0.257259  0.214183  0.220833  1
  O  O15  1  0.742741  0.785817  0.779167  1
  O  O16  1  0.659859  0.388758  0.854507  1
  O  O17  1  0.844181  0.852819  0.511236  1
  O  O18  1  0.780922  0.859715  0.137218  1
  O  O19  1  0.585950  0.041037  0.690644  1
  O  O20  1  0.665054  0.328665  0.468729  1
  O  O21  1  0.731666  0.167283  0.009337  1
