# generated using pymatgen
data_Dy2Ir3Os
_symmetry_space_group_name_H-M   'P 1'
_cell_length_a   5.38328600
_cell_length_b   5.38328649
_cell_length_c   8.66761900
_cell_angle_alpha   90.00000000
_cell_angle_beta   90.00000000
_cell_angle_gamma   119.99999698
_symmetry_Int_Tables_number   1
_chemical_formula_structural   Dy2Ir3Os
_chemical_formula_sum   'Dy4 Ir6 Os2'
_cell_volume   217.53312774
_cell_formula_units_Z   2
loop_
 _symmetry_equiv_pos_site_id
 _symmetry_equiv_pos_as_xyz
  1  'x, y, z'
loop_
 _atom_site_type_symbol
 _atom_site_label
 _atom_site_symmetry_multiplicity
 _atom_site_fract_x
 _atom_site_fract_y
 _atom_site_fract_z
 _atom_site_occupancy
  Dy  Dy0  1  0.666667  0.333333  0.065417  1
  Dy  Dy1  1  0.666667  0.333333  0.434583  1
  Dy  Dy2  1  0.333334  0.666667  0.565416  1
  Dy  Dy3  1  0.333334  0.666667  0.934584  1
  Ir  Ir4  1  0.169219  0.338437  0.250000  1
  Ir  Ir5  1  0.169219  0.830781  0.250000  1
  Ir  Ir6  1  0.661563  0.830781  0.250000  1
  Ir  Ir7  1  0.338438  0.169219  0.750000  1
  Ir  Ir8  1  0.830782  0.169219  0.750000  1
  Ir  Ir9  1  0.830782  0.661562  0.750000  1
  Os  Os10  1  0.000000  0.000000  0.000000  1
  Os  Os11  1  0.000000  0.000000  0.499999  1
