# generated using pymatgen
data_TbY2Ho4CoI12
_symmetry_space_group_name_H-M   'P 1'
_cell_length_a   9.73408471
_cell_length_b   9.72945725
_cell_length_c   9.73316237
_cell_angle_alpha   106.74058878
_cell_angle_beta   106.87920462
_cell_angle_gamma   106.81299699
_symmetry_Int_Tables_number   1
_chemical_formula_structural   TbY2Ho4CoI12
_chemical_formula_sum   'Tb1 Y2 Ho4 Co1 I12'
_cell_volume   771.60994082
_cell_formula_units_Z   1
loop_
 _symmetry_equiv_pos_site_id
 _symmetry_equiv_pos_as_xyz
  1  'x, y, z'
loop_
 _atom_site_type_symbol
 _atom_site_label
 _atom_site_symmetry_multiplicity
 _atom_site_fract_x
 _atom_site_fract_y
 _atom_site_fract_z
 _atom_site_occupancy
  Tb  Tb0  1  0.710738  0.978762  0.907220  1
  Y  Y1  1  0.500458  0.499992  0.500140  1
  Y  Y2  1  0.021609  0.092058  0.288123  1
  Ho  Ho3  1  0.091898  0.285863  0.020813  1
  Ho  Ho4  1  0.285420  0.020865  0.090940  1
  Ho  Ho5  1  0.978643  0.908649  0.714030  1
  Ho  Ho6  1  0.909111  0.714040  0.978814  1
  Co  Co7  1  0.999541  0.999877  0.999221  1
  I  I8  1  0.160718  0.462344  0.385031  1
  I  I9  1  0.462297  0.385177  0.160622  1
  I  I10  1  0.385756  0.160305  0.462300  1
  I  I11  1  0.839945  0.538111  0.614952  1
  I  I12  1  0.537954  0.613020  0.839608  1
  I  I13  1  0.614712  0.838655  0.535719  1
  I  I14  1  0.676808  0.071301  0.225847  1
  I  I15  1  0.070740  0.223681  0.676713  1
  I  I16  1  0.223950  0.676676  0.070585  1
  I  I17  1  0.322077  0.928933  0.775869  1
  I  I18  1  0.929514  0.775898  0.323306  1
  I  I19  1  0.778110  0.325792  0.930148  1
