# generated using pymatgen
data_Yb2Er2Sb6Rh7
_symmetry_space_group_name_H-M   'P 1'
_cell_length_a   7.58637569
_cell_length_b   7.60071771
_cell_length_c   7.60071748
_cell_angle_alpha   109.51178220
_cell_angle_beta   109.48920140
_cell_angle_gamma   109.48919673
_symmetry_Int_Tables_number   1
_chemical_formula_structural   Yb2Er2Sb6Rh7
_chemical_formula_sum   'Yb2 Er2 Sb6 Rh7'
_cell_volume   337.06280546
_cell_formula_units_Z   1
loop_
 _symmetry_equiv_pos_site_id
 _symmetry_equiv_pos_as_xyz
  1  'x, y, z'
loop_
 _atom_site_type_symbol
 _atom_site_label
 _atom_site_symmetry_multiplicity
 _atom_site_fract_x
 _atom_site_fract_y
 _atom_site_fract_z
 _atom_site_occupancy
  Yb  Yb0  1  0.500000  0.000000  0.000000  1
  Yb  Yb1  1  0.500000  0.500000  0.500000  1
  Er  Er2  1  0.000000  0.500000  0.000000  1
  Er  Er3  1  0.000000  0.000000  0.500000  1
  Sb  Sb4  1  0.319031  0.001350  0.317681  1
  Sb  Sb5  1  0.000000  0.682142  0.682142  1
  Sb  Sb6  1  0.680969  0.682319  0.998650  1
  Sb  Sb7  1  0.680969  0.998650  0.682319  1
  Sb  Sb8  1  0.000000  0.317858  0.317858  1
  Sb  Sb9  1  0.319031  0.317681  0.001350  1
  Rh  Rh10  1  0.247606  0.497583  0.750023  1
  Rh  Rh11  1  0.500000  0.250000  0.750000  1
  Rh  Rh12  1  0.752394  0.249977  0.502417  1
  Rh  Rh13  1  0.500000  0.750000  0.250000  1
  Rh  Rh14  1  0.000000  0.000000  0.000000  1
  Rh  Rh15  1  0.247606  0.750023  0.497583  1
  Rh  Rh16  1  0.752394  0.502417  0.249977  1
