# generated using pymatgen
data_Tb10Y2InCo4Cu
_symmetry_space_group_name_H-M   'P 1'
_cell_length_a   8.38270663
_cell_length_b   8.38270623
_cell_length_c   8.36308199
_cell_angle_alpha   111.06171815
_cell_angle_beta   110.56856143
_cell_angle_gamma   106.91558405
_symmetry_Int_Tables_number   1
_chemical_formula_structural   Tb10Y2InCo4Cu
_chemical_formula_sum   'Tb10 Y2 In1 Co4 Cu1'
_cell_volume   451.12671472
_cell_formula_units_Z   1
loop_
 _symmetry_equiv_pos_site_id
 _symmetry_equiv_pos_as_xyz
  1  'x, y, z'
loop_
 _atom_site_type_symbol
 _atom_site_label
 _atom_site_symmetry_multiplicity
 _atom_site_fract_x
 _atom_site_fract_y
 _atom_site_fract_z
 _atom_site_occupancy
  Tb  Tb0  1  0.184704  0.708566  0.893270  1
  Tb  Tb1  1  0.815296  0.291434  0.106730  1
  Tb  Tb2  1  0.315429  0.621220  0.305633  1
  Tb  Tb3  1  0.684571  0.378780  0.694367  1
  Tb  Tb4  1  0.315590  0.009797  0.694367  1
  Tb  Tb5  1  0.684410  0.990203  0.305633  1
  Tb  Tb6  1  0.416190  0.216905  0.198487  1
  Tb  Tb7  1  0.583810  0.783095  0.801513  1
  Tb  Tb8  1  0.018418  0.217702  0.801513  1
  Tb  Tb9  1  0.981582  0.782298  0.198487  1
  Y  Y10  1  0.186351  0.290043  0.476392  1
  Y  Y11  1  0.813649  0.709957  0.523608  1
  In  In12  1  0.500000  0.500000  0.000000  1
  Co  Co13  1  0.111730  0.611730  0.500000  1
  Co  Co14  1  0.888270  0.388270  0.500000  1
  Co  Co15  1  0.377115  0.999982  0.377096  1
  Co  Co16  1  0.622885  0.000018  0.622904  1
  Cu  Cu17  1  0.000000  0.000000  0.000000  1
