# generated using pymatgen
data_BaSr(SbAu)2
_symmetry_space_group_name_H-M   'P 1'
_cell_length_a   4.80639400
_cell_length_b   4.80639460
_cell_length_c   9.16653500
_cell_angle_alpha   90.00000000
_cell_angle_beta   90.00000000
_cell_angle_gamma   119.99999586
_symmetry_Int_Tables_number   1
_chemical_formula_structural   BaSr(SbAu)2
_chemical_formula_sum   'Ba1 Sr1 Sb2 Au2'
_cell_volume   183.38957454
_cell_formula_units_Z   1
loop_
 _symmetry_equiv_pos_site_id
 _symmetry_equiv_pos_as_xyz
  1  'x, y, z'
loop_
 _atom_site_type_symbol
 _atom_site_label
 _atom_site_symmetry_multiplicity
 _atom_site_fract_x
 _atom_site_fract_y
 _atom_site_fract_z
 _atom_site_occupancy
  Ba  Ba0  1  0.000000  0.000000  0.500000  1
  Sr  Sr1  1  0.000000  0.000000  0.000000  1
  Sb  Sb2  1  0.666667  0.333333  0.240720  1
  Sb  Sb3  1  0.333333  0.666667  0.759280  1
  Au  Au4  1  0.333333  0.666667  0.234891  1
  Au  Au5  1  0.666667  0.333333  0.765109  1
