# generated using pymatgen
data_YHo2Si2(PPd5)4
_symmetry_space_group_name_H-M   'P 1'
_cell_length_a   8.69597125
_cell_length_b   8.68017715
_cell_length_c   8.68017608
_cell_angle_alpha   60.12041940
_cell_angle_beta   59.93978796
_cell_angle_gamma   59.93978635
_symmetry_Int_Tables_number   1
_chemical_formula_structural   YHo2Si2(PPd5)4
_chemical_formula_sum   'Y1 Ho2 Si2 P4 Pd20'
_cell_volume   463.29468628
_cell_formula_units_Z   1
loop_
 _symmetry_equiv_pos_site_id
 _symmetry_equiv_pos_as_xyz
  1  'x, y, z'
loop_
 _atom_site_type_symbol
 _atom_site_label
 _atom_site_symmetry_multiplicity
 _atom_site_fract_x
 _atom_site_fract_y
 _atom_site_fract_z
 _atom_site_occupancy
  Y  Y0  1  0.250000  0.250000  0.250000  1
  Ho  Ho1  1  0.750000  0.750000  0.750000  1
  Ho  Ho2  1  0.000000  0.000000  0.000000  1
  Si  Si3  1  0.734272  0.265728  0.265728  1
  Si  Si4  1  0.265728  0.734272  0.734272  1
  P  P5  1  0.264738  0.735262  0.264738  1
  P  P6  1  0.735262  0.264738  0.735262  1
  P  P7  1  0.264738  0.264738  0.735262  1
  P  P8  1  0.735262  0.735262  0.264738  1
  Pd  Pd9  1  0.383119  0.384921  0.384921  1
  Pd  Pd10  1  0.617172  0.615412  0.615412  1
  Pd  Pd11  1  0.384921  0.383119  0.847042  1
  Pd  Pd12  1  0.384921  0.847042  0.383119  1
  Pd  Pd13  1  0.615412  0.617172  0.152001  1
  Pd  Pd14  1  0.615412  0.152001  0.617172  1
  Pd  Pd15  1  0.847042  0.384921  0.384921  1
  Pd  Pd16  1  0.152001  0.615412  0.615412  1
  Pd  Pd17  1  0.343732  0.999906  0.999906  1
  Pd  Pd18  1  0.656456  0.999906  0.999906  1
  Pd  Pd19  1  0.999906  0.343732  0.656456  1
  Pd  Pd20  1  0.999906  0.656456  0.343732  1
  Pd  Pd21  1  0.000673  0.345983  0.999130  1
  Pd  Pd22  1  0.654214  0.999130  0.345983  1
  Pd  Pd23  1  0.999130  0.654214  0.000673  1
  Pd  Pd24  1  0.345983  0.000673  0.654214  1
  Pd  Pd25  1  0.000673  0.999130  0.345983  1
  Pd  Pd26  1  0.999130  0.000673  0.654214  1
  Pd  Pd27  1  0.654214  0.345983  0.999130  1
  Pd  Pd28  1  0.345983  0.654214  0.000673  1
