# generated using pymatgen
data_TbPr16(HoIr4)3
_symmetry_space_group_name_H-M   'P 1'
_cell_length_a   11.27106000
_cell_length_b   11.27106000
_cell_length_c   6.56743800
_cell_angle_alpha   90.00000000
_cell_angle_beta   90.00000000
_cell_angle_gamma   90.00000000
_symmetry_Int_Tables_number   1
_chemical_formula_structural   TbPr16(HoIr4)3
_chemical_formula_sum   'Tb1 Pr16 Ho3 Ir12'
_cell_volume   834.30626519
_cell_formula_units_Z   1
loop_
 _symmetry_equiv_pos_site_id
 _symmetry_equiv_pos_as_xyz
  1  'x, y, z'
loop_
 _atom_site_type_symbol
 _atom_site_label
 _atom_site_symmetry_multiplicity
 _atom_site_fract_x
 _atom_site_fract_y
 _atom_site_fract_z
 _atom_site_occupancy
  Tb  Tb0  1  0.500000  0.500000  0.500000  1
  Pr  Pr1  1  0.289037  0.088018  0.382007  1
  Pr  Pr2  1  0.289066  0.911783  0.881964  1
  Pr  Pr3  1  0.710934  0.088217  0.881964  1
  Pr  Pr4  1  0.710963  0.911982  0.382007  1
  Pr  Pr5  1  0.588063  0.789022  0.882149  1
  Pr  Pr6  1  0.587924  0.210911  0.381978  1
  Pr  Pr7  1  0.412076  0.789089  0.381978  1
  Pr  Pr8  1  0.411937  0.210978  0.882149  1
  Pr  Pr9  1  0.210911  0.412076  0.618022  1
  Pr  Pr10  1  0.210978  0.588063  0.117851  1
  Pr  Pr11  1  0.789022  0.411937  0.117851  1
  Pr  Pr12  1  0.789089  0.587924  0.618022  1
  Pr  Pr13  1  0.911783  0.710934  0.118036  1
  Pr  Pr14  1  0.911982  0.289037  0.617993  1
  Pr  Pr15  1  0.088018  0.710963  0.617993  1
  Pr  Pr16  1  0.088217  0.289066  0.118036  1
  Ho  Ho17  1  0.000000  0.000000  0.500000  1
  Ho  Ho18  1  0.000000  0.000000  0.000000  1
  Ho  Ho19  1  0.500000  0.500000  0.000000  1
  Ir  Ir20  1  0.852174  0.147809  0.250018  1
  Ir  Ir21  1  0.852191  0.852174  0.749982  1
  Ir  Ir22  1  0.147809  0.147826  0.749982  1
  Ir  Ir23  1  0.147826  0.852191  0.250018  1
  Ir  Ir24  1  0.648515  0.351697  0.750557  1
  Ir  Ir25  1  0.648303  0.648515  0.249443  1
  Ir  Ir26  1  0.351697  0.351485  0.249443  1
  Ir  Ir27  1  0.351485  0.648303  0.750557  1
  Ir  Ir28  1  0.500000  0.000000  0.118745  1
  Ir  Ir29  1  0.500000  0.000000  0.618682  1
  Ir  Ir30  1  0.000000  0.500000  0.881255  1
  Ir  Ir31  1  0.000000  0.500000  0.381318  1
