# generated using pymatgen
data_Hf3Pb4WO13
_symmetry_space_group_name_H-M   'P 1'
_cell_length_a   7.63219356
_cell_length_b   7.63219200
_cell_length_c   7.63219331
_cell_angle_alpha   59.94143092
_cell_angle_beta   59.94144110
_cell_angle_gamma   59.94142767
_symmetry_Int_Tables_number   1
_chemical_formula_structural   Hf3Pb4WO13
_chemical_formula_sum   'Hf3 Pb4 W1 O13'
_cell_volume   313.94657661
_cell_formula_units_Z   1
loop_
 _symmetry_equiv_pos_site_id
 _symmetry_equiv_pos_as_xyz
  1  'x, y, z'
loop_
 _atom_site_type_symbol
 _atom_site_label
 _atom_site_symmetry_multiplicity
 _atom_site_fract_x
 _atom_site_fract_y
 _atom_site_fract_z
 _atom_site_occupancy
  Hf  Hf0  1  0.999616  0.500771  0.500771  1
  Hf  Hf1  1  0.500771  0.500771  0.999616  1
  Hf  Hf2  1  0.500771  0.999616  0.500771  1
  Pb  Pb3  1  0.500275  0.001410  0.001410  1
  Pb  Pb4  1  0.001410  0.001410  0.500275  1
  Pb  Pb5  1  0.001410  0.500275  0.001410  1
  Pb  Pb6  1  0.999541  0.999541  0.999541  1
  W  W7  1  0.500527  0.500527  0.500527  1
  O  O8  1  0.171418  0.570363  0.171418  1
  O  O9  1  0.565282  0.196698  0.565282  1
  O  O10  1  0.171418  0.171418  0.570363  1
  O  O11  1  0.565282  0.565282  0.196698  1
  O  O12  1  0.570363  0.171418  0.171418  1
  O  O13  1  0.196698  0.565282  0.565282  1
  O  O14  1  0.824644  0.433602  0.824644  1
  O  O15  1  0.436659  0.802451  0.436659  1
  O  O16  1  0.824644  0.824644  0.433602  1
  O  O17  1  0.436659  0.436659  0.802451  1
  O  O18  1  0.433602  0.824644  0.824644  1
  O  O19  1  0.802451  0.436659  0.436659  1
  O  O20  1  0.871555  0.871555  0.871555  1
