# generated using pymatgen
data_Mg4TaIn3Rh8
_symmetry_space_group_name_H-M   'P 1'
_cell_length_a   6.35981100
_cell_length_b   6.35941000
_cell_length_c   6.33909800
_cell_angle_alpha   90.00000000
_cell_angle_beta   89.99956686
_cell_angle_gamma   90.00000000
_symmetry_Int_Tables_number   1
_chemical_formula_structural   Mg4TaIn3Rh8
_chemical_formula_sum   'Mg4 Ta1 In3 Rh8'
_cell_volume   256.38257248
_cell_formula_units_Z   1
loop_
 _symmetry_equiv_pos_site_id
 _symmetry_equiv_pos_as_xyz
  1  'x, y, z'
loop_
 _atom_site_type_symbol
 _atom_site_label
 _atom_site_symmetry_multiplicity
 _atom_site_fract_x
 _atom_site_fract_y
 _atom_site_fract_z
 _atom_site_occupancy
  Mg  Mg0  1  0.750009  0.250000  0.000001  1
  Mg  Mg1  1  0.249995  0.750001  0.000002  1
  Mg  Mg2  1  0.249982  0.750001  0.499995  1
  Mg  Mg3  1  0.750014  0.250000  0.500003  1
  Ta  Ta4  1  0.250013  0.250000  0.999996  1
  In  In5  1  0.749993  0.750001  0.000001  1
  In  In6  1  0.750035  0.750001  0.499998  1
  In  In7  1  0.249969  0.250000  0.500000  1
  Rh  Rh8  1  0.005119  0.005125  0.242402  1
  Rh  Rh9  1  0.005119  0.494876  0.242402  1
  Rh  Rh10  1  0.494883  0.005136  0.242410  1
  Rh  Rh11  1  0.494883  0.494863  0.242410  1
  Rh  Rh12  1  0.494873  0.005138  0.757590  1
  Rh  Rh13  1  0.494873  0.494863  0.757590  1
  Rh  Rh14  1  0.005121  0.005127  0.757601  1
  Rh  Rh15  1  0.005121  0.494872  0.757601  1
