# generated using pymatgen
data_La8Zn8CuIr4Rh3
_symmetry_space_group_name_H-M   'P 1'
_cell_length_a   4.06252400
_cell_length_b   7.46620134
_cell_length_c   16.72699866
_cell_angle_alpha   90.33862824
_cell_angle_beta   90.00000000
_cell_angle_gamma   90.00000000
_symmetry_Int_Tables_number   1
_chemical_formula_structural   La8Zn8CuIr4Rh3
_chemical_formula_sum   'La8 Zn8 Cu1 Ir4 Rh3'
_cell_volume   507.34814155
_cell_formula_units_Z   1
loop_
 _symmetry_equiv_pos_site_id
 _symmetry_equiv_pos_as_xyz
  1  'x, y, z'
loop_
 _atom_site_type_symbol
 _atom_site_label
 _atom_site_symmetry_multiplicity
 _atom_site_fract_x
 _atom_site_fract_y
 _atom_site_fract_z
 _atom_site_occupancy
  La  La0  1  0.750000  0.450372  0.216060  1
  La  La1  1  0.750000  0.949507  0.283238  1
  La  La2  1  0.750000  0.830058  0.059944  1
  La  La3  1  0.250000  0.042136  0.720692  1
  La  La4  1  0.250000  0.172834  0.940650  1
  La  La5  1  0.250000  0.547667  0.783793  1
  La  La6  1  0.750000  0.331495  0.434943  1
  La  La7  1  0.250000  0.676415  0.559447  1
  Zn  Zn8  1  0.250000  0.997068  0.439032  1
  Zn  Zn9  1  0.750000  0.501738  0.940571  1
  Zn  Zn10  1  0.750000  0.003506  0.560223  1
  Zn  Zn11  1  0.250000  0.623704  0.349767  1
  Zn  Zn12  1  0.750000  0.372112  0.650975  1
  Zn  Zn13  1  0.750000  0.873117  0.851804  1
  Zn  Zn14  1  0.250000  0.499038  0.059333  1
  Zn  Zn15  1  0.250000  0.124634  0.149416  1
  Cu  Cu16  1  0.250000  0.235826  0.566595  1
  Ir  Ir17  1  0.750000  0.261482  0.066642  1
  Ir  Ir18  1  0.250000  0.245296  0.318122  1
  Ir  Ir19  1  0.750000  0.253932  0.811668  1
  Ir  Ir20  1  0.750000  0.751980  0.682912  1
  Rh  Rh21  1  0.250000  0.742221  0.935099  1
  Rh  Rh22  1  0.750000  0.761718  0.434525  1
  Rh  Rh23  1  0.250000  0.752143  0.184553  1
