# generated using pymatgen
data_PrTm3Pd4F28
_symmetry_space_group_name_H-M   'P 1'
_cell_length_a   5.50029465
_cell_length_b   8.85814567
_cell_length_c   11.95468787
_cell_angle_alpha   62.48748743
_cell_angle_beta   90.14953524
_cell_angle_gamma   90.06988531
_symmetry_Int_Tables_number   1
_chemical_formula_structural   PrTm3Pd4F28
_chemical_formula_sum   'Pr1 Tm3 Pd4 F28'
_cell_volume   516.58890340
_cell_formula_units_Z   1
loop_
 _symmetry_equiv_pos_site_id
 _symmetry_equiv_pos_as_xyz
  1  'x, y, z'
loop_
 _atom_site_type_symbol
 _atom_site_label
 _atom_site_symmetry_multiplicity
 _atom_site_fract_x
 _atom_site_fract_y
 _atom_site_fract_z
 _atom_site_occupancy
  Pr  Pr0  1  0.737850  0.816051  0.264627  1
  Tm  Tm1  1  0.761969  0.816520  0.763459  1
  Tm  Tm2  1  0.262633  0.184272  0.736772  1
  Tm  Tm3  1  0.235417  0.193504  0.235260  1
  Pd  Pd4  1  0.760267  0.277015  0.953897  1
  Pd  Pd5  1  0.258400  0.724911  0.548919  1
  Pd  Pd6  1  0.243903  0.726177  0.037020  1
  Pd  Pd7  1  0.741404  0.266826  0.460332  1
  F  F8  1  0.435986  0.703841  0.909377  1
  F  F9  1  0.938416  0.292961  0.585705  1
  F  F10  1  0.564862  0.297869  0.081661  1
  F  F11  1  0.071967  0.701542  0.419920  1
  F  F12  1  0.442565  0.276505  0.545550  1
  F  F13  1  0.939053  0.720752  0.954187  1
  F  F14  1  0.557510  0.713531  0.467820  1
  F  F15  1  0.059081  0.283323  0.040980  1
  F  F16  1  0.771875  0.524537  0.856566  1
  F  F17  1  0.268082  0.475893  0.645789  1
  F  F18  1  0.230145  0.478585  0.138206  1
  F  F19  1  0.728636  0.512245  0.361198  1
  F  F20  1  0.757600  0.031025  0.044021  1
  F  F21  1  0.259413  0.971527  0.453332  1
  F  F22  1  0.244739  0.973305  0.946973  1
  F  F23  1  0.742947  0.020047  0.553152  1
  F  F24  1  0.962250  0.727912  0.637258  1
  F  F25  1  0.466823  0.273615  0.862687  1
  F  F26  1  0.036074  0.271043  0.368125  1
  F  F27  1  0.539756  0.723416  0.125854  1
  F  F28  1  0.064428  0.739776  0.171903  1
  F  F29  1  0.548252  0.251440  0.327725  1
  F  F30  1  0.952578  0.257503  0.823133  1
  F  F31  1  0.446900  0.744391  0.680050  1
  F  F32  1  0.390709  0.978895  0.228904  1
  F  F33  1  0.911332  0.047960  0.269328  1
  F  F34  1  0.583305  0.028902  0.767466  1
  F  F35  1  0.082871  0.972384  0.732845  1
