# generated using pymatgen
data_ErTm(GePt2)2
_symmetry_space_group_name_H-M   'P 1'
_cell_length_a   5.52517800
_cell_length_b   5.52517642
_cell_length_c   7.19417700
_cell_angle_alpha   90.00000000
_cell_angle_beta   90.00000000
_cell_angle_gamma   138.64926204
_symmetry_Int_Tables_number   1
_chemical_formula_structural   ErTm(GePt2)2
_chemical_formula_sum   'Er1 Tm1 Ge2 Pt4'
_cell_volume   145.09617072
_cell_formula_units_Z   1
loop_
 _symmetry_equiv_pos_site_id
 _symmetry_equiv_pos_as_xyz
  1  'x, y, z'
loop_
 _atom_site_type_symbol
 _atom_site_label
 _atom_site_symmetry_multiplicity
 _atom_site_fract_x
 _atom_site_fract_y
 _atom_site_fract_z
 _atom_site_occupancy
  Er  Er0  1  0.049687  0.950311  0.750000  1
  Tm  Tm1  1  0.950613  0.049385  0.250000  1
  Ge  Ge2  1  0.232828  0.767170  0.250000  1
  Ge  Ge3  1  0.767166  0.232832  0.750000  1
  Pt  Pt4  1  0.634944  0.365054  0.050712  1
  Pt  Pt5  1  0.634944  0.365054  0.449288  1
  Pt  Pt6  1  0.364905  0.635093  0.550122  1
  Pt  Pt7  1  0.364905  0.635093  0.949877  1
