# generated using pymatgen
data_Tb6Ho4(InSb)3
_symmetry_space_group_name_H-M   'P 1'
_cell_length_a   9.00627300
_cell_length_b   8.98386396
_cell_length_c   6.55966300
_cell_angle_alpha   90.00000000
_cell_angle_beta   90.00000000
_cell_angle_gamma   120.08254363
_symmetry_Int_Tables_number   1
_chemical_formula_structural   Tb6Ho4(InSb)3
_chemical_formula_sum   'Tb6 Ho4 In3 Sb3'
_cell_volume   459.25997939
_cell_formula_units_Z   1
loop_
 _symmetry_equiv_pos_site_id
 _symmetry_equiv_pos_as_xyz
  1  'x, y, z'
loop_
 _atom_site_type_symbol
 _atom_site_label
 _atom_site_symmetry_multiplicity
 _atom_site_fract_x
 _atom_site_fract_y
 _atom_site_fract_z
 _atom_site_occupancy
  Tb  Tb0  1  0.760401  0.000000  0.750000  1
  Tb  Tb1  1  0.762658  0.759350  0.250000  1
  Tb  Tb2  1  0.003308  0.240650  0.250000  1
  Tb  Tb3  1  0.002179  0.762451  0.750000  1
  Tb  Tb4  1  0.239729  0.237549  0.750000  1
  Tb  Tb5  1  0.238354  0.000000  0.250000  1
  Ho  Ho6  1  0.331083  0.666056  0.000867  1
  Ho  Ho7  1  0.665028  0.333944  0.499133  1
  Ho  Ho8  1  0.665028  0.333944  0.000867  1
  Ho  Ho9  1  0.331083  0.666056  0.499133  1
  In  In10  1  0.396857  0.000000  0.750000  1
  In  In11  1  0.395526  0.396662  0.250000  1
  In  In12  1  0.998863  0.603338  0.250000  1
  Sb  Sb13  1  0.997745  0.392453  0.750000  1
  Sb  Sb14  1  0.605292  0.607547  0.750000  1
  Sb  Sb15  1  0.606865  0.000000  0.250000  1
