# generated using pymatgen
data_ErPa(Si2Ni)2
_symmetry_space_group_name_H-M   'P 1'
_cell_length_a   8.39370189
_cell_length_b   8.39370204
_cell_length_c   3.95654600
_cell_angle_alpha   90.00000000
_cell_angle_beta   90.00000000
_cell_angle_gamma   152.76714964
_symmetry_Int_Tables_number   1
_chemical_formula_structural   ErPa(Si2Ni)2
_chemical_formula_sum   'Er1 Pa1 Si4 Ni2'
_cell_volume   127.56065003
_cell_formula_units_Z   1
loop_
 _symmetry_equiv_pos_site_id
 _symmetry_equiv_pos_as_xyz
  1  'x, y, z'
loop_
 _atom_site_type_symbol
 _atom_site_label
 _atom_site_symmetry_multiplicity
 _atom_site_fract_x
 _atom_site_fract_y
 _atom_site_fract_z
 _atom_site_occupancy
  Er  Er0  1  0.897961  0.102039  0.750000  1
  Pa  Pa1  1  0.105897  0.894103  0.250000  1
  Si  Si2  1  0.750687  0.249313  0.250000  1
  Si  Si3  1  0.250705  0.749295  0.750000  1
  Si  Si4  1  0.538019  0.461981  0.750000  1
  Si  Si5  1  0.459593  0.540407  0.250000  1
  Ni  Ni6  1  0.675838  0.324162  0.750000  1
  Ni  Ni7  1  0.321301  0.678699  0.250000  1
