# generated using pymatgen
data_TbYb3Ir8
_symmetry_space_group_name_H-M   'P 1'
_cell_length_a   5.33142100
_cell_length_b   5.33142123
_cell_length_c   8.71459900
_cell_angle_alpha   90.00000000
_cell_angle_beta   90.00000000
_cell_angle_gamma   120.00000478
_symmetry_Int_Tables_number   1
_chemical_formula_structural   TbYb3Ir8
_chemical_formula_sum   'Tb1 Yb3 Ir8'
_cell_volume   214.51812580
_cell_formula_units_Z   1
loop_
 _symmetry_equiv_pos_site_id
 _symmetry_equiv_pos_as_xyz
  1  'x, y, z'
loop_
 _atom_site_type_symbol
 _atom_site_label
 _atom_site_symmetry_multiplicity
 _atom_site_fract_x
 _atom_site_fract_y
 _atom_site_fract_z
 _atom_site_occupancy
  Tb  Tb0  1  0.333334  0.666667  0.069816  1
  Yb  Yb1  1  0.333334  0.666667  0.437885  1
  Yb  Yb2  1  0.666666  0.333334  0.568762  1
  Yb  Yb3  1  0.666666  0.333334  0.926195  1
  Ir  Ir4  1  0.000000  0.000000  0.998983  1
  Ir  Ir5  1  0.341849  0.170925  0.249381  1
  Ir  Ir6  1  0.829076  0.170925  0.249381  1
  Ir  Ir7  1  0.829074  0.658150  0.249381  1
  Ir  Ir8  1  0.000000  0.000000  0.499587  1
  Ir  Ir9  1  0.170612  0.341223  0.750208  1
  Ir  Ir10  1  0.170612  0.829387  0.750208  1
  Ir  Ir11  1  0.658776  0.829387  0.750208  1
