# generated using pymatgen
data_Pu8Re4B23C
_symmetry_space_group_name_H-M   'P 1'
_cell_length_a   9.34979911
_cell_length_b   11.36186266
_cell_length_c   3.60587900
_cell_angle_alpha   90.00000000
_cell_angle_beta   90.00000000
_cell_angle_gamma   89.85862054
_symmetry_Int_Tables_number   1
_chemical_formula_structural   Pu8Re4B23C
_chemical_formula_sum   'Pu8 Re4 B23 C1'
_cell_volume   383.05544668
_cell_formula_units_Z   1
loop_
 _symmetry_equiv_pos_site_id
 _symmetry_equiv_pos_as_xyz
  1  'x, y, z'
loop_
 _atom_site_type_symbol
 _atom_site_label
 _atom_site_symmetry_multiplicity
 _atom_site_fract_x
 _atom_site_fract_y
 _atom_site_fract_z
 _atom_site_occupancy
  Pu  Pu0  1  0.837126  0.093032  0.000000  1
  Pu  Pu1  1  0.456478  0.107291  0.000000  1
  Pu  Pu2  1  0.959614  0.401721  0.000000  1
  Pu  Pu3  1  0.337743  0.406513  0.000000  1
  Pu  Pu4  1  0.661909  0.592611  0.000000  1
  Pu  Pu5  1  0.039689  0.599013  0.000000  1
  Pu  Pu6  1  0.543865  0.892723  0.000000  1
  Pu  Pu7  1  0.162999  0.907276  0.000000  1
  Re  Re8  1  0.144134  0.181843  0.000000  1
  Re  Re9  1  0.649056  0.318539  0.000000  1
  Re  Re10  1  0.351153  0.678594  0.000000  1
  Re  Re11  1  0.853851  0.820523  0.000000  1
  B  B12  1  0.051672  0.069406  0.499999  1
  B  B13  1  0.242455  0.076743  0.499999  1
  B  B14  1  0.650286  0.183280  0.499999  1
  B  B15  1  0.988427  0.220612  0.499999  1
  B  B16  1  0.303328  0.226152  0.499999  1
  B  B17  1  0.806416  0.274165  0.499999  1
  B  B18  1  0.490878  0.278998  0.499999  1
  B  B19  1  0.144983  0.312636  0.499999  1
  B  B20  1  0.744738  0.423057  0.499999  1
  B  B21  1  0.553147  0.429917  0.499999  1
  B  B22  1  0.141391  0.460596  0.499999  1
  B  B23  1  0.857264  0.539803  0.499999  1
  B  B24  1  0.446895  0.567451  0.499999  1
  B  B25  1  0.254788  0.575645  0.499999  1
  B  B26  1  0.853626  0.688770  0.499999  1
  B  B27  1  0.509378  0.718729  0.499999  1
  B  B28  1  0.193882  0.725097  0.499999  1
  B  B29  1  0.695682  0.775227  0.499999  1
  B  B30  1  0.010353  0.780438  0.499999  1
  B  B31  1  0.352379  0.810802  0.499999  1
  B  B32  1  0.755100  0.928758  0.499999  1
  B  B33  1  0.948023  0.932220  0.499999  1
  B  B34  1  0.353672  0.959437  0.499999  1
  C  C35  1  0.653621  0.042384  0.499999  1
