# generated using pymatgen
data_ErNbCrB6
_symmetry_space_group_name_H-M   'P 1'
_cell_length_a   3.39566900
_cell_length_b   8.90982500
_cell_length_c   11.26059500
_cell_angle_alpha   90.00000000
_cell_angle_beta   90.00000000
_cell_angle_gamma   90.00000000
_symmetry_Int_Tables_number   1
_chemical_formula_structural   ErNbCrB6
_chemical_formula_sum   'Er4 Nb4 Cr4 B24'
_cell_volume   340.68723595
_cell_formula_units_Z   4
loop_
 _symmetry_equiv_pos_site_id
 _symmetry_equiv_pos_as_xyz
  1  'x, y, z'
loop_
 _atom_site_type_symbol
 _atom_site_label
 _atom_site_symmetry_multiplicity
 _atom_site_fract_x
 _atom_site_fract_y
 _atom_site_fract_z
 _atom_site_occupancy
  Er  Er0  1  0.000000  0.822078  0.086057  1
  Er  Er1  1  0.000000  0.177922  0.913943  1
  Er  Er2  1  0.000000  0.322078  0.413943  1
  Er  Er3  1  0.000000  0.677922  0.586057  1
  Nb  Nb4  1  0.000000  0.444679  0.127809  1
  Nb  Nb5  1  0.000000  0.555321  0.872191  1
  Nb  Nb6  1  0.000000  0.944679  0.372191  1
  Nb  Nb7  1  0.000000  0.055321  0.627809  1
  Cr  Cr8  1  0.000000  0.143270  0.183244  1
  Cr  Cr9  1  0.000000  0.856730  0.816756  1
  Cr  Cr10  1  0.000000  0.643270  0.316756  1
  Cr  Cr11  1  0.000000  0.356730  0.683244  1
  B  B12  1  0.500000  0.054039  0.067066  1
  B  B13  1  0.500000  0.945961  0.932934  1
  B  B14  1  0.500000  0.554039  0.432934  1
  B  B15  1  0.500000  0.445961  0.567066  1
  B  B16  1  0.500000  0.253000  0.082071  1
  B  B17  1  0.500000  0.747000  0.917929  1
  B  B18  1  0.500000  0.753000  0.417929  1
  B  B19  1  0.500000  0.247000  0.582071  1
  B  B20  1  0.500000  0.296210  0.236528  1
  B  B21  1  0.500000  0.703790  0.763472  1
  B  B22  1  0.500000  0.796210  0.263472  1
  B  B23  1  0.500000  0.203790  0.736528  1
  B  B24  1  0.500000  0.130007  0.317440  1
  B  B25  1  0.500000  0.869993  0.682560  1
  B  B26  1  0.500000  0.630007  0.182560  1
  B  B27  1  0.500000  0.369993  0.817440  1
  B  B28  1  0.500000  0.481715  0.287224  1
  B  B29  1  0.500000  0.518285  0.712776  1
  B  B30  1  0.500000  0.981715  0.212776  1
  B  B31  1  0.500000  0.018285  0.787224  1
  B  B32  1  0.500000  0.099663  0.473600  1
  B  B33  1  0.500000  0.900337  0.526400  1
  B  B34  1  0.500000  0.599663  0.026400  1
  B  B35  1  0.500000  0.400337  0.973600  1
