# generated using pymatgen
data_NdTm(WN3)2
_symmetry_space_group_name_H-M   'P 1'
_cell_length_a   7.26254447
_cell_length_b   7.26234577
_cell_length_c   6.19293213
_cell_angle_alpha   75.98864424
_cell_angle_beta   75.98578843
_cell_angle_gamma   83.12223876
_symmetry_Int_Tables_number   1
_chemical_formula_structural   NdTm(WN3)2
_chemical_formula_sum   'Nd2 Tm2 W4 N12'
_cell_volume   306.83479914
_cell_formula_units_Z   2
loop_
 _symmetry_equiv_pos_site_id
 _symmetry_equiv_pos_as_xyz
  1  'x, y, z'
loop_
 _atom_site_type_symbol
 _atom_site_label
 _atom_site_symmetry_multiplicity
 _atom_site_fract_x
 _atom_site_fract_y
 _atom_site_fract_z
 _atom_site_occupancy
  Nd  Nd0  1  0.695425  0.304576  0.249990  1
  Nd  Nd1  1  0.304575  0.695424  0.750010  1
  Tm  Tm2  1  0.913022  0.086979  0.750004  1
  Tm  Tm3  1  0.086978  0.913021  0.249996  1
  W  W4  1  0.619028  0.802624  0.244506  1
  W  W5  1  0.197373  0.380974  0.255502  1
  W  W6  1  0.380972  0.197376  0.755494  1
  W  W7  1  0.802627  0.619026  0.744498  1
  N  N8  1  0.629582  0.655120  0.018764  1
  N  N9  1  0.378558  0.896116  0.334903  1
  N  N10  1  0.344871  0.370421  0.481240  1
  N  N11  1  0.103886  0.621444  0.165079  1
  N  N12  1  0.003495  0.212734  0.356854  1
  N  N13  1  0.787265  0.996508  0.143145  1
  N  N14  1  0.212735  0.003492  0.856855  1
  N  N15  1  0.621442  0.103884  0.665097  1
  N  N16  1  0.370418  0.344880  0.981236  1
  N  N17  1  0.896114  0.378556  0.834921  1
  N  N18  1  0.655129  0.629579  0.518760  1
  N  N19  1  0.996505  0.787266  0.643146  1
