# generated using pymatgen
data_Er8Sc12Si15Os
_symmetry_space_group_name_H-M   'P 1'
_cell_length_a   7.05647062
_cell_length_b   7.42017956
_cell_length_c   13.92198600
_cell_angle_alpha   90.00000000
_cell_angle_beta   90.00000000
_cell_angle_gamma   90.23016154
_symmetry_Int_Tables_number   1
_chemical_formula_structural   Er8Sc12Si15Os
_chemical_formula_sum   'Er8 Sc12 Si15 Os1'
_cell_volume   728.95319112
_cell_formula_units_Z   1
loop_
 _symmetry_equiv_pos_site_id
 _symmetry_equiv_pos_as_xyz
  1  'x, y, z'
loop_
 _atom_site_type_symbol
 _atom_site_label
 _atom_site_symmetry_multiplicity
 _atom_site_fract_x
 _atom_site_fract_y
 _atom_site_fract_z
 _atom_site_occupancy
  Er  Er0  1  0.012019  0.180324  0.096447  1
  Er  Er1  1  0.990045  0.827408  0.904756  1
  Er  Er2  1  0.487990  0.677313  0.904626  1
  Er  Er3  1  0.990045  0.827408  0.595244  1
  Er  Er4  1  0.511535  0.322386  0.096218  1
  Er  Er5  1  0.012019  0.180324  0.403553  1
  Er  Er6  1  0.511535  0.322386  0.403782  1
  Er  Er7  1  0.487990  0.677313  0.595374  1
  Sc  Sc8  1  0.156263  0.498158  0.750000  1
  Sc  Sc9  1  0.838813  0.495499  0.250000  1
  Sc  Sc10  1  0.339958  0.006573  0.250000  1
  Sc  Sc11  1  0.668290  0.996654  0.750000  1
  Sc  Sc12  1  0.316413  0.171512  0.627461  1
  Sc  Sc13  1  0.672705  0.826367  0.373579  1
  Sc  Sc14  1  0.171923  0.678138  0.374004  1
  Sc  Sc15  1  0.672705  0.826367  0.126421  1
  Sc  Sc16  1  0.837322  0.318795  0.627906  1
  Sc  Sc17  1  0.316413  0.171512  0.872539  1
  Sc  Sc18  1  0.837322  0.318795  0.872094  1
  Sc  Sc19  1  0.171923  0.678138  0.125996  1
  Si  Si20  1  0.969958  0.886679  0.250000  1
  Si  Si21  1  0.470536  0.613433  0.250000  1
  Si  Si22  1  0.528528  0.389639  0.750000  1
  Si  Si23  1  0.285115  0.863819  0.750000  1
  Si  Si24  1  0.714214  0.132614  0.250000  1
  Si  Si25  1  0.214958  0.369646  0.250000  1
  Si  Si26  1  0.778089  0.627760  0.750000  1
  Si  Si27  1  0.160148  0.468869  0.537049  1
  Si  Si28  1  0.843764  0.535834  0.461541  1
  Si  Si29  1  0.344344  0.966546  0.459700  1
  Si  Si30  1  0.843764  0.535834  0.038459  1
  Si  Si31  1  0.655441  0.033939  0.538396  1
  Si  Si32  1  0.160148  0.468869  0.962951  1
  Si  Si33  1  0.655441  0.033939  0.961604  1
  Si  Si34  1  0.344344  0.966546  0.040300  1
  Os  Os35  1  0.027979  0.104662  0.750000  1
