# generated using pymatgen
data_Sr2Ca3Sb4
_symmetry_space_group_name_H-M   'P 1'
_cell_length_a   8.45415300
_cell_length_b   8.43075800
_cell_length_c   16.49651200
_cell_angle_alpha   90.00000000
_cell_angle_beta   90.00000000
_cell_angle_gamma   90.00000000
_symmetry_Int_Tables_number   1
_chemical_formula_structural   Sr2Ca3Sb4
_chemical_formula_sum   'Sr8 Ca12 Sb16'
_cell_volume   1175.78754071
_cell_formula_units_Z   4
loop_
 _symmetry_equiv_pos_site_id
 _symmetry_equiv_pos_as_xyz
  1  'x, y, z'
loop_
 _atom_site_type_symbol
 _atom_site_label
 _atom_site_symmetry_multiplicity
 _atom_site_fract_x
 _atom_site_fract_y
 _atom_site_fract_z
 _atom_site_occupancy
  Sr  Sr0  1  0.524249  0.315116  0.909866  1
  Sr  Sr1  1  0.024249  0.184884  0.590134  1
  Sr  Sr2  1  0.475751  0.684884  0.409866  1
  Sr  Sr3  1  0.975751  0.815116  0.090134  1
  Sr  Sr4  1  0.475751  0.684884  0.090134  1
  Sr  Sr5  1  0.975751  0.815116  0.409866  1
  Sr  Sr6  1  0.524249  0.315116  0.590134  1
  Sr  Sr7  1  0.024249  0.184884  0.909866  1
  Ca  Ca8  1  0.370945  0.852006  0.887552  1
  Ca  Ca9  1  0.870945  0.647994  0.612448  1
  Ca  Ca10  1  0.629055  0.147994  0.387553  1
  Ca  Ca11  1  0.129055  0.352006  0.112447  1
  Ca  Ca12  1  0.629055  0.147994  0.112447  1
  Ca  Ca13  1  0.129055  0.352006  0.387553  1
  Ca  Ca14  1  0.370945  0.852006  0.612448  1
  Ca  Ca15  1  0.870945  0.647994  0.887552  1
  Ca  Ca16  1  0.211271  0.511298  0.750000  1
  Ca  Ca17  1  0.711271  0.988702  0.750000  1
  Ca  Ca18  1  0.788729  0.488702  0.250000  1
  Ca  Ca19  1  0.288729  0.011298  0.250000  1
  Sb  Sb20  1  0.286084  0.044732  0.049143  1
  Sb  Sb21  1  0.786084  0.455268  0.450857  1
  Sb  Sb22  1  0.713916  0.955268  0.549143  1
  Sb  Sb23  1  0.213916  0.544732  0.950857  1
  Sb  Sb24  1  0.713916  0.955268  0.950857  1
  Sb  Sb25  1  0.213916  0.544732  0.549143  1
  Sb  Sb26  1  0.286084  0.044732  0.450857  1
  Sb  Sb27  1  0.786084  0.455268  0.049143  1
  Sb  Sb28  1  0.584097  0.608265  0.750000  1
  Sb  Sb29  1  0.084097  0.891735  0.750000  1
  Sb  Sb30  1  0.415903  0.391735  0.250000  1
  Sb  Sb31  1  0.915903  0.108265  0.250000  1
  Sb  Sb32  1  0.329608  0.136139  0.750000  1
  Sb  Sb33  1  0.829608  0.363861  0.750000  1
  Sb  Sb34  1  0.670392  0.863861  0.250000  1
  Sb  Sb35  1  0.170392  0.636139  0.250000  1
