# generated using pymatgen
data_Sr4ZnGa14Au
_symmetry_space_group_name_H-M   'P 1'
_cell_length_a   6.18842423
_cell_length_b   6.19191562
_cell_length_c   11.86138900
_cell_angle_alpha   74.86992191
_cell_angle_beta   74.87864675
_cell_angle_gamma   90.00000296
_symmetry_Int_Tables_number   1
_chemical_formula_structural   Sr4ZnGa14Au
_chemical_formula_sum   'Sr4 Zn1 Ga14 Au1'
_cell_volume   422.42830797
_cell_formula_units_Z   1
loop_
 _symmetry_equiv_pos_site_id
 _symmetry_equiv_pos_as_xyz
  1  'x, y, z'
loop_
 _atom_site_type_symbol
 _atom_site_label
 _atom_site_symmetry_multiplicity
 _atom_site_fract_x
 _atom_site_fract_y
 _atom_site_fract_z
 _atom_site_occupancy
  Sr  Sr0  1  0.000269  0.000247  0.999482  1
  Sr  Sr1  1  0.501398  0.501388  0.997200  1
  Sr  Sr2  1  0.751675  0.251650  0.496662  1
  Sr  Sr3  1  0.248883  0.748881  0.502249  1
  Zn  Zn4  1  0.558714  0.058734  0.882631  1
  Ga  Ga5  1  0.193866  0.193837  0.612465  1
  Ga  Ga6  1  0.808606  0.808590  0.382691  1
  Ga  Ga7  1  0.623089  0.123547  0.248248  1
  Ga  Ga8  1  0.128681  0.628210  0.248236  1
  Ga  Ga9  1  0.623084  0.628095  0.248224  1
  Ga  Ga10  1  0.128564  0.123520  0.248225  1
  Ga  Ga11  1  0.873419  0.369885  0.750625  1
  Ga  Ga12  1  0.375915  0.879493  0.750646  1
  Ga  Ga13  1  0.873428  0.879573  0.750617  1
  Ga  Ga14  1  0.375965  0.369924  0.750604  1
  Ga  Ga15  1  0.692248  0.692249  0.615570  1
  Ga  Ga16  1  0.058632  0.558637  0.882684  1
  Ga  Ga17  1  0.446063  0.946048  0.107935  1
  Ga  Ga18  1  0.943326  0.443307  0.113536  1
  Au  Au19  1  0.309004  0.309015  0.381812  1
