# generated using pymatgen
data_Cs4Bi9Sb3Se20
_symmetry_space_group_name_H-M   'P 1'
_cell_length_a   4.19552900
_cell_length_b   12.57346281
_cell_length_c   23.11623886
_cell_angle_alpha   89.91128081
_cell_angle_beta   90.00000000
_cell_angle_gamma   90.00000000
_symmetry_Int_Tables_number   1
_chemical_formula_structural   Cs4Bi9Sb3Se20
_chemical_formula_sum   'Cs4 Bi9 Sb3 Se20'
_cell_volume   1219.43394867
_cell_formula_units_Z   1
loop_
 _symmetry_equiv_pos_site_id
 _symmetry_equiv_pos_as_xyz
  1  'x, y, z'
loop_
 _atom_site_type_symbol
 _atom_site_label
 _atom_site_symmetry_multiplicity
 _atom_site_fract_x
 _atom_site_fract_y
 _atom_site_fract_z
 _atom_site_occupancy
  Cs  Cs0  1  0.250000  0.990231  0.286858  1
  Cs  Cs1  1  0.750000  0.488702  0.212286  1
  Cs  Cs2  1  0.750000  0.009605  0.713412  1
  Cs  Cs3  1  0.250000  0.510827  0.787567  1
  Bi  Bi4  1  0.750000  0.592501  0.427055  1
  Bi  Bi5  1  0.250000  0.092461  0.070743  1
  Bi  Bi6  1  0.250000  0.633257  0.975841  1
  Bi  Bi7  1  0.250000  0.304664  0.379382  1
  Bi  Bi8  1  0.250000  0.860993  0.476804  1
  Bi  Bi9  1  0.750000  0.907509  0.929253  1
  Bi  Bi10  1  0.750000  0.694961  0.620754  1
  Bi  Bi11  1  0.750000  0.366707  0.024107  1
  Bi  Bi12  1  0.750000  0.138244  0.522894  1
  Sb  Sb13  1  0.750000  0.808314  0.121342  1
  Sb  Sb14  1  0.250000  0.405448  0.573332  1
  Sb  Sb15  1  0.250000  0.191693  0.878654  1
  Se  Se16  1  0.250000  0.750237  0.696423  1
  Se  Se17  1  0.750000  0.138392  0.980407  1
  Se  Se18  1  0.250000  0.304720  0.110008  1
  Se  Se19  1  0.750000  0.585014  0.062333  1
  Se  Se20  1  0.250000  0.085676  0.438431  1
  Se  Se21  1  0.750000  0.915305  0.562477  1
  Se  Se22  1  0.250000  0.414978  0.937607  1
  Se  Se23  1  0.250000  0.861604  0.019479  1
  Se  Se24  1  0.750000  0.360678  0.482290  1
  Se  Se25  1  0.750000  0.245882  0.807320  1
  Se  Se26  1  0.250000  0.527174  0.346819  1
  Se  Se27  1  0.250000  0.981503  0.847108  1
  Se  Se28  1  0.750000  0.804702  0.389930  1
  Se  Se29  1  0.750000  0.468314  0.650466  1
  Se  Se30  1  0.250000  0.203185  0.609943  1
  Se  Se31  1  0.250000  0.754144  0.192625  1
  Se  Se32  1  0.750000  0.018520  0.152815  1
  Se  Se33  1  0.750000  0.248544  0.303832  1
  Se  Se34  1  0.750000  0.695241  0.889933  1
  Se  Se35  1  0.250000  0.640074  0.519468  1
