# generated using pymatgen
data_La4Pr5Nd(Al2Ru3)2
_symmetry_space_group_name_H-M   'P 1'
_cell_length_a   8.55252246
_cell_length_b   8.61998836
_cell_length_c   8.61569046
_cell_angle_alpha   109.32411617
_cell_angle_beta   109.20831741
_cell_angle_gamma   109.30170161
_symmetry_Int_Tables_number   1
_chemical_formula_structural   La4Pr5Nd(Al2Ru3)2
_chemical_formula_sum   'La4 Pr5 Nd1 Al4 Ru6'
_cell_volume   492.42083532
_cell_formula_units_Z   1
loop_
 _symmetry_equiv_pos_site_id
 _symmetry_equiv_pos_as_xyz
  1  'x, y, z'
loop_
 _atom_site_type_symbol
 _atom_site_label
 _atom_site_symmetry_multiplicity
 _atom_site_fract_x
 _atom_site_fract_y
 _atom_site_fract_z
 _atom_site_occupancy
  La  La0  1  0.251958  0.689492  0.440604  1
  La  La1  1  0.751972  0.812805  0.060519  1
  La  La2  1  0.440335  0.249710  0.689077  1
  La  La3  1  0.691514  0.440731  0.252319  1
  Pr  Pr4  1  0.816235  0.063967  0.750269  1
  Pr  Pr5  1  0.215696  0.216835  0.214494  1
  Pr  Pr6  1  0.499456  0.996817  0.282905  1
  Pr  Pr7  1  0.284851  0.501056  0.999075  1
  Pr  Pr8  1  0.999455  0.285226  0.502793  1
  Nd  Nd9  1  0.065671  0.750854  0.816001  1
  Al  Al10  1  0.591891  0.590188  0.590218  1
  Al  Al11  1  0.499685  0.001366  0.912378  1
  Al  Al12  1  0.912916  0.498804  0.998667  1
  Al  Al13  1  0.999525  0.911446  0.501005  1
  Ru  Ru14  1  0.250065  0.120378  0.860422  1
  Ru  Ru15  1  0.740539  0.376636  0.633766  1
  Ru  Ru16  1  0.861561  0.254244  0.121931  1
  Ru  Ru17  1  0.111708  0.861761  0.246055  1
  Ru  Ru18  1  0.631174  0.739597  0.377282  1
  Ru  Ru19  1  0.383793  0.638090  0.750218  1
