# generated using pymatgen
data_Hf2Fe5P6Ru5
_symmetry_space_group_name_H-M   'P 1'
_cell_length_a   3.72614900
_cell_length_b   10.35682900
_cell_length_c   11.93164100
_cell_angle_alpha   90.00000000
_cell_angle_beta   90.00000000
_cell_angle_gamma   90.00000000
_symmetry_Int_Tables_number   1
_chemical_formula_structural   Hf2Fe5P6Ru5
_chemical_formula_sum   'Hf4 Fe10 P12 Ru10'
_cell_volume   460.45500807
_cell_formula_units_Z   2
loop_
 _symmetry_equiv_pos_site_id
 _symmetry_equiv_pos_as_xyz
  1  'x, y, z'
loop_
 _atom_site_type_symbol
 _atom_site_label
 _atom_site_symmetry_multiplicity
 _atom_site_fract_x
 _atom_site_fract_y
 _atom_site_fract_z
 _atom_site_occupancy
  Hf  Hf0  1  0.250000  0.583729  0.710705  1
  Hf  Hf1  1  0.250000  0.916271  0.210705  1
  Hf  Hf2  1  0.750000  0.423353  0.291775  1
  Hf  Hf3  1  0.750000  0.076647  0.791775  1
  Fe  Fe4  1  0.750000  0.772537  0.825033  1
  Fe  Fe5  1  0.750000  0.727463  0.325033  1
  Fe  Fe6  1  0.250000  0.878294  0.700016  1
  Fe  Fe7  1  0.250000  0.621706  0.200016  1
  Fe  Fe8  1  0.750000  0.111555  0.299166  1
  Fe  Fe9  1  0.750000  0.388445  0.799166  1
  Fe  Fe10  1  0.250000  0.462721  0.933664  1
  Fe  Fe11  1  0.250000  0.037279  0.433664  1
  Fe  Fe12  1  0.750000  0.538708  0.066344  1
  Fe  Fe13  1  0.750000  0.961292  0.566344  1
  P  P14  1  0.250000  0.434121  0.114782  1
  P  P15  1  0.250000  0.065879  0.614782  1
  P  P16  1  0.750000  0.575349  0.884752  1
  P  P17  1  0.750000  0.924651  0.384752  1
  P  P18  1  0.250000  0.269149  0.865987  1
  P  P19  1  0.250000  0.230851  0.365987  1
  P  P20  1  0.750000  0.730046  0.142033  1
  P  P21  1  0.750000  0.769954  0.642033  1
  P  P22  1  0.250000  0.605490  0.382252  1
  P  P23  1  0.250000  0.894510  0.882252  1
  P  P24  1  0.750000  0.402506  0.614581  1
  P  P25  1  0.750000  0.097494  0.114581  1
  Ru  Ru26  1  0.250000  0.703876  0.984910  1
  Ru  Ru27  1  0.250000  0.796124  0.484910  1
  Ru  Ru28  1  0.750000  0.293781  0.008167  1
  Ru  Ru29  1  0.750000  0.206219  0.508167  1
  Ru  Ru30  1  0.250000  0.409027  0.478863  1
  Ru  Ru31  1  0.250000  0.090973  0.978863  1
  Ru  Ru32  1  0.750000  0.599217  0.520116  1
  Ru  Ru33  1  0.750000  0.900783  0.020116  1
  Ru  Ru34  1  0.250000  0.229547  0.176856  1
  Ru  Ru35  1  0.250000  0.270453  0.676856  1
