# generated using pymatgen
data_LuSc2Nb3C5
_symmetry_space_group_name_H-M   'P 1'
_cell_length_a   5.65510655
_cell_length_b   5.63913799
_cell_length_c   5.62275460
_cell_angle_alpha   80.55814898
_cell_angle_beta   81.81215373
_cell_angle_gamma   120.38166918
_symmetry_Int_Tables_number   1
_chemical_formula_structural   LuSc2Nb3C5
_chemical_formula_sum   'Lu1 Sc2 Nb3 C5'
_cell_volume   147.14092166
_cell_formula_units_Z   1
loop_
 _symmetry_equiv_pos_site_id
 _symmetry_equiv_pos_as_xyz
  1  'x, y, z'
loop_
 _atom_site_type_symbol
 _atom_site_label
 _atom_site_symmetry_multiplicity
 _atom_site_fract_x
 _atom_site_fract_y
 _atom_site_fract_z
 _atom_site_occupancy
  Lu  Lu0  1  0.756451  0.751451  0.749349  1
  Sc  Sc1  1  0.251583  0.254911  0.254017  1
  Sc  Sc2  1  0.096010  0.433322  0.746940  1
  Nb  Nb3  1  0.544849  0.903207  0.259921  1
  Nb  Nb4  1  0.905156  0.553893  0.259222  1
  Nb  Nb5  1  0.449690  0.096355  0.739621  1
  C  C6  1  0.508369  0.499628  0.491620  1
  C  C7  1  0.663468  0.317177  0.006953  1
  C  C8  1  0.322606  0.678579  0.006890  1
  C  C9  1  0.820644  0.176178  0.495766  1
  C  C10  1  0.181175  0.835299  0.489700  1
