# generated using pymatgen
data_CeTi3PdPt
_symmetry_space_group_name_H-M   'P 1'
_cell_length_a   5.35400698
_cell_length_b   5.50816094
_cell_length_c   4.57473300
_cell_angle_alpha   90.00000000
_cell_angle_beta   90.00000000
_cell_angle_gamma   120.95710530
_symmetry_Int_Tables_number   1
_chemical_formula_structural   CeTi3PdPt
_chemical_formula_sum   'Ce1 Ti3 Pd1 Pt1'
_cell_volume   115.69433585
_cell_formula_units_Z   1
loop_
 _symmetry_equiv_pos_site_id
 _symmetry_equiv_pos_as_xyz
  1  'x, y, z'
loop_
 _atom_site_type_symbol
 _atom_site_label
 _atom_site_symmetry_multiplicity
 _atom_site_fract_x
 _atom_site_fract_y
 _atom_site_fract_z
 _atom_site_occupancy
  Ce  Ce0  1  0.310824  0.655412  0.000000  1
  Ti  Ti1  1  0.630620  0.315310  0.000000  1
  Ti  Ti2  1  0.868413  0.186783  0.500000  1
  Ti  Ti3  1  0.868413  0.681630  0.500000  1
  Pd  Pd4  1  0.957792  0.978896  0.000000  1
  Pt  Pt5  1  0.363938  0.181969  0.500000  1
