# generated using pymatgen
data_Ho4AlMoRu6
_symmetry_space_group_name_H-M   'P 1'
_cell_length_a   5.55455145
_cell_length_b   5.17943976
_cell_length_c   8.93881500
_cell_angle_alpha   90.00000000
_cell_angle_beta   90.00000000
_cell_angle_gamma   122.39303829
_symmetry_Int_Tables_number   1
_chemical_formula_structural   Ho4AlMoRu6
_chemical_formula_sum   'Ho4 Al1 Mo1 Ru6'
_cell_volume   217.14826646
_cell_formula_units_Z   1
loop_
 _symmetry_equiv_pos_site_id
 _symmetry_equiv_pos_as_xyz
  1  'x, y, z'
loop_
 _atom_site_type_symbol
 _atom_site_label
 _atom_site_symmetry_multiplicity
 _atom_site_fract_x
 _atom_site_fract_y
 _atom_site_fract_z
 _atom_site_occupancy
  Ho  Ho0  1  0.673987  0.347918  0.565558  1
  Ho  Ho1  1  0.331390  0.662792  0.433572  1
  Ho  Ho2  1  0.331390  0.662792  0.066428  1
  Ho  Ho3  1  0.673987  0.347918  0.934442  1
  Al  Al4  1  0.836710  0.672867  0.250000  1
  Mo  Mo5  1  0.151919  0.304213  0.750000  1
  Ru  Ru6  1  0.010113  0.019538  0.498261  1
  Ru  Ru7  1  0.010113  0.019538  0.001739  1
  Ru  Ru8  1  0.174155  0.815938  0.750000  1
  Ru  Ru9  1  0.641095  0.815447  0.750000  1
  Ru  Ru10  1  0.817752  0.165410  0.250000  1
  Ru  Ru11  1  0.347388  0.165631  0.250000  1
