# generated using pymatgen
data_TbPu(Sb2Au)2
_symmetry_space_group_name_H-M   'P 1'
_cell_length_a   4.43384300
_cell_length_b   4.43384300
_cell_length_c   9.98718000
_cell_angle_alpha   90.00000000
_cell_angle_beta   90.00000000
_cell_angle_gamma   90.00000000
_symmetry_Int_Tables_number   1
_chemical_formula_structural   TbPu(Sb2Au)2
_chemical_formula_sum   'Tb1 Pu1 Sb4 Au2'
_cell_volume   196.33760957
_cell_formula_units_Z   1
loop_
 _symmetry_equiv_pos_site_id
 _symmetry_equiv_pos_as_xyz
  1  'x, y, z'
loop_
 _atom_site_type_symbol
 _atom_site_label
 _atom_site_symmetry_multiplicity
 _atom_site_fract_x
 _atom_site_fract_y
 _atom_site_fract_z
 _atom_site_occupancy
  Tb  Tb0  1  0.500000  0.000000  0.244189  1
  Pu  Pu1  1  0.000000  0.500000  0.753363  1
  Sb  Sb2  1  0.500000  0.500000  0.997287  1
  Sb  Sb3  1  0.000000  0.000000  0.997287  1
  Sb  Sb4  1  0.000000  0.500000  0.314369  1
  Sb  Sb5  1  0.500000  0.000000  0.693014  1
  Au  Au6  1  0.500000  0.500000  0.500245  1
  Au  Au7  1  0.000000  0.000000  0.500245  1
