# generated using pymatgen
data_Er4Al17Ga(PtRh2)2
_symmetry_space_group_name_H-M   'P 1'
_cell_length_a   7.55674395
_cell_length_b   7.55674335
_cell_length_c   9.44280735
_cell_angle_alpha   89.96457568
_cell_angle_beta   89.96458044
_cell_angle_gamma   119.52465746
_symmetry_Int_Tables_number   1
_chemical_formula_structural   Er4Al17Ga(PtRh2)2
_chemical_formula_sum   'Er4 Al17 Ga1 Pt2 Rh4'
_cell_volume   469.20341172
_cell_formula_units_Z   1
loop_
 _symmetry_equiv_pos_site_id
 _symmetry_equiv_pos_as_xyz
  1  'x, y, z'
loop_
 _atom_site_type_symbol
 _atom_site_label
 _atom_site_symmetry_multiplicity
 _atom_site_fract_x
 _atom_site_fract_y
 _atom_site_fract_z
 _atom_site_occupancy
  Er  Er0  1  0.994973  0.671353  0.750336  1
  Er  Er1  1  0.004879  0.330055  0.249680  1
  Er  Er2  1  0.671353  0.994973  0.750336  1
  Er  Er3  1  0.330055  0.004879  0.249680  1
  Al  Al4  1  0.874052  0.874052  0.249192  1
  Al  Al5  1  0.000765  0.331116  0.577843  1
  Al  Al6  1  0.999204  0.668818  0.422086  1
  Al  Al7  1  0.000470  0.665260  0.074911  1
  Al  Al8  1  0.335005  0.999517  0.925261  1
  Al  Al9  1  0.999517  0.335005  0.925261  1
  Al  Al10  1  0.665260  0.000470  0.074911  1
  Al  Al11  1  0.668818  0.999204  0.422086  1
  Al  Al12  1  0.331116  0.000765  0.577843  1
  Al  Al13  1  0.331714  0.331714  0.053234  1
  Al  Al14  1  0.667825  0.667825  0.948011  1
  Al  Al15  1  0.669465  0.669465  0.557181  1
  Al  Al16  1  0.330128  0.330128  0.441513  1
  Al  Al17  1  0.339178  0.547954  0.753891  1
  Al  Al18  1  0.660339  0.452628  0.246154  1
  Al  Al19  1  0.547954  0.339178  0.753891  1
  Al  Al20  1  0.452628  0.660339  0.246154  1
  Ga  Ga21  1  0.128127  0.128127  0.750716  1
  Pt  Pt22  1  0.671911  0.327507  0.500091  1
  Pt  Pt23  1  0.327507  0.671911  0.500091  1
  Rh  Rh24  1  0.327487  0.671781  0.999848  1
  Rh  Rh25  1  0.671781  0.327487  0.999848  1
  Rh  Rh26  1  0.999291  0.999291  0.498231  1
  Rh  Rh27  1  0.999198  0.999198  0.001723  1
