# generated using pymatgen
data_Tb3Dy5Re(TcB8)3
_symmetry_space_group_name_H-M   'P 1'
_cell_length_a   3.69654100
_cell_length_b   9.17884876
_cell_length_c   11.56959300
_cell_angle_alpha   90.02335277
_cell_angle_beta   90.00000000
_cell_angle_gamma   90.00000000
_symmetry_Int_Tables_number   1
_chemical_formula_structural   Tb3Dy5Re(TcB8)3
_chemical_formula_sum   'Tb3 Dy5 Re1 Tc3 B24'
_cell_volume   392.55615112
_cell_formula_units_Z   1
loop_
 _symmetry_equiv_pos_site_id
 _symmetry_equiv_pos_as_xyz
  1  'x, y, z'
loop_
 _atom_site_type_symbol
 _atom_site_label
 _atom_site_symmetry_multiplicity
 _atom_site_fract_x
 _atom_site_fract_y
 _atom_site_fract_z
 _atom_site_occupancy
  Tb  Tb0  1  0.000000  0.323796  0.414229  1
  Tb  Tb1  1  0.000000  0.676488  0.585849  1
  Tb  Tb2  1  0.000000  0.823601  0.085860  1
  Dy  Dy3  1  0.000000  0.176557  0.914348  1
  Dy  Dy4  1  0.000000  0.942210  0.368857  1
  Dy  Dy5  1  0.000000  0.058501  0.630104  1
  Dy  Dy6  1  0.000000  0.442063  0.130951  1
  Dy  Dy7  1  0.000000  0.556716  0.869573  1
  Re  Re8  1  0.000000  0.862140  0.820591  1
  Tc  Tc9  1  0.000000  0.638350  0.320444  1
  Tc  Tc10  1  0.000000  0.361569  0.679716  1
  Tc  Tc11  1  0.000000  0.138377  0.179410  1
  B  B12  1  0.500000  0.553401  0.432663  1
  B  B13  1  0.500000  0.446760  0.567575  1
  B  B14  1  0.500000  0.053431  0.067224  1
  B  B15  1  0.500000  0.947080  0.932824  1
  B  B16  1  0.500000  0.748517  0.417976  1
  B  B17  1  0.500000  0.251823  0.582082  1
  B  B18  1  0.500000  0.248344  0.081681  1
  B  B19  1  0.500000  0.751280  0.918144  1
  B  B20  1  0.500000  0.791007  0.265144  1
  B  B21  1  0.500000  0.208786  0.734903  1
  B  B22  1  0.500000  0.290972  0.234715  1
  B  B23  1  0.500000  0.708664  0.765372  1
  B  B24  1  0.500000  0.630178  0.185768  1
  B  B25  1  0.500000  0.369291  0.814462  1
  B  B26  1  0.500000  0.130300  0.314144  1
  B  B27  1  0.500000  0.870043  0.685647  1
  B  B28  1  0.500000  0.982294  0.211494  1
  B  B29  1  0.500000  0.018373  0.788252  1
  B  B30  1  0.500000  0.482194  0.288348  1
  B  B31  1  0.500000  0.517599  0.711934  1
  B  B32  1  0.500000  0.599394  0.027966  1
  B  B33  1  0.500000  0.399595  0.972194  1
  B  B34  1  0.500000  0.099649  0.471831  1
  B  B35  1  0.500000  0.900657  0.527723  1
