# generated using pymatgen
data_Hf8Ti11Ge16Mo
_symmetry_space_group_name_H-M   'P 1'
_cell_length_a   6.77024600
_cell_length_b   6.88970454
_cell_length_c   13.08399900
_cell_angle_alpha   90.00000000
_cell_angle_beta   90.00000000
_cell_angle_gamma   90.03688123
_symmetry_Int_Tables_number   1
_chemical_formula_structural   Hf8Ti11Ge16Mo
_chemical_formula_sum   'Hf8 Ti11 Ge16 Mo1'
_cell_volume   610.30293695
_cell_formula_units_Z   1
loop_
 _symmetry_equiv_pos_site_id
 _symmetry_equiv_pos_as_xyz
  1  'x, y, z'
loop_
 _atom_site_type_symbol
 _atom_site_label
 _atom_site_symmetry_multiplicity
 _atom_site_fract_x
 _atom_site_fract_y
 _atom_site_fract_z
 _atom_site_occupancy
  Hf  Hf0  1  0.490400  0.675324  0.592800  1
  Hf  Hf1  1  0.990307  0.824407  0.907303  1
  Hf  Hf2  1  0.511435  0.324042  0.093618  1
  Hf  Hf3  1  0.010794  0.173371  0.405784  1
  Hf  Hf4  1  0.511435  0.324042  0.406382  1
  Hf  Hf5  1  0.010794  0.173371  0.094216  1
  Hf  Hf6  1  0.490400  0.675324  0.907200  1
  Hf  Hf7  1  0.990307  0.824407  0.592697  1
  Ti  Ti8  1  0.657832  0.167455  0.625842  1
  Ti  Ti9  1  0.156914  0.333590  0.874493  1
  Ti  Ti10  1  0.343882  0.834159  0.125340  1
  Ti  Ti11  1  0.840661  0.667758  0.374714  1
  Ti  Ti12  1  0.343882  0.834159  0.374660  1
  Ti  Ti13  1  0.840661  0.667758  0.125286  1
  Ti  Ti14  1  0.657832  0.167455  0.874158  1
  Ti  Ti15  1  0.156914  0.333590  0.625507  1
  Ti  Ti16  1  0.829314  0.494134  0.750000  1
  Ti  Ti17  1  0.329781  0.004053  0.750000  1
  Ti  Ti18  1  0.170354  0.507116  0.250000  1
  Ge  Ge19  1  0.684109  0.959532  0.460669  1
  Ge  Ge20  1  0.183731  0.539870  0.040714  1
  Ge  Ge21  1  0.316210  0.040861  0.959378  1
  Ge  Ge22  1  0.815926  0.458991  0.540280  1
  Ge  Ge23  1  0.316210  0.040861  0.540622  1
  Ge  Ge24  1  0.815926  0.458991  0.959720  1
  Ge  Ge25  1  0.684109  0.959532  0.039331  1
  Ge  Ge26  1  0.183731  0.539870  0.459286  1
  Ge  Ge27  1  0.458870  0.379759  0.750000  1
  Ge  Ge28  1  0.959403  0.119907  0.750000  1
  Ge  Ge29  1  0.539138  0.618676  0.250000  1
  Ge  Ge30  1  0.040676  0.879025  0.250000  1
  Ge  Ge31  1  0.689761  0.854539  0.750000  1
  Ge  Ge32  1  0.188267  0.645162  0.750000  1
  Ge  Ge33  1  0.308075  0.147513  0.250000  1
  Ge  Ge34  1  0.812454  0.357169  0.250000  1
  Mo  Mo35  1  0.669505  0.994233  0.250000  1
