# generated using pymatgen
data_Yb3ZrGa14(Si2Ir3)2
_symmetry_space_group_name_H-M   'P 1'
_cell_length_a   7.52274135
_cell_length_b   7.47880643
_cell_length_c   9.45309707
_cell_angle_alpha   90.02664770
_cell_angle_beta   89.97238655
_cell_angle_gamma   120.22218456
_symmetry_Int_Tables_number   1
_chemical_formula_structural   Yb3ZrGa14(Si2Ir3)2
_chemical_formula_sum   'Yb3 Zr1 Ga14 Si4 Ir6'
_cell_volume   459.55385553
_cell_formula_units_Z   1
loop_
 _symmetry_equiv_pos_site_id
 _symmetry_equiv_pos_as_xyz
  1  'x, y, z'
loop_
 _atom_site_type_symbol
 _atom_site_label
 _atom_site_symmetry_multiplicity
 _atom_site_fract_x
 _atom_site_fract_y
 _atom_site_fract_z
 _atom_site_occupancy
  Yb  Yb0  1  0.003620  0.338504  0.749944  1
  Yb  Yb1  1  0.668783  0.001989  0.250064  1
  Yb  Yb2  1  0.326675  0.995297  0.749940  1
  Zr  Zr3  1  0.999553  0.666514  0.249986  1
  Ga  Ga4  1  0.128850  0.125928  0.249931  1
  Ga  Ga5  1  0.873313  0.868946  0.749999  1
  Ga  Ga6  1  0.997339  0.327280  0.419145  1
  Ga  Ga7  1  0.670706  0.002061  0.580917  1
  Ga  Ga8  1  0.663981  0.000586  0.919203  1
  Ga  Ga9  1  0.338759  0.001276  0.082018  1
  Ga  Ga10  1  0.331707  0.333448  0.572390  1
  Ga  Ga11  1  0.664593  0.670217  0.425128  1
  Ga  Ga12  1  0.663247  0.670352  0.074621  1
  Ga  Ga13  1  0.335377  0.330064  0.927505  1
  Ga  Ga14  1  0.332838  0.547837  0.250393  1
  Ga  Ga15  1  0.665456  0.456359  0.750892  1
  Ga  Ga16  1  0.549829  0.340891  0.249619  1
  Ga  Ga17  1  0.450006  0.662573  0.749201  1
  Si  Si18  1  0.000181  0.330694  0.073494  1
  Si  Si19  1  0.999667  0.671405  0.937897  1
  Si  Si20  1  0.995711  0.660313  0.562051  1
  Si  Si21  1  0.335932  0.001374  0.425672  1
  Ir  Ir22  1  0.695477  0.343939  0.004460  1
  Ir  Ir23  1  0.305122  0.657793  0.000159  1
  Ir  Ir24  1  0.317655  0.680309  0.497066  1
  Ir  Ir25  1  0.672808  0.331521  0.498060  1
  Ir  Ir26  1  0.000214  0.997401  0.002615  1
  Ir  Ir27  1  0.012598  0.985129  0.497635  1
