# generated using pymatgen
data_Ce10PtPb7
_symmetry_space_group_name_H-M   'P 1'
_cell_length_a   6.64263500
_cell_length_b   9.67771029
_cell_length_c   9.67771000
_cell_angle_alpha   119.97725732
_cell_angle_beta   89.99803340
_cell_angle_gamma   89.99801651
_symmetry_Int_Tables_number   1
_chemical_formula_structural   Ce10PtPb7
_chemical_formula_sum   'Ce10 Pt1 Pb7'
_cell_volume   538.90935596
_cell_formula_units_Z   1
loop_
 _symmetry_equiv_pos_site_id
 _symmetry_equiv_pos_as_xyz
  1  'x, y, z'
loop_
 _atom_site_type_symbol
 _atom_site_label
 _atom_site_symmetry_multiplicity
 _atom_site_fract_x
 _atom_site_fract_y
 _atom_site_fract_z
 _atom_site_occupancy
  Ce  Ce0  1  0.733863  0.731834  0.731834  1
  Ce  Ce1  1  0.733855  0.268311  0.999989  1
  Ce  Ce2  1  0.733855  0.999989  0.268311  1
  Ce  Ce3  1  0.266137  0.268166  0.268166  1
  Ce  Ce4  1  0.266145  0.731689  0.000011  1
  Ce  Ce5  1  0.266145  0.000011  0.731689  1
  Ce  Ce6  1  0.000000  0.666683  0.333317  1
  Ce  Ce7  1  0.000000  0.333317  0.666683  1
  Ce  Ce8  1  0.500000  0.333209  0.666791  1
  Ce  Ce9  1  0.500000  0.666791  0.333209  1
  Pt  Pt10  1  0.500000  0.000000  0.000000  1
  Pb  Pb11  1  0.000000  0.000000  0.000000  1
  Pb  Pb12  1  0.757565  0.382471  0.382471  1
  Pb  Pb13  1  0.757666  0.617628  0.999980  1
  Pb  Pb14  1  0.757666  0.999980  0.617628  1
  Pb  Pb15  1  0.242435  0.617529  0.617529  1
  Pb  Pb16  1  0.242334  0.382372  0.000020  1
  Pb  Pb17  1  0.242334  0.000020  0.382372  1
