# generated using pymatgen
data_Y2Ni3P4Ru3
_symmetry_space_group_name_H-M   'P 1'
_cell_length_a   3.86575000
_cell_length_b   10.63553724
_cell_length_c   12.62241656
_cell_angle_alpha   89.46609760
_cell_angle_beta   90.00000000
_cell_angle_gamma   90.00000000
_symmetry_Int_Tables_number   1
_chemical_formula_structural   Y2Ni3P4Ru3
_chemical_formula_sum   'Y6 Ni9 P12 Ru9'
_cell_volume   518.93964483
_cell_formula_units_Z   3
loop_
 _symmetry_equiv_pos_site_id
 _symmetry_equiv_pos_as_xyz
  1  'x, y, z'
loop_
 _atom_site_type_symbol
 _atom_site_label
 _atom_site_symmetry_multiplicity
 _atom_site_fract_x
 _atom_site_fract_y
 _atom_site_fract_z
 _atom_site_occupancy
  Y  Y0  1  0.000000  0.501474  0.525586  1
  Y  Y1  1  0.500000  0.001322  0.475644  1
  Y  Y2  1  0.500000  0.815205  0.200121  1
  Y  Y3  1  0.500000  0.184258  0.201479  1
  Y  Y4  1  0.000000  0.684750  0.801319  1
  Y  Y5  1  0.000000  0.316719  0.798668  1
  Ni  Ni6  1  0.000000  0.496804  0.981140  1
  Ni  Ni7  1  0.500000  0.999576  0.018391  1
  Ni  Ni8  1  0.000000  0.373062  0.281316  1
  Ni  Ni9  1  0.500000  0.330886  0.989375  1
  Ni  Ni10  1  0.500000  0.665867  0.989625  1
  Ni  Ni11  1  0.000000  0.168904  0.013130  1
  Ni  Ni12  1  0.000000  0.829209  0.012809  1
  Ni  Ni13  1  0.500000  0.501211  0.700517  1
  Ni  Ni14  1  0.000000  0.000299  0.298572  1
  P  P15  1  0.500000  0.316692  0.614573  1
  P  P16  1  0.500000  0.687693  0.617388  1
  P  P17  1  0.000000  0.185829  0.380400  1
  P  P18  1  0.000000  0.813764  0.382249  1
  P  P19  1  0.500000  0.499884  0.875996  1
  P  P20  1  0.000000  0.997894  0.123163  1
  P  P21  1  0.500000  0.849031  0.898779  1
  P  P22  1  0.500000  0.150482  0.897277  1
  P  P23  1  0.000000  0.645442  0.103092  1
  P  P24  1  0.000000  0.347821  0.104103  1
  P  P25  1  0.500000  0.503003  0.341966  1
  P  P26  1  0.000000  0.001855  0.660018  1
  Ru  Ru27  1  0.500000  0.302558  0.423334  1
  Ru  Ru28  1  0.500000  0.703584  0.428933  1
  Ru  Ru29  1  0.000000  0.205540  0.566696  1
  Ru  Ru30  1  0.000000  0.799792  0.570887  1
  Ru  Ru31  1  0.500000  0.876429  0.717332  1
  Ru  Ru32  1  0.500000  0.126777  0.715670  1
  Ru  Ru33  1  0.000000  0.618920  0.285083  1
  Ru  Ru34  1  0.500000  0.496032  0.154229  1
  Ru  Ru35  1  0.000000  0.001430  0.851135  1
