# generated using pymatgen
data_DyTm9IrOs3
_symmetry_space_group_name_H-M   'P 1'
_cell_length_a   6.31729359
_cell_length_b   7.29350187
_cell_length_c   8.28422090
_cell_angle_alpha   96.86033876
_cell_angle_beta   112.26204589
_cell_angle_gamma   89.90045100
_symmetry_Int_Tables_number   1
_chemical_formula_structural   DyTm9IrOs3
_chemical_formula_sum   'Dy1 Tm9 Ir1 Os3'
_cell_volume   350.32303310
_cell_formula_units_Z   1
loop_
 _symmetry_equiv_pos_site_id
 _symmetry_equiv_pos_as_xyz
  1  'x, y, z'
loop_
 _atom_site_type_symbol
 _atom_site_label
 _atom_site_symmetry_multiplicity
 _atom_site_fract_x
 _atom_site_fract_y
 _atom_site_fract_z
 _atom_site_occupancy
  Dy  Dy0  1  0.970023  0.916056  0.180305  1
  Tm  Tm1  1  0.789873  0.581885  0.817587  1
  Tm  Tm2  1  0.025511  0.083967  0.814322  1
  Tm  Tm3  1  0.208469  0.418936  0.179718  1
  Tm  Tm4  1  0.648697  0.817073  0.439857  1
  Tm  Tm5  1  0.209909  0.681203  0.562531  1
  Tm  Tm6  1  0.352067  0.181776  0.564097  1
  Tm  Tm7  1  0.793511  0.319975  0.439182  1
  Tm  Tm8  1  0.421521  0.748357  0.998910  1
  Tm  Tm9  1  0.577782  0.250969  0.999260  1
  Ir  Ir10  1  0.397338  0.078282  0.221479  1
  Os  Os11  1  0.822683  0.574957  0.218458  1
  Os  Os12  1  0.606759  0.923577  0.781183  1
  Os  Os13  1  0.175859  0.422988  0.783111  1
