# generated using pymatgen
data_Cs3Sc(PO4)2
_symmetry_space_group_name_H-M   'P 1'
_cell_length_a   5.59544800
_cell_length_b   5.59544754
_cell_length_c   8.15097500
_cell_angle_alpha   90.00000000
_cell_angle_beta   90.00000000
_cell_angle_gamma   120.00001457
_symmetry_Int_Tables_number   1
_chemical_formula_structural   Cs3Sc(PO4)2
_chemical_formula_sum   'Cs3 Sc1 P2 O8'
_cell_volume   221.00892959
_cell_formula_units_Z   1
loop_
 _symmetry_equiv_pos_site_id
 _symmetry_equiv_pos_as_xyz
  1  'x, y, z'
loop_
 _atom_site_type_symbol
 _atom_site_label
 _atom_site_symmetry_multiplicity
 _atom_site_fract_x
 _atom_site_fract_y
 _atom_site_fract_z
 _atom_site_occupancy
  Cs  Cs0  1  0.333333  0.666667  0.764267  1
  Cs  Cs1  1  0.666667  0.333333  0.235733  1
  Cs  Cs2  1  0.000000  0.000000  0.000000  1
  Sc  Sc3  1  0.000000  0.000000  0.500000  1
  P  P4  1  0.333333  0.666667  0.296235  1
  P  P5  1  0.666667  0.333333  0.703765  1
  O  O6  1  0.333333  0.666667  0.108502  1
  O  O7  1  0.666667  0.333333  0.891498  1
  O  O8  1  0.181541  0.818459  0.359117  1
  O  O9  1  0.818459  0.181541  0.640883  1
  O  O10  1  0.181541  0.363082  0.359117  1
  O  O11  1  0.818459  0.636918  0.640883  1
  O  O12  1  0.636918  0.818459  0.359117  1
  O  O13  1  0.363082  0.181541  0.640883  1
