# generated using pymatgen
data_NaFe(CO3)2
_symmetry_space_group_name_H-M   'P 1'
_cell_length_a   6.11480662
_cell_length_b   6.11480683
_cell_length_c   6.11480637
_cell_angle_alpha   46.42030221
_cell_angle_beta   46.42030111
_cell_angle_gamma   46.42030091
_symmetry_Int_Tables_number   1
_chemical_formula_structural   NaFe(CO3)2
_chemical_formula_sum   'Na1 Fe1 C2 O6'
_cell_volume   109.54023897
_cell_formula_units_Z   1
loop_
 _symmetry_equiv_pos_site_id
 _symmetry_equiv_pos_as_xyz
  1  'x, y, z'
loop_
 _atom_site_type_symbol
 _atom_site_label
 _atom_site_symmetry_multiplicity
 _atom_site_fract_x
 _atom_site_fract_y
 _atom_site_fract_z
 _atom_site_occupancy
  Na  Na0  1  0.000000  0.000000  0.000000  1
  Fe  Fe1  1  0.500000  0.500000  0.500000  1
  C  C2  1  0.237682  0.237682  0.237682  1
  C  C3  1  0.762318  0.762318  0.762318  1
  O  O4  1  0.278584  0.485913  0.952660  1
  O  O5  1  0.952660  0.278584  0.485913  1
  O  O6  1  0.485913  0.952660  0.278584  1
  O  O7  1  0.721416  0.514087  0.047340  1
  O  O8  1  0.047340  0.721416  0.514087  1
  O  O9  1  0.514087  0.047340  0.721416  1
