# generated using pymatgen
data_TbNdNi2(BO2)10
_symmetry_space_group_name_H-M   'P 1'
_cell_length_a   7.63127600
_cell_length_b   8.66433858
_cell_length_c   9.50867935
_cell_angle_alpha   93.53894028
_cell_angle_beta   90.00000000
_cell_angle_gamma   90.00000000
_symmetry_Int_Tables_number   1
_chemical_formula_structural   TbNdNi2(BO2)10
_chemical_formula_sum   'Tb2 Nd2 Ni4 B20 O40'
_cell_volume   627.51458106
_cell_formula_units_Z   2
loop_
 _symmetry_equiv_pos_site_id
 _symmetry_equiv_pos_as_xyz
  1  'x, y, z'
loop_
 _atom_site_type_symbol
 _atom_site_label
 _atom_site_symmetry_multiplicity
 _atom_site_fract_x
 _atom_site_fract_y
 _atom_site_fract_z
 _atom_site_occupancy
  Tb  Tb0  1  0.686434  0.315368  0.261007  1
  Tb  Tb1  1  0.186435  0.184633  0.238993  1
  Nd  Nd2  1  0.319094  0.680507  0.736223  1
  Nd  Nd3  1  0.819094  0.819493  0.763776  1
  Ni  Ni4  1  0.911670  0.898637  0.371139  1
  Ni  Ni5  1  0.411671  0.601363  0.128862  1
  Ni  Ni6  1  0.089534  0.102756  0.627218  1
  Ni  Ni7  1  0.589535  0.397243  0.872781  1
  B  B8  1  0.812036  0.566658  0.089008  1
  B  B9  1  0.312036  0.933342  0.410992  1
  B  B10  1  0.187083  0.431212  0.912929  1
  B  B11  1  0.687082  0.068789  0.587070  1
  B  B12  1  0.100098  0.657338  0.500835  1
  B  B13  1  0.600097  0.842662  0.999164  1
  B  B14  1  0.900559  0.340506  0.493917  1
  B  B15  1  0.400559  0.159494  0.006084  1
  B  B16  1  0.032937  0.778693  0.056503  1
  B  B17  1  0.532937  0.721307  0.443498  1
  B  B18  1  0.966119  0.221742  0.946098  1
  B  B19  1  0.466119  0.278258  0.553901  1
  B  B20  1  0.825257  0.018306  0.108205  1
  B  B21  1  0.325256  0.481693  0.391795  1
  B  B22  1  0.174583  0.984500  0.896065  1
  B  B23  1  0.674582  0.515500  0.603936  1
  B  B24  1  0.076826  0.585061  0.240678  1
  B  B25  1  0.576825  0.914938  0.259322  1
  B  B26  1  0.922750  0.411637  0.757016  1
  B  B27  1  0.422751  0.088363  0.742985  1
  O  O28  1  0.950392  0.261316  0.373768  1
  O  O29  1  0.450391  0.238683  0.126233  1
  O  O30  1  0.051665  0.738742  0.619604  1
  O  O31  1  0.551666  0.761258  0.880395  1
  O  O32  1  0.151662  0.007427  0.427225  1
  O  O33  1  0.651661  0.492573  0.072775  1
  O  O34  1  0.848480  0.997337  0.569381  1
  O  O35  1  0.348481  0.502662  0.930619  1
  O  O36  1  0.874081  0.682849  0.011239  1
  O  O37  1  0.374082  0.817151  0.488761  1
  O  O38  1  0.123739  0.316994  0.992090  1
  O  O39  1  0.623738  0.183007  0.507911  1
  O  O40  1  0.725816  0.957879  0.986015  1
  O  O41  1  0.225816  0.542121  0.513986  1
  O  O42  1  0.271454  0.046887  0.019820  1
  O  O43  1  0.771453  0.453113  0.480179  1
  O  O44  1  0.892686  0.174922  0.083587  1
  O  O45  1  0.392686  0.325078  0.416413  1
  O  O46  1  0.107235  0.827543  0.920460  1
  O  O47  1  0.607235  0.672457  0.579540  1
  O  O48  1  0.971828  0.914701  0.149961  1
  O  O49  1  0.471827  0.585299  0.350040  1
  O  O50  1  0.026803  0.085683  0.853049  1
  O  O51  1  0.526804  0.414317  0.646950  1
  O  O52  1  0.151662  0.682441  0.134759  1
  O  O53  1  0.651661  0.817558  0.365241  1
  O  O54  1  0.847603  0.315397  0.864158  1
  O  O55  1  0.347603  0.184604  0.635841  1
  O  O56  1  0.910134  0.512065  0.196936  1
  O  O57  1  0.410135  0.987935  0.303065  1
  O  O58  1  0.089315  0.483787  0.803336  1
  O  O59  1  0.589314  0.016214  0.696663  1
  O  O60  1  0.035749  0.686814  0.370540  1
  O  O61  1  0.535749  0.813185  0.129460  1
  O  O62  1  0.964634  0.311861  0.625167  1
  O  O63  1  0.464635  0.188139  0.874832  1
  O  O64  1  0.208906  0.464022  0.266662  1
  O  O65  1  0.708906  0.035978  0.233339  1
  O  O66  1  0.791177  0.531540  0.729130  1
  O  O67  1  0.291177  0.968460  0.770870  1
