# generated using pymatgen
data_YThNi10
_symmetry_space_group_name_H-M   'P 1'
_cell_length_a   3.97359100
_cell_length_b   4.92900771
_cell_length_c   8.49250972
_cell_angle_alpha   89.66773682
_cell_angle_beta   90.00000000
_cell_angle_gamma   90.00000000
_symmetry_Int_Tables_number   1
_chemical_formula_structural   YThNi10
_chemical_formula_sum   'Y1 Th1 Ni10'
_cell_volume   166.33031526
_cell_formula_units_Z   1
loop_
 _symmetry_equiv_pos_site_id
 _symmetry_equiv_pos_as_xyz
  1  'x, y, z'
loop_
 _atom_site_type_symbol
 _atom_site_label
 _atom_site_symmetry_multiplicity
 _atom_site_fract_x
 _atom_site_fract_y
 _atom_site_fract_z
 _atom_site_occupancy
  Y  Y0  1  0.000000  0.000000  0.500000  1
  Th  Th1  1  0.000000  0.500000  0.000000  1
  Ni  Ni2  1  0.000000  0.500089  0.334131  1
  Ni  Ni3  1  0.000000  0.000012  0.832707  1
  Ni  Ni4  1  0.000000  0.999988  0.167293  1
  Ni  Ni5  1  0.000000  0.499911  0.665869  1
  Ni  Ni6  1  0.500000  0.500000  0.500000  1
  Ni  Ni7  1  0.500000  0.000000  0.000000  1
  Ni  Ni8  1  0.500000  0.750573  0.251292  1
  Ni  Ni9  1  0.500000  0.249427  0.748708  1
  Ni  Ni10  1  0.500000  0.249319  0.251352  1
  Ni  Ni11  1  0.500000  0.750681  0.748648  1
