# generated using pymatgen
data_Er2ThIn3Pt2Rh
_symmetry_space_group_name_H-M   'P 1'
_cell_length_a   7.77566566
_cell_length_b   7.73036949
_cell_length_c   3.82432000
_cell_angle_alpha   90.00000000
_cell_angle_beta   90.00000000
_cell_angle_gamma   119.80748036
_symmetry_Int_Tables_number   1
_chemical_formula_structural   Er2ThIn3Pt2Rh
_chemical_formula_sum   'Er2 Th1 In3 Pt2 Rh1'
_cell_volume   199.46281079
_cell_formula_units_Z   1
loop_
 _symmetry_equiv_pos_site_id
 _symmetry_equiv_pos_as_xyz
  1  'x, y, z'
loop_
 _atom_site_type_symbol
 _atom_site_label
 _atom_site_symmetry_multiplicity
 _atom_site_fract_x
 _atom_site_fract_y
 _atom_site_fract_z
 _atom_site_occupancy
  Er  Er0  1  0.404881  0.408279  0.500000  1
  Er  Er1  1  0.595119  0.003398  0.500000  1
  Th  Th2  1  0.000000  0.592701  0.500000  1
  In  In3  1  0.268288  0.012746  0.000000  1
  In  In4  1  0.731712  0.744459  0.000000  1
  In  In5  1  0.000000  0.245050  0.000000  1
  Pt  Pt6  1  0.671894  0.338069  0.000000  1
  Pt  Pt7  1  0.328106  0.666176  0.000000  1
  Rh  Rh8  1  0.000000  0.989121  0.500000  1
