# generated using pymatgen
data_Ho3Zn3Hg2Ir
_symmetry_space_group_name_H-M   'P 1'
_cell_length_a   7.71985900
_cell_length_b   7.71985961
_cell_length_c   3.73935700
_cell_angle_alpha   90.00000000
_cell_angle_beta   90.00000000
_cell_angle_gamma   119.99999310
_symmetry_Int_Tables_number   1
_chemical_formula_structural   Ho3Zn3Hg2Ir
_chemical_formula_sum   'Ho3 Zn3 Hg2 Ir1'
_cell_volume   192.99513531
_cell_formula_units_Z   1
loop_
 _symmetry_equiv_pos_site_id
 _symmetry_equiv_pos_as_xyz
  1  'x, y, z'
loop_
 _atom_site_type_symbol
 _atom_site_label
 _atom_site_symmetry_multiplicity
 _atom_site_fract_x
 _atom_site_fract_y
 _atom_site_fract_z
 _atom_site_occupancy
  Ho  Ho0  1  0.580661  0.610316  0.000000  1
  Ho  Ho1  1  0.389684  0.970346  0.000000  1
  Ho  Ho2  1  0.029654  0.419339  0.000000  1
  Zn  Zn3  1  0.008024  0.725459  0.500000  1
  Zn  Zn4  1  0.274541  0.282565  0.500000  1
  Zn  Zn5  1  0.717435  0.991976  0.500000  1
  Hg  Hg6  1  0.000000  0.000000  0.000000  1
  Hg  Hg7  1  0.666667  0.333333  0.500000  1
  Ir  Ir8  1  0.333333  0.666667  0.500000  1
