# generated using pymatgen
data_Li2TcSn8Rh
_symmetry_space_group_name_H-M   'P 1'
_cell_length_a   7.40698326
_cell_length_b   7.40698334
_cell_length_c   7.40698340
_cell_angle_alpha   125.77420356
_cell_angle_beta   125.77420007
_cell_angle_gamma   80.25957652
_symmetry_Int_Tables_number   1
_chemical_formula_structural   Li2TcSn8Rh
_chemical_formula_sum   'Li2 Tc1 Sn8 Rh1'
_cell_volume   258.13987111
_cell_formula_units_Z   1
loop_
 _symmetry_equiv_pos_site_id
 _symmetry_equiv_pos_as_xyz
  1  'x, y, z'
loop_
 _atom_site_type_symbol
 _atom_site_label
 _atom_site_symmetry_multiplicity
 _atom_site_fract_x
 _atom_site_fract_y
 _atom_site_fract_z
 _atom_site_occupancy
  Li  Li0  1  0.498298  0.498298  0.000000  1
  Li  Li1  1  0.001702  0.001702  0.000000  1
  Tc  Tc2  1  0.750000  0.750000  0.000000  1
  Sn  Sn3  1  0.200194  0.020297  0.494442  1
  Sn  Sn4  1  0.020297  0.525855  0.820103  1
  Sn  Sn5  1  0.705752  0.200194  0.179897  1
  Sn  Sn6  1  0.299806  0.794248  0.820103  1
  Sn  Sn7  1  0.974145  0.479703  0.179897  1
  Sn  Sn8  1  0.794248  0.974145  0.494442  1
  Sn  Sn9  1  0.479703  0.299806  0.505558  1
  Sn  Sn10  1  0.525855  0.705752  0.505558  1
  Rh  Rh11  1  0.250000  0.250000  0.000000  1
