# generated using pymatgen
data_Ta12V3Os9N4
_symmetry_space_group_name_H-M   'P 1'
_cell_length_a   8.38569115
_cell_length_b   8.38569289
_cell_length_c   8.38569193
_cell_angle_alpha   58.81141987
_cell_angle_beta   58.81141480
_cell_angle_gamma   58.81141858
_symmetry_Int_Tables_number   1
_chemical_formula_structural   Ta12V3Os9N4
_chemical_formula_sum   'Ta12 V3 Os9 N4'
_cell_volume   405.64981329
_cell_formula_units_Z   1
loop_
 _symmetry_equiv_pos_site_id
 _symmetry_equiv_pos_as_xyz
  1  'x, y, z'
loop_
 _atom_site_type_symbol
 _atom_site_label
 _atom_site_symmetry_multiplicity
 _atom_site_fract_x
 _atom_site_fract_y
 _atom_site_fract_z
 _atom_site_occupancy
  Ta  Ta0  1  0.806951  0.806951  0.194742  1
  Ta  Ta1  1  0.191609  0.191609  0.807798  1
  Ta  Ta2  1  0.806951  0.194742  0.806951  1
  Ta  Ta3  1  0.191609  0.807798  0.191609  1
  Ta  Ta4  1  0.194742  0.806951  0.806951  1
  Ta  Ta5  1  0.807798  0.191609  0.191609  1
  Ta  Ta6  1  0.443049  0.443049  0.055258  1
  Ta  Ta7  1  0.058391  0.058391  0.442202  1
  Ta  Ta8  1  0.443049  0.055258  0.443049  1
  Ta  Ta9  1  0.058391  0.442202  0.058391  1
  Ta  Ta10  1  0.055258  0.443049  0.443049  1
  Ta  Ta11  1  0.442202  0.058391  0.058391  1
  V  V12  1  0.125000  0.625000  0.625000  1
  V  V13  1  0.625000  0.125000  0.625000  1
  V  V14  1  0.625000  0.625000  0.125000  1
  Os  Os15  1  0.625000  0.625000  0.625000  1
  Os  Os16  1  0.749454  0.412763  0.412763  1
  Os  Os17  1  0.412763  0.749454  0.412763  1
  Os  Os18  1  0.412763  0.412763  0.749454  1
  Os  Os19  1  0.416288  0.416288  0.416288  1
  Os  Os20  1  0.500546  0.837237  0.837237  1
  Os  Os21  1  0.837237  0.500546  0.837237  1
  Os  Os22  1  0.837237  0.837237  0.500546  1
  Os  Os23  1  0.833712  0.833712  0.833712  1
  N  N24  1  0.625000  0.125000  0.125000  1
  N  N25  1  0.125000  0.625000  0.125000  1
  N  N26  1  0.125000  0.125000  0.625000  1
  N  N27  1  0.125000  0.125000  0.125000  1
