# generated using pymatgen
data_Sr5Ac3(Si3Pt)4
_symmetry_space_group_name_H-M   'P 1'
_cell_length_a   8.46421400
_cell_length_b   8.46421420
_cell_length_c   9.05161800
_cell_angle_alpha   90.00000000
_cell_angle_beta   90.00000000
_cell_angle_gamma   120.00000704
_symmetry_Int_Tables_number   1
_chemical_formula_structural   Sr5Ac3(Si3Pt)4
_chemical_formula_sum   'Sr5 Ac3 Si12 Pt4'
_cell_volume   561.60387880
_cell_formula_units_Z   1
loop_
 _symmetry_equiv_pos_site_id
 _symmetry_equiv_pos_as_xyz
  1  'x, y, z'
loop_
 _atom_site_type_symbol
 _atom_site_label
 _atom_site_symmetry_multiplicity
 _atom_site_fract_x
 _atom_site_fract_y
 _atom_site_fract_z
 _atom_site_occupancy
  Sr  Sr0  1  0.000000  0.000000  0.250000  1
  Sr  Sr1  1  0.000000  0.000000  0.750000  1
  Sr  Sr2  1  0.500040  0.499960  0.250000  1
  Sr  Sr3  1  0.500040  0.000080  0.250000  1
  Sr  Sr4  1  0.999920  0.499960  0.250000  1
  Ac  Ac5  1  0.500023  0.499977  0.750000  1
  Ac  Ac6  1  0.500023  0.000047  0.750000  1
  Ac  Ac7  1  0.999953  0.499977  0.750000  1
  Si  Si8  1  0.165487  0.834513  0.500353  1
  Si  Si9  1  0.165487  0.330972  0.500353  1
  Si  Si10  1  0.669028  0.834513  0.500353  1
  Si  Si11  1  0.834512  0.165488  0.500389  1
  Si  Si12  1  0.834512  0.669027  0.500389  1
  Si  Si13  1  0.330973  0.165488  0.500389  1
  Si  Si14  1  0.834512  0.165488  0.999611  1
  Si  Si15  1  0.834512  0.669027  0.999611  1
  Si  Si16  1  0.330973  0.165488  0.999611  1
  Si  Si17  1  0.165487  0.834513  0.999647  1
  Si  Si18  1  0.165487  0.330972  0.999647  1
  Si  Si19  1  0.669028  0.834513  0.999647  1
  Pt  Pt20  1  0.333333  0.666667  0.504204  1
  Pt  Pt21  1  0.666667  0.333333  0.504194  1
  Pt  Pt22  1  0.666667  0.333333  0.995806  1
  Pt  Pt23  1  0.333333  0.666667  0.995796  1
