# generated using pymatgen
data_CePrY6(Si3Rh)4
_symmetry_space_group_name_H-M   'P 1'
_cell_length_a   8.18793700
_cell_length_b   8.18720270
_cell_length_c   8.05927500
_cell_angle_alpha   90.00037867
_cell_angle_beta   89.99976019
_cell_angle_gamma   119.99975555
_symmetry_Int_Tables_number   1
_chemical_formula_structural   CePrY6(Si3Rh)4
_chemical_formula_sum   'Ce1 Pr1 Y6 Si12 Rh4'
_cell_volume   467.88348079
_cell_formula_units_Z   1
loop_
 _symmetry_equiv_pos_site_id
 _symmetry_equiv_pos_as_xyz
  1  'x, y, z'
loop_
 _atom_site_type_symbol
 _atom_site_label
 _atom_site_symmetry_multiplicity
 _atom_site_fract_x
 _atom_site_fract_y
 _atom_site_fract_z
 _atom_site_occupancy
  Ce  Ce0  1  0.999992  0.999993  0.250001  1
  Pr  Pr1  1  0.999999  0.999997  0.750002  1
  Y  Y2  1  0.508151  0.491845  0.249997  1
  Y  Y3  1  0.508160  0.016310  0.249995  1
  Y  Y4  1  0.983693  0.491839  0.249996  1
  Y  Y5  1  0.491437  0.508551  0.750004  1
  Y  Y6  1  0.491428  0.982876  0.750005  1
  Y  Y7  1  0.017108  0.508557  0.750004  1
  Si  Si8  1  0.167654  0.832332  0.498338  1
  Si  Si9  1  0.167648  0.335303  0.498314  1
  Si  Si10  1  0.664666  0.832330  0.498350  1
  Si  Si11  1  0.831946  0.168075  0.497087  1
  Si  Si12  1  0.831950  0.663889  0.497075  1
  Si  Si13  1  0.336144  0.168077  0.497124  1
  Si  Si14  1  0.831947  0.168077  0.002924  1
  Si  Si15  1  0.831951  0.663887  0.002936  1
  Si  Si16  1  0.336144  0.168078  0.002889  1
  Si  Si17  1  0.167652  0.832332  0.001650  1
  Si  Si18  1  0.167649  0.335304  0.001677  1
  Si  Si19  1  0.664668  0.832330  0.001639  1
  Rh  Rh20  1  0.333336  0.666664  0.469164  1
  Rh  Rh21  1  0.666674  0.333344  0.533246  1
  Rh  Rh22  1  0.666668  0.333339  0.966743  1
  Rh  Rh23  1  0.333335  0.666669  0.030840  1
