# generated using pymatgen
data_Er20CdNi2Pd5
_symmetry_space_group_name_H-M   'P 1'
_cell_length_a   9.36007539
_cell_length_b   9.34427934
_cell_length_c   9.21668000
_cell_angle_alpha   90.00000000
_cell_angle_beta   90.00000000
_cell_angle_gamma   119.94476541
_symmetry_Int_Tables_number   1
_chemical_formula_structural   Er20CdNi2Pd5
_chemical_formula_sum   'Er20 Cd1 Ni2 Pd5'
_cell_volume   698.50859015
_cell_formula_units_Z   1
loop_
 _symmetry_equiv_pos_site_id
 _symmetry_equiv_pos_as_xyz
  1  'x, y, z'
loop_
 _atom_site_type_symbol
 _atom_site_label
 _atom_site_symmetry_multiplicity
 _atom_site_fract_x
 _atom_site_fract_y
 _atom_site_fract_z
 _atom_site_occupancy
  Er  Er0  1  0.007037  0.003518  0.477913  1
  Er  Er1  1  0.007037  0.003518  0.022087  1
  Er  Er2  1  0.541163  0.456693  0.250000  1
  Er  Er3  1  0.541165  0.084471  0.250000  1
  Er  Er4  1  0.913194  0.456597  0.250000  1
  Er  Er5  1  0.447328  0.534208  0.750000  1
  Er  Er6  1  0.447326  0.913122  0.750000  1
  Er  Er7  1  0.080248  0.540127  0.750000  1
  Er  Er8  1  0.206631  0.791437  0.441672  1
  Er  Er9  1  0.206632  0.415196  0.441674  1
  Er  Er10  1  0.583687  0.791844  0.439218  1
  Er  Er11  1  0.792389  0.206917  0.557690  1
  Er  Er12  1  0.792384  0.585465  0.557692  1
  Er  Er13  1  0.416105  0.208052  0.559157  1
  Er  Er14  1  0.792389  0.206917  0.942310  1
  Er  Er15  1  0.792384  0.585465  0.942308  1
  Er  Er16  1  0.416105  0.208052  0.940843  1
  Er  Er17  1  0.206631  0.791437  0.058328  1
  Er  Er18  1  0.206632  0.415196  0.058326  1
  Er  Er19  1  0.583687  0.791844  0.060782  1
  Cd  Cd20  1  0.777550  0.888776  0.750000  1
  Ni  Ni21  1  0.330720  0.665364  0.250000  1
  Ni  Ni22  1  0.669729  0.334850  0.750000  1
  Pd  Pd23  1  0.875607  0.123395  0.250000  1
  Pd  Pd24  1  0.875602  0.752212  0.250000  1
  Pd  Pd25  1  0.251612  0.125808  0.250000  1
  Pd  Pd26  1  0.119511  0.879937  0.750000  1
  Pd  Pd27  1  0.119516  0.239581  0.750000  1
