# generated using pymatgen
data_Tm12Ga2Ni3Ru
_symmetry_space_group_name_H-M   'P 1'
_cell_length_a   8.18617770
_cell_length_b   8.18617776
_cell_length_c   8.18617700
_cell_angle_alpha   106.13986611
_cell_angle_beta   110.27358545
_cell_angle_gamma   112.05606619
_symmetry_Int_Tables_number   1
_chemical_formula_structural   Tm12Ga2Ni3Ru
_chemical_formula_sum   'Tm12 Ga2 Ni3 Ru1'
_cell_volume   421.12917765
_cell_formula_units_Z   1
loop_
 _symmetry_equiv_pos_site_id
 _symmetry_equiv_pos_as_xyz
  1  'x, y, z'
loop_
 _atom_site_type_symbol
 _atom_site_label
 _atom_site_symmetry_multiplicity
 _atom_site_fract_x
 _atom_site_fract_y
 _atom_site_fract_z
 _atom_site_occupancy
  Tm  Tm0  1  0.694013  0.252510  0.946522  1
  Tm  Tm1  1  0.304975  0.735849  0.040824  1
  Tm  Tm2  1  0.694013  0.747490  0.441502  1
  Tm  Tm3  1  0.304975  0.264151  0.569125  1
  Tm  Tm4  1  0.807392  0.135344  0.325155  1
  Tm  Tm5  1  0.807392  0.482239  0.672049  1
  Tm  Tm6  1  0.189810  0.864656  0.672049  1
  Tm  Tm7  1  0.189810  0.517761  0.325155  1
  Tm  Tm8  1  0.600821  0.777339  0.823483  1
  Tm  Tm9  1  0.962660  0.778924  0.183736  1
  Tm  Tm10  1  0.046144  0.222661  0.823483  1
  Tm  Tm11  1  0.404814  0.221076  0.183736  1
  Ga  Ga12  1  0.511742  0.500000  0.011742  1
  Ga  Ga13  1  0.496116  0.000000  0.496116  1
  Ni  Ni14  1  0.154328  0.500000  0.654328  1
  Ni  Ni15  1  0.000047  0.119746  0.119792  1
  Ni  Ni16  1  0.000047  0.880254  0.880301  1
  Ru  Ru17  1  0.830902  0.500000  0.330902  1
