# generated using pymatgen
data_LaTh(Ni2B)12
_symmetry_space_group_name_H-M   'P 1'
_cell_length_a   6.04392812
_cell_length_b   6.04392788
_cell_length_c   11.03304894
_cell_angle_alpha   90.08428353
_cell_angle_beta   90.08428193
_cell_angle_gamma   104.69131350
_symmetry_Int_Tables_number   1
_chemical_formula_structural   LaTh(Ni2B)12
_chemical_formula_sum   'La1 Th1 Ni24 B12'
_cell_volume   389.84936130
_cell_formula_units_Z   1
loop_
 _symmetry_equiv_pos_site_id
 _symmetry_equiv_pos_as_xyz
  1  'x, y, z'
loop_
 _atom_site_type_symbol
 _atom_site_label
 _atom_site_symmetry_multiplicity
 _atom_site_fract_x
 _atom_site_fract_y
 _atom_site_fract_z
 _atom_site_occupancy
  La  La0  1  0.667168  0.667168  0.000674  1
  Th  Th1  1  0.332539  0.332539  0.502714  1
  Ni  Ni2  1  0.352912  0.620103  0.743099  1
  Ni  Ni3  1  0.379147  0.646278  0.244949  1
  Ni  Ni4  1  0.843845  0.226610  0.931987  1
  Ni  Ni5  1  0.158051  0.770776  0.432171  1
  Ni  Ni6  1  0.770776  0.158051  0.432171  1
  Ni  Ni7  1  0.620103  0.352912  0.743099  1
  Ni  Ni8  1  0.869467  0.505883  0.561970  1
  Ni  Ni9  1  0.129426  0.494161  0.062522  1
  Ni  Ni10  1  0.494161  0.129426  0.062522  1
  Ni  Ni11  1  0.505883  0.869467  0.561970  1
  Ni  Ni12  1  0.026604  0.289383  0.722465  1
  Ni  Ni13  1  0.974673  0.711570  0.225425  1
  Ni  Ni14  1  0.711570  0.974673  0.225425  1
  Ni  Ni15  1  0.289383  0.026604  0.722465  1
  Ni  Ni16  1  0.305025  0.042113  0.266153  1
  Ni  Ni17  1  0.695375  0.959468  0.763969  1
  Ni  Ni18  1  0.959468  0.695375  0.763969  1
  Ni  Ni19  1  0.042113  0.305025  0.266153  1
  Ni  Ni20  1  0.275600  0.275600  0.900205  1
  Ni  Ni21  1  0.719450  0.719450  0.401080  1
  Ni  Ni22  1  0.935286  0.935286  0.580782  1
  Ni  Ni23  1  0.069472  0.069472  0.083583  1
  Ni  Ni24  1  0.226610  0.843845  0.931987  1
  Ni  Ni25  1  0.646278  0.379147  0.244949  1
  B  B26  1  0.487148  0.899679  0.377496  1
  B  B27  1  0.513862  0.102734  0.876960  1
  B  B28  1  0.251168  0.824157  0.114206  1
  B  B29  1  0.745280  0.175357  0.613316  1
  B  B30  1  0.175357  0.745280  0.613316  1
  B  B31  1  0.824157  0.251168  0.114206  1
  B  B32  1  0.013251  0.013251  0.838810  1
  B  B33  1  0.987547  0.987547  0.342867  1
  B  B34  1  0.336255  0.336255  0.166402  1
  B  B35  1  0.663180  0.663180  0.665503  1
  B  B36  1  0.102734  0.513862  0.876960  1
  B  B37  1  0.899679  0.487148  0.377496  1
