# generated using pymatgen
data_Cs2Tm7BCl18
_symmetry_space_group_name_H-M   'P 1'
_cell_length_a   9.93905896
_cell_length_b   9.93905818
_cell_length_c   10.78342900
_cell_angle_alpha   117.44189236
_cell_angle_beta   62.55810998
_cell_angle_gamma   120.00000444
_symmetry_Int_Tables_number   1
_chemical_formula_structural   Cs2Tm7BCl18
_chemical_formula_sum   'Cs2 Tm7 B1 Cl18'
_cell_volume   781.06006064
_cell_formula_units_Z   1
loop_
 _symmetry_equiv_pos_site_id
 _symmetry_equiv_pos_as_xyz
  1  'x, y, z'
loop_
 _atom_site_type_symbol
 _atom_site_label
 _atom_site_symmetry_multiplicity
 _atom_site_fract_x
 _atom_site_fract_y
 _atom_site_fract_z
 _atom_site_occupancy
  Cs  Cs0  1  0.222328  0.777672  0.333021  1
  Cs  Cs1  1  0.777673  0.222327  0.666979  1
  Tm  Tm2  1  0.770637  0.112269  0.160390  1
  Tm  Tm3  1  0.887730  0.818760  0.160390  1
  Tm  Tm4  1  0.181241  0.229363  0.160390  1
  Tm  Tm5  1  0.500000  0.500000  0.500000  1
  Tm  Tm6  1  0.818760  0.770638  0.839610  1
  Tm  Tm7  1  0.112269  0.181239  0.839610  1
  Tm  Tm8  1  0.229362  0.887729  0.839610  1
  B  B9  1  0.000000  0.000000  0.000000  1
  Cl  Cl10  1  0.286789  0.425459  0.008191  1
  Cl  Cl11  1  0.574539  0.869522  0.008191  1
  Cl  Cl12  1  0.130479  0.713212  0.008191  1
  Cl  Cl13  1  0.946654  0.349082  0.333993  1
  Cl  Cl14  1  0.068434  0.053346  0.333993  1
  Cl  Cl15  1  0.650917  0.931566  0.333993  1
  Cl  Cl16  1  0.518594  0.214198  0.336558  1
  Cl  Cl17  1  0.785801  0.640954  0.336558  1
  Cl  Cl18  1  0.359046  0.481405  0.336558  1
  Cl  Cl19  1  0.640954  0.518595  0.663442  1
  Cl  Cl20  1  0.214200  0.359048  0.663442  1
  Cl  Cl21  1  0.481405  0.785801  0.663442  1
  Cl  Cl22  1  0.349082  0.068433  0.666006  1
  Cl  Cl23  1  0.931567  0.946653  0.666006  1
  Cl  Cl24  1  0.053346  0.650917  0.666006  1
  Cl  Cl25  1  0.869523  0.286789  0.991809  1
  Cl  Cl26  1  0.425459  0.130477  0.991809  1
  Cl  Cl27  1  0.713211  0.574541  0.991809  1
