# generated using pymatgen
data_Nd2Ho3Ta3(Co4P3)4
_symmetry_space_group_name_H-M   'P 1'
_cell_length_a   12.23027100
_cell_length_b   12.23027005
_cell_length_c   3.71532800
_cell_angle_alpha   90.00000000
_cell_angle_beta   90.00000000
_cell_angle_gamma   120.00000526
_symmetry_Int_Tables_number   1
_chemical_formula_structural   Nd2Ho3Ta3(Co4P3)4
_chemical_formula_sum   'Nd2 Ho3 Ta3 Co16 P12'
_cell_volume   481.28230688
_cell_formula_units_Z   1
loop_
 _symmetry_equiv_pos_site_id
 _symmetry_equiv_pos_as_xyz
  1  'x, y, z'
loop_
 _atom_site_type_symbol
 _atom_site_label
 _atom_site_symmetry_multiplicity
 _atom_site_fract_x
 _atom_site_fract_y
 _atom_site_fract_z
 _atom_site_occupancy
  Nd  Nd0  1  0.666667  0.333333  0.000000  1
  Nd  Nd1  1  0.333333  0.666667  0.000000  1
  Ho  Ho2  1  0.816450  0.816450  0.500000  1
  Ho  Ho3  1  0.183550  0.000000  0.500000  1
  Ho  Ho4  1  0.000000  0.183550  0.500000  1
  Ta  Ta5  1  0.443165  0.443165  0.000000  1
  Ta  Ta6  1  0.556835  0.000000  0.000000  1
  Ta  Ta7  1  0.000000  0.556835  0.000000  1
  Co  Co8  1  0.876062  0.354676  0.500000  1
  Co  Co9  1  0.645324  0.521386  0.500000  1
  Co  Co10  1  0.478614  0.123938  0.500000  1
  Co  Co11  1  0.354676  0.876062  0.500000  1
  Co  Co12  1  0.521386  0.645324  0.500000  1
  Co  Co13  1  0.123938  0.478614  0.500000  1
  Co  Co14  1  0.803804  0.175504  0.000000  1
  Co  Co15  1  0.824496  0.628299  0.000000  1
  Co  Co16  1  0.371701  0.196196  0.000000  1
  Co  Co17  1  0.175504  0.803804  0.000000  1
  Co  Co18  1  0.628299  0.824496  0.000000  1
  Co  Co19  1  0.196196  0.371701  0.000000  1
  Co  Co20  1  0.278179  0.278179  0.500000  1
  Co  Co21  1  0.721821  0.000000  0.500000  1
  Co  Co22  1  0.000000  0.721821  0.500000  1
  Co  Co23  1  0.000000  0.000000  0.000000  1
  P  P24  1  0.690102  0.165530  0.500000  1
  P  P25  1  0.834470  0.524571  0.500000  1
  P  P26  1  0.475429  0.309898  0.500000  1
  P  P27  1  0.165530  0.690102  0.500000  1
  P  P28  1  0.524571  0.834470  0.500000  1
  P  P29  1  0.309898  0.475429  0.500000  1
  P  P30  1  0.176384  0.176384  0.000000  1
  P  P31  1  0.823616  0.000000  0.000000  1
  P  P32  1  0.000000  0.823616  0.000000  1
  P  P33  1  0.644291  0.644291  0.000000  1
  P  P34  1  0.355709  0.000000  0.000000  1
  P  P35  1  0.000000  0.355709  0.000000  1
