# generated using pymatgen
data_K2BaEuSb2
_symmetry_space_group_name_H-M   'P 1'
_cell_length_a   5.43736600
_cell_length_b   8.83774300
_cell_length_c   10.32107800
_cell_angle_alpha   90.00000000
_cell_angle_beta   90.00000000
_cell_angle_gamma   90.00000000
_symmetry_Int_Tables_number   1
_chemical_formula_structural   K2BaEuSb2
_chemical_formula_sum   'K4 Ba2 Eu2 Sb4'
_cell_volume   495.96952917
_cell_formula_units_Z   2
loop_
 _symmetry_equiv_pos_site_id
 _symmetry_equiv_pos_as_xyz
  1  'x, y, z'
loop_
 _atom_site_type_symbol
 _atom_site_label
 _atom_site_symmetry_multiplicity
 _atom_site_fract_x
 _atom_site_fract_y
 _atom_site_fract_z
 _atom_site_occupancy
  K  K0  1  0.500000  0.022432  0.417987  1
  K  K1  1  0.000000  0.343163  0.341733  1
  K  K2  1  0.500000  0.522432  0.582013  1
  K  K3  1  0.000000  0.843163  0.658267  1
  Ba  Ba4  1  0.000000  0.997868  0.056630  1
  Ba  Ba5  1  0.000000  0.497868  0.943370  1
  Eu  Eu6  1  0.500000  0.151131  0.818975  1
  Eu  Eu7  1  0.500000  0.651131  0.181025  1
  Sb  Sb8  1  0.000000  0.247281  0.676933  1
  Sb  Sb9  1  0.500000  0.283725  0.116380  1
  Sb  Sb10  1  0.000000  0.747281  0.323067  1
  Sb  Sb11  1  0.500000  0.783725  0.883620  1
