# generated using pymatgen
data_YbPr2Ho4FeI12
_symmetry_space_group_name_H-M   'P 1'
_cell_length_a   9.91772424
_cell_length_b   9.78284154
_cell_length_c   9.92560042
_cell_angle_alpha   106.46831379
_cell_angle_beta   106.87863048
_cell_angle_gamma   107.53926585
_symmetry_Int_Tables_number   1
_chemical_formula_structural   YbPr2Ho4FeI12
_chemical_formula_sum   'Yb1 Pr2 Ho4 Fe1 I12'
_cell_volume   802.78260634
_cell_formula_units_Z   1
loop_
 _symmetry_equiv_pos_site_id
 _symmetry_equiv_pos_as_xyz
  1  'x, y, z'
loop_
 _atom_site_type_symbol
 _atom_site_label
 _atom_site_symmetry_multiplicity
 _atom_site_fract_x
 _atom_site_fract_y
 _atom_site_fract_z
 _atom_site_occupancy
  Yb  Yb0  1  0.000000  0.000000  0.000000  1
  Pr  Pr1  1  0.589904  0.776096  0.523027  1
  Pr  Pr2  1  0.410096  0.223904  0.476973  1
  Ho  Ho3  1  0.799323  0.526634  0.597401  1
  Ho  Ho4  1  0.525589  0.596629  0.797749  1
  Ho  Ho5  1  0.200677  0.473366  0.402599  1
  Ho  Ho6  1  0.474411  0.403371  0.202251  1
  Fe  Fe7  1  0.500000  0.500000  0.500000  1
  I  I8  1  0.733615  0.193499  0.577892  1
  I  I9  1  0.962489  0.878025  0.657846  1
  I  I10  1  0.571786  0.718944  0.175577  1
  I  I11  1  0.124102  0.351037  0.047441  1
  I  I12  1  0.653627  0.953976  0.883915  1
  I  I13  1  0.875898  0.648963  0.952559  1
  I  I14  1  0.037511  0.121975  0.342154  1
  I  I15  1  0.817355  0.428880  0.279484  1
  I  I16  1  0.346373  0.046024  0.116085  1
  I  I17  1  0.266385  0.806501  0.422108  1
  I  I18  1  0.182645  0.571120  0.720516  1
  I  I19  1  0.428214  0.281056  0.824423  1
