# generated using pymatgen
data_Sm6TiNb3(ReN4)6
_symmetry_space_group_name_H-M   'P 1'
_cell_length_a   11.21502081
_cell_length_b   11.21808171
_cell_length_c   11.22537694
_cell_angle_alpha   109.46966644
_cell_angle_beta   109.45862313
_cell_angle_gamma   109.45350154
_symmetry_Int_Tables_number   1
_chemical_formula_structural   Sm6TiNb3(ReN4)6
_chemical_formula_sum   'Sm12 Ti2 Nb6 Re12 N48'
_cell_volume   1087.59805329
_cell_formula_units_Z   2
loop_
 _symmetry_equiv_pos_site_id
 _symmetry_equiv_pos_as_xyz
  1  'x, y, z'
loop_
 _atom_site_type_symbol
 _atom_site_label
 _atom_site_symmetry_multiplicity
 _atom_site_fract_x
 _atom_site_fract_y
 _atom_site_fract_z
 _atom_site_occupancy
  Sm  Sm0  1  0.375614  0.749656  0.123050  1
  Sm  Sm1  1  0.247436  0.373394  0.123050  1
  Sm  Sm2  1  0.373138  0.123138  0.246275  1
  Sm  Sm3  1  0.875739  0.625739  0.251478  1
  Sm  Sm4  1  0.748725  0.124540  0.373295  1
  Sm  Sm5  1  0.124571  0.248755  0.373295  1
  Sm  Sm6  1  0.875429  0.751245  0.626705  1
  Sm  Sm7  1  0.251275  0.875460  0.626705  1
  Sm  Sm8  1  0.124261  0.374261  0.748522  1
  Sm  Sm9  1  0.626862  0.876862  0.753725  1
  Sm  Sm10  1  0.624386  0.250344  0.876950  1
  Sm  Sm11  1  0.752564  0.626606  0.876950  1
  Ti  Ti12  1  0.000000  0.000000  0.000000  1
  Ti  Ti13  1  0.500001  0.000000  0.000000  1
  Nb  Nb14  1  0.000000  0.500001  0.000000  1
  Nb  Nb15  1  0.500000  0.500000  0.000000  1
  Nb  Nb16  1  0.000000  0.000000  0.500001  1
  Nb  Nb17  1  0.500000  0.000000  0.500000  1
  Nb  Nb18  1  0.000000  0.500000  0.500000  1
  Nb  Nb19  1  0.500001  0.500001  0.500001  1
  Re  Re20  1  0.872879  0.245617  0.122776  1
  Re  Re21  1  0.749899  0.877160  0.122777  1
  Re  Re22  1  0.624397  0.371888  0.248125  1
  Re  Re23  1  0.123727  0.876238  0.248125  1
  Re  Re24  1  0.250422  0.625488  0.374877  1
  Re  Re25  1  0.624455  0.749389  0.374877  1
  Re  Re26  1  0.375545  0.250611  0.625123  1
  Re  Re27  1  0.749578  0.374512  0.625123  1
  Re  Re28  1  0.876272  0.123762  0.751875  1
  Re  Re29  1  0.375603  0.628112  0.751875  1
  Re  Re30  1  0.250101  0.122839  0.877223  1
  Re  Re31  1  0.127121  0.754383  0.877223  1
  N  N32  1  0.200551  0.115738  0.017221  1
  N  N33  1  0.316670  0.901482  0.017220  1
  N  N34  1  0.883201  0.395984  0.085260  1
  N  N35  1  0.702059  0.689275  0.085260  1
  N  N36  1  0.617515  0.414117  0.100228  1
  N  N37  1  0.982712  0.686110  0.100228  1
  N  N38  1  0.014422  0.199515  0.115081  1
  N  N39  1  0.600659  0.915566  0.115080  1
  N  N40  1  0.202364  0.586082  0.185936  1
  N  N41  1  0.483572  0.599854  0.185936  1
  N  N42  1  0.585293  0.184050  0.201081  1
  N  N43  1  0.115788  0.017033  0.201082  1
  N  N44  1  0.484792  0.382258  0.296992  1
  N  N45  1  0.312199  0.914734  0.296992  1
  N  N46  1  0.898182  0.015480  0.312633  1
  N  N47  1  0.914451  0.297153  0.312633  1
  N  N48  1  0.296490  0.483043  0.382031  1
  N  N49  1  0.585541  0.898989  0.382031  1
  N  N50  1  0.812782  0.513922  0.398235  1
  N  N51  1  0.085454  0.884313  0.398235  1
  N  N52  1  0.100772  0.617447  0.413805  1
  N  N53  1  0.813033  0.796359  0.413805  1
  N  N54  1  0.600194  0.185672  0.483466  1
  N  N55  1  0.383272  0.297794  0.483466  1
  N  N56  1  0.616727  0.702206  0.516534  1
  N  N57  1  0.399807  0.814329  0.516535  1
  N  N58  1  0.186967  0.203641  0.586194  1
  N  N59  1  0.899228  0.382553  0.586194  1
  N  N60  1  0.914545  0.115686  0.601765  1
  N  N61  1  0.187219  0.486079  0.601766  1
  N  N62  1  0.414458  0.101011  0.617969  1
  N  N63  1  0.703510  0.516957  0.617968  1
  N  N64  1  0.085549  0.702847  0.687366  1
  N  N65  1  0.101817  0.984519  0.687366  1
  N  N66  1  0.687800  0.085266  0.703008  1
  N  N67  1  0.515208  0.617741  0.703008  1
  N  N68  1  0.414706  0.815950  0.798919  1
  N  N69  1  0.884213  0.982968  0.798920  1
  N  N70  1  0.516429  0.400147  0.814065  1
  N  N71  1  0.797636  0.413917  0.814064  1
  N  N72  1  0.399341  0.084433  0.884919  1
  N  N73  1  0.985579  0.800487  0.884920  1
  N  N74  1  0.017287  0.313889  0.899771  1
  N  N75  1  0.382485  0.585882  0.899772  1
  N  N76  1  0.297941  0.310724  0.914740  1
  N  N77  1  0.116798  0.604016  0.914739  1
  N  N78  1  0.683329  0.098517  0.982779  1
  N  N79  1  0.799451  0.884263  0.982780  1
