# generated using pymatgen
data_Zr10AlNiPb6
_symmetry_space_group_name_H-M   'P 1'
_cell_length_a   8.81824100
_cell_length_b   8.81824062
_cell_length_c   5.94516300
_cell_angle_alpha   90.00000000
_cell_angle_beta   90.00000000
_cell_angle_gamma   120.00000516
_symmetry_Int_Tables_number   1
_chemical_formula_structural   Zr10AlNiPb6
_chemical_formula_sum   'Zr10 Al1 Ni1 Pb6'
_cell_volume   400.36700980
_cell_formula_units_Z   1
loop_
 _symmetry_equiv_pos_site_id
 _symmetry_equiv_pos_as_xyz
  1  'x, y, z'
loop_
 _atom_site_type_symbol
 _atom_site_label
 _atom_site_symmetry_multiplicity
 _atom_site_fract_x
 _atom_site_fract_y
 _atom_site_fract_z
 _atom_site_occupancy
  Zr  Zr0  1  0.666667  0.333333  0.500000  1
  Zr  Zr1  1  0.333333  0.666667  0.500000  1
  Zr  Zr2  1  0.333333  0.666667  0.000000  1
  Zr  Zr3  1  0.666667  0.333333  0.000000  1
  Zr  Zr4  1  0.743360  0.743360  0.239729  1
  Zr  Zr5  1  0.256640  0.000000  0.239729  1
  Zr  Zr6  1  0.000000  0.256640  0.239729  1
  Zr  Zr7  1  0.256640  0.256640  0.760271  1
  Zr  Zr8  1  0.743360  0.000000  0.760271  1
  Zr  Zr9  1  0.000000  0.743360  0.760271  1
  Al  Al10  1  0.000000  0.000000  0.500000  1
  Ni  Ni11  1  0.000000  0.000000  0.000000  1
  Pb  Pb12  1  0.388286  0.388286  0.252451  1
  Pb  Pb13  1  0.611714  0.000000  0.252451  1
  Pb  Pb14  1  0.000000  0.611714  0.252451  1
  Pb  Pb15  1  0.611714  0.611714  0.747549  1
  Pb  Pb16  1  0.388286  0.000000  0.747549  1
  Pb  Pb17  1  0.000000  0.388286  0.747549  1
