# generated using pymatgen
data_NbSn(PO4)3
_symmetry_space_group_name_H-M   'P 1'
_cell_length_a   8.75750631
_cell_length_b   8.75615469
_cell_length_c   9.09211959
_cell_angle_alpha   90.10781571
_cell_angle_beta   118.63090009
_cell_angle_gamma   119.99612412
_symmetry_Int_Tables_number   1
_chemical_formula_structural   NbSn(PO4)3
_chemical_formula_sum   'Nb2 Sn2 P6 O24'
_cell_volume   502.54437282
_cell_formula_units_Z   2
loop_
 _symmetry_equiv_pos_site_id
 _symmetry_equiv_pos_as_xyz
  1  'x, y, z'
loop_
 _atom_site_type_symbol
 _atom_site_label
 _atom_site_symmetry_multiplicity
 _atom_site_fract_x
 _atom_site_fract_y
 _atom_site_fract_z
 _atom_site_occupancy
  Nb  Nb0  1  0.211400  0.356941  0.567355  1
  Nb  Nb1  1  0.786800  0.142211  0.929342  1
  Sn  Sn2  1  0.213354  0.858760  0.071397  1
  Sn  Sn3  1  0.788111  0.642125  0.431119  1
  P  P4  1  0.996976  0.961120  0.247994  1
  P  P5  1  0.286785  0.536922  0.250746  1
  P  P6  1  0.281758  0.751512  0.747331  1
  P  P7  1  0.712712  0.249098  0.252022  1
  P  P8  1  0.719674  0.468620  0.748960  1
  P  P9  1  0.001726  0.032595  0.752236  1
  O  O10  1  0.299238  0.714340  0.228689  1
  O  O11  1  0.868273  0.994629  0.077615  1
  O  O12  1  0.846003  0.854327  0.595321  1
  O  O13  1  0.836969  0.797718  0.271385  1
  O  O14  1  0.147528  0.928787  0.236895  1
  O  O15  1  0.475485  0.543468  0.275653  1
  O  O16  1  0.104967  0.744159  0.581561  1
  O  O17  1  0.899691  0.638547  0.913915  1
  O  O18  1  0.278725  0.771740  0.912225  1
  O  O19  1  0.493730  0.917701  0.780428  1
  O  O20  1  0.735183  0.479942  0.588333  1
  O  O21  1  0.722689  0.428443  0.266057  1
  O  O22  1  0.277137  0.574018  0.716096  1
  O  O23  1  0.271075  0.505678  0.412738  1
  O  O24  1  0.517856  0.083906  0.236616  1
  O  O25  1  0.716574  0.208094  0.087797  1
  O  O26  1  0.083787  0.366551  0.085998  1
  O  O27  1  0.910559  0.275761  0.417719  1
  O  O28  1  0.510103  0.437799  0.706637  1
  O  O29  1  0.866341  0.079676  0.780207  1
  O  O30  1  0.141290  0.199239  0.711146  1
  O  O31  1  0.134958  0.140291  0.406244  1
  O  O32  1  0.153375  0.023075  0.924021  1
  O  O33  1  0.709168  0.292206  0.788201  1
