# generated using pymatgen
data_LaPrP2(RhO)2
_symmetry_space_group_name_H-M   'P 1'
_cell_length_a   4.07742000
_cell_length_b   4.07742000
_cell_length_c   8.42289800
_cell_angle_alpha   90.00000000
_cell_angle_beta   90.00000000
_cell_angle_gamma   90.00000000
_symmetry_Int_Tables_number   1
_chemical_formula_structural   LaPrP2(RhO)2
_chemical_formula_sum   'La1 Pr1 P2 Rh2 O2'
_cell_volume   140.03365975
_cell_formula_units_Z   1
loop_
 _symmetry_equiv_pos_site_id
 _symmetry_equiv_pos_as_xyz
  1  'x, y, z'
loop_
 _atom_site_type_symbol
 _atom_site_label
 _atom_site_symmetry_multiplicity
 _atom_site_fract_x
 _atom_site_fract_y
 _atom_site_fract_z
 _atom_site_occupancy
  La  La0  1  0.250002  0.250002  0.141415  1
  Pr  Pr1  1  0.750000  0.750000  0.854253  1
  P  P2  1  0.750000  0.750000  0.359555  1
  P  P3  1  0.250002  0.250002  0.644174  1
  Rh  Rh4  1  0.750000  0.250003  0.502046  1
  Rh  Rh5  1  0.250003  0.750000  0.502046  1
  O  O6  1  0.750000  0.250003  0.998255  1
  O  O7  1  0.250003  0.750000  0.998255  1
