# generated using pymatgen
data_Y4Cd2Cu3Pd
_symmetry_space_group_name_H-M   'P 1'
_cell_length_a   7.60730015
_cell_length_b   7.60730015
_cell_length_c   3.75625600
_cell_angle_alpha   90.00000000
_cell_angle_beta   90.00000000
_cell_angle_gamma   90.25032324
_symmetry_Int_Tables_number   1
_chemical_formula_structural   Y4Cd2Cu3Pd
_chemical_formula_sum   'Y4 Cd2 Cu3 Pd1'
_cell_volume   217.37627488
_cell_formula_units_Z   1
loop_
 _symmetry_equiv_pos_site_id
 _symmetry_equiv_pos_as_xyz
  1  'x, y, z'
loop_
 _atom_site_type_symbol
 _atom_site_label
 _atom_site_symmetry_multiplicity
 _atom_site_fract_x
 _atom_site_fract_y
 _atom_site_fract_z
 _atom_site_occupancy
  Y  Y0  1  0.673779  0.173779  0.500000  1
  Y  Y1  1  0.324642  0.824642  0.500000  1
  Y  Y2  1  0.176671  0.326763  0.500000  1
  Y  Y3  1  0.826763  0.676671  0.500000  1
  Cd  Cd4  1  0.998621  0.003125  0.000000  1
  Cd  Cd5  1  0.503125  0.498621  0.000000  1
  Cu  Cu6  1  0.875911  0.375911  0.000000  1
  Cu  Cu7  1  0.617781  0.882435  0.000000  1
  Cu  Cu8  1  0.382435  0.117781  0.000000  1
  Pd  Pd9  1  0.120273  0.620273  0.000000  1
