# generated using pymatgen
data_La15Pr(CdIr)4
_symmetry_space_group_name_H-M   'P 1'
_cell_length_a   10.12593154
_cell_length_b   10.12593169
_cell_length_c   10.13189500
_cell_angle_alpha   59.98051368
_cell_angle_beta   59.98051320
_cell_angle_gamma   59.89233930
_symmetry_Int_Tables_number   1
_chemical_formula_structural   La15Pr(CdIr)4
_chemical_formula_sum   'La15 Pr1 Cd4 Ir4'
_cell_volume   733.77562873
_cell_formula_units_Z   1
loop_
 _symmetry_equiv_pos_site_id
 _symmetry_equiv_pos_as_xyz
  1  'x, y, z'
loop_
 _atom_site_type_symbol
 _atom_site_label
 _atom_site_symmetry_multiplicity
 _atom_site_fract_x
 _atom_site_fract_y
 _atom_site_fract_z
 _atom_site_occupancy
  La  La0  1  0.347315  0.347315  0.347605  1
  La  La1  1  0.347315  0.347315  0.957764  1
  La  La2  1  0.347153  0.957441  0.347702  1
  La  La3  1  0.957441  0.347153  0.347702  1
  La  La4  1  0.810125  0.189710  0.190450  1
  La  La5  1  0.189710  0.810125  0.809714  1
  La  La6  1  0.189710  0.810125  0.190450  1
  La  La7  1  0.810125  0.189710  0.809714  1
  La  La8  1  0.189645  0.189645  0.810355  1
  La  La9  1  0.810097  0.810097  0.189903  1
  La  La10  1  0.939067  0.561368  0.560943  1
  La  La11  1  0.561368  0.939067  0.938622  1
  La  La12  1  0.561368  0.939067  0.560943  1
  La  La13  1  0.939067  0.561368  0.938622  1
  La  La14  1  0.561063  0.561063  0.938937  1
  Pr  Pr15  1  0.938809  0.938809  0.561191  1
  Cd  Cd16  1  0.579266  0.579266  0.579511  1
  Cd  Cd17  1  0.579266  0.579266  0.261957  1
  Cd  Cd18  1  0.579836  0.261591  0.579286  1
  Cd  Cd19  1  0.261591  0.579836  0.579286  1
  Ir  Ir20  1  0.141437  0.141437  0.140881  1
  Ir  Ir21  1  0.141437  0.141437  0.576246  1
  Ir  Ir22  1  0.141184  0.576602  0.141107  1
  Ir  Ir23  1  0.576602  0.141184  0.141107  1
