# generated using pymatgen
data_Gd12Tc3Pb2
_symmetry_space_group_name_H-M   'P 1'
_cell_length_a   8.61358494
_cell_length_b   8.61358529
_cell_length_c   8.61358500
_cell_angle_alpha   108.99023515
_cell_angle_beta   108.99024297
_cell_angle_gamma   110.43752614
_symmetry_Int_Tables_number   1
_chemical_formula_structural   Gd12Tc3Pb2
_chemical_formula_sum   'Gd12 Tc3 Pb2'
_cell_volume   491.85503220
_cell_formula_units_Z   1
loop_
 _symmetry_equiv_pos_site_id
 _symmetry_equiv_pos_as_xyz
  1  'x, y, z'
loop_
 _atom_site_type_symbol
 _atom_site_label
 _atom_site_symmetry_multiplicity
 _atom_site_fract_x
 _atom_site_fract_y
 _atom_site_fract_z
 _atom_site_occupancy
  Gd  Gd0  1  0.187062  0.427393  0.240331  1
  Gd  Gd1  1  0.812938  0.572607  0.759669  1
  Gd  Gd2  1  0.187062  0.946733  0.759669  1
  Gd  Gd3  1  0.946733  0.187062  0.759669  1
  Gd  Gd4  1  0.812938  0.053267  0.240331  1
  Gd  Gd5  1  0.053267  0.812938  0.240331  1
  Gd  Gd6  1  0.427393  0.187062  0.240331  1
  Gd  Gd7  1  0.572607  0.812938  0.759669  1
  Gd  Gd8  1  0.319397  0.319397  0.638795  1
  Gd  Gd9  1  0.680603  0.680603  0.361205  1
  Gd  Gd10  1  0.680603  0.319397  0.000000  1
  Gd  Gd11  1  0.319397  0.680603  0.000000  1
  Tc  Tc12  1  0.342293  0.342293  0.000000  1
  Tc  Tc13  1  0.657707  0.657707  0.000000  1
  Tc  Tc14  1  0.000000  0.000000  0.000000  1
  Pb  Pb15  1  0.000000  0.500000  0.500000  1
  Pb  Pb16  1  0.500000  0.000000  0.500000  1
