# generated using pymatgen
data_Ho13Lu7(CoPt2)4
_symmetry_space_group_name_H-M   'P 1'
_cell_length_a   10.95304237
_cell_length_b   10.96132031
_cell_length_c   6.29963900
_cell_angle_alpha   90.01164072
_cell_angle_beta   89.98510723
_cell_angle_gamma   90.00707005
_symmetry_Int_Tables_number   1
_chemical_formula_structural   Ho13Lu7(CoPt2)4
_chemical_formula_sum   'Ho13 Lu7 Co4 Pt8'
_cell_volume   756.33338793
_cell_formula_units_Z   1
loop_
 _symmetry_equiv_pos_site_id
 _symmetry_equiv_pos_as_xyz
  1  'x, y, z'
loop_
 _atom_site_type_symbol
 _atom_site_label
 _atom_site_symmetry_multiplicity
 _atom_site_fract_x
 _atom_site_fract_y
 _atom_site_fract_z
 _atom_site_occupancy
  Ho  Ho0  1  0.703326  0.915347  0.374261  1
  Ho  Ho1  1  0.584921  0.797805  0.874443  1
  Ho  Ho2  1  0.584981  0.202669  0.374317  1
  Ho  Ho3  1  0.413546  0.797950  0.374392  1
  Ho  Ho4  1  0.414635  0.202049  0.874341  1
  Ho  Ho5  1  0.203075  0.414499  0.626029  1
  Ho  Ho6  1  0.203031  0.585401  0.125567  1
  Ho  Ho7  1  0.796849  0.414449  0.125474  1
  Ho  Ho8  1  0.796939  0.585385  0.626315  1
  Ho  Ho9  1  0.914601  0.703230  0.125598  1
  Ho  Ho10  1  0.914181  0.296189  0.626752  1
  Ho  Ho11  1  0.085941  0.703711  0.626179  1
  Ho  Ho12  1  0.086042  0.296248  0.125768  1
  Lu  Lu13  1  0.297335  0.084773  0.375290  1
  Lu  Lu14  1  0.297266  0.915451  0.875728  1
  Lu  Lu15  1  0.702778  0.085227  0.875259  1
  Lu  Lu16  1  0.000789  0.000297  0.499105  1
  Lu  Lu17  1  0.000182  0.000156  0.998703  1
  Lu  Lu18  1  0.499780  0.499799  0.999682  1
  Lu  Lu19  1  0.499881  0.500106  0.500040  1
  Co  Co20  1  0.499205  0.000365  0.119753  1
  Co  Co21  1  0.499011  0.000444  0.621046  1
  Co  Co22  1  0.000054  0.499948  0.879851  1
  Co  Co23  1  0.000048  0.499758  0.379820  1
  Pt  Pt24  1  0.847391  0.150885  0.247556  1
  Pt  Pt25  1  0.847721  0.849541  0.750548  1
  Pt  Pt26  1  0.153559  0.149826  0.748011  1
  Pt  Pt27  1  0.153126  0.850183  0.248026  1
  Pt  Pt28  1  0.651775  0.346963  0.750636  1
  Pt  Pt29  1  0.651568  0.651462  0.250021  1
  Pt  Pt30  1  0.348304  0.346855  0.250835  1
  Pt  Pt31  1  0.348159  0.653026  0.750650  1
