# generated using pymatgen
data_Tm2MnPt5
_symmetry_space_group_name_H-M   'P 1'
_cell_length_a   5.75456907
_cell_length_b   5.75456946
_cell_length_c   4.20175800
_cell_angle_alpha   90.00000000
_cell_angle_beta   90.00000000
_cell_angle_gamma   93.64714056
_symmetry_Int_Tables_number   1
_chemical_formula_structural   Tm2MnPt5
_chemical_formula_sum   'Tm2 Mn1 Pt5'
_cell_volume   138.85970019
_cell_formula_units_Z   1
loop_
 _symmetry_equiv_pos_site_id
 _symmetry_equiv_pos_as_xyz
  1  'x, y, z'
loop_
 _atom_site_type_symbol
 _atom_site_label
 _atom_site_symmetry_multiplicity
 _atom_site_fract_x
 _atom_site_fract_y
 _atom_site_fract_z
 _atom_site_occupancy
  Tm  Tm0  1  0.728982  0.271018  0.499999  1
  Tm  Tm1  1  0.271018  0.728982  0.499999  1
  Mn  Mn2  1  0.000000  0.000000  0.000000  1
  Pt  Pt3  1  0.499999  0.000000  0.000000  1
  Pt  Pt4  1  0.000000  0.499999  0.000000  1
  Pt  Pt5  1  0.500000  0.500000  0.000000  1
  Pt  Pt6  1  0.226597  0.226597  0.499999  1
  Pt  Pt7  1  0.773403  0.773403  0.499999  1
