# generated using pymatgen
data_Hf4As6PbO24
_symmetry_space_group_name_H-M   'P 1'
_cell_length_a   9.08211915
_cell_length_b   9.08211748
_cell_length_c   9.59082000
_cell_angle_alpha   61.73958519
_cell_angle_beta   61.73958367
_cell_angle_gamma   59.99999936
_symmetry_Int_Tables_number   1
_chemical_formula_structural   Hf4As6PbO24
_chemical_formula_sum   'Hf4 As6 Pb1 O24'
_cell_volume   573.65041620
_cell_formula_units_Z   1
loop_
 _symmetry_equiv_pos_site_id
 _symmetry_equiv_pos_as_xyz
  1  'x, y, z'
loop_
 _atom_site_type_symbol
 _atom_site_label
 _atom_site_symmetry_multiplicity
 _atom_site_fract_x
 _atom_site_fract_y
 _atom_site_fract_z
 _atom_site_occupancy
  Hf  Hf0  1  0.144183  0.144183  0.567448  1
  Hf  Hf1  1  0.855817  0.855817  0.432552  1
  Hf  Hf2  1  0.646769  0.646769  0.059694  1
  Hf  Hf3  1  0.353231  0.353231  0.940306  1
  As  As4  1  0.962891  0.252303  0.255281  1
  As  As5  1  0.252303  0.529524  0.255281  1
  As  As6  1  0.529524  0.962891  0.255281  1
  As  As7  1  0.037109  0.747697  0.744719  1
  As  As8  1  0.747697  0.470476  0.744719  1
  As  As9  1  0.470476  0.037109  0.744719  1
  Pb  Pb10  1  0.500000  0.500000  0.500000  1
  O  O11  1  0.983340  0.269541  0.414167  1
  O  O12  1  0.269541  0.332952  0.414167  1
  O  O13  1  0.332952  0.983340  0.414167  1
  O  O14  1  0.016660  0.730459  0.585833  1
  O  O15  1  0.730459  0.667048  0.585833  1
  O  O16  1  0.667048  0.016660  0.585833  1
  O  O17  1  0.498279  0.875934  0.928071  1
  O  O18  1  0.875934  0.697718  0.928071  1
  O  O19  1  0.697718  0.498279  0.928071  1
  O  O20  1  0.501721  0.124066  0.071929  1
  O  O21  1  0.124066  0.302282  0.071929  1
  O  O22  1  0.302282  0.501721  0.071929  1
  O  O23  1  0.029079  0.952890  0.708651  1
  O  O24  1  0.952890  0.309380  0.708651  1
  O  O25  1  0.309380  0.029079  0.708651  1
  O  O26  1  0.970921  0.047110  0.291349  1
  O  O27  1  0.047110  0.690620  0.291349  1
  O  O28  1  0.690620  0.970921  0.291349  1
  O  O29  1  0.596403  0.756227  0.238389  1
  O  O30  1  0.756227  0.408980  0.238389  1
  O  O31  1  0.408980  0.596403  0.238389  1
  O  O32  1  0.403597  0.243773  0.761611  1
  O  O33  1  0.243773  0.591020  0.761611  1
  O  O34  1  0.591020  0.403597  0.761611  1
