# generated using pymatgen
data_WCl35
_symmetry_space_group_name_H-M   'P 1'
_cell_length_a   14.38377941
_cell_length_b   10.26025305
_cell_length_c   9.71269500
_cell_angle_alpha   88.81408388
_cell_angle_beta   66.02770759
_cell_angle_gamma   92.31545463
_symmetry_Int_Tables_number   1
_chemical_formula_structural   WCl35
_chemical_formula_sum   'W1 Cl35'
_cell_volume   1307.61722576
_cell_formula_units_Z   1
loop_
 _symmetry_equiv_pos_site_id
 _symmetry_equiv_pos_as_xyz
  1  'x, y, z'
loop_
 _atom_site_type_symbol
 _atom_site_label
 _atom_site_symmetry_multiplicity
 _atom_site_fract_x
 _atom_site_fract_y
 _atom_site_fract_z
 _atom_site_occupancy
  W  W0  1  0.246568  0.446327  0.432190  1
  Cl  Cl1  1  0.507881  0.275450  0.553898  1
  Cl  Cl2  1  0.773350  0.570542  0.565890  1
  Cl  Cl3  1  0.464638  0.674950  0.798314  1
  Cl  Cl4  1  0.076003  0.908472  0.800335  1
  Cl  Cl5  1  0.892011  0.149318  0.001796  1
  Cl  Cl6  1  0.660739  0.332350  0.277530  1
  Cl  Cl7  1  0.591173  0.326552  0.870134  1
  Cl  Cl8  1  0.326082  0.782540  0.702037  1
  Cl  Cl9  1  0.325352  0.572334  0.206574  1
  Cl  Cl10  1  0.631402  0.140458  0.826912  1
  Cl  Cl11  1  0.913690  0.535515  0.418071  1
  Cl  Cl12  1  0.103583  0.968494  0.587868  1
  Cl  Cl13  1  0.873775  0.078914  0.294448  1
  Cl  Cl14  1  0.896666  0.210744  0.799981  1
  Cl  Cl15  1  0.644913  0.046685  0.220403  1
  Cl  Cl16  1  0.036461  0.815339  0.109992  1
  Cl  Cl17  1  0.349680  0.974150  0.735853  1
  Cl  Cl18  1  0.889847  0.263964  0.354593  1
  Cl  Cl19  1  0.868406  0.927848  0.638038  1
  Cl  Cl20  1  0.882050  0.671885  0.850468  1
  Cl  Cl21  1  0.294718  0.032224  0.238172  1
  Cl  Cl22  1  0.364295  0.294770  0.312411  1
  Cl  Cl23  1  0.568777  0.611676  0.873496  1
  Cl  Cl24  1  0.136861  0.354715  0.336698  1
  Cl  Cl25  1  0.719003  0.882477  0.742796  1
  Cl  Cl26  1  0.886548  0.476413  0.834060  1
  Cl  Cl27  1  0.501568  0.028394  0.239300  1
  Cl  Cl28  1  0.170289  0.315284  0.645186  1
  Cl  Cl29  1  0.675114  0.766090  0.270583  1
  Cl  Cl30  1  0.880861  0.800656  0.185808  1
  Cl  Cl31  1  0.389607  0.236269  0.759528  1
  Cl  Cl32  1  0.360765  0.532337  0.521380  1
  Cl  Cl33  1  0.661787  0.548750  0.244411  1
  Cl  Cl34  1  0.140672  0.611526  0.532076  1
  Cl  Cl35  1  0.294865  0.835587  0.218768  1
