# generated using pymatgen
data_Y4TmLu3Pt4
_symmetry_space_group_name_H-M   'P 1'
_cell_length_a   4.75369000
_cell_length_b   7.13451114
_cell_length_c   8.65760300
_cell_angle_alpha   89.87278634
_cell_angle_beta   90.00000000
_cell_angle_gamma   90.00000000
_symmetry_Int_Tables_number   1
_chemical_formula_structural   Y4TmLu3Pt4
_chemical_formula_sum   'Y4 Tm1 Lu3 Pt4'
_cell_volume   293.62408334
_cell_formula_units_Z   1
loop_
 _symmetry_equiv_pos_site_id
 _symmetry_equiv_pos_as_xyz
  1  'x, y, z'
loop_
 _atom_site_type_symbol
 _atom_site_label
 _atom_site_symmetry_multiplicity
 _atom_site_fract_x
 _atom_site_fract_y
 _atom_site_fract_z
 _atom_site_occupancy
  Y  Y0  1  0.250000  0.989321  0.330254  1
  Y  Y1  1  0.250000  0.487536  0.169327  1
  Y  Y2  1  0.750000  0.012465  0.672118  1
  Y  Y3  1  0.750000  0.512129  0.828605  1
  Tm  Tm4  1  0.750000  0.643626  0.421788  1
  Lu  Lu5  1  0.250000  0.857375  0.922962  1
  Lu  Lu6  1  0.250000  0.356746  0.577707  1
  Lu  Lu7  1  0.750000  0.142757  0.077539  1
  Pt  Pt8  1  0.250000  0.251348  0.905102  1
  Pt  Pt9  1  0.250000  0.752380  0.596745  1
  Pt  Pt10  1  0.750000  0.748138  0.091928  1
  Pt  Pt11  1  0.750000  0.246177  0.405924  1
