# generated using pymatgen
data_Er2Lu6In3Ir
_symmetry_space_group_name_H-M   'P 1'
_cell_length_a   10.21215300
_cell_length_b   10.22427537
_cell_length_c   6.95090524
_cell_angle_alpha   89.97774085
_cell_angle_beta   90.00000000
_cell_angle_gamma   119.96078367
_symmetry_Int_Tables_number   1
_chemical_formula_structural   Er2Lu6In3Ir
_chemical_formula_sum   'Er4 Lu12 In6 Ir2'
_cell_volume   628.77214067
_cell_formula_units_Z   2
loop_
 _symmetry_equiv_pos_site_id
 _symmetry_equiv_pos_as_xyz
  1  'x, y, z'
loop_
 _atom_site_type_symbol
 _atom_site_label
 _atom_site_symmetry_multiplicity
 _atom_site_fract_x
 _atom_site_fract_y
 _atom_site_fract_z
 _atom_site_occupancy
  Er  Er0  1  0.531899  0.063797  0.521309  1
  Er  Er1  1  0.936763  0.468203  0.522246  1
  Er  Er2  1  0.531440  0.468203  0.522246  1
  Er  Er3  1  0.467882  0.935765  0.021569  1
  Lu  Lu4  1  0.065450  0.532876  0.022634  1
  Lu  Lu5  1  0.467425  0.532876  0.022634  1
  Lu  Lu6  1  0.176254  0.352508  0.731660  1
  Lu  Lu7  1  0.646399  0.822508  0.729871  1
  Lu  Lu8  1  0.176109  0.822508  0.729871  1
  Lu  Lu9  1  0.823374  0.646747  0.228613  1
  Lu  Lu10  1  0.353462  0.177521  0.228551  1
  Lu  Lu11  1  0.824061  0.177521  0.228551  1
  Lu  Lu12  1  0.667121  0.334239  0.903453  1
  Lu  Lu13  1  0.332979  0.665960  0.403609  1
  Lu  Lu14  1  0.000036  0.000072  0.508089  1
  Lu  Lu15  1  0.999931  0.999861  0.008416  1
  In  In16  1  0.837323  0.674645  0.772477  1
  In  In17  1  0.325697  0.161838  0.771499  1
  In  In18  1  0.836142  0.161838  0.771499  1
  In  In19  1  0.163359  0.326719  0.271314  1
  In  In20  1  0.674433  0.837567  0.271211  1
  In  In21  1  0.163134  0.837567  0.271211  1
  Ir  Ir22  1  0.666838  0.333675  0.296032  1
  Ir  Ir23  1  0.332490  0.664981  0.797113  1
