# generated using pymatgen
data_Sm4Mo3RuF28
_symmetry_space_group_name_H-M   'P 1'
_cell_length_a   5.65327175
_cell_length_b   9.09321069
_cell_length_c   12.19847300
_cell_angle_alpha   62.31395221
_cell_angle_beta   90.02952319
_cell_angle_gamma   89.89025027
_symmetry_Int_Tables_number   1
_chemical_formula_structural   Sm4Mo3RuF28
_chemical_formula_sum   'Sm4 Mo3 Ru1 F28'
_cell_volume   555.28141653
_cell_formula_units_Z   1
loop_
 _symmetry_equiv_pos_site_id
 _symmetry_equiv_pos_as_xyz
  1  'x, y, z'
loop_
 _atom_site_type_symbol
 _atom_site_label
 _atom_site_symmetry_multiplicity
 _atom_site_fract_x
 _atom_site_fract_y
 _atom_site_fract_z
 _atom_site_occupancy
  Sm  Sm0  1  0.762541  0.812042  0.765990  1
  Sm  Sm1  1  0.260178  0.188724  0.731568  1
  Sm  Sm2  1  0.238883  0.188582  0.236574  1
  Sm  Sm3  1  0.738520  0.811771  0.266115  1
  Mo  Mo4  1  0.755105  0.273481  0.956561  1
  Mo  Mo5  1  0.255146  0.726464  0.543049  1
  Mo  Mo6  1  0.245977  0.726551  0.043544  1
  Ru  Ru7  1  0.744491  0.274033  0.455968  1
  F  F8  1  0.451480  0.704912  0.919411  1
  F  F9  1  0.940953  0.292269  0.582625  1
  F  F10  1  0.554141  0.291605  0.082030  1
  F  F11  1  0.056917  0.708960  0.416571  1
  F  F12  1  0.454382  0.282473  0.542138  1
  F  F13  1  0.945341  0.718532  0.956296  1
  F  F14  1  0.555581  0.714686  0.454476  1
  F  F15  1  0.054113  0.282489  0.047546  1
  F  F16  1  0.767309  0.517355  0.858537  1
  F  F17  1  0.263661  0.482705  0.640400  1
  F  F18  1  0.234201  0.482483  0.143631  1
  F  F19  1  0.738669  0.511048  0.360393  1
  F  F20  1  0.755378  0.029237  0.052020  1
  F  F21  1  0.256777  0.970980  0.448268  1
  F  F22  1  0.236339  0.970710  0.947416  1
  F  F23  1  0.739518  0.036990  0.548945  1
  F  F24  1  0.962570  0.731802  0.637919  1
  F  F25  1  0.465961  0.270897  0.858005  1
  F  F26  1  0.028237  0.271964  0.365178  1
  F  F27  1  0.536889  0.727335  0.138361  1
  F  F28  1  0.046289  0.745429  0.171647  1
  F  F29  1  0.551390  0.256212  0.327713  1
  F  F30  1  0.951738  0.253662  0.829370  1
  F  F31  1  0.450487  0.746783  0.670530  1
  F  F32  1  0.410047  0.969710  0.230763  1
  F  F33  1  0.910784  0.030376  0.270336  1
  F  F34  1  0.587825  0.030578  0.769151  1
  F  F35  1  0.092182  0.966166  0.730956  1
