# generated using pymatgen
data_Nd16Cd4Ni2PdRu
_symmetry_space_group_name_H-M   'P 1'
_cell_length_a   9.96600923
_cell_length_b   9.95374781
_cell_length_c   9.95374837
_cell_angle_alpha   59.82772001
_cell_angle_beta   59.73502337
_cell_angle_gamma   59.73502687
_symmetry_Int_Tables_number   1
_chemical_formula_structural   Nd16Cd4Ni2PdRu
_chemical_formula_sum   'Nd16 Cd4 Ni2 Pd1 Ru1'
_cell_volume   694.48751551
_cell_formula_units_Z   1
loop_
 _symmetry_equiv_pos_site_id
 _symmetry_equiv_pos_as_xyz
  1  'x, y, z'
loop_
 _atom_site_type_symbol
 _atom_site_label
 _atom_site_symmetry_multiplicity
 _atom_site_fract_x
 _atom_site_fract_y
 _atom_site_fract_z
 _atom_site_occupancy
  Nd  Nd0  1  0.341267  0.353151  0.353151  1
  Nd  Nd1  1  0.343127  0.353218  0.953977  1
  Nd  Nd2  1  0.343127  0.953977  0.353218  1
  Nd  Nd3  1  0.958527  0.347854  0.347854  1
  Nd  Nd4  1  0.816740  0.189415  0.189415  1
  Nd  Nd5  1  0.188770  0.809510  0.809510  1
  Nd  Nd6  1  0.189705  0.811462  0.188113  1
  Nd  Nd7  1  0.815730  0.188289  0.801694  1
  Nd  Nd8  1  0.189705  0.188113  0.811462  1
  Nd  Nd9  1  0.815730  0.801694  0.188289  1
  Nd  Nd10  1  0.934614  0.565568  0.565568  1
  Nd  Nd11  1  0.556860  0.938856  0.938856  1
  Nd  Nd12  1  0.564256  0.937129  0.563731  1
  Nd  Nd13  1  0.936659  0.558209  0.937756  1
  Nd  Nd14  1  0.564256  0.563731  0.937129  1
  Nd  Nd15  1  0.936659  0.937756  0.558209  1
  Cd  Cd16  1  0.580282  0.579331  0.579331  1
  Cd  Cd17  1  0.580256  0.579546  0.259304  1
  Cd  Cd18  1  0.580256  0.259304  0.579546  1
  Cd  Cd19  1  0.258362  0.580088  0.580088  1
  Ni  Ni20  1  0.144684  0.143814  0.573834  1
  Ni  Ni21  1  0.144684  0.573834  0.143814  1
  Pd  Pd22  1  0.573656  0.143622  0.143622  1
  Ru  Ru23  1  0.142088  0.142529  0.142529  1
