# generated using pymatgen
data_PrAg3(Pt2O7)2
_symmetry_space_group_name_H-M   'P 1'
_cell_length_a   7.30498223
_cell_length_b   7.30498179
_cell_length_c   7.30498262
_cell_angle_alpha   59.57537898
_cell_angle_beta   59.57538117
_cell_angle_gamma   59.57538203
_symmetry_Int_Tables_number   1
_chemical_formula_structural   PrAg3(Pt2O7)2
_chemical_formula_sum   'Pr1 Ag3 Pt4 O14'
_cell_volume   272.97952700
_cell_formula_units_Z   1
loop_
 _symmetry_equiv_pos_site_id
 _symmetry_equiv_pos_as_xyz
  1  'x, y, z'
loop_
 _atom_site_type_symbol
 _atom_site_label
 _atom_site_symmetry_multiplicity
 _atom_site_fract_x
 _atom_site_fract_y
 _atom_site_fract_z
 _atom_site_occupancy
  Pr  Pr0  1  0.125000  0.125000  0.125000  1
  Ag  Ag1  1  0.625000  0.125000  0.125000  1
  Ag  Ag2  1  0.125000  0.625000  0.125000  1
  Ag  Ag3  1  0.125000  0.125000  0.625000  1
  Pt  Pt4  1  0.625000  0.625000  0.125000  1
  Pt  Pt5  1  0.625000  0.625000  0.625000  1
  Pt  Pt6  1  0.625000  0.125000  0.625000  1
  Pt  Pt7  1  0.125000  0.625000  0.625000  1
  O  O8  1  0.711087  0.292482  0.292482  1
  O  O9  1  0.704951  0.294217  0.704951  1
  O  O10  1  0.987447  0.987447  0.987447  1
  O  O11  1  0.292482  0.711087  0.292482  1
  O  O12  1  0.704951  0.704951  0.294217  1
  O  O13  1  0.955783  0.545049  0.545049  1
  O  O14  1  0.294217  0.704951  0.704951  1
  O  O15  1  0.262553  0.262553  0.262553  1
  O  O16  1  0.957518  0.538913  0.957518  1
  O  O17  1  0.545049  0.955783  0.545049  1
  O  O18  1  0.545049  0.545049  0.955783  1
  O  O19  1  0.957518  0.957518  0.538913  1
  O  O20  1  0.538913  0.957518  0.957518  1
  O  O21  1  0.292482  0.292482  0.711087  1
