# generated using pymatgen
data_Ho7Tm5Th4(MgCo)4
_symmetry_space_group_name_H-M   'P 1'
_cell_length_a   9.58159873
_cell_length_b   9.58159827
_cell_length_c   9.60483600
_cell_angle_alpha   59.91974104
_cell_angle_beta   59.91974263
_cell_angle_gamma   59.89977979
_symmetry_Int_Tables_number   1
_chemical_formula_structural   Ho7Tm5Th4(MgCo)4
_chemical_formula_sum   'Ho7 Tm5 Th4 Mg4 Co4'
_cell_volume   622.29134610
_cell_formula_units_Z   1
loop_
 _symmetry_equiv_pos_site_id
 _symmetry_equiv_pos_as_xyz
  1  'x, y, z'
loop_
 _atom_site_type_symbol
 _atom_site_label
 _atom_site_symmetry_multiplicity
 _atom_site_fract_x
 _atom_site_fract_y
 _atom_site_fract_z
 _atom_site_occupancy
  Ho  Ho0  1  0.815310  0.815310  0.184690  1
  Ho  Ho1  1  0.936510  0.564202  0.565100  1
  Ho  Ho2  1  0.564202  0.936510  0.934188  1
  Ho  Ho3  1  0.564202  0.936510  0.565100  1
  Ho  Ho4  1  0.936510  0.564202  0.934188  1
  Ho  Ho5  1  0.564947  0.564947  0.935053  1
  Ho  Ho6  1  0.935662  0.935662  0.564338  1
  Tm  Tm7  1  0.814311  0.185694  0.185619  1
  Tm  Tm8  1  0.185694  0.814311  0.814376  1
  Tm  Tm9  1  0.185694  0.814311  0.185619  1
  Tm  Tm10  1  0.814311  0.185694  0.814376  1
  Tm  Tm11  1  0.186116  0.186116  0.813884  1
  Th  Th12  1  0.344984  0.344984  0.344413  1
  Th  Th13  1  0.344984  0.344984  0.965622  1
  Th  Th14  1  0.344837  0.964862  0.345151  1
  Th  Th15  1  0.964862  0.344837  0.345151  1
  Mg  Mg16  1  0.579477  0.579477  0.580811  1
  Mg  Mg17  1  0.579477  0.579477  0.260233  1
  Mg  Mg18  1  0.579448  0.259610  0.580470  1
  Mg  Mg19  1  0.259610  0.579448  0.580470  1
  Co  Co20  1  0.143962  0.143962  0.144813  1
  Co  Co21  1  0.143962  0.143962  0.567263  1
  Co  Co22  1  0.144465  0.566463  0.144535  1
  Co  Co23  1  0.566463  0.144465  0.144535  1
