# generated using pymatgen
data_DyY(PaRh2)2
_symmetry_space_group_name_H-M   'P 1'
_cell_length_a   3.68199400
_cell_length_b   4.46161300
_cell_length_c   10.46773400
_cell_angle_alpha   90.00000000
_cell_angle_beta   90.00000000
_cell_angle_gamma   90.00000000
_symmetry_Int_Tables_number   1
_chemical_formula_structural   DyY(PaRh2)2
_chemical_formula_sum   'Dy1 Y1 Pa2 Rh4'
_cell_volume   171.96008513
_cell_formula_units_Z   1
loop_
 _symmetry_equiv_pos_site_id
 _symmetry_equiv_pos_as_xyz
  1  'x, y, z'
loop_
 _atom_site_type_symbol
 _atom_site_label
 _atom_site_symmetry_multiplicity
 _atom_site_fract_x
 _atom_site_fract_y
 _atom_site_fract_z
 _atom_site_occupancy
  Dy  Dy0  1  0.000000  0.250000  0.141881  1
  Y  Y1  1  0.500000  0.750000  0.357579  1
  Pa  Pa2  1  0.000000  0.750000  0.868682  1
  Pa  Pa3  1  0.500000  0.250000  0.631561  1
  Rh  Rh4  1  0.500000  0.750000  0.070453  1
  Rh  Rh5  1  0.000000  0.750000  0.610187  1
  Rh  Rh6  1  0.000000  0.250000  0.429532  1
  Rh  Rh7  1  0.500000  0.250000  0.890124  1
