# generated using pymatgen
data_HoEr2SbO7
_symmetry_space_group_name_H-M   'P 1'
_cell_length_a   6.43114007
_cell_length_b   6.43113974
_cell_length_c   7.47295700
_cell_angle_alpha   90.00000000
_cell_angle_beta   90.00000000
_cell_angle_gamma   109.29201952
_symmetry_Int_Tables_number   1
_chemical_formula_structural   HoEr2SbO7
_chemical_formula_sum   'Ho2 Er4 Sb2 O14'
_cell_volume   291.72254088
_cell_formula_units_Z   2
loop_
 _symmetry_equiv_pos_site_id
 _symmetry_equiv_pos_as_xyz
  1  'x, y, z'
loop_
 _atom_site_type_symbol
 _atom_site_label
 _atom_site_symmetry_multiplicity
 _atom_site_fract_x
 _atom_site_fract_y
 _atom_site_fract_z
 _atom_site_occupancy
  Ho  Ho0  1  0.511612  0.511612  0.500000  1
  Ho  Ho1  1  0.488388  0.488388  0.000000  1
  Er  Er2  1  0.999389  0.468516  0.747515  1
  Er  Er3  1  0.000611  0.531484  0.247515  1
  Er  Er4  1  0.531484  0.000611  0.752485  1
  Er  Er5  1  0.468516  0.999389  0.252485  1
  Sb  Sb6  1  0.000127  0.000127  0.500000  1
  Sb  Sb7  1  0.999873  0.999873  0.000000  1
  O  O8  1  0.638510  0.361490  0.750000  1
  O  O9  1  0.361490  0.638510  0.250000  1
  O  O10  1  0.927716  0.072284  0.750000  1
  O  O11  1  0.072284  0.927716  0.250000  1
  O  O12  1  0.922685  0.674353  0.528365  1
  O  O13  1  0.077315  0.325647  0.028365  1
  O  O14  1  0.325647  0.077315  0.971635  1
  O  O15  1  0.674353  0.922685  0.471635  1
  O  O16  1  0.369136  0.630864  0.750000  1
  O  O17  1  0.630864  0.369136  0.250000  1
  O  O18  1  0.933039  0.678764  0.967148  1
  O  O19  1  0.066961  0.321236  0.467148  1
  O  O20  1  0.321236  0.066961  0.532852  1
  O  O21  1  0.678764  0.933039  0.032852  1
