# generated using pymatgen
data_Tm8LuMg(Ni2Bi)2
_symmetry_space_group_name_H-M   'P 1'
_cell_length_a   8.66112607
_cell_length_b   8.66112559
_cell_length_c   8.66112550
_cell_angle_alpha   129.15207123
_cell_angle_beta   129.15207999
_cell_angle_gamma   74.76600133
_symmetry_Int_Tables_number   1
_chemical_formula_structural   Tm8LuMg(Ni2Bi)2
_chemical_formula_sum   'Tm8 Lu1 Mg1 Ni4 Bi2'
_cell_volume   380.60683691
_cell_formula_units_Z   1
loop_
 _symmetry_equiv_pos_site_id
 _symmetry_equiv_pos_as_xyz
  1  'x, y, z'
loop_
 _atom_site_type_symbol
 _atom_site_label
 _atom_site_symmetry_multiplicity
 _atom_site_fract_x
 _atom_site_fract_y
 _atom_site_fract_z
 _atom_site_occupancy
  Tm  Tm0  1  0.798301  0.281370  0.823172  1
  Tm  Tm1  1  0.201699  0.718630  0.176828  1
  Tm  Tm2  1  0.458196  0.975128  0.176828  1
  Tm  Tm3  1  0.281370  0.458196  0.483068  1
  Tm  Tm4  1  0.024872  0.201699  0.483068  1
  Tm  Tm5  1  0.541804  0.024872  0.823172  1
  Tm  Tm6  1  0.718630  0.541804  0.516932  1
  Tm  Tm7  1  0.975128  0.798301  0.516932  1
  Lu  Lu8  1  0.500000  0.500000  0.000000  1
  Mg  Mg9  1  0.000000  0.000000  0.000000  1
  Ni  Ni10  1  0.132424  0.623414  0.755838  1
  Ni  Ni11  1  0.867576  0.376586  0.244162  1
  Ni  Ni12  1  0.623414  0.867576  0.490991  1
  Ni  Ni13  1  0.376586  0.132424  0.509009  1
  Bi  Bi14  1  0.257920  0.257920  0.000000  1
  Bi  Bi15  1  0.742080  0.742080  0.000000  1
