# generated using pymatgen
data_Lu2Zr2(Al8Pt3)3
_symmetry_space_group_name_H-M   'P 1'
_cell_length_a   7.49182599
_cell_length_b   7.50674597
_cell_length_c   13.05147019
_cell_angle_alpha   84.57975149
_cell_angle_beta   79.01205883
_cell_angle_gamma   59.94609757
_symmetry_Int_Tables_number   1
_chemical_formula_structural   Lu2Zr2(Al8Pt3)3
_chemical_formula_sum   'Lu2 Zr2 Al24 Pt9'
_cell_volume   623.67359543
_cell_formula_units_Z   1
loop_
 _symmetry_equiv_pos_site_id
 _symmetry_equiv_pos_as_xyz
  1  'x, y, z'
loop_
 _atom_site_type_symbol
 _atom_site_label
 _atom_site_symmetry_multiplicity
 _atom_site_fract_x
 _atom_site_fract_y
 _atom_site_fract_z
 _atom_site_occupancy
  Lu  Lu0  1  0.734375  0.498716  0.806719  1
  Lu  Lu1  1  0.265625  0.501284  0.193281  1
  Zr  Zr2  1  0.393841  0.168005  0.809845  1
  Zr  Zr3  1  0.606159  0.831995  0.190155  1
  Al  Al4  1  0.681648  0.835442  0.943018  1
  Al  Al5  1  0.318352  0.164558  0.056982  1
  Al  Al6  1  0.146017  0.832866  0.563014  1
  Al  Al7  1  0.853983  0.167134  0.436986  1
  Al  Al8  1  0.479457  0.166904  0.561066  1
  Al  Al9  1  0.520543  0.833096  0.438934  1
  Al  Al10  1  0.220505  0.163676  0.326549  1
  Al  Al11  1  0.779495  0.836324  0.673451  1
  Al  Al12  1  0.436236  0.504655  0.673514  1
  Al  Al13  1  0.563764  0.495345  0.326486  1
  Al  Al14  1  0.110421  0.160177  0.672313  1
  Al  Al15  1  0.889579  0.839823  0.327687  1
  Al  Al16  1  0.353976  0.496945  0.942390  1
  Al  Al17  1  0.646024  0.503055  0.057610  1
  Al  Al18  1  0.018155  0.168388  0.950195  1
  Al  Al19  1  0.981845  0.831612  0.049805  1
  Al  Al20  1  0.186593  0.499693  0.440413  1
  Al  Al21  1  0.813407  0.500307  0.559587  1
  Al  Al22  1  0.732623  0.160109  0.183454  1
  Al  Al23  1  0.267377  0.839891  0.816546  1
  Al  Al24  1  0.065082  0.626964  0.815408  1
  Al  Al25  1  0.934918  0.373036  0.184592  1
  Al  Al26  1  0.851028  0.041976  0.815943  1
  Al  Al27  1  0.148972  0.958024  0.184057  1
  Pt  Pt28  1  0.119277  0.490881  0.639548  1
  Pt  Pt29  1  0.880723  0.509119  0.360452  1
  Pt  Pt30  1  0.656602  0.172827  0.999595  1
  Pt  Pt31  1  0.343398  0.827173  0.000405  1
  Pt  Pt32  1  0.536700  0.167311  0.361116  1
  Pt  Pt33  1  0.463300  0.832689  0.638884  1
  Pt  Pt34  1  0.778076  0.176556  0.637856  1
  Pt  Pt35  1  0.221924  0.823444  0.362144  1
  Pt  Pt36  1  0.000000  0.500000  0.000000  1
