# generated using pymatgen
data_Sr2Ca(As2Pd3)3
_symmetry_space_group_name_H-M   'P 1'
_cell_length_a   4.13564400
_cell_length_b   8.76517093
_cell_length_c   10.20341719
_cell_angle_alpha   107.75766768
_cell_angle_beta   90.00000000
_cell_angle_gamma   103.64548229
_symmetry_Int_Tables_number   1
_chemical_formula_structural   Sr2Ca(As2Pd3)3
_chemical_formula_sum   'Sr2 Ca1 As6 Pd9'
_cell_volume   341.26898845
_cell_formula_units_Z   1
loop_
 _symmetry_equiv_pos_site_id
 _symmetry_equiv_pos_as_xyz
  1  'x, y, z'
loop_
 _atom_site_type_symbol
 _atom_site_label
 _atom_site_symmetry_multiplicity
 _atom_site_fract_x
 _atom_site_fract_y
 _atom_site_fract_z
 _atom_site_occupancy
  Sr  Sr0  1  0.847304  0.694605  0.304007  1
  Sr  Sr1  1  0.152696  0.305395  0.695993  1
  Ca  Ca2  1  0.000000  0.000000  0.000000  1
  As  As3  1  0.802617  0.605234  0.868693  1
  As  As4  1  0.197383  0.394766  0.131307  1
  As  As5  1  0.536612  0.073223  0.782567  1
  As  As6  1  0.463388  0.926777  0.217433  1
  As  As7  1  0.635960  0.271919  0.448177  1
  As  As8  1  0.364040  0.728081  0.551823  1
  Pd  Pd9  1  0.953641  0.907283  0.676893  1
  Pd  Pd10  1  0.046359  0.092717  0.323107  1
  Pd  Pd11  1  0.778045  0.556092  0.608585  1
  Pd  Pd12  1  0.221955  0.443908  0.391415  1
  Pd  Pd13  1  0.376007  0.752013  0.802598  1
  Pd  Pd14  1  0.623993  0.247987  0.197402  1
  Pd  Pd15  1  0.500000  0.000000  0.500000  1
  Pd  Pd16  1  0.683212  0.366423  0.967257  1
  Pd  Pd17  1  0.316788  0.633577  0.032743  1
