# generated using pymatgen
data_HoCoH6
_symmetry_space_group_name_H-M   'P 1'
_cell_length_a   4.64343634
_cell_length_b   4.64388715
_cell_length_c   4.65189176
_cell_angle_alpha   120.03348145
_cell_angle_beta   90.03314318
_cell_angle_gamma   119.89553805
_symmetry_Int_Tables_number   1
_chemical_formula_structural   HoCoH6
_chemical_formula_sum   'Ho1 Co1 H6'
_cell_volume   70.98639972
_cell_formula_units_Z   1
loop_
 _symmetry_equiv_pos_site_id
 _symmetry_equiv_pos_as_xyz
  1  'x, y, z'
loop_
 _atom_site_type_symbol
 _atom_site_label
 _atom_site_symmetry_multiplicity
 _atom_site_fract_x
 _atom_site_fract_y
 _atom_site_fract_z
 _atom_site_occupancy
  Ho  Ho0  1  0.377585  0.033298  0.893447  1
  Co  Co1  1  0.127518  0.534334  0.144001  1
  H  H2  1  0.355536  0.526362  0.375072  1
  H  H3  1  0.895744  0.542803  0.378797  1
  H  H4  1  0.353655  0.525102  0.903413  1
  H  H5  1  0.891546  0.067171  0.910441  1
  H  H6  1  0.895261  0.544322  0.919414  1
  H  H7  1  0.372878  0.000649  0.377142  1
