# generated using pymatgen
data_Ta6Be2GaGe
_symmetry_space_group_name_H-M   'P 1'
_cell_length_a   6.67073900
_cell_length_b   6.70859642
_cell_length_c   3.45249100
_cell_angle_alpha   90.00000000
_cell_angle_beta   90.00000000
_cell_angle_gamma   90.23497958
_symmetry_Int_Tables_number   1
_chemical_formula_structural   Ta6Be2GaGe
_chemical_formula_sum   'Ta6 Be2 Ga1 Ge1'
_cell_volume   154.50214651
_cell_formula_units_Z   1
loop_
 _symmetry_equiv_pos_site_id
 _symmetry_equiv_pos_as_xyz
  1  'x, y, z'
loop_
 _atom_site_type_symbol
 _atom_site_label
 _atom_site_symmetry_multiplicity
 _atom_site_fract_x
 _atom_site_fract_y
 _atom_site_fract_z
 _atom_site_occupancy
  Ta  Ta0  1  0.820436  0.690676  0.500000  1
  Ta  Ta1  1  0.321244  0.811117  0.500000  1
  Ta  Ta2  1  0.183277  0.336515  0.500000  1
  Ta  Ta3  1  0.680689  0.161926  0.500000  1
  Ta  Ta4  1  0.495662  0.508243  0.000000  1
  Ta  Ta5  1  0.995448  0.992108  0.000000  1
  Be  Be6  1  0.120174  0.624492  0.000000  1
  Be  Be7  1  0.620684  0.874844  0.000000  1
  Ga  Ga8  1  0.881174  0.385653  0.000000  1
  Ge  Ge9  1  0.381211  0.114425  0.000000  1
