# generated using pymatgen
data_Yb5P3O13
_symmetry_space_group_name_H-M   'P 1'
_cell_length_a   6.60396600
_cell_length_b   9.58704797
_cell_length_c   19.15495700
_cell_angle_alpha   60.02290832
_cell_angle_beta   90.00000000
_cell_angle_gamma   90.00000000
_symmetry_Int_Tables_number   1
_chemical_formula_structural   Yb5P3O13
_chemical_formula_sum   'Yb20 P12 O52'
_cell_volume   1050.51376703
_cell_formula_units_Z   4
loop_
 _symmetry_equiv_pos_site_id
 _symmetry_equiv_pos_as_xyz
  1  'x, y, z'
loop_
 _atom_site_type_symbol
 _atom_site_label
 _atom_site_symmetry_multiplicity
 _atom_site_fract_x
 _atom_site_fract_y
 _atom_site_fract_z
 _atom_site_occupancy
  Yb  Yb0  1  0.246533  0.241756  0.623422  1
  Yb  Yb1  1  0.747617  0.987656  0.629165  1
  Yb  Yb2  1  0.001585  0.670249  0.580989  1
  Yb  Yb3  1  0.247617  0.012344  0.870835  1
  Yb  Yb4  1  0.247456  0.747014  0.755742  1
  Yb  Yb5  1  0.501585  0.329751  0.919011  1
  Yb  Yb6  1  0.498415  0.670249  0.080989  1
  Yb  Yb7  1  0.746533  0.758244  0.876578  1
  Yb  Yb8  1  0.504859  0.337221  0.414047  1
  Yb  Yb9  1  0.752383  0.987656  0.129165  1
  Yb  Yb10  1  0.995141  0.337221  0.914047  1
  Yb  Yb11  1  0.252544  0.747014  0.255742  1
  Yb  Yb12  1  0.004859  0.662779  0.085953  1
  Yb  Yb13  1  0.252383  0.012344  0.370835  1
  Yb  Yb14  1  0.753467  0.758244  0.376578  1
  Yb  Yb15  1  0.998415  0.329751  0.419011  1
  Yb  Yb16  1  0.747456  0.252986  0.744258  1
  Yb  Yb17  1  0.253467  0.241756  0.123422  1
  Yb  Yb18  1  0.495141  0.662779  0.585953  1
  Yb  Yb19  1  0.752544  0.252986  0.244258  1
  P  P20  1  0.248964  0.031130  0.547714  1
  P  P21  1  0.751036  0.968870  0.452286  1
  P  P22  1  0.748964  0.968870  0.952286  1
  P  P23  1  0.753437  0.625806  0.234254  1
  P  P24  1  0.253437  0.374194  0.265746  1
  P  P25  1  0.251036  0.031130  0.047714  1
  P  P26  1  0.246105  0.594976  0.936785  1
  P  P27  1  0.253895  0.594976  0.436785  1
  P  P28  1  0.746563  0.625806  0.734254  1
  P  P29  1  0.753895  0.405024  0.063215  1
  P  P30  1  0.246563  0.374194  0.765746  1
  P  P31  1  0.746105  0.405024  0.563215  1
  O  O32  1  0.237843  0.000174  0.750174  1
  O  O33  1  0.762157  0.999826  0.249826  1
  O  O34  1  0.737843  0.999826  0.749826  1
  O  O35  1  0.262157  0.000174  0.250174  1
  O  O36  1  0.067326  0.259698  0.292029  1
  O  O37  1  0.755393  0.342459  0.003117  1
  O  O38  1  0.057263  0.089802  0.572760  1
  O  O39  1  0.743702  0.506072  0.825651  1
  O  O40  1  0.932674  0.740302  0.707971  1
  O  O41  1  0.740983  0.870625  0.546282  1
  O  O42  1  0.746288  0.151315  0.921390  1
  O  O43  1  0.068362  0.081494  0.081252  1
  O  O44  1  0.057296  0.648602  0.880912  1
  O  O45  1  0.931638  0.918506  0.918748  1
  O  O46  1  0.432074  0.657550  0.879488  1
  O  O47  1  0.057654  0.262756  0.794685  1
  O  O48  1  0.252055  0.464537  0.814602  1
  O  O49  1  0.253712  0.848685  0.078610  1
  O  O50  1  0.442704  0.648602  0.380912  1
  O  O51  1  0.246288  0.848685  0.578610  1
  O  O52  1  0.251217  0.406991  0.981922  1
  O  O53  1  0.567326  0.740302  0.207971  1
  O  O54  1  0.751217  0.593009  0.518078  1
  O  O55  1  0.942346  0.737244  0.205315  1
  O  O56  1  0.756298  0.506072  0.325651  1
  O  O57  1  0.557654  0.737244  0.705315  1
  O  O58  1  0.256298  0.493928  0.174349  1
  O  O59  1  0.567926  0.342450  0.120512  1
  O  O60  1  0.568362  0.918506  0.418748  1
  O  O61  1  0.244607  0.657541  0.996883  1
  O  O62  1  0.557263  0.910198  0.927240  1
  O  O63  1  0.255393  0.657541  0.496883  1
  O  O64  1  0.247945  0.464537  0.314602  1
  O  O65  1  0.243702  0.493928  0.674349  1
  O  O66  1  0.431638  0.081494  0.581252  1
  O  O67  1  0.557296  0.351398  0.619088  1
  O  O68  1  0.932074  0.342450  0.620512  1
  O  O69  1  0.759017  0.870625  0.046282  1
  O  O70  1  0.442737  0.089802  0.072760  1
  O  O71  1  0.744607  0.342459  0.503117  1
  O  O72  1  0.942704  0.351398  0.119088  1
  O  O73  1  0.747945  0.535463  0.185398  1
  O  O74  1  0.067926  0.657550  0.379488  1
  O  O75  1  0.259017  0.129375  0.453718  1
  O  O76  1  0.240983  0.129375  0.953718  1
  O  O77  1  0.752055  0.535463  0.685398  1
  O  O78  1  0.942737  0.910198  0.427240  1
  O  O79  1  0.753712  0.151315  0.421390  1
  O  O80  1  0.432674  0.259698  0.792029  1
  O  O81  1  0.748783  0.593009  0.018078  1
  O  O82  1  0.442346  0.262756  0.294685  1
  O  O83  1  0.248783  0.406991  0.481922  1
