# generated using pymatgen
data_LiPr16Co4Ag3
_symmetry_space_group_name_H-M   'P 1'
_cell_length_a   9.80013855
_cell_length_b   9.80013784
_cell_length_c   9.80013809
_cell_angle_alpha   59.85029141
_cell_angle_beta   59.85029335
_cell_angle_gamma   59.85029256
_symmetry_Int_Tables_number   1
_chemical_formula_structural   LiPr16Co4Ag3
_chemical_formula_sum   'Li1 Pr16 Co4 Ag3'
_cell_volume   663.29023130
_cell_formula_units_Z   1
loop_
 _symmetry_equiv_pos_site_id
 _symmetry_equiv_pos_as_xyz
  1  'x, y, z'
loop_
 _atom_site_type_symbol
 _atom_site_label
 _atom_site_symmetry_multiplicity
 _atom_site_fract_x
 _atom_site_fract_y
 _atom_site_fract_z
 _atom_site_occupancy
  Li  Li0  1  0.684380  0.684380  0.684380  1
  Pr  Pr1  1  0.289612  0.902823  0.902823  1
  Pr  Pr2  1  0.687604  0.687604  0.312179  1
  Pr  Pr3  1  0.902823  0.902823  0.289612  1
  Pr  Pr4  1  0.310515  0.688787  0.310515  1
  Pr  Pr5  1  0.688787  0.310515  0.310515  1
  Pr  Pr6  1  0.062863  0.437173  0.437173  1
  Pr  Pr7  1  0.439978  0.058592  0.058592  1
  Pr  Pr8  1  0.058592  0.058592  0.439978  1
  Pr  Pr9  1  0.310515  0.310515  0.688787  1
  Pr  Pr10  1  0.437173  0.062863  0.437173  1
  Pr  Pr11  1  0.901348  0.901348  0.901348  1
  Pr  Pr12  1  0.437173  0.437173  0.062863  1
  Pr  Pr13  1  0.312179  0.687604  0.687604  1
  Pr  Pr14  1  0.687604  0.312179  0.687604  1
  Pr  Pr15  1  0.058592  0.439978  0.058592  1
  Pr  Pr16  1  0.902823  0.289612  0.902823  1
  Co  Co17  1  0.108299  0.108299  0.108299  1
  Co  Co18  1  0.107635  0.107635  0.671843  1
  Co  Co19  1  0.671843  0.107635  0.107635  1
  Co  Co20  1  0.107635  0.671843  0.107635  1
  Ag  Ag21  1  0.668876  0.668876  0.994274  1
  Ag  Ag22  1  0.994274  0.668876  0.668876  1
  Ag  Ag23  1  0.668876  0.994274  0.668876  1
