# generated using pymatgen
data_HfNb2P6WO24
_symmetry_space_group_name_H-M   'P 1'
_cell_length_a   8.81069174
_cell_length_b   8.82396201
_cell_length_c   9.13749502
_cell_angle_alpha   90.35139986
_cell_angle_beta   118.81931115
_cell_angle_gamma   119.76716682
_symmetry_Int_Tables_number   1
_chemical_formula_structural   HfNb2P6WO24
_chemical_formula_sum   'Hf1 Nb2 P6 W1 O24'
_cell_volume   511.37026117
_cell_formula_units_Z   1
loop_
 _symmetry_equiv_pos_site_id
 _symmetry_equiv_pos_as_xyz
  1  'x, y, z'
loop_
 _atom_site_type_symbol
 _atom_site_label
 _atom_site_symmetry_multiplicity
 _atom_site_fract_x
 _atom_site_fract_y
 _atom_site_fract_z
 _atom_site_occupancy
  Hf  Hf0  1  0.216792  0.859637  0.076962  1
  Nb  Nb1  1  0.214548  0.357305  0.571186  1
  Nb  Nb2  1  0.785246  0.141030  0.928235  1
  P  P3  1  0.993856  0.964076  0.248646  1
  P  P4  1  0.283694  0.530314  0.251870  1
  P  P5  1  0.282528  0.751879  0.747133  1
  P  P6  1  0.719499  0.252573  0.253134  1
  P  P7  1  0.718815  0.465954  0.749286  1
  P  P8  1  0.001601  0.034327  0.752072  1
  W  W9  1  0.788098  0.641750  0.433075  1
  O  O10  1  0.289082  0.702339  0.221547  1
  O  O11  1  0.862019  0.996268  0.078907  1
  O  O12  1  0.855099  0.861032  0.592008  1
  O  O13  1  0.841733  0.802811  0.274240  1
  O  O14  1  0.140423  0.933667  0.229051  1
  O  O15  1  0.478690  0.547922  0.281123  1
  O  O16  1  0.100211  0.736617  0.579370  1
  O  O17  1  0.904689  0.635604  0.911750  1
  O  O18  1  0.277871  0.778099  0.909188  1
  O  O19  1  0.490727  0.919503  0.778653  1
  O  O20  1  0.726537  0.476210  0.586858  1
  O  O21  1  0.727036  0.429240  0.272291  1
  O  O22  1  0.280750  0.576988  0.717084  1
  O  O23  1  0.270307  0.503235  0.414047  1
  O  O24  1  0.520997  0.086267  0.228190  1
  O  O25  1  0.724551  0.217559  0.089065  1
  O  O26  1  0.086248  0.358980  0.087519  1
  O  O27  1  0.914061  0.276560  0.418451  1
  O  O28  1  0.510601  0.435210  0.711071  1
  O  O29  1  0.861265  0.074651  0.777535  1
  O  O30  1  0.141342  0.202508  0.714429  1
  O  O31  1  0.136016  0.143664  0.407545  1
  O  O32  1  0.143891  0.014681  0.919719  1
  O  O33  1  0.711181  0.291540  0.788758  1
