# generated using pymatgen
data_Er2LuGa7Cu4
_symmetry_space_group_name_H-M   'P 1'
_cell_length_a   7.93910225
_cell_length_b   7.93910074
_cell_length_c   9.34115800
_cell_angle_alpha   54.28559716
_cell_angle_beta   54.28560495
_cell_angle_gamma   30.63087979
_symmetry_Int_Tables_number   1
_chemical_formula_structural   Er2LuGa7Cu4
_chemical_formula_sum   'Er2 Lu1 Ga7 Cu4'
_cell_volume   238.79696901
_cell_formula_units_Z   1
loop_
 _symmetry_equiv_pos_site_id
 _symmetry_equiv_pos_as_xyz
  1  'x, y, z'
loop_
 _atom_site_type_symbol
 _atom_site_label
 _atom_site_symmetry_multiplicity
 _atom_site_fract_x
 _atom_site_fract_y
 _atom_site_fract_z
 _atom_site_occupancy
  Er  Er0  1  0.302167  0.302167  0.705233  1
  Er  Er1  1  0.697833  0.697833  0.294767  1
  Lu  Lu2  1  0.000000  0.000000  0.000000  1
  Ga  Ga3  1  0.859392  0.859392  0.420200  1
  Ga  Ga4  1  0.140608  0.140608  0.579800  1
  Ga  Ga5  1  0.139421  0.139421  0.132003  1
  Ga  Ga6  1  0.860579  0.860579  0.867997  1
  Ga  Ga7  1  0.000000  0.000000  0.500000  1
  Ga  Ga8  1  0.345776  0.345776  0.275212  1
  Ga  Ga9  1  0.654224  0.654224  0.724788  1
  Cu  Cu10  1  0.497001  0.497001  0.311670  1
  Cu  Cu11  1  0.502999  0.502999  0.688330  1
  Cu  Cu12  1  0.656121  0.656121  0.982814  1
  Cu  Cu13  1  0.343879  0.343879  0.017186  1
