# generated using pymatgen
data_Sc6Al6ZnRh2Au3
_symmetry_space_group_name_H-M   'P 1'
_cell_length_a   7.30643400
_cell_length_b   7.30643447
_cell_length_c   7.03769700
_cell_angle_alpha   90.00000000
_cell_angle_beta   90.00000000
_cell_angle_gamma   119.99999786
_symmetry_Int_Tables_number   1
_chemical_formula_structural   Sc6Al6ZnRh2Au3
_chemical_formula_sum   'Sc6 Al6 Zn1 Rh2 Au3'
_cell_volume   325.36599772
_cell_formula_units_Z   1
loop_
 _symmetry_equiv_pos_site_id
 _symmetry_equiv_pos_as_xyz
  1  'x, y, z'
loop_
 _atom_site_type_symbol
 _atom_site_label
 _atom_site_symmetry_multiplicity
 _atom_site_fract_x
 _atom_site_fract_y
 _atom_site_fract_z
 _atom_site_occupancy
  Sc  Sc0  1  0.605642  0.001707  0.749479  1
  Sc  Sc1  1  0.998293  0.603934  0.749479  1
  Sc  Sc2  1  0.396066  0.394358  0.749479  1
  Sc  Sc3  1  0.994947  0.601784  0.250536  1
  Sc  Sc4  1  0.606836  0.005053  0.250536  1
  Sc  Sc5  1  0.398216  0.393164  0.250536  1
  Al  Al6  1  0.731012  0.729621  0.000203  1
  Al  Al7  1  0.270379  0.001391  0.000203  1
  Al  Al8  1  0.998609  0.268988  0.000203  1
  Al  Al9  1  0.761765  0.761648  0.499872  1
  Al  Al10  1  0.238352  0.000118  0.499872  1
  Al  Al11  1  0.999882  0.238235  0.499872  1
  Zn  Zn12  1  0.666667  0.333333  0.996706  1
  Rh  Rh13  1  0.000000  0.000000  0.777370  1
  Rh  Rh14  1  0.000000  0.000000  0.222521  1
  Au  Au15  1  0.666667  0.333333  0.503102  1
  Au  Au16  1  0.333333  0.666667  0.498228  1
  Au  Au17  1  0.333333  0.666667  0.001799  1
