# generated using pymatgen
data_V(GaCl4)2
_symmetry_space_group_name_H-M   'P 1'
_cell_length_a   9.77604168
_cell_length_b   9.77604196
_cell_length_c   11.89648094
_cell_angle_alpha   54.68306248
_cell_angle_beta   54.68305999
_cell_angle_gamma   49.39331638
_symmetry_Int_Tables_number   1
_chemical_formula_structural   V(GaCl4)2
_chemical_formula_sum   'V2 Ga4 Cl16'
_cell_volume   665.88845688
_cell_formula_units_Z   2
loop_
 _symmetry_equiv_pos_site_id
 _symmetry_equiv_pos_as_xyz
  1  'x, y, z'
loop_
 _atom_site_type_symbol
 _atom_site_label
 _atom_site_symmetry_multiplicity
 _atom_site_fract_x
 _atom_site_fract_y
 _atom_site_fract_z
 _atom_site_occupancy
  V  V0  1  0.999456  0.000544  0.750000  1
  V  V1  1  0.000544  0.999456  0.250000  1
  Ga  Ga2  1  0.672292  0.159641  0.032844  1
  Ga  Ga3  1  0.327708  0.840359  0.967156  1
  Ga  Ga4  1  0.840359  0.327708  0.467156  1
  Ga  Ga5  1  0.159641  0.672292  0.532844  1
  Cl  Cl6  1  0.870818  0.834758  0.511787  1
  Cl  Cl7  1  0.129182  0.165242  0.488213  1
  Cl  Cl8  1  0.689895  0.623466  0.442933  1
  Cl  Cl9  1  0.623466  0.689895  0.942933  1
  Cl  Cl10  1  0.834758  0.870818  0.011787  1
  Cl  Cl11  1  0.856429  0.305991  0.281877  1
  Cl  Cl12  1  0.150374  0.718626  0.184981  1
  Cl  Cl13  1  0.281374  0.849626  0.315019  1
  Cl  Cl14  1  0.143571  0.694009  0.718123  1
  Cl  Cl15  1  0.310105  0.376534  0.557067  1
  Cl  Cl16  1  0.694009  0.143571  0.218123  1
  Cl  Cl17  1  0.165242  0.129182  0.988213  1
  Cl  Cl18  1  0.376534  0.310105  0.057067  1
  Cl  Cl19  1  0.305991  0.856429  0.781877  1
  Cl  Cl20  1  0.718626  0.150374  0.684981  1
  Cl  Cl21  1  0.849626  0.281374  0.815019  1
