# generated using pymatgen
data_Cs2RbBi(AsS2)6
_symmetry_space_group_name_H-M   'P 1'
_cell_length_a   9.68886400
_cell_length_b   9.68886419
_cell_length_c   8.37228800
_cell_angle_alpha   90.00000000
_cell_angle_beta   90.00000000
_cell_angle_gamma   120.00000618
_symmetry_Int_Tables_number   1
_chemical_formula_structural   Cs2RbBi(AsS2)6
_chemical_formula_sum   'Cs2 Rb1 Bi1 As6 S12'
_cell_volume   680.64473933
_cell_formula_units_Z   1
loop_
 _symmetry_equiv_pos_site_id
 _symmetry_equiv_pos_as_xyz
  1  'x, y, z'
loop_
 _atom_site_type_symbol
 _atom_site_label
 _atom_site_symmetry_multiplicity
 _atom_site_fract_x
 _atom_site_fract_y
 _atom_site_fract_z
 _atom_site_occupancy
  Cs  Cs0  1  0.333333  0.666667  0.859697  1
  Cs  Cs1  1  0.666667  0.333333  0.140303  1
  Rb  Rb2  1  0.000000  0.000000  0.000000  1
  Bi  Bi3  1  0.000000  0.000000  0.500000  1
  As  As4  1  0.290971  0.838043  0.388878  1
  As  As5  1  0.161957  0.452929  0.388878  1
  As  As6  1  0.547071  0.709029  0.388878  1
  As  As7  1  0.709029  0.161957  0.611122  1
  As  As8  1  0.838043  0.547071  0.611122  1
  As  As9  1  0.452929  0.290971  0.611122  1
  S  S10  1  0.254885  0.033993  0.299870  1
  S  S11  1  0.966007  0.220892  0.299870  1
  S  S12  1  0.779108  0.745115  0.299870  1
  S  S13  1  0.745115  0.966007  0.700130  1
  S  S14  1  0.033993  0.779108  0.700130  1
  S  S15  1  0.220892  0.254885  0.700130  1
  S  S16  1  0.519981  0.899139  0.242413  1
  S  S17  1  0.100861  0.620842  0.242413  1
  S  S18  1  0.379158  0.480019  0.242413  1
  S  S19  1  0.480019  0.100861  0.757587  1
  S  S20  1  0.899139  0.379158  0.757587  1
  S  S21  1  0.620842  0.519981  0.757587  1
