# generated using pymatgen
data_Ce4Cd2AgRu2Pt
_symmetry_space_group_name_H-M   'P 1'
_cell_length_a   7.83050304
_cell_length_b   7.83050240
_cell_length_c   3.73849300
_cell_angle_alpha   90.00000000
_cell_angle_beta   90.00000000
_cell_angle_gamma   91.84704228
_symmetry_Int_Tables_number   1
_chemical_formula_structural   Ce4Cd2AgRu2Pt
_chemical_formula_sum   'Ce4 Cd2 Ag1 Ru2 Pt1'
_cell_volume   229.11322481
_cell_formula_units_Z   1
loop_
 _symmetry_equiv_pos_site_id
 _symmetry_equiv_pos_as_xyz
  1  'x, y, z'
loop_
 _atom_site_type_symbol
 _atom_site_label
 _atom_site_symmetry_multiplicity
 _atom_site_fract_x
 _atom_site_fract_y
 _atom_site_fract_z
 _atom_site_occupancy
  Ce  Ce0  1  0.167472  0.332528  0.500000  1
  Ce  Ce1  1  0.304257  0.826412  0.500000  1
  Ce  Ce2  1  0.856270  0.643730  0.500000  1
  Ce  Ce3  1  0.673588  0.195743  0.500000  1
  Cd  Cd4  1  0.498310  0.507697  0.000000  1
  Cd  Cd5  1  0.992303  0.001690  0.000000  1
  Ag  Ag6  1  0.633615  0.866385  0.000000  1
  Ru  Ru7  1  0.143482  0.640933  0.000000  1
  Ru  Ru8  1  0.859067  0.356518  0.000000  1
  Pt  Pt9  1  0.371635  0.128365  0.000000  1
