# generated using pymatgen
data_DyHo2Cd3PdPb2
_symmetry_space_group_name_H-M   'P 1'
_cell_length_a   7.51175702
_cell_length_b   7.51175733
_cell_length_c   4.56665100
_cell_angle_alpha   90.00000000
_cell_angle_beta   90.00000000
_cell_angle_gamma   120.08694327
_symmetry_Int_Tables_number   1
_chemical_formula_structural   DyHo2Cd3PdPb2
_chemical_formula_sum   'Dy1 Ho2 Cd3 Pd1 Pb2'
_cell_volume   222.96175968
_cell_formula_units_Z   1
loop_
 _symmetry_equiv_pos_site_id
 _symmetry_equiv_pos_as_xyz
  1  'x, y, z'
loop_
 _atom_site_type_symbol
 _atom_site_label
 _atom_site_symmetry_multiplicity
 _atom_site_fract_x
 _atom_site_fract_y
 _atom_site_fract_z
 _atom_site_occupancy
  Dy  Dy0  1  0.396986  0.396986  0.000000  1
  Ho  Ho1  1  0.604213  0.000154  0.000000  1
  Ho  Ho2  1  0.000154  0.604213  0.000000  1
  Cd  Cd3  1  0.231033  0.999704  0.500000  1
  Cd  Cd4  1  0.999704  0.231033  0.500000  1
  Cd  Cd5  1  0.768623  0.768623  0.500000  1
  Pd  Pd6  1  0.998997  0.998997  0.000000  1
  Pb  Pb7  1  0.333187  0.667103  0.500000  1
  Pb  Pb8  1  0.667103  0.333187  0.500000  1
