# generated using pymatgen
data_Ca4NdSn3H
_symmetry_space_group_name_H-M   'P 1'
_cell_length_a   9.48066766
_cell_length_b   9.48066815
_cell_length_c   9.49476449
_cell_angle_alpha   128.92940543
_cell_angle_beta   128.92941371
_cell_angle_gamma   75.01338098
_symmetry_Int_Tables_number   1
_chemical_formula_structural   Ca4NdSn3H
_chemical_formula_sum   'Ca8 Nd2 Sn6 H2'
_cell_volume   503.19603866
_cell_formula_units_Z   2
loop_
 _symmetry_equiv_pos_site_id
 _symmetry_equiv_pos_as_xyz
  1  'x, y, z'
loop_
 _atom_site_type_symbol
 _atom_site_label
 _atom_site_symmetry_multiplicity
 _atom_site_fract_x
 _atom_site_fract_y
 _atom_site_fract_z
 _atom_site_occupancy
  Ca  Ca0  1  0.502338  0.502338  0.000000  1
  Ca  Ca1  1  0.002338  0.002338  0.000000  1
  Ca  Ca2  1  0.008587  0.186649  0.500000  1
  Ca  Ca3  1  0.686649  0.508587  0.500000  1
  Ca  Ca4  1  0.489465  0.989465  0.180275  1
  Ca  Ca5  1  0.809189  0.309189  0.819725  1
  Ca  Ca6  1  0.988570  0.812069  0.500000  1
  Ca  Ca7  1  0.312069  0.488570  0.500000  1
  Nd  Nd8  1  0.519521  0.019521  0.835211  1
  Nd  Nd9  1  0.184310  0.684310  0.164789  1
  Sn  Sn10  1  0.252400  0.252400  0.000000  1
  Sn  Sn11  1  0.752400  0.752400  0.000000  1
  Sn  Sn12  1  0.871322  0.371322  0.244490  1
  Sn  Sn13  1  0.126833  0.626833  0.755510  1
  Sn  Sn14  1  0.368167  0.124881  0.500000  1
  Sn  Sn15  1  0.624881  0.868167  0.500000  1
  H  H16  1  0.252561  0.752561  0.500000  1
  H  H17  1  0.748401  0.248401  0.500000  1
