# generated using pymatgen
data_Tb2Sb2Cl2O5
_symmetry_space_group_name_H-M   'P 1'
_cell_length_a   6.78094634
_cell_length_b   6.99032624
_cell_length_c   10.27196276
_cell_angle_alpha   110.15472742
_cell_angle_beta   96.23425515
_cell_angle_gamma   99.58590859
_symmetry_Int_Tables_number   1
_chemical_formula_structural   Tb2Sb2Cl2O5
_chemical_formula_sum   'Tb4 Sb4 Cl4 O10'
_cell_volume   443.40015670
_cell_formula_units_Z   2
loop_
 _symmetry_equiv_pos_site_id
 _symmetry_equiv_pos_as_xyz
  1  'x, y, z'
loop_
 _atom_site_type_symbol
 _atom_site_label
 _atom_site_symmetry_multiplicity
 _atom_site_fract_x
 _atom_site_fract_y
 _atom_site_fract_z
 _atom_site_occupancy
  Tb  Tb0  1  0.391008  0.756872  0.542090  1
  Tb  Tb1  1  0.608992  0.243128  0.457910  1
  Tb  Tb2  1  0.854096  0.745627  0.370124  1
  Tb  Tb3  1  0.145904  0.254373  0.629876  1
  Sb  Sb4  1  0.902452  0.787799  0.715500  1
  Sb  Sb5  1  0.097548  0.212201  0.284500  1
  Sb  Sb6  1  0.684379  0.262597  0.797094  1
  Sb  Sb7  1  0.315621  0.737403  0.202906  1
  Cl  Cl8  1  0.347275  0.663309  0.786574  1
  Cl  Cl9  1  0.652725  0.336691  0.213426  1
  Cl  Cl10  1  0.882065  0.761333  0.103050  1
  Cl  Cl11  1  0.117935  0.238667  0.896950  1
  O  O12  1  0.844130  0.347829  0.668378  1
  O  O13  1  0.155870  0.652171  0.331622  1
  O  O14  1  0.550059  0.838968  0.372389  1
  O  O15  1  0.449941  0.161032  0.627611  1
  O  O16  1  0.691247  0.959591  0.710054  1
  O  O17  1  0.308753  0.040409  0.289946  1
  O  O18  1  0.714123  0.601939  0.527895  1
  O  O19  1  0.285877  0.398061  0.472105  1
  O  O20  1  0.070887  0.888085  0.589146  1
  O  O21  1  0.929113  0.111915  0.410854  1
