# generated using pymatgen
data_Tm4Ga2(TcRu)3
_symmetry_space_group_name_H-M   'P 1'
_cell_length_a   5.27490958
_cell_length_b   5.26325728
_cell_length_c   8.94674200
_cell_angle_alpha   90.00000000
_cell_angle_beta   90.00000000
_cell_angle_gamma   119.81442999
_symmetry_Int_Tables_number   1
_chemical_formula_structural   Tm4Ga2(TcRu)3
_chemical_formula_sum   'Tm4 Ga2 Tc3 Ru3'
_cell_volume   215.51337603
_cell_formula_units_Z   1
loop_
 _symmetry_equiv_pos_site_id
 _symmetry_equiv_pos_as_xyz
  1  'x, y, z'
loop_
 _atom_site_type_symbol
 _atom_site_label
 _atom_site_symmetry_multiplicity
 _atom_site_fract_x
 _atom_site_fract_y
 _atom_site_fract_z
 _atom_site_occupancy
  Tm  Tm0  1  0.667785  0.333567  0.564858  1
  Tm  Tm1  1  0.340512  0.670181  0.440785  1
  Tm  Tm2  1  0.340512  0.670181  0.059215  1
  Tm  Tm3  1  0.667785  0.333567  0.935142  1
  Ga  Ga4  1  0.824933  0.660463  0.250000  1
  Ga  Ga5  1  0.824503  0.163778  0.250000  1
  Tc  Tc6  1  0.169213  0.336540  0.750000  1
  Tc  Tc7  1  0.168827  0.834400  0.750000  1
  Tc  Tc8  1  0.650458  0.824580  0.750000  1
  Ru  Ru9  1  0.004332  0.002205  0.496397  1
  Ru  Ru10  1  0.004332  0.002205  0.003603  1
  Ru  Ru11  1  0.336808  0.168333  0.250000  1
