# generated using pymatgen
data_Ce3In3NiIrPt
_symmetry_space_group_name_H-M   'P 1'
_cell_length_a   7.61564800
_cell_length_b   7.61564832
_cell_length_c   3.93943400
_cell_angle_alpha   90.00000000
_cell_angle_beta   90.00000000
_cell_angle_gamma   119.99999862
_symmetry_Int_Tables_number   1
_chemical_formula_structural   Ce3In3NiIrPt
_chemical_formula_sum   'Ce3 In3 Ni1 Ir1 Pt1'
_cell_volume   197.86920533
_cell_formula_units_Z   1
loop_
 _symmetry_equiv_pos_site_id
 _symmetry_equiv_pos_as_xyz
  1  'x, y, z'
loop_
 _atom_site_type_symbol
 _atom_site_label
 _atom_site_symmetry_multiplicity
 _atom_site_fract_x
 _atom_site_fract_y
 _atom_site_fract_z
 _atom_site_occupancy
  Ce  Ce0  1  0.418110  0.411124  0.000000  1
  Ce  Ce1  1  0.588876  0.006986  0.000000  1
  Ce  Ce2  1  0.993014  0.581890  0.000000  1
  In  In3  1  0.998735  0.243094  0.500000  1
  In  In4  1  0.756906  0.755641  0.500000  1
  In  In5  1  0.244359  0.001265  0.500000  1
  Ni  Ni6  1  0.000000  0.000000  0.000000  1
  Ir  Ir7  1  0.666667  0.333333  0.500000  1
  Pt  Pt8  1  0.333333  0.666667  0.500000  1
