# generated using pymatgen
data_Tb5CeRuPt
_symmetry_space_group_name_H-M   'P 1'
_cell_length_a   6.42026300
_cell_length_b   7.12879300
_cell_length_c   9.62808200
_cell_angle_alpha   90.00000000
_cell_angle_beta   90.00000000
_cell_angle_gamma   90.00000000
_symmetry_Int_Tables_number   1
_chemical_formula_structural   Tb5CeRuPt
_chemical_formula_sum   'Tb10 Ce2 Ru2 Pt2'
_cell_volume   440.66504631
_cell_formula_units_Z   2
loop_
 _symmetry_equiv_pos_site_id
 _symmetry_equiv_pos_as_xyz
  1  'x, y, z'
loop_
 _atom_site_type_symbol
 _atom_site_label
 _atom_site_symmetry_multiplicity
 _atom_site_fract_x
 _atom_site_fract_y
 _atom_site_fract_z
 _atom_site_occupancy
  Tb  Tb0  1  0.330003  0.678338  0.066157  1
  Tb  Tb1  1  0.169997  0.178338  0.433843  1
  Tb  Tb2  1  0.671165  0.321729  0.561057  1
  Tb  Tb3  1  0.828835  0.821729  0.938943  1
  Tb  Tb4  1  0.671165  0.321729  0.938943  1
  Tb  Tb5  1  0.828835  0.821729  0.561057  1
  Tb  Tb6  1  0.330003  0.678338  0.433843  1
  Tb  Tb7  1  0.169997  0.178338  0.066157  1
  Tb  Tb8  1  0.138756  0.467883  0.750000  1
  Tb  Tb9  1  0.361244  0.967883  0.750000  1
  Ce  Ce10  1  0.857193  0.552769  0.250000  1
  Ce  Ce11  1  0.642807  0.052769  0.250000  1
  Ru  Ru12  1  0.015239  0.864606  0.250000  1
  Ru  Ru13  1  0.484761  0.364606  0.250000  1
  Pt  Pt14  1  0.944752  0.114607  0.750000  1
  Pt  Pt15  1  0.555248  0.614607  0.750000  1
