# generated using pymatgen
data_TbTh3(GaPd2)4
_symmetry_space_group_name_H-M   'P 1'
_cell_length_a   5.81320825
_cell_length_b   7.10914700
_cell_length_c   7.56414526
_cell_angle_alpha   90.00000000
_cell_angle_beta   89.84363887
_cell_angle_gamma   90.00000000
_symmetry_Int_Tables_number   1
_chemical_formula_structural   TbTh3(GaPd2)4
_chemical_formula_sum   'Tb1 Th3 Ga4 Pd8'
_cell_volume   312.60190377
_cell_formula_units_Z   1
loop_
 _symmetry_equiv_pos_site_id
 _symmetry_equiv_pos_as_xyz
  1  'x, y, z'
loop_
 _atom_site_type_symbol
 _atom_site_label
 _atom_site_symmetry_multiplicity
 _atom_site_fract_x
 _atom_site_fract_y
 _atom_site_fract_z
 _atom_site_occupancy
  Tb  Tb0  1  0.844470  0.250000  0.466251  1
  Th  Th1  1  0.344922  0.750000  0.034933  1
  Th  Th2  1  0.153300  0.750000  0.535866  1
  Th  Th3  1  0.654866  0.250000  0.962759  1
  Ga  Ga4  1  0.656203  0.750000  0.386278  1
  Ga  Ga5  1  0.846282  0.750000  0.884608  1
  Ga  Ga6  1  0.344633  0.250000  0.609937  1
  Ga  Ga7  1  0.152678  0.250000  0.121471  1
  Pd  Pd8  1  0.913261  0.551194  0.182662  1
  Pd  Pd9  1  0.582519  0.948717  0.685281  1
  Pd  Pd10  1  0.088160  0.051583  0.815489  1
  Pd  Pd11  1  0.417383  0.449947  0.315517  1
  Pd  Pd12  1  0.088160  0.448417  0.815489  1
  Pd  Pd13  1  0.417383  0.050053  0.315517  1
  Pd  Pd14  1  0.913261  0.948806  0.182662  1
  Pd  Pd15  1  0.582519  0.551283  0.685281  1
