# generated using pymatgen
data_Th2Ga2Ir5
_symmetry_space_group_name_H-M   'P 1'
_cell_length_a   5.55664883
_cell_length_b   5.55665037
_cell_length_c   12.70881993
_cell_angle_alpha   77.37236503
_cell_angle_beta   77.37237072
_cell_angle_gamma   60.00000625
_symmetry_Int_Tables_number   1
_chemical_formula_structural   Th2Ga2Ir5
_chemical_formula_sum   'Th4 Ga4 Ir10'
_cell_volume   328.82448873
_cell_formula_units_Z   2
loop_
 _symmetry_equiv_pos_site_id
 _symmetry_equiv_pos_as_xyz
  1  'x, y, z'
loop_
 _atom_site_type_symbol
 _atom_site_label
 _atom_site_symmetry_multiplicity
 _atom_site_fract_x
 _atom_site_fract_y
 _atom_site_fract_z
 _atom_site_occupancy
  Th  Th0  1  0.951321  0.951321  0.146040  1
  Th  Th1  1  0.048679  0.048679  0.853960  1
  Th  Th2  1  0.852358  0.852358  0.442924  1
  Th  Th3  1  0.147642  0.147642  0.557076  1
  Ga  Ga4  1  0.720694  0.720694  0.837917  1
  Ga  Ga5  1  0.279306  0.279306  0.162083  1
  Ga  Ga6  1  0.611942  0.611942  0.164175  1
  Ga  Ga7  1  0.388058  0.388058  0.835825  1
  Ir  Ir8  1  0.500000  0.500000  0.500000  1
  Ir  Ir9  1  0.000000  0.500000  0.000000  1
  Ir  Ir10  1  0.500000  0.000000  0.000000  1
  Ir  Ir11  1  0.500000  0.500000  0.000000  1
  Ir  Ir12  1  0.389566  0.389566  0.327590  1
  Ir  Ir13  1  0.893279  0.389566  0.327590  1
  Ir  Ir14  1  0.389566  0.893279  0.327590  1
  Ir  Ir15  1  0.610434  0.610434  0.672410  1
  Ir  Ir16  1  0.106721  0.610434  0.672410  1
  Ir  Ir17  1  0.610434  0.106721  0.672410  1
