# generated using pymatgen
data_Tb3YIn4
_symmetry_space_group_name_H-M   'P 1'
_cell_length_a   6.52135428
_cell_length_b   6.52135497
_cell_length_c   10.81501900
_cell_angle_alpha   90.00000000
_cell_angle_beta   90.00000000
_cell_angle_gamma   111.01605744
_symmetry_Int_Tables_number   1
_chemical_formula_structural   Tb3YIn4
_chemical_formula_sum   'Tb6 Y2 In8'
_cell_volume   429.34649144
_cell_formula_units_Z   2
loop_
 _symmetry_equiv_pos_site_id
 _symmetry_equiv_pos_as_xyz
  1  'x, y, z'
loop_
 _atom_site_type_symbol
 _atom_site_label
 _atom_site_symmetry_multiplicity
 _atom_site_fract_x
 _atom_site_fract_y
 _atom_site_fract_z
 _atom_site_occupancy
  Tb  Tb0  1  0.501675  0.501675  0.250000  1
  Tb  Tb1  1  0.498325  0.498325  0.750000  1
  Tb  Tb2  1  0.250998  0.749002  0.500000  1
  Tb  Tb3  1  0.250998  0.749002  0.000000  1
  Tb  Tb4  1  0.749002  0.250998  0.500000  1
  Tb  Tb5  1  0.749002  0.250998  0.000000  1
  Y  Y6  1  0.996208  0.996208  0.250000  1
  Y  Y7  1  0.003792  0.003792  0.750000  1
  In  In8  1  0.247203  0.247203  0.001106  1
  In  In9  1  0.752797  0.752797  0.998894  1
  In  In10  1  0.247203  0.247203  0.498894  1
  In  In11  1  0.752797  0.752797  0.501106  1
  In  In12  1  0.497057  0.000893  0.250000  1
  In  In13  1  0.999107  0.502943  0.750000  1
  In  In14  1  0.502943  0.999107  0.750000  1
  In  In15  1  0.000893  0.497057  0.250000  1
