# generated using pymatgen
data_Tb6Zn19Ag4C
_symmetry_space_group_name_H-M   'P 1'
_cell_length_a   9.01925860
_cell_length_b   8.99173391
_cell_length_c   8.99173300
_cell_angle_alpha   60.04258489
_cell_angle_beta   59.96807360
_cell_angle_gamma   59.96807285
_symmetry_Int_Tables_number   1
_chemical_formula_structural   Tb6Zn19Ag4C
_chemical_formula_sum   'Tb6 Zn19 Ag4 C1'
_cell_volume   515.55189081
_cell_formula_units_Z   1
loop_
 _symmetry_equiv_pos_site_id
 _symmetry_equiv_pos_as_xyz
  1  'x, y, z'
loop_
 _atom_site_type_symbol
 _atom_site_label
 _atom_site_symmetry_multiplicity
 _atom_site_fract_x
 _atom_site_fract_y
 _atom_site_fract_z
 _atom_site_occupancy
  Tb  Tb0  1  0.699173  0.301649  0.301649  1
  Tb  Tb1  1  0.303273  0.696302  0.696302  1
  Tb  Tb2  1  0.304626  0.695948  0.303603  1
  Tb  Tb3  1  0.697764  0.302575  0.696063  1
  Tb  Tb4  1  0.304626  0.303603  0.695948  1
  Tb  Tb5  1  0.697764  0.696063  0.302575  1
  Zn  Zn6  1  0.880333  0.877228  0.363641  1
  Zn  Zn7  1  0.880333  0.363641  0.877228  1
  Zn  Zn8  1  0.632949  0.121072  0.121072  1
  Zn  Zn9  1  0.359872  0.879755  0.879755  1
  Zn  Zn10  1  0.498806  0.999493  0.999493  1
  Zn  Zn11  1  0.998730  0.501465  0.501465  1
  Zn  Zn12  1  0.999429  0.498389  0.999464  1
  Zn  Zn13  1  0.505108  0.998582  0.496800  1
  Zn  Zn14  1  0.999429  0.999464  0.498389  1
  Zn  Zn15  1  0.505108  0.496800  0.998582  1
  Zn  Zn16  1  0.328295  0.327546  0.327546  1
  Zn  Zn17  1  0.671882  0.672635  0.672635  1
  Zn  Zn18  1  0.327314  0.328674  0.016625  1
  Zn  Zn19  1  0.327314  0.016625  0.328674  1
  Zn  Zn20  1  0.672715  0.671799  0.982035  1
  Zn  Zn21  1  0.672715  0.982035  0.671799  1
  Zn  Zn22  1  0.018372  0.327193  0.327193  1
  Zn  Zn23  1  0.982472  0.672840  0.672840  1
  Zn  Zn24  1  0.988161  0.006904  0.006904  1
  Ag  Ag25  1  0.121308  0.117308  0.117308  1
  Ag  Ag26  1  0.877878  0.882182  0.882182  1
  Ag  Ag27  1  0.121367  0.118449  0.644977  1
  Ag  Ag28  1  0.121367  0.644977  0.118449  1
  C  C29  1  0.501519  0.498806  0.498806  1
