# generated using pymatgen
data_Ta3Be4Nb9(B2Ru3)4
_symmetry_space_group_name_H-M   'P 1'
_cell_length_a   3.19408200
_cell_length_b   9.04062434
_cell_length_c   15.70742659
_cell_angle_alpha   89.96858121
_cell_angle_beta   90.00000000
_cell_angle_gamma   90.00000000
_symmetry_Int_Tables_number   1
_chemical_formula_structural   Ta3Be4Nb9(B2Ru3)4
_chemical_formula_sum   'Ta3 Be4 Nb9 B8 Ru12'
_cell_volume   453.57536463
_cell_formula_units_Z   1
loop_
 _symmetry_equiv_pos_site_id
 _symmetry_equiv_pos_as_xyz
  1  'x, y, z'
loop_
 _atom_site_type_symbol
 _atom_site_label
 _atom_site_symmetry_multiplicity
 _atom_site_fract_x
 _atom_site_fract_y
 _atom_site_fract_z
 _atom_site_occupancy
  Ta  Ta0  1  0.000000  0.315237  0.796012  1
  Ta  Ta1  1  0.000000  0.184669  0.296001  1
  Ta  Ta2  1  0.000000  0.815339  0.704026  1
  Be  Be3  1  0.000000  0.609762  0.832283  1
  Be  Be4  1  0.000000  0.390286  0.167638  1
  Be  Be5  1  0.000000  0.109728  0.667689  1
  Be  Be6  1  0.000000  0.890364  0.332288  1
  Nb  Nb7  1  0.000000  0.801050  0.495118  1
  Nb  Nb8  1  0.000000  0.198899  0.504906  1
  Nb  Nb9  1  0.000000  0.301270  0.004860  1
  Nb  Nb10  1  0.000000  0.698477  0.995222  1
  Nb  Nb11  1  0.000000  0.513630  0.595105  1
  Nb  Nb12  1  0.000000  0.486464  0.404849  1
  Nb  Nb13  1  0.000000  0.013712  0.904892  1
  Nb  Nb14  1  0.000000  0.986327  0.095328  1
  Nb  Nb15  1  0.000000  0.685086  0.203677  1
  B  B16  1  0.500000  0.604527  0.497223  1
  B  B17  1  0.500000  0.395467  0.502852  1
  B  B18  1  0.500000  0.104445  0.002770  1
  B  B19  1  0.500000  0.895448  0.997228  1
  B  B20  1  0.500000  0.714372  0.599284  1
  B  B21  1  0.500000  0.285536  0.400765  1
  B  B22  1  0.500000  0.214359  0.900762  1
  B  B23  1  0.500000  0.785785  0.098947  1
  Ru  Ru24  1  0.500000  0.714489  0.357657  1
  Ru  Ru25  1  0.500000  0.285746  0.642791  1
  Ru  Ru26  1  0.500000  0.214099  0.142730  1
  Ru  Ru27  1  0.500000  0.785750  0.857186  1
  Ru  Ru28  1  0.500000  0.521326  0.093928  1
  Ru  Ru29  1  0.500000  0.477771  0.905363  1
  Ru  Ru30  1  0.500000  0.022413  0.405602  1
  Ru  Ru31  1  0.500000  0.977739  0.594546  1
  Ru  Ru32  1  0.500000  0.567787  0.730690  1
  Ru  Ru33  1  0.500000  0.431354  0.269408  1
  Ru  Ru34  1  0.500000  0.067751  0.769236  1
  Ru  Ru35  1  0.500000  0.933535  0.231139  1
