# generated using pymatgen
data_Li2YLu17(Cd3Ru)2
_symmetry_space_group_name_H-M   'P 1'
_cell_length_a   9.30336414
_cell_length_b   9.30612418
_cell_length_c   9.47426400
_cell_angle_alpha   90.00000000
_cell_angle_beta   90.00000000
_cell_angle_gamma   120.00981003
_symmetry_Int_Tables_number   1
_chemical_formula_structural   Li2YLu17(Cd3Ru)2
_chemical_formula_sum   'Li2 Y1 Lu17 Cd6 Ru2'
_cell_volume   710.30036417
_cell_formula_units_Z   1
loop_
 _symmetry_equiv_pos_site_id
 _symmetry_equiv_pos_as_xyz
  1  'x, y, z'
loop_
 _atom_site_type_symbol
 _atom_site_label
 _atom_site_symmetry_multiplicity
 _atom_site_fract_x
 _atom_site_fract_y
 _atom_site_fract_z
 _atom_site_occupancy
  Li  Li0  1  0.999794  0.999897  0.499855  1
  Li  Li1  1  0.999794  0.999897  0.000145  1
  Y  Y2  1  0.084237  0.542118  0.750000  1
  Lu  Lu3  1  0.209087  0.792916  0.440834  1
  Lu  Lu4  1  0.209087  0.416171  0.440834  1
  Lu  Lu5  1  0.583257  0.791629  0.441894  1
  Lu  Lu6  1  0.790226  0.206972  0.557513  1
  Lu  Lu7  1  0.790226  0.583253  0.557513  1
  Lu  Lu8  1  0.416453  0.208226  0.557739  1
  Lu  Lu9  1  0.790226  0.206972  0.942487  1
  Lu  Lu10  1  0.790226  0.583253  0.942487  1
  Lu  Lu11  1  0.416453  0.208226  0.942261  1
  Lu  Lu12  1  0.209087  0.792916  0.059166  1
  Lu  Lu13  1  0.209087  0.416171  0.059166  1
  Lu  Lu14  1  0.583257  0.791629  0.058106  1
  Lu  Lu15  1  0.541712  0.458389  0.250000  1
  Lu  Lu16  1  0.541712  0.083323  0.250000  1
  Lu  Lu17  1  0.917381  0.458691  0.250000  1
  Lu  Lu18  1  0.460223  0.541639  0.750000  1
  Lu  Lu19  1  0.460223  0.918583  0.750000  1
  Cd  Cd20  1  0.891255  0.108502  0.250000  1
  Cd  Cd21  1  0.891255  0.782755  0.250000  1
  Cd  Cd22  1  0.217122  0.108561  0.250000  1
  Cd  Cd23  1  0.108873  0.893401  0.750000  1
  Cd  Cd24  1  0.108873  0.215472  0.750000  1
  Cd  Cd25  1  0.782343  0.891171  0.750000  1
  Ru  Ru26  1  0.332345  0.666173  0.250000  1
  Ru  Ru27  1  0.666185  0.333092  0.750000  1
