# generated using pymatgen
data_Th8Ti7Nb5Si16
_symmetry_space_group_name_H-M   'P 1'
_cell_length_a   7.04386042
_cell_length_b   7.19357089
_cell_length_c   13.62525541
_cell_angle_alpha   89.95470721
_cell_angle_beta   89.95004431
_cell_angle_gamma   90.02762781
_symmetry_Int_Tables_number   1
_chemical_formula_structural   Th8Ti7Nb5Si16
_chemical_formula_sum   'Th8 Ti7 Nb5 Si16'
_cell_volume   690.39807142
_cell_formula_units_Z   1
loop_
 _symmetry_equiv_pos_site_id
 _symmetry_equiv_pos_as_xyz
  1  'x, y, z'
loop_
 _atom_site_type_symbol
 _atom_site_label
 _atom_site_symmetry_multiplicity
 _atom_site_fract_x
 _atom_site_fract_y
 _atom_site_fract_z
 _atom_site_occupancy
  Th  Th0  1  0.500554  0.667588  0.596450  1
  Th  Th1  1  0.000882  0.832539  0.904037  1
  Th  Th2  1  0.499025  0.331676  0.096647  1
  Th  Th3  1  0.998665  0.168398  0.403564  1
  Th  Th4  1  0.498316  0.331564  0.403132  1
  Th  Th5  1  0.999074  0.168017  0.096535  1
  Th  Th6  1  0.501796  0.668263  0.903943  1
  Th  Th7  1  0.001220  0.830713  0.596384  1
  Ti  Ti8  1  0.661892  0.173701  0.625828  1
  Ti  Ti9  1  0.164447  0.327635  0.874055  1
  Ti  Ti10  1  0.336686  0.827374  0.126059  1
  Ti  Ti11  1  0.836548  0.673125  0.373883  1
  Ti  Ti12  1  0.336368  0.827618  0.374015  1
  Ti  Ti13  1  0.836845  0.672234  0.125912  1
  Ti  Ti14  1  0.662747  0.172411  0.873907  1
  Nb  Nb15  1  0.163788  0.327201  0.625435  1
  Nb  Nb16  1  0.833356  0.494566  0.749751  1
  Nb  Nb17  1  0.333900  0.005553  0.749831  1
  Nb  Nb18  1  0.166554  0.505016  0.249677  1
  Nb  Nb19  1  0.666362  0.994764  0.250114  1
  Si  Si20  1  0.659666  0.955166  0.455893  1
  Si  Si21  1  0.160121  0.545066  0.044396  1
  Si  Si22  1  0.340255  0.044829  0.956088  1
  Si  Si23  1  0.839239  0.455566  0.543639  1
  Si  Si24  1  0.340722  0.042562  0.543039  1
  Si  Si25  1  0.840709  0.454903  0.956121  1
  Si  Si26  1  0.659830  0.954877  0.044373  1
  Si  Si27  1  0.160234  0.546028  0.455373  1
  Si  Si28  1  0.457622  0.362701  0.750837  1
  Si  Si29  1  0.955658  0.136991  0.750711  1
  Si  Si30  1  0.543186  0.638038  0.249841  1
  Si  Si31  1  0.043843  0.862194  0.249886  1
  Si  Si32  1  0.698544  0.887286  0.749584  1
  Si  Si33  1  0.198067  0.614214  0.751151  1
  Si  Si34  1  0.301561  0.112609  0.249982  1
  Si  Si35  1  0.801722  0.387014  0.249932  1
