# generated using pymatgen
data_Zr2Ta3Nb5N12
_symmetry_space_group_name_H-M   'P 1'
_cell_length_a   5.31111500
_cell_length_b   5.29885056
_cell_length_c   10.52390400
_cell_angle_alpha   90.00144529
_cell_angle_beta   90.00000000
_cell_angle_gamma   120.07660043
_symmetry_Int_Tables_number   1
_chemical_formula_structural   Zr2Ta3Nb5N12
_chemical_formula_sum   'Zr2 Ta3 Nb5 N12'
_cell_volume   256.29441740
_cell_formula_units_Z   1
loop_
 _symmetry_equiv_pos_site_id
 _symmetry_equiv_pos_as_xyz
  1  'x, y, z'
loop_
 _atom_site_type_symbol
 _atom_site_label
 _atom_site_symmetry_multiplicity
 _atom_site_fract_x
 _atom_site_fract_y
 _atom_site_fract_z
 _atom_site_occupancy
  Zr  Zr0  1  0.331832  0.665293  0.500247  1
  Zr  Zr1  1  0.666540  0.334707  0.999753  1
  Ta  Ta2  1  0.666645  0.334485  0.499935  1
  Ta  Ta3  1  0.332158  0.665515  0.000065  1
  Ta  Ta4  1  0.676701  0.000000  0.750000  1
  Nb  Nb5  1  0.675821  0.676001  0.250091  1
  Nb  Nb6  1  0.999819  0.323999  0.249909  1
  Nb  Nb7  1  0.000086  0.675701  0.749996  1
  Nb  Nb8  1  0.324385  0.324299  0.750004  1
  Nb  Nb9  1  0.324729  0.000000  0.250000  1
  N  N10  1  0.347415  0.337163  0.377284  1
  N  N11  1  0.661652  0.010270  0.377047  1
  N  N12  1  0.989861  0.652681  0.377173  1
  N  N13  1  0.005968  0.342767  0.876759  1
  N  N14  1  0.651382  0.989730  0.122953  1
  N  N15  1  0.652855  0.666704  0.876900  1
  N  N16  1  0.342589  0.989811  0.875921  1
  N  N17  1  0.663202  0.657233  0.623241  1
  N  N18  1  0.986152  0.333296  0.623100  1
  N  N19  1  0.010251  0.662837  0.122716  1
  N  N20  1  0.352778  0.010189  0.624079  1
  N  N21  1  0.337179  0.347319  0.122827  1
