# generated using pymatgen
data_AcH5Pd
_symmetry_space_group_name_H-M   'P 1'
_cell_length_a   4.83064384
_cell_length_b   4.39530231
_cell_length_c   4.82650407
_cell_angle_alpha   62.96369968
_cell_angle_beta   117.85248197
_cell_angle_gamma   117.00935179
_symmetry_Int_Tables_number   1
_chemical_formula_structural   AcH5Pd
_chemical_formula_sum   'Ac1 H5 Pd1'
_cell_volume   76.80678898
_cell_formula_units_Z   1
loop_
 _symmetry_equiv_pos_site_id
 _symmetry_equiv_pos_as_xyz
  1  'x, y, z'
loop_
 _atom_site_type_symbol
 _atom_site_label
 _atom_site_symmetry_multiplicity
 _atom_site_fract_x
 _atom_site_fract_y
 _atom_site_fract_z
 _atom_site_occupancy
  Ac  Ac0  1  0.828154  0.383979  0.043907  1
  H  H1  1  0.234250  0.043405  0.130766  1
  H  H2  1  0.422915  0.724419  0.958243  1
  H  H3  1  0.326017  0.382067  0.546015  1
  H  H4  1  0.740149  0.044682  0.634323  1
  H  H5  1  0.914890  0.723155  0.452524  1
  Pd  Pd6  1  0.327653  0.883357  0.544544  1
