# generated using pymatgen
data_ErTm2Hf5(Si4Ru3)4
_symmetry_space_group_name_H-M   'P 1'
_cell_length_a   9.99450791
_cell_length_b   9.99632987
_cell_length_c   13.46473112
_cell_angle_alpha   53.64604779
_cell_angle_beta   53.56770847
_cell_angle_gamma   31.18234518
_symmetry_Int_Tables_number   1
_chemical_formula_structural   ErTm2Hf5(Si4Ru3)4
_chemical_formula_sum   'Er1 Tm2 Hf5 Si16 Ru12'
_cell_volume   548.68239963
_cell_formula_units_Z   1
loop_
 _symmetry_equiv_pos_site_id
 _symmetry_equiv_pos_as_xyz
  1  'x, y, z'
loop_
 _atom_site_type_symbol
 _atom_site_label
 _atom_site_symmetry_multiplicity
 _atom_site_fract_x
 _atom_site_fract_y
 _atom_site_fract_z
 _atom_site_occupancy
  Er  Er0  1  0.295267  0.560704  0.644987  1
  Tm  Tm1  1  0.440877  0.701318  0.857010  1
  Tm  Tm2  1  0.704542  0.439795  0.353611  1
  Hf  Hf3  1  0.557524  0.288739  0.151989  1
  Hf  Hf4  1  0.039994  0.294789  0.634948  1
  Hf  Hf5  1  0.703877  0.961735  0.865096  1
  Hf  Hf6  1  0.962396  0.704762  0.363346  1
  Hf  Hf7  1  0.295195  0.039277  0.135623  1
  Si  Si8  1  0.875046  0.123013  0.248943  1
  Si  Si9  1  0.119692  0.880699  0.750762  1
  Si  Si10  1  0.379317  0.618033  0.248326  1
  Si  Si11  1  0.623588  0.377378  0.749539  1
  Si  Si12  1  0.976535  0.254076  0.891472  1
  Si  Si13  1  0.748225  0.022287  0.608363  1
  Si  Si14  1  0.026468  0.746657  0.107873  1
  Si  Si15  1  0.251773  0.978313  0.390049  1
  Si  Si16  1  0.572905  0.084151  0.065673  1
  Si  Si17  1  0.915707  0.428819  0.434794  1
  Si  Si18  1  0.427396  0.918476  0.933970  1
  Si  Si19  1  0.083842  0.571223  0.565012  1
  Si  Si20  1  0.387272  0.142359  0.397465  1
  Si  Si21  1  0.858035  0.613766  0.102208  1
  Si  Si22  1  0.614435  0.856364  0.602443  1
  Si  Si23  1  0.142612  0.386965  0.897478  1
  Ru  Ru24  1  0.648803  0.832352  0.281044  1
  Ru  Ru25  1  0.171134  0.353787  0.217337  1
  Ru  Ru26  1  0.758434  0.484144  0.069785  1
  Ru  Ru27  1  0.832300  0.648810  0.782071  1
  Ru  Ru28  1  0.901913  0.140666  0.585545  1
  Ru  Ru29  1  0.853870  0.103937  0.916530  1
  Ru  Ru30  1  0.099853  0.857829  0.411841  1
  Ru  Ru31  1  0.139503  0.902315  0.084841  1
  Ru  Ru32  1  0.239694  0.516155  0.930325  1
  Ru  Ru33  1  0.483959  0.760147  0.570893  1
  Ru  Ru34  1  0.516010  0.238863  0.430946  1
  Ru  Ru35  1  0.352012  0.167292  0.717860  1
