# generated using pymatgen
data_Eu6SbWO14
_symmetry_space_group_name_H-M   'P 1'
_cell_length_a   6.61943941
_cell_length_b   6.61943895
_cell_length_c   7.72259239
_cell_angle_alpha   90.45319837
_cell_angle_beta   89.54680033
_cell_angle_gamma   110.09922728
_symmetry_Int_Tables_number   1
_chemical_formula_structural   Eu6SbWO14
_chemical_formula_sum   'Eu6 Sb1 W1 O14'
_cell_volume   317.75808388
_cell_formula_units_Z   1
loop_
 _symmetry_equiv_pos_site_id
 _symmetry_equiv_pos_as_xyz
  1  'x, y, z'
loop_
 _atom_site_type_symbol
 _atom_site_label
 _atom_site_symmetry_multiplicity
 _atom_site_fract_x
 _atom_site_fract_y
 _atom_site_fract_z
 _atom_site_occupancy
  Eu  Eu0  1  0.500000  0.500000  0.500000  1
  Eu  Eu1  1  0.500000  0.500000  0.000000  1
  Eu  Eu2  1  0.528902  0.997895  0.752479  1
  Eu  Eu3  1  0.997895  0.528902  0.247521  1
  Eu  Eu4  1  0.471098  0.002105  0.247521  1
  Eu  Eu5  1  0.002105  0.471098  0.752479  1
  Sb  Sb6  1  0.000000  0.000000  0.000000  1
  W  W7  1  0.000000  0.000000  0.500000  1
  O  O8  1  0.693539  0.935308  0.467884  1
  O  O9  1  0.935308  0.693539  0.532116  1
  O  O10  1  0.684032  0.930982  0.026604  1
  O  O11  1  0.930982  0.684032  0.973396  1
  O  O12  1  0.306461  0.064692  0.532116  1
  O  O13  1  0.064692  0.306461  0.467884  1
  O  O14  1  0.315968  0.069018  0.973396  1
  O  O15  1  0.069018  0.315968  0.026604  1
  O  O16  1  0.943861  0.056139  0.745675  1
  O  O17  1  0.056139  0.943861  0.254325  1
  O  O18  1  0.370243  0.629757  0.748431  1
  O  O19  1  0.629757  0.370243  0.251569  1
  O  O20  1  0.637530  0.362470  0.748058  1
  O  O21  1  0.362470  0.637530  0.251942  1
