# generated using pymatgen
data_DyTl2Bi(Rh2O7)2
_symmetry_space_group_name_H-M   'P 1'
_cell_length_a   7.27286670
_cell_length_b   7.27286708
_cell_length_c   7.40147247
_cell_angle_alpha   59.32638946
_cell_angle_beta   59.32638767
_cell_angle_gamma   58.87540050
_symmetry_Int_Tables_number   1
_chemical_formula_structural   DyTl2Bi(Rh2O7)2
_chemical_formula_sum   'Dy1 Tl2 Bi1 Rh4 O14'
_cell_volume   271.62182234
_cell_formula_units_Z   1
loop_
 _symmetry_equiv_pos_site_id
 _symmetry_equiv_pos_as_xyz
  1  'x, y, z'
loop_
 _atom_site_type_symbol
 _atom_site_label
 _atom_site_symmetry_multiplicity
 _atom_site_fract_x
 _atom_site_fract_y
 _atom_site_fract_z
 _atom_site_occupancy
  Dy  Dy0  1  0.125000  0.125000  0.625000  1
  Tl  Tl1  1  0.125000  0.625000  0.125000  1
  Tl  Tl2  1  0.625000  0.125000  0.125000  1
  Bi  Bi3  1  0.125000  0.125000  0.125000  1
  Rh  Rh4  1  0.625000  0.625000  0.625000  1
  Rh  Rh5  1  0.625000  0.625000  0.125000  1
  Rh  Rh6  1  0.125000  0.625000  0.625000  1
  Rh  Rh7  1  0.625000  0.125000  0.625000  1
  O  O8  1  0.245501  0.245501  0.255857  1
  O  O9  1  0.290760  0.709622  0.292993  1
  O  O10  1  0.962096  0.962096  0.539217  1
  O  O11  1  0.541606  0.957578  0.546045  1
  O  O12  1  0.706514  0.706514  0.292700  1
  O  O13  1  0.957578  0.541606  0.546045  1
  O  O14  1  0.708394  0.292422  0.703955  1
  O  O15  1  0.287904  0.287904  0.710783  1
  O  O16  1  0.709622  0.290760  0.292993  1
  O  O17  1  0.292422  0.708394  0.703955  1
  O  O18  1  0.959240  0.540378  0.957007  1
  O  O19  1  0.543486  0.543486  0.957300  1
  O  O20  1  0.004499  0.004499  0.994143  1
  O  O21  1  0.540378  0.959240  0.957007  1
