# generated using pymatgen
data_Li2AcLuSn2
_symmetry_space_group_name_H-M   'P 1'
_cell_length_a   4.79160700
_cell_length_b   7.84497700
_cell_length_c   8.28002282
_cell_angle_alpha   89.97609054
_cell_angle_beta   90.00000000
_cell_angle_gamma   90.00000000
_symmetry_Int_Tables_number   1
_chemical_formula_structural   Li2AcLuSn2
_chemical_formula_sum   'Li4 Ac2 Lu2 Sn4'
_cell_volume   311.24641746
_cell_formula_units_Z   2
loop_
 _symmetry_equiv_pos_site_id
 _symmetry_equiv_pos_as_xyz
  1  'x, y, z'
loop_
 _atom_site_type_symbol
 _atom_site_label
 _atom_site_symmetry_multiplicity
 _atom_site_fract_x
 _atom_site_fract_y
 _atom_site_fract_z
 _atom_site_occupancy
  Li  Li0  1  0.750000  0.189434  0.416291  1
  Li  Li1  1  0.250000  0.176431  0.917560  1
  Li  Li2  1  0.750000  0.823569  0.082440  1
  Li  Li3  1  0.250000  0.810566  0.583709  1
  Ac  Ac4  1  0.250000  0.500408  0.248221  1
  Ac  Ac5  1  0.750000  0.499592  0.751779  1
  Lu  Lu6  1  0.250000  0.000305  0.253139  1
  Lu  Lu7  1  0.750000  0.999695  0.746861  1
  Sn  Sn8  1  0.250000  0.222574  0.583968  1
  Sn  Sn9  1  0.750000  0.220756  0.083100  1
  Sn  Sn10  1  0.250000  0.779244  0.916900  1
  Sn  Sn11  1  0.750000  0.777426  0.416032  1
