# generated using pymatgen
data_LiTa5VH16
_symmetry_space_group_name_H-M   'P 1'
_cell_length_a   6.31716900
_cell_length_b   6.12496150
_cell_length_c   6.31716817
_cell_angle_alpha   61.00148380
_cell_angle_beta   57.95517447
_cell_angle_gamma   61.00148605
_symmetry_Int_Tables_number   1
_chemical_formula_structural   LiTa5VH16
_chemical_formula_sum   'Li1 Ta5 V1 H16'
_cell_volume   172.46168071
_cell_formula_units_Z   1
loop_
 _symmetry_equiv_pos_site_id
 _symmetry_equiv_pos_as_xyz
  1  'x, y, z'
loop_
 _atom_site_type_symbol
 _atom_site_label
 _atom_site_symmetry_multiplicity
 _atom_site_fract_x
 _atom_site_fract_y
 _atom_site_fract_z
 _atom_site_occupancy
  Li  Li0  1  0.500000  0.000000  0.500000  1
  Ta  Ta1  1  0.000000  0.000000  0.500000  1
  Ta  Ta2  1  0.000000  0.500000  0.500000  1
  Ta  Ta3  1  0.500000  0.500000  0.000000  1
  Ta  Ta4  1  0.000000  0.500000  0.000000  1
  Ta  Ta5  1  0.500000  0.000000  0.000000  1
  V  V6  1  0.000000  0.000000  0.000000  1
  H  H7  1  0.871567  0.881698  0.365037  1
  H  H8  1  0.882339  0.357758  0.882339  1
  H  H9  1  0.365037  0.881698  0.871567  1
  H  H10  1  0.882339  0.877563  0.882339  1
  H  H11  1  0.128433  0.118302  0.634963  1
  H  H12  1  0.117661  0.642242  0.117661  1
  H  H13  1  0.634963  0.118302  0.128433  1
  H  H14  1  0.117661  0.122437  0.117661  1
  H  H15  1  0.615965  0.615664  0.152708  1
  H  H16  1  0.624724  0.130380  0.624724  1
  H  H17  1  0.152708  0.615664  0.615965  1
  H  H18  1  0.624724  0.620172  0.624724  1
  H  H19  1  0.384035  0.384336  0.847292  1
  H  H20  1  0.375276  0.869620  0.375276  1
  H  H21  1  0.847292  0.384336  0.384035  1
  H  H22  1  0.375276  0.379828  0.375276  1
