# generated using pymatgen
data_Nd6Ho10Cd4TcPt3
_symmetry_space_group_name_H-M   'P 1'
_cell_length_a   9.79227375
_cell_length_b   9.79227331
_cell_length_c   9.79227267
_cell_angle_alpha   59.54921557
_cell_angle_beta   59.54921513
_cell_angle_gamma   59.54922451
_symmetry_Int_Tables_number   1
_chemical_formula_structural   Nd6Ho10Cd4TcPt3
_chemical_formula_sum   'Nd6 Ho10 Cd4 Tc1 Pt3'
_cell_volume   657.14553080
_cell_formula_units_Z   1
loop_
 _symmetry_equiv_pos_site_id
 _symmetry_equiv_pos_as_xyz
  1  'x, y, z'
loop_
 _atom_site_type_symbol
 _atom_site_label
 _atom_site_symmetry_multiplicity
 _atom_site_fract_x
 _atom_site_fract_y
 _atom_site_fract_z
 _atom_site_occupancy
  Nd  Nd0  1  0.937617  0.561953  0.561953  1
  Nd  Nd1  1  0.554253  0.940429  0.940429  1
  Nd  Nd2  1  0.561953  0.937617  0.561953  1
  Nd  Nd3  1  0.940429  0.554253  0.940429  1
  Nd  Nd4  1  0.561953  0.561953  0.937617  1
  Nd  Nd5  1  0.940429  0.940429  0.554253  1
  Ho  Ho6  1  0.351198  0.351198  0.351198  1
  Ho  Ho7  1  0.348643  0.348643  0.953959  1
  Ho  Ho8  1  0.348643  0.953959  0.348643  1
  Ho  Ho9  1  0.953959  0.348643  0.348643  1
  Ho  Ho10  1  0.817370  0.185861  0.185861  1
  Ho  Ho11  1  0.185397  0.811551  0.811551  1
  Ho  Ho12  1  0.185861  0.817370  0.185861  1
  Ho  Ho13  1  0.811551  0.185397  0.811551  1
  Ho  Ho14  1  0.185861  0.185861  0.817370  1
  Ho  Ho15  1  0.811551  0.811551  0.185397  1
  Cd  Cd16  1  0.579059  0.579059  0.579059  1
  Cd  Cd17  1  0.579379  0.579379  0.259940  1
  Cd  Cd18  1  0.579379  0.259940  0.579379  1
  Cd  Cd19  1  0.259940  0.579379  0.579379  1
  Tc  Tc20  1  0.143167  0.143167  0.143167  1
  Pt  Pt21  1  0.144153  0.144153  0.574100  1
  Pt  Pt22  1  0.144153  0.574100  0.144153  1
  Pt  Pt23  1  0.574100  0.144153  0.144153  1
