# generated using pymatgen
data_LaCoSbO6
_symmetry_space_group_name_H-M   'P 1'
_cell_length_a   5.12080416
_cell_length_b   5.15590056
_cell_length_c   5.26245753
_cell_angle_alpha   89.53310289
_cell_angle_beta   90.27010289
_cell_angle_gamma   120.21395642
_symmetry_Int_Tables_number   1
_chemical_formula_structural   LaCoSbO6
_chemical_formula_sum   'La1 Co1 Sb1 O6'
_cell_volume   120.06240479
_cell_formula_units_Z   1
loop_
 _symmetry_equiv_pos_site_id
 _symmetry_equiv_pos_as_xyz
  1  'x, y, z'
loop_
 _atom_site_type_symbol
 _atom_site_label
 _atom_site_symmetry_multiplicity
 _atom_site_fract_x
 _atom_site_fract_y
 _atom_site_fract_z
 _atom_site_occupancy
  La  La0  1  0.488684  0.520431  0.500103  1
  Co  Co1  1  0.823233  0.187821  0.999988  1
  Sb  Sb2  1  0.146791  0.849552  0.999952  1
  O  O3  1  0.097626  0.151509  0.206914  1
  O  O4  1  0.496474  0.896146  0.206726  1
  O  O5  1  0.849030  0.503820  0.211759  1
  O  O6  1  0.495948  0.152963  0.793435  1
  O  O7  1  0.096407  0.498552  0.792372  1
  O  O8  1  0.847964  0.897066  0.788718  1
