# generated using pymatgen
data_Nd6HoCoBr12
_symmetry_space_group_name_H-M   'P 1'
_cell_length_a   9.52301737
_cell_length_b   9.52301813
_cell_length_c   9.52301804
_cell_angle_alpha   107.00356361
_cell_angle_beta   107.00356873
_cell_angle_gamma   107.00355575
_symmetry_Int_Tables_number   1
_chemical_formula_structural   Nd6HoCoBr12
_chemical_formula_sum   'Nd6 Ho1 Co1 Br12'
_cell_volume   719.16291947
_cell_formula_units_Z   1
loop_
 _symmetry_equiv_pos_site_id
 _symmetry_equiv_pos_as_xyz
  1  'x, y, z'
loop_
 _atom_site_type_symbol
 _atom_site_label
 _atom_site_symmetry_multiplicity
 _atom_site_fract_x
 _atom_site_fract_y
 _atom_site_fract_z
 _atom_site_occupancy
  Nd  Nd0  1  0.976868  0.899872  0.692819  1
  Nd  Nd1  1  0.023132  0.100128  0.307181  1
  Nd  Nd2  1  0.100128  0.307181  0.023132  1
  Nd  Nd3  1  0.307181  0.023132  0.100128  1
  Nd  Nd4  1  0.899872  0.692819  0.976868  1
  Nd  Nd5  1  0.692819  0.976868  0.899872  1
  Ho  Ho6  1  0.500000  0.500000  0.500000  1
  Co  Co7  1  0.000000  0.000000  0.000000  1
  Br  Br8  1  0.534860  0.609835  0.820700  1
  Br  Br9  1  0.465140  0.390165  0.179300  1
  Br  Br10  1  0.317467  0.928515  0.776830  1
  Br  Br11  1  0.390165  0.179300  0.465140  1
  Br  Br12  1  0.928515  0.776830  0.317467  1
  Br  Br13  1  0.682533  0.071485  0.223170  1
  Br  Br14  1  0.071485  0.223170  0.682533  1
  Br  Br15  1  0.776830  0.317467  0.928515  1
  Br  Br16  1  0.223170  0.682533  0.071485  1
  Br  Br17  1  0.820700  0.534860  0.609835  1
  Br  Br18  1  0.179300  0.465140  0.390165  1
  Br  Br19  1  0.609835  0.820700  0.534860  1
