# generated using pymatgen
data_Dy4Zr3SnIr4
_symmetry_space_group_name_H-M   'P 1'
_cell_length_a   4.46575200
_cell_length_b   7.19022973
_cell_length_c   8.32904293
_cell_angle_alpha   93.42167091
_cell_angle_beta   90.00000000
_cell_angle_gamma   90.00000000
_symmetry_Int_Tables_number   1
_chemical_formula_structural   Dy4Zr3SnIr4
_chemical_formula_sum   'Dy4 Zr3 Sn1 Ir4'
_cell_volume   266.96699406
_cell_formula_units_Z   1
loop_
 _symmetry_equiv_pos_site_id
 _symmetry_equiv_pos_as_xyz
  1  'x, y, z'
loop_
 _atom_site_type_symbol
 _atom_site_label
 _atom_site_symmetry_multiplicity
 _atom_site_fract_x
 _atom_site_fract_y
 _atom_site_fract_z
 _atom_site_occupancy
  Dy  Dy0  1  0.250000  0.033429  0.334656  1
  Dy  Dy1  1  0.250000  0.518497  0.178163  1
  Dy  Dy2  1  0.750000  0.993493  0.667535  1
  Dy  Dy3  1  0.750000  0.463161  0.817006  1
  Zr  Zr4  1  0.250000  0.133853  0.926647  1
  Zr  Zr5  1  0.250000  0.642742  0.564586  1
  Zr  Zr6  1  0.750000  0.856939  0.072698  1
  Sn  Sn7  1  0.750000  0.356365  0.426152  1
  Ir  Ir8  1  0.250000  0.269571  0.627562  1
  Ir  Ir9  1  0.250000  0.760641  0.895416  1
  Ir  Ir10  1  0.750000  0.742540  0.390079  1
  Ir  Ir11  1  0.750000  0.228769  0.099501  1
