# generated using pymatgen
data_LiPa8Se17
_symmetry_space_group_name_H-M   'P 1'
_cell_length_a   8.29361215
_cell_length_b   8.29361394
_cell_length_c   10.99539385
_cell_angle_alpha   79.89766950
_cell_angle_beta   79.89766908
_cell_angle_gamma   63.95373183
_symmetry_Int_Tables_number   1
_chemical_formula_structural   LiPa8Se17
_chemical_formula_sum   'Li1 Pa8 Se17'
_cell_volume   664.81042106
_cell_formula_units_Z   1
loop_
 _symmetry_equiv_pos_site_id
 _symmetry_equiv_pos_as_xyz
  1  'x, y, z'
loop_
 _atom_site_type_symbol
 _atom_site_label
 _atom_site_symmetry_multiplicity
 _atom_site_fract_x
 _atom_site_fract_y
 _atom_site_fract_z
 _atom_site_occupancy
  Li  Li0  1  0.000000  0.000000  0.000000  1
  Pa  Pa1  1  0.819369  0.300134  0.297214  1
  Pa  Pa2  1  0.300134  0.819369  0.297214  1
  Pa  Pa3  1  0.180631  0.699866  0.702786  1
  Pa  Pa4  1  0.699866  0.180631  0.702786  1
  Pa  Pa5  1  0.799838  0.799838  0.456869  1
  Pa  Pa6  1  0.200162  0.200162  0.543131  1
  Pa  Pa7  1  0.315225  0.315225  0.014614  1
  Pa  Pa8  1  0.684775  0.684775  0.985386  1
  Se  Se9  1  0.180900  0.564977  0.465183  1
  Se  Se10  1  0.564977  0.180900  0.465183  1
  Se  Se11  1  0.819100  0.435023  0.534817  1
  Se  Se12  1  0.435023  0.819100  0.534817  1
  Se  Se13  1  0.942103  0.328528  0.034538  1
  Se  Se14  1  0.328528  0.942103  0.034538  1
  Se  Se15  1  0.057897  0.671472  0.965462  1
  Se  Se16  1  0.671472  0.057897  0.965462  1
  Se  Se17  1  0.940524  0.940524  0.228470  1
  Se  Se18  1  0.059476  0.059476  0.771530  1
  Se  Se19  1  0.785041  0.785041  0.722359  1
  Se  Se20  1  0.214959  0.214959  0.277641  1
  Se  Se21  1  0.699049  0.699049  0.246604  1
  Se  Se22  1  0.300951  0.300951  0.753396  1
  Se  Se23  1  0.480080  0.480080  0.169147  1
  Se  Se24  1  0.519920  0.519920  0.830853  1
  Se  Se25  1  0.000000  0.000000  0.500000  1
