# generated using pymatgen
data_Y3Ga4FeCo7
_symmetry_space_group_name_H-M   'P 1'
_cell_length_a   7.21017405
_cell_length_b   8.57822481
_cell_length_c   8.57805111
_cell_angle_alpha   120.01185054
_cell_angle_beta   89.99742552
_cell_angle_gamma   89.99746394
_symmetry_Int_Tables_number   1
_chemical_formula_structural   Y3Ga4FeCo7
_chemical_formula_sum   'Y6 Ga8 Fe2 Co14'
_cell_volume   459.42069918
_cell_formula_units_Z   2
loop_
 _symmetry_equiv_pos_site_id
 _symmetry_equiv_pos_as_xyz
  1  'x, y, z'
loop_
 _atom_site_type_symbol
 _atom_site_label
 _atom_site_symmetry_multiplicity
 _atom_site_fract_x
 _atom_site_fract_y
 _atom_site_fract_z
 _atom_site_occupancy
  Y  Y0  1  0.001312  0.525797  0.051268  1
  Y  Y1  1  0.001350  0.525606  0.474397  1
  Y  Y2  1  0.001324  0.948746  0.474214  1
  Y  Y3  1  0.501353  0.051218  0.525568  1
  Y  Y4  1  0.501361  0.474412  0.525654  1
  Y  Y5  1  0.501338  0.474459  0.948765  1
  Ga  Ga6  1  0.293195  0.341148  0.170613  1
  Ga  Ga7  1  0.293139  0.829461  0.170478  1
  Ga  Ga8  1  0.675773  0.666685  0.333395  1
  Ga  Ga9  1  0.793262  0.170536  0.341073  1
  Ga  Ga10  1  0.293207  0.829355  0.658856  1
  Ga  Ga11  1  0.175760  0.333388  0.666616  1
  Ga  Ga12  1  0.793216  0.170555  0.829473  1
  Ga  Ga13  1  0.793266  0.658938  0.829481  1
  Fe  Fe14  1  0.218208  0.999920  0.000044  1
  Fe  Fe15  1  0.718179  0.999985  0.000070  1
  Co  Co16  1  0.970803  0.204076  0.102059  1
  Co  Co17  1  0.970841  0.897907  0.102048  1
  Co  Co18  1  0.665913  0.328520  0.164296  1
  Co  Co19  1  0.665970  0.835785  0.164234  1
  Co  Co20  1  0.470805  0.102064  0.204133  1
  Co  Co21  1  0.165886  0.164251  0.328485  1
  Co  Co22  1  0.331688  0.666690  0.333258  1
  Co  Co23  1  0.831713  0.333299  0.666680  1
  Co  Co24  1  0.666035  0.835747  0.671545  1
  Co  Co25  1  0.970809  0.897916  0.795922  1
  Co  Co26  1  0.166054  0.164175  0.835760  1
  Co  Co27  1  0.165936  0.671525  0.835722  1
  Co  Co28  1  0.470836  0.101940  0.897984  1
  Co  Co29  1  0.470868  0.795894  0.897911  1
