# generated using pymatgen
data_Ca2YbEr(Ga2Ag)4
_symmetry_space_group_name_H-M   'P 1'
_cell_length_a   4.36744800
_cell_length_b   7.02024142
_cell_length_c   10.45280328
_cell_angle_alpha   89.01579745
_cell_angle_beta   90.00000000
_cell_angle_gamma   90.00000000
_symmetry_Int_Tables_number   1
_chemical_formula_structural   Ca2YbEr(Ga2Ag)4
_chemical_formula_sum   'Ca2 Yb1 Er1 Ga8 Ag4'
_cell_volume   320.44130432
_cell_formula_units_Z   1
loop_
 _symmetry_equiv_pos_site_id
 _symmetry_equiv_pos_as_xyz
  1  'x, y, z'
loop_
 _atom_site_type_symbol
 _atom_site_label
 _atom_site_symmetry_multiplicity
 _atom_site_fract_x
 _atom_site_fract_y
 _atom_site_fract_z
 _atom_site_occupancy
  Ca  Ca0  1  0.250000  0.776367  0.826022  1
  Ca  Ca1  1  0.750000  0.224175  0.172525  1
  Yb  Yb2  1  0.250000  0.275009  0.672077  1
  Er  Er3  1  0.750000  0.720503  0.329968  1
  Ga  Ga4  1  0.250000  0.703124  0.533039  1
  Ga  Ga5  1  0.750000  0.300504  0.466125  1
  Ga  Ga6  1  0.750000  0.794937  0.038002  1
  Ga  Ga7  1  0.250000  0.201010  0.964803  1
  Ga  Ga8  1  0.250000  0.924513  0.153898  1
  Ga  Ga9  1  0.750000  0.074725  0.849040  1
  Ga  Ga10  1  0.750000  0.573467  0.646477  1
  Ga  Ga11  1  0.250000  0.428984  0.349433  1
  Ag  Ag12  1  0.250000  0.543137  0.098573  1
  Ag  Ag13  1  0.750000  0.456499  0.900242  1
  Ag  Ag14  1  0.750000  0.960337  0.598368  1
  Ag  Ag15  1  0.250000  0.042710  0.401407  1
