# generated using pymatgen
data_MnCr20(RhC3)2
_symmetry_space_group_name_H-M   'P 1'
_cell_length_a   7.50863700
_cell_length_b   7.50917273
_cell_length_c   7.50832520
_cell_angle_alpha   60.00612741
_cell_angle_beta   59.99454656
_cell_angle_gamma   59.99906569
_symmetry_Int_Tables_number   1
_chemical_formula_structural   MnCr20(RhC3)2
_chemical_formula_sum   'Mn1 Cr20 Rh2 C6'
_cell_volume   299.35079560
_cell_formula_units_Z   1
loop_
 _symmetry_equiv_pos_site_id
 _symmetry_equiv_pos_as_xyz
  1  'x, y, z'
loop_
 _atom_site_type_symbol
 _atom_site_label
 _atom_site_symmetry_multiplicity
 _atom_site_fract_x
 _atom_site_fract_y
 _atom_site_fract_z
 _atom_site_occupancy
  Mn  Mn0  1  0.000000  0.000000  0.000000  1
  Cr  Cr1  1  0.615474  0.615417  0.153526  1
  Cr  Cr2  1  0.615494  0.153467  0.615412  1
  Cr  Cr3  1  0.153466  0.615512  0.615493  1
  Cr  Cr4  1  0.615469  0.615584  0.615536  1
  Cr  Cr5  1  0.384526  0.384583  0.846474  1
  Cr  Cr6  1  0.384506  0.846533  0.384588  1
  Cr  Cr7  1  0.846534  0.384488  0.384507  1
  Cr  Cr8  1  0.384531  0.384416  0.384464  1
  Cr  Cr9  1  0.999882  0.999921  0.335506  1
  Cr  Cr10  1  0.664603  0.999928  0.335571  1
  Cr  Cr11  1  0.999963  0.664649  0.335416  1
  Cr  Cr12  1  0.664663  0.335454  0.999966  1
  Cr  Cr13  1  0.999915  0.335462  0.999944  1
  Cr  Cr14  1  0.000037  0.335351  0.664584  1
  Cr  Cr15  1  0.335337  0.664546  0.000034  1
  Cr  Cr16  1  0.335397  0.000072  0.664429  1
  Cr  Cr17  1  0.335320  0.999995  0.999984  1
  Cr  Cr18  1  0.000118  0.000079  0.664494  1
  Cr  Cr19  1  0.000085  0.664538  0.000056  1
  Cr  Cr20  1  0.664680  0.000005  0.000016  1
  Rh  Rh21  1  0.749996  0.750133  0.749988  1
  Rh  Rh22  1  0.250004  0.249867  0.250012  1
  C  C23  1  0.723398  0.723445  0.276625  1
  C  C24  1  0.276577  0.723396  0.276620  1
  C  C25  1  0.723478  0.276452  0.276546  1
  C  C26  1  0.276602  0.276555  0.723375  1
  C  C27  1  0.723423  0.276604  0.723380  1
  C  C28  1  0.276522  0.723548  0.723454  1
