# generated using pymatgen
data_Zr8Ti11Si16Ag
_symmetry_space_group_name_H-M   'P 1'
_cell_length_a   6.86671759
_cell_length_b   6.86671771
_cell_length_c   12.53511388
_cell_angle_alpha   90.11574463
_cell_angle_beta   89.88425754
_cell_angle_gamma   89.83217120
_symmetry_Int_Tables_number   1
_chemical_formula_structural   Zr8Ti11Si16Ag
_chemical_formula_sum   'Zr8 Ti11 Si16 Ag1'
_cell_volume   591.04836916
_cell_formula_units_Z   1
loop_
 _symmetry_equiv_pos_site_id
 _symmetry_equiv_pos_as_xyz
  1  'x, y, z'
loop_
 _atom_site_type_symbol
 _atom_site_label
 _atom_site_symmetry_multiplicity
 _atom_site_fract_x
 _atom_site_fract_y
 _atom_site_fract_z
 _atom_site_occupancy
  Zr  Zr0  1  0.344357  0.999177  0.466911  1
  Zr  Zr1  1  0.501652  0.843304  0.717238  1
  Zr  Zr2  1  0.500298  0.153756  0.216883  1
  Zr  Zr3  1  0.843304  0.501652  0.282762  1
  Zr  Zr4  1  0.153756  0.500298  0.783117  1
  Zr  Zr5  1  0.657897  0.001762  0.968560  1
  Zr  Zr6  1  0.999177  0.344357  0.533089  1
  Zr  Zr7  1  0.001762  0.657897  0.031440  1
  Ti  Ti8  1  0.171715  0.827771  0.250349  1
  Ti  Ti9  1  0.827771  0.171715  0.749651  1
  Ti  Ti10  1  0.671071  0.671071  0.500000  1
  Ti  Ti11  1  0.148078  0.006888  0.873045  1
  Ti  Ti12  1  0.498019  0.649689  0.122040  1
  Ti  Ti13  1  0.503950  0.348654  0.622977  1
  Ti  Ti14  1  0.649689  0.498019  0.877960  1
  Ti  Ti15  1  0.348654  0.503950  0.377023  1
  Ti  Ti16  1  0.848061  0.995646  0.371691  1
  Ti  Ti17  1  0.006888  0.148078  0.126955  1
  Ti  Ti18  1  0.995646  0.848061  0.628309  1
  Si  Si19  1  0.205778  0.135928  0.677635  1
  Si  Si20  1  0.369480  0.721053  0.923027  1
  Si  Si21  1  0.635247  0.293459  0.427394  1
  Si  Si22  1  0.721053  0.369480  0.076973  1
  Si  Si23  1  0.293459  0.635247  0.572606  1
  Si  Si24  1  0.794798  0.863424  0.176958  1
  Si  Si25  1  0.135928  0.205778  0.322365  1
  Si  Si26  1  0.863424  0.794798  0.823042  1
  Si  Si27  1  0.289580  0.941049  0.064824  1
  Si  Si28  1  0.546018  0.792494  0.313422  1
  Si  Si29  1  0.455717  0.204777  0.809904  1
  Si  Si30  1  0.792494  0.546018  0.686578  1
  Si  Si31  1  0.204777  0.455717  0.190096  1
  Si  Si32  1  0.707028  0.045817  0.562995  1
  Si  Si33  1  0.941049  0.289580  0.935176  1
  Si  Si34  1  0.045817  0.707028  0.437005  1
  Ag  Ag35  1  0.326610  0.326610  0.000000  1
