# generated using pymatgen
data_Hf18MnRe7N6
_symmetry_space_group_name_H-M   'P 1'
_cell_length_a   8.45826200
_cell_length_b   8.44112157
_cell_length_c   8.50083200
_cell_angle_alpha   90.00000000
_cell_angle_beta   90.00000000
_cell_angle_gamma   120.06719403
_symmetry_Int_Tables_number   1
_chemical_formula_structural   Hf18MnRe7N6
_chemical_formula_sum   'Hf18 Mn1 Re7 N6'
_cell_volume   525.26552604
_cell_formula_units_Z   1
loop_
 _symmetry_equiv_pos_site_id
 _symmetry_equiv_pos_as_xyz
  1  'x, y, z'
loop_
 _atom_site_type_symbol
 _atom_site_label
 _atom_site_symmetry_multiplicity
 _atom_site_fract_x
 _atom_site_fract_y
 _atom_site_fract_z
 _atom_site_occupancy
  Hf  Hf0  1  0.453935  0.907872  0.250000  1
  Hf  Hf1  1  0.545724  0.091447  0.750000  1
  Hf  Hf2  1  0.091284  0.544645  0.250000  1
  Hf  Hf3  1  0.908204  0.454314  0.750000  1
  Hf  Hf4  1  0.453360  0.544645  0.250000  1
  Hf  Hf5  1  0.546111  0.454314  0.750000  1
  Hf  Hf6  1  0.204157  0.408315  0.558618  1
  Hf  Hf7  1  0.796062  0.592123  0.441934  1
  Hf  Hf8  1  0.592017  0.795852  0.557181  1
  Hf  Hf9  1  0.796062  0.592123  0.058066  1
  Hf  Hf10  1  0.407190  0.203419  0.442654  1
  Hf  Hf11  1  0.204157  0.408315  0.941382  1
  Hf  Hf12  1  0.203834  0.795852  0.557181  1
  Hf  Hf13  1  0.407190  0.203419  0.057346  1
  Hf  Hf14  1  0.796228  0.203419  0.442654  1
  Hf  Hf15  1  0.592017  0.795852  0.942819  1
  Hf  Hf16  1  0.796228  0.203419  0.057346  1
  Hf  Hf17  1  0.203834  0.795852  0.942819  1
  Mn  Mn18  1  0.107454  0.214908  0.250000  1
  Re  Re19  1  0.892337  0.784672  0.750000  1
  Re  Re20  1  0.784671  0.894058  0.250000  1
  Re  Re21  1  0.215195  0.107465  0.750000  1
  Re  Re22  1  0.109385  0.894058  0.250000  1
  Re  Re23  1  0.892271  0.107465  0.750000  1
  Re  Re24  1  0.001653  0.003307  0.004086  1
  Re  Re25  1  0.001653  0.003307  0.495914  1
  N  N26  1  0.500136  0.000273  0.000292  1
  N  N27  1  0.999999  0.498756  0.001003  1
  N  N28  1  0.500136  0.000273  0.499708  1
  N  N29  1  0.498757  0.498756  0.001003  1
  N  N30  1  0.999999  0.498756  0.498997  1
  N  N31  1  0.498757  0.498756  0.498997  1
