# generated using pymatgen
data_Pa3Al12FeOs3
_symmetry_space_group_name_H-M   'P 1'
_cell_length_a   8.84848500
_cell_length_b   8.84848456
_cell_length_c   9.35491600
_cell_angle_alpha   90.00000000
_cell_angle_beta   90.00000000
_cell_angle_gamma   120.00000538
_symmetry_Int_Tables_number   1
_chemical_formula_structural   Pa3Al12FeOs3
_chemical_formula_sum   'Pa6 Al24 Fe2 Os6'
_cell_volume   634.31987152
_cell_formula_units_Z   2
loop_
 _symmetry_equiv_pos_site_id
 _symmetry_equiv_pos_as_xyz
  1  'x, y, z'
loop_
 _atom_site_type_symbol
 _atom_site_label
 _atom_site_symmetry_multiplicity
 _atom_site_fract_x
 _atom_site_fract_y
 _atom_site_fract_z
 _atom_site_occupancy
  Pa  Pa0  1  0.197906  0.395810  0.250000  1
  Pa  Pa1  1  0.802094  0.604190  0.750000  1
  Pa  Pa2  1  0.604190  0.802094  0.250000  1
  Pa  Pa3  1  0.395810  0.197906  0.750000  1
  Pa  Pa4  1  0.197906  0.802094  0.250000  1
  Pa  Pa5  1  0.802094  0.197906  0.750000  1
  Al  Al6  1  0.333333  0.666667  0.015701  1
  Al  Al7  1  0.666667  0.333333  0.984299  1
  Al  Al8  1  0.666667  0.333333  0.515701  1
  Al  Al9  1  0.333333  0.666667  0.484299  1
  Al  Al10  1  0.158243  0.316487  0.578030  1
  Al  Al11  1  0.841757  0.683513  0.421970  1
  Al  Al12  1  0.683513  0.841757  0.578030  1
  Al  Al13  1  0.841757  0.683513  0.078030  1
  Al  Al14  1  0.316487  0.158243  0.421970  1
  Al  Al15  1  0.158243  0.316487  0.921970  1
  Al  Al16  1  0.158243  0.841757  0.578030  1
  Al  Al17  1  0.316487  0.158243  0.078030  1
  Al  Al18  1  0.841757  0.158243  0.421970  1
  Al  Al19  1  0.683513  0.841757  0.921970  1
  Al  Al20  1  0.841757  0.158243  0.078030  1
  Al  Al21  1  0.158243  0.841757  0.921970  1
  Al  Al22  1  0.563210  0.126421  0.250000  1
  Al  Al23  1  0.436790  0.873579  0.750000  1
  Al  Al24  1  0.873579  0.436790  0.250000  1
  Al  Al25  1  0.126421  0.563210  0.750000  1
  Al  Al26  1  0.563210  0.436790  0.250000  1
  Al  Al27  1  0.436790  0.563210  0.750000  1
  Al  Al28  1  0.000000  0.000000  0.250000  1
  Al  Al29  1  0.000000  0.000000  0.750000  1
  Fe  Fe30  1  0.000000  0.000000  0.000000  1
  Fe  Fe31  1  0.000000  0.000000  0.500000  1
  Os  Os32  1  0.500000  0.000000  0.000000  1
  Os  Os33  1  0.000000  0.500000  0.000000  1
  Os  Os34  1  0.500000  0.000000  0.500000  1
  Os  Os35  1  0.500000  0.500000  0.000000  1
  Os  Os36  1  0.000000  0.500000  0.500000  1
  Os  Os37  1  0.500000  0.500000  0.500000  1
