# generated using pymatgen
data_DyTmSn5Rh3
_symmetry_space_group_name_H-M   'P 1'
_cell_length_a   13.43377514
_cell_length_b   13.43377494
_cell_length_c   7.24966300
_cell_angle_alpha   90.00000000
_cell_angle_beta   90.00000000
_cell_angle_gamma   161.07959194
_symmetry_Int_Tables_number   1
_chemical_formula_structural   DyTmSn5Rh3
_chemical_formula_sum   'Dy2 Tm2 Sn10 Rh6'
_cell_volume   424.22847455
_cell_formula_units_Z   2
loop_
 _symmetry_equiv_pos_site_id
 _symmetry_equiv_pos_as_xyz
  1  'x, y, z'
loop_
 _atom_site_type_symbol
 _atom_site_label
 _atom_site_symmetry_multiplicity
 _atom_site_fract_x
 _atom_site_fract_y
 _atom_site_fract_z
 _atom_site_occupancy
  Dy  Dy0  1  0.172375  0.827625  0.744477  1
  Dy  Dy1  1  0.827625  0.172375  0.244477  1
  Tm  Tm2  1  0.475987  0.524013  0.762088  1
  Tm  Tm3  1  0.524013  0.475987  0.262088  1
  Sn  Sn4  1  0.881047  0.118953  0.769991  1
  Sn  Sn5  1  0.118953  0.881047  0.269991  1
  Sn  Sn6  1  0.704730  0.295270  0.451011  1
  Sn  Sn7  1  0.295270  0.704730  0.951011  1
  Sn  Sn8  1  0.596326  0.403674  0.886153  1
  Sn  Sn9  1  0.403674  0.596326  0.386153  1
  Sn  Sn10  1  0.952770  0.047230  0.101887  1
  Sn  Sn11  1  0.047230  0.952770  0.601887  1
  Sn  Sn12  1  0.291038  0.708962  0.522047  1
  Sn  Sn13  1  0.708962  0.291038  0.022047  1
  Rh  Rh14  1  0.049930  0.950070  0.982866  1
  Rh  Rh15  1  0.950070  0.049930  0.482866  1
  Rh  Rh16  1  0.777252  0.222748  0.735679  1
  Rh  Rh17  1  0.222748  0.777252  0.235679  1
  Rh  Rh18  1  0.394268  0.605732  0.015803  1
  Rh  Rh19  1  0.605732  0.394268  0.515803  1
