# generated using pymatgen
data_ErTm5IrO12
_symmetry_space_group_name_H-M   'P 1'
_cell_length_a   6.38803046
_cell_length_b   6.39440673
_cell_length_c   6.38854876
_cell_angle_alpha   98.68546634
_cell_angle_beta   98.73572003
_cell_angle_gamma   98.76707947
_symmetry_Int_Tables_number   1
_chemical_formula_structural   ErTm5IrO12
_chemical_formula_sum   'Er1 Tm5 Ir1 O12'
_cell_volume   250.83232291
_cell_formula_units_Z   1
loop_
 _symmetry_equiv_pos_site_id
 _symmetry_equiv_pos_as_xyz
  1  'x, y, z'
loop_
 _atom_site_type_symbol
 _atom_site_label
 _atom_site_symmetry_multiplicity
 _atom_site_fract_x
 _atom_site_fract_y
 _atom_site_fract_z
 _atom_site_occupancy
  Er  Er0  1  0.684273  0.856406  0.389112  1
  Tm  Tm1  1  0.389108  0.682914  0.855781  1
  Tm  Tm2  1  0.855836  0.389596  0.683548  1
  Tm  Tm3  1  0.316169  0.144160  0.611096  1
  Tm  Tm4  1  0.610445  0.316436  0.143951  1
  Tm  Tm5  1  0.144299  0.610103  0.316978  1
  Ir  Ir6  1  0.000274  0.000314  0.000088  1
  O  O7  1  0.430406  0.589204  0.177008  1
  O  O8  1  0.177613  0.431185  0.590700  1
  O  O9  1  0.589540  0.178808  0.431645  1
  O  O10  1  0.568911  0.409585  0.822713  1
  O  O11  1  0.822904  0.567364  0.409198  1
  O  O12  1  0.408141  0.822428  0.569001  1
  O  O13  1  0.926246  0.039619  0.699561  1
  O  O14  1  0.962277  0.300536  0.075905  1
  O  O15  1  0.301456  0.075494  0.962611  1
  O  O16  1  0.075283  0.961617  0.300702  1
  O  O17  1  0.037804  0.699373  0.924071  1
  O  O18  1  0.699015  0.924858  0.036332  1
