# generated using pymatgen
data_Ho2TmHf(Al3Rh)6
_symmetry_space_group_name_H-M   'P 1'
_cell_length_a   7.52577800
_cell_length_b   7.51080591
_cell_length_c   9.38084400
_cell_angle_alpha   90.00000000
_cell_angle_beta   90.00000000
_cell_angle_gamma   119.45516260
_symmetry_Int_Tables_number   1
_chemical_formula_structural   Ho2TmHf(Al3Rh)6
_chemical_formula_sum   'Ho2 Tm1 Hf1 Al18 Rh6'
_cell_volume   461.70942612
_cell_formula_units_Z   1
loop_
 _symmetry_equiv_pos_site_id
 _symmetry_equiv_pos_as_xyz
  1  'x, y, z'
loop_
 _atom_site_type_symbol
 _atom_site_label
 _atom_site_symmetry_multiplicity
 _atom_site_fract_x
 _atom_site_fract_y
 _atom_site_fract_z
 _atom_site_occupancy
  Ho  Ho0  1  0.006359  0.327486  0.750000  1
  Ho  Ho1  1  0.328304  0.006442  0.750000  1
  Tm  Tm2  1  0.672463  0.995913  0.250000  1
  Hf  Hf3  1  0.996249  0.672275  0.250000  1
  Al  Al4  1  0.124483  0.122147  0.250000  1
  Al  Al5  1  0.870903  0.869904  0.750000  1
  Al  Al6  1  0.999556  0.338550  0.080752  1
  Al  Al7  1  0.999515  0.664607  0.928091  1
  Al  Al8  1  0.999515  0.664607  0.571909  1
  Al  Al9  1  0.332727  0.997285  0.419159  1
  Al  Al10  1  0.999556  0.338550  0.419248  1
  Al  Al11  1  0.664261  0.998520  0.574903  1
  Al  Al12  1  0.664261  0.998520  0.925097  1
  Al  Al13  1  0.332727  0.997285  0.080841  1
  Al  Al14  1  0.333664  0.333648  0.548214  1
  Al  Al15  1  0.669756  0.667631  0.442503  1
  Al  Al16  1  0.669756  0.667631  0.057497  1
  Al  Al17  1  0.333664  0.333648  0.951786  1
  Al  Al18  1  0.336345  0.552155  0.250000  1
  Al  Al19  1  0.660741  0.450627  0.750000  1
  Al  Al20  1  0.557066  0.344325  0.250000  1
  Al  Al21  1  0.449276  0.658972  0.750000  1
  Rh  Rh22  1  0.673114  0.328146  0.001491  1
  Rh  Rh23  1  0.327375  0.672923  0.002190  1
  Rh  Rh24  1  0.327375  0.672923  0.497810  1
  Rh  Rh25  1  0.673114  0.328146  0.498509  1
  Rh  Rh26  1  0.998938  0.998567  0.001715  1
  Rh  Rh27  1  0.998938  0.998567  0.498285  1
