# generated using pymatgen
data_Hf18ZnCrCoRe7
_symmetry_space_group_name_H-M   'P 1'
_cell_length_a   8.60411800
_cell_length_b   8.60411770
_cell_length_c   8.48251800
_cell_angle_alpha   90.00000000
_cell_angle_beta   90.00000000
_cell_angle_gamma   119.99999345
_symmetry_Int_Tables_number   1
_chemical_formula_structural   Hf18ZnCrCoRe7
_chemical_formula_sum   'Hf18 Zn1 Cr1 Co1 Re7'
_cell_volume   543.83624793
_cell_formula_units_Z   1
loop_
 _symmetry_equiv_pos_site_id
 _symmetry_equiv_pos_as_xyz
  1  'x, y, z'
loop_
 _atom_site_type_symbol
 _atom_site_label
 _atom_site_symmetry_multiplicity
 _atom_site_fract_x
 _atom_site_fract_y
 _atom_site_fract_z
 _atom_site_occupancy
  Hf  Hf0  1  0.191413  0.808587  0.450073  1
  Hf  Hf1  1  0.191413  0.382828  0.450073  1
  Hf  Hf2  1  0.617172  0.808587  0.450073  1
  Hf  Hf3  1  0.801090  0.198910  0.557334  1
  Hf  Hf4  1  0.801090  0.602178  0.557334  1
  Hf  Hf5  1  0.397822  0.198910  0.557334  1
  Hf  Hf6  1  0.800013  0.199987  0.941669  1
  Hf  Hf7  1  0.800013  0.600025  0.941669  1
  Hf  Hf8  1  0.399975  0.199987  0.941669  1
  Hf  Hf9  1  0.192426  0.807574  0.049874  1
  Hf  Hf10  1  0.192426  0.384853  0.049874  1
  Hf  Hf11  1  0.615147  0.807574  0.049874  1
  Hf  Hf12  1  0.541025  0.458975  0.250306  1
  Hf  Hf13  1  0.541025  0.082049  0.250306  1
  Hf  Hf14  1  0.917951  0.458975  0.250306  1
  Hf  Hf15  1  0.459132  0.540868  0.749626  1
  Hf  Hf16  1  0.459132  0.918266  0.749626  1
  Hf  Hf17  1  0.081734  0.540868  0.749626  1
  Zn  Zn18  1  0.333333  0.666667  0.250841  1
  Cr  Cr19  1  0.000000  0.000000  0.500240  1
  Co  Co20  1  0.666667  0.333333  0.750115  1
  Re  Re21  1  0.890041  0.109959  0.254195  1
  Re  Re22  1  0.890041  0.780084  0.254195  1
  Re  Re23  1  0.219916  0.109959  0.254195  1
  Re  Re24  1  0.109118  0.890882  0.746294  1
  Re  Re25  1  0.109118  0.218236  0.746294  1
  Re  Re26  1  0.781764  0.890882  0.746294  1
  Re  Re27  1  0.000000  0.000000  0.000691  1
