# generated using pymatgen
data_Pr2Cr2Co10As7
_symmetry_space_group_name_H-M   'P 1'
_cell_length_a   3.81128500
_cell_length_b   9.49198256
_cell_length_c   9.52307566
_cell_angle_alpha   119.85674259
_cell_angle_beta   90.00000000
_cell_angle_gamma   90.00000000
_symmetry_Int_Tables_number   1
_chemical_formula_structural   Pr2Cr2Co10As7
_chemical_formula_sum   'Pr2 Cr2 Co10 As7'
_cell_volume   298.78675654
_cell_formula_units_Z   1
loop_
 _symmetry_equiv_pos_site_id
 _symmetry_equiv_pos_as_xyz
  1  'x, y, z'
loop_
 _atom_site_type_symbol
 _atom_site_label
 _atom_site_symmetry_multiplicity
 _atom_site_fract_x
 _atom_site_fract_y
 _atom_site_fract_z
 _atom_site_occupancy
  Pr  Pr0  1  0.000000  0.671528  0.337436  1
  Pr  Pr1  1  0.500000  0.331908  0.666883  1
  Cr  Cr2  1  0.500000  0.776313  0.891482  1
  Cr  Cr3  1  0.500000  0.117980  0.221438  1
  Co  Co4  1  0.000000  0.571544  0.943002  1
  Co  Co5  1  0.000000  0.369797  0.428575  1
  Co  Co6  1  0.000000  0.057220  0.629000  1
  Co  Co7  1  0.500000  0.095753  0.881414  1
  Co  Co8  1  0.000000  0.878639  0.152611  1
  Co  Co9  1  0.000000  0.279105  0.124236  1
  Co  Co10  1  0.000000  0.844725  0.723860  1
  Co  Co11  1  0.500000  0.949611  0.379340  1
  Co  Co12  1  0.500000  0.430726  0.048192  1
  Co  Co13  1  0.500000  0.619535  0.568510  1
  As  As14  1  0.000000  0.002673  0.998336  1
  As  As15  1  0.500000  0.707628  0.111961  1
  As  As16  1  0.500000  0.407936  0.292390  1
  As  As17  1  0.500000  0.893347  0.601754  1
  As  As18  1  0.000000  0.590484  0.700122  1
  As  As19  1  0.000000  0.108648  0.408615  1
  As  As20  1  0.000000  0.294899  0.890844  1
