# generated using pymatgen
data_Ca4NdSn3F
_symmetry_space_group_name_H-M   'P 1'
_cell_length_a   9.54679319
_cell_length_b   9.54679172
_cell_length_c   9.55267119
_cell_angle_alpha   129.34537531
_cell_angle_beta   129.34536461
_cell_angle_gamma   74.40905247
_symmetry_Int_Tables_number   1
_chemical_formula_structural   Ca4NdSn3F
_chemical_formula_sum   'Ca8 Nd2 Sn6 F2'
_cell_volume   507.61484262
_cell_formula_units_Z   2
loop_
 _symmetry_equiv_pos_site_id
 _symmetry_equiv_pos_as_xyz
  1  'x, y, z'
loop_
 _atom_site_type_symbol
 _atom_site_label
 _atom_site_symmetry_multiplicity
 _atom_site_fract_x
 _atom_site_fract_y
 _atom_site_fract_z
 _atom_site_occupancy
  Ca  Ca0  1  0.502648  0.502648  0.000000  1
  Ca  Ca1  1  0.002648  0.002648  0.000000  1
  Ca  Ca2  1  0.007465  0.188853  0.500000  1
  Ca  Ca3  1  0.688853  0.507465  0.500000  1
  Ca  Ca4  1  0.490344  0.990344  0.182846  1
  Ca  Ca5  1  0.807499  0.307499  0.817154  1
  Ca  Ca6  1  0.990126  0.810504  0.500000  1
  Ca  Ca7  1  0.310504  0.490126  0.500000  1
  Nd  Nd8  1  0.521920  0.021920  0.835534  1
  Nd  Nd9  1  0.186386  0.686386  0.164466  1
  Sn  Sn10  1  0.252676  0.252676  0.000000  1
  Sn  Sn11  1  0.752676  0.752676  0.000000  1
  Sn  Sn12  1  0.871041  0.371041  0.243768  1
  Sn  Sn13  1  0.127274  0.627274  0.756232  1
  Sn  Sn14  1  0.367877  0.125243  0.500000  1
  Sn  Sn15  1  0.625243  0.867877  0.500000  1
  F  F16  1  0.247744  0.747744  0.500000  1
  F  F17  1  0.747077  0.247077  0.500000  1
