# generated using pymatgen
data_BiSb(AuCl6)2
_symmetry_space_group_name_H-M   'P 1'
_cell_length_a   8.13261622
_cell_length_b   10.01425436
_cell_length_c   14.08729200
_cell_angle_alpha   102.86542216
_cell_angle_beta   97.53616078
_cell_angle_gamma   112.99556840
_symmetry_Int_Tables_number   1
_chemical_formula_structural   BiSb(AuCl6)2
_chemical_formula_sum   'Bi2 Sb2 Au4 Cl24'
_cell_volume   998.73581084
_cell_formula_units_Z   2
loop_
 _symmetry_equiv_pos_site_id
 _symmetry_equiv_pos_as_xyz
  1  'x, y, z'
loop_
 _atom_site_type_symbol
 _atom_site_label
 _atom_site_symmetry_multiplicity
 _atom_site_fract_x
 _atom_site_fract_y
 _atom_site_fract_z
 _atom_site_occupancy
  Bi  Bi0  1  0.967657  0.318905  0.871523  1
  Bi  Bi1  1  0.032343  0.681095  0.128477  1
  Sb  Sb2  1  0.609069  0.936823  0.620818  1
  Sb  Sb3  1  0.390931  0.063177  0.379182  1
  Au  Au4  1  0.287621  0.632329  0.765989  1
  Au  Au5  1  0.712379  0.367671  0.234011  1
  Au  Au6  1  0.500000  0.500000  0.500000  1
  Au  Au7  1  0.000000  0.000000  0.000000  1
  Cl  Cl8  1  0.591755  0.725888  0.758784  1
  Cl  Cl9  1  0.408245  0.274112  0.241216  1
  Cl  Cl10  1  0.272699  0.846291  0.739429  1
  Cl  Cl11  1  0.727301  0.153709  0.260571  1
  Cl  Cl12  1  0.979979  0.537183  0.773729  1
  Cl  Cl13  1  0.020021  0.462817  0.226271  1
  Cl  Cl14  1  0.298060  0.413191  0.791905  1
  Cl  Cl15  1  0.701940  0.586809  0.208095  1
  Cl  Cl16  1  0.695284  0.383736  0.508498  1
  Cl  Cl17  1  0.304716  0.616264  0.491502  1
  Cl  Cl18  1  0.751569  0.731891  0.531185  1
  Cl  Cl19  1  0.248431  0.268109  0.468815  1
  Cl  Cl20  1  0.792055  0.102380  0.975854  1
  Cl  Cl21  1  0.207945  0.897620  0.024146  1
  Cl  Cl22  1  0.779661  0.797510  0.034351  1
  Cl  Cl23  1  0.220339  0.202490  0.965649  1
  Cl  Cl24  1  0.622395  0.187930  0.735668  1
  Cl  Cl25  1  0.377605  0.812070  0.264332  1
  Cl  Cl26  1  0.936614  0.048505  0.723294  1
  Cl  Cl27  1  0.063386  0.951495  0.276706  1
  Cl  Cl28  1  0.728475  0.055770  0.493244  1
  Cl  Cl29  1  0.271525  0.944230  0.506756  1
  Cl  Cl30  1  0.766078  0.433885  0.972061  1
  Cl  Cl31  1  0.233922  0.566115  0.027939  1
