# generated using pymatgen
data_Er10Ir3Os2Pt
_symmetry_space_group_name_H-M   'P 1'
_cell_length_a   10.79540582
_cell_length_b   10.79045100
_cell_length_c   6.40501167
_cell_angle_alpha   90.00000000
_cell_angle_beta   90.08278127
_cell_angle_gamma   90.00000000
_symmetry_Int_Tables_number   1
_chemical_formula_structural   Er10Ir3Os2Pt
_chemical_formula_sum   'Er20 Ir6 Os4 Pt2'
_cell_volume   746.10172126
_cell_formula_units_Z   2
loop_
 _symmetry_equiv_pos_site_id
 _symmetry_equiv_pos_as_xyz
  1  'x, y, z'
loop_
 _atom_site_type_symbol
 _atom_site_label
 _atom_site_symmetry_multiplicity
 _atom_site_fract_x
 _atom_site_fract_y
 _atom_site_fract_z
 _atom_site_occupancy
  Er  Er0  1  0.293669  0.086086  0.376243  1
  Er  Er1  1  0.293669  0.913914  0.876243  1
  Er  Er2  1  0.703225  0.087643  0.874062  1
  Er  Er3  1  0.703225  0.912357  0.374062  1
  Er  Er4  1  0.583464  0.793382  0.876951  1
  Er  Er5  1  0.583464  0.206618  0.376951  1
  Er  Er6  1  0.413530  0.793299  0.377021  1
  Er  Er7  1  0.413530  0.206701  0.877021  1
  Er  Er8  1  0.206584  0.413706  0.623135  1
  Er  Er9  1  0.206584  0.586294  0.123135  1
  Er  Er10  1  0.793332  0.416489  0.122831  1
  Er  Er11  1  0.793332  0.583511  0.622831  1
  Er  Er12  1  0.914965  0.704789  0.127353  1
  Er  Er13  1  0.914965  0.295211  0.627353  1
  Er  Er14  1  0.088441  0.704977  0.622357  1
  Er  Er15  1  0.088441  0.295023  0.122357  1
  Er  Er16  1  0.003122  0.999663  0.500091  1
  Er  Er17  1  0.003122  0.000337  0.000091  1
  Er  Er18  1  0.499811  0.499997  0.000089  1
  Er  Er19  1  0.499811  0.500003  0.500089  1
  Ir  Ir20  1  0.150916  0.151327  0.749885  1
  Ir  Ir21  1  0.150916  0.848673  0.249885  1
  Ir  Ir22  1  0.652878  0.347143  0.749987  1
  Ir  Ir23  1  0.652878  0.652857  0.249987  1
  Ir  Ir24  1  0.347794  0.347972  0.249787  1
  Ir  Ir25  1  0.347794  0.652028  0.749787  1
  Os  Os26  1  0.500623  0.000079  0.123623  1
  Os  Os27  1  0.500623  0.999921  0.623623  1
  Os  Os28  1  0.000072  0.500053  0.876378  1
  Os  Os29  1  0.000072  0.499947  0.376378  1
  Pt  Pt30  1  0.847574  0.152050  0.250208  1
  Pt  Pt31  1  0.847574  0.847950  0.750208  1
