# generated using pymatgen
data_Y5Er(Tm3Os2)2
_symmetry_space_group_name_H-M   'P 1'
_cell_length_a   6.28845028
_cell_length_b   7.38718307
_cell_length_c   8.97529370
_cell_angle_alpha   89.95490349
_cell_angle_beta   90.14606610
_cell_angle_gamma   90.07554665
_symmetry_Int_Tables_number   1
_chemical_formula_structural   Y5Er(Tm3Os2)2
_chemical_formula_sum   'Y5 Er1 Tm6 Os4'
_cell_volume   416.93585074
_cell_formula_units_Z   1
loop_
 _symmetry_equiv_pos_site_id
 _symmetry_equiv_pos_as_xyz
  1  'x, y, z'
loop_
 _atom_site_type_symbol
 _atom_site_label
 _atom_site_symmetry_multiplicity
 _atom_site_fract_x
 _atom_site_fract_y
 _atom_site_fract_z
 _atom_site_occupancy
  Y  Y0  1  0.333166  0.675700  0.062406  1
  Y  Y1  1  0.870226  0.538077  0.250827  1
  Y  Y2  1  0.629429  0.038448  0.250516  1
  Y  Y3  1  0.128857  0.461670  0.749051  1
  Y  Y4  1  0.371319  0.961994  0.749055  1
  Er  Er5  1  0.166623  0.175001  0.062819  1
  Tm  Tm6  1  0.166739  0.175193  0.437085  1
  Tm  Tm7  1  0.666956  0.324799  0.563089  1
  Tm  Tm8  1  0.832757  0.825396  0.936378  1
  Tm  Tm9  1  0.667601  0.324627  0.936350  1
  Tm  Tm10  1  0.833316  0.825056  0.563053  1
  Tm  Tm11  1  0.333115  0.674728  0.437588  1
  Os  Os12  1  0.042548  0.883900  0.251536  1
  Os  Os13  1  0.456622  0.381958  0.251668  1
  Os  Os14  1  0.955613  0.116825  0.750037  1
  Os  Os15  1  0.545110  0.616631  0.748541  1
