# generated using pymatgen
data_YbDy(B4Os)2
_symmetry_space_group_name_H-M   'P 1'
_cell_length_a   3.55137300
_cell_length_b   5.96201876
_cell_length_c   11.52531642
_cell_angle_alpha   89.91183550
_cell_angle_beta   90.00000000
_cell_angle_gamma   90.00000000
_symmetry_Int_Tables_number   1
_chemical_formula_structural   YbDy(B4Os)2
_chemical_formula_sum   'Yb2 Dy2 B16 Os4'
_cell_volume   244.02929775
_cell_formula_units_Z   2
loop_
 _symmetry_equiv_pos_site_id
 _symmetry_equiv_pos_as_xyz
  1  'x, y, z'
loop_
 _atom_site_type_symbol
 _atom_site_label
 _atom_site_symmetry_multiplicity
 _atom_site_fract_x
 _atom_site_fract_y
 _atom_site_fract_z
 _atom_site_occupancy
  Yb  Yb0  1  0.000000  0.628625  0.850895  1
  Yb  Yb1  1  0.000000  0.371375  0.149105  1
  Dy  Dy2  1  0.000000  0.128449  0.650803  1
  Dy  Dy3  1  0.000000  0.871551  0.349197  1
  B  B4  1  0.500000  0.474615  0.692061  1
  B  B5  1  0.500000  0.525385  0.307939  1
  B  B6  1  0.500000  0.974966  0.809160  1
  B  B7  1  0.500000  0.025034  0.190840  1
  B  B8  1  0.500000  0.288500  0.815668  1
  B  B9  1  0.500000  0.711500  0.184332  1
  B  B10  1  0.500000  0.786975  0.686199  1
  B  B11  1  0.500000  0.213025  0.313801  1
  B  B12  1  0.500000  0.363817  0.969599  1
  B  B13  1  0.500000  0.636183  0.030401  1
  B  B14  1  0.500000  0.863212  0.530426  1
  B  B15  1  0.500000  0.136788  0.469574  1
  B  B16  1  0.500000  0.387984  0.547357  1
  B  B17  1  0.500000  0.612016  0.452643  1
  B  B18  1  0.500000  0.885976  0.953280  1
  B  B19  1  0.500000  0.114024  0.046720  1
  Os  Os20  1  0.000000  0.136966  0.909487  1
  Os  Os21  1  0.000000  0.863034  0.090513  1
  Os  Os22  1  0.000000  0.640807  0.591643  1
  Os  Os23  1  0.000000  0.359193  0.408357  1
