# generated using pymatgen
data_Lu5Sc2Re4B24W
_symmetry_space_group_name_H-M   'P 1'
_cell_length_a   3.56670100
_cell_length_b   8.95213383
_cell_length_c   11.30383077
_cell_angle_alpha   90.06485946
_cell_angle_beta   90.00000000
_cell_angle_gamma   90.00000000
_symmetry_Int_Tables_number   1
_chemical_formula_structural   Lu5Sc2Re4B24W
_chemical_formula_sum   'Lu5 Sc2 Re4 B24 W1'
_cell_volume   360.92639080
_cell_formula_units_Z   1
loop_
 _symmetry_equiv_pos_site_id
 _symmetry_equiv_pos_as_xyz
  1  'x, y, z'
loop_
 _atom_site_type_symbol
 _atom_site_label
 _atom_site_symmetry_multiplicity
 _atom_site_fract_x
 _atom_site_fract_y
 _atom_site_fract_z
 _atom_site_occupancy
  Lu  Lu0  1  0.000000  0.322940  0.412319  1
  Lu  Lu1  1  0.000000  0.677296  0.586068  1
  Lu  Lu2  1  0.000000  0.820589  0.087189  1
  Lu  Lu3  1  0.000000  0.179677  0.914555  1
  Lu  Lu4  1  0.000000  0.945403  0.374582  1
  Sc  Sc5  1  0.000000  0.444704  0.127804  1
  Sc  Sc6  1  0.000000  0.556271  0.871230  1
  Re  Re7  1  0.000000  0.638249  0.320208  1
  Re  Re8  1  0.000000  0.354105  0.679842  1
  Re  Re9  1  0.000000  0.141686  0.180863  1
  Re  Re10  1  0.000000  0.863728  0.814830  1
  B  B11  1  0.500000  0.551897  0.433764  1
  B  B12  1  0.500000  0.444351  0.565752  1
  B  B13  1  0.500000  0.054515  0.065698  1
  B  B14  1  0.500000  0.946662  0.934091  1
  B  B15  1  0.500000  0.750633  0.419509  1
  B  B16  1  0.500000  0.244405  0.581590  1
  B  B17  1  0.500000  0.254301  0.080101  1
  B  B18  1  0.500000  0.747369  0.918534  1
  B  B19  1  0.500000  0.793289  0.263867  1
  B  B20  1  0.500000  0.203868  0.737254  1
  B  B21  1  0.500000  0.296069  0.234394  1
  B  B22  1  0.500000  0.704523  0.763630  1
  B  B23  1  0.500000  0.629025  0.182563  1
  B  B24  1  0.500000  0.369726  0.818309  1
  B  B25  1  0.500000  0.131453  0.315774  1
  B  B26  1  0.500000  0.872662  0.682218  1
  B  B27  1  0.500000  0.981031  0.211954  1
  B  B28  1  0.500000  0.021188  0.787653  1
  B  B29  1  0.500000  0.480484  0.286001  1
  B  B30  1  0.500000  0.518028  0.713103  1
  B  B31  1  0.500000  0.598236  0.025777  1
  B  B32  1  0.500000  0.402188  0.972831  1
  B  B33  1  0.500000  0.100900  0.478180  1
  B  B34  1  0.500000  0.902766  0.531797  1
  W  W35  1  0.000000  0.055782  0.626167  1
