# generated using pymatgen
data_Rb5BaTaAs4
_symmetry_space_group_name_H-M   'P 1'
_cell_length_a   10.87323914
_cell_length_b   10.87323872
_cell_length_c   8.38688105
_cell_angle_alpha   88.88705527
_cell_angle_beta   88.88705484
_cell_angle_gamma   120.71239873
_symmetry_Int_Tables_number   1
_chemical_formula_structural   Rb5BaTaAs4
_chemical_formula_sum   'Rb10 Ba2 Ta2 As8'
_cell_volume   851.82668442
_cell_formula_units_Z   2
loop_
 _symmetry_equiv_pos_site_id
 _symmetry_equiv_pos_as_xyz
  1  'x, y, z'
loop_
 _atom_site_type_symbol
 _atom_site_label
 _atom_site_symmetry_multiplicity
 _atom_site_fract_x
 _atom_site_fract_y
 _atom_site_fract_z
 _atom_site_occupancy
  Rb  Rb0  1  0.465700  0.526626  0.499116  1
  Rb  Rb1  1  0.060592  0.527488  0.499967  1
  Rb  Rb2  1  0.526626  0.465700  0.999116  1
  Rb  Rb3  1  0.527488  0.060592  0.999967  1
  Rb  Rb4  1  0.864850  0.143268  0.678055  1
  Rb  Rb5  1  0.289421  0.151367  0.704254  1
  Rb  Rb6  1  0.854696  0.714596  0.664791  1
  Rb  Rb7  1  0.143268  0.864850  0.178055  1
  Rb  Rb8  1  0.714596  0.854696  0.164791  1
  Rb  Rb9  1  0.151367  0.289421  0.204254  1
  Ba  Ba10  1  0.465502  0.935915  0.496527  1
  Ba  Ba11  1  0.935915  0.465502  0.996527  1
  Ta  Ta12  1  0.669562  0.332073  0.393738  1
  Ta  Ta13  1  0.332073  0.669562  0.893738  1
  As  As14  1  0.681089  0.335348  0.693618  1
  As  As15  1  0.335348  0.681089  0.193618  1
  As  As16  1  0.791578  0.202412  0.289876  1
  As  As17  1  0.410707  0.194825  0.317562  1
  As  As18  1  0.798818  0.583565  0.276785  1
  As  As19  1  0.202412  0.791578  0.789876  1
  As  As20  1  0.583565  0.798818  0.776785  1
  As  As21  1  0.194825  0.410707  0.817562  1
