# generated using pymatgen
data_CeGd2Dy2(SiB4)2
_symmetry_space_group_name_H-M   'P 1'
_cell_length_a   7.27083339
_cell_length_b   7.27083305
_cell_length_c   8.20770800
_cell_angle_alpha   90.00000000
_cell_angle_beta   90.00000000
_cell_angle_gamma   89.91434195
_symmetry_Int_Tables_number   1
_chemical_formula_structural   CeGd2Dy2(SiB4)2
_chemical_formula_sum   'Ce2 Gd4 Dy4 Si4 B16'
_cell_volume   433.90012700
_cell_formula_units_Z   2
loop_
 _symmetry_equiv_pos_site_id
 _symmetry_equiv_pos_as_xyz
  1  'x, y, z'
loop_
 _atom_site_type_symbol
 _atom_site_label
 _atom_site_symmetry_multiplicity
 _atom_site_fract_x
 _atom_site_fract_y
 _atom_site_fract_z
 _atom_site_occupancy
  Ce  Ce0  1  0.817679  0.682321  0.228876  1
  Ce  Ce1  1  0.817679  0.682321  0.771124  1
  Gd  Gd2  1  0.680307  0.180792  0.224115  1
  Gd  Gd3  1  0.319208  0.819693  0.775885  1
  Gd  Gd4  1  0.319208  0.819693  0.224115  1
  Gd  Gd5  1  0.680307  0.180792  0.775885  1
  Dy  Dy6  1  0.181333  0.318667  0.779598  1
  Dy  Dy7  1  0.181333  0.318667  0.220402  1
  Dy  Dy8  1  0.002270  0.001662  0.500000  1
  Dy  Dy9  1  0.498338  0.497730  0.500000  1
  Si  Si10  1  0.115173  0.612756  0.500000  1
  Si  Si11  1  0.887244  0.384827  0.500000  1
  Si  Si12  1  0.383246  0.116754  0.500000  1
  Si  Si13  1  0.613375  0.886625  0.500000  1
  B  B14  1  0.172867  0.040553  0.000000  1
  B  B15  1  0.828775  0.960898  0.000000  1
  B  B16  1  0.961486  0.172986  0.000000  1
  B  B17  1  0.327014  0.538514  0.000000  1
  B  B18  1  0.038953  0.827932  0.000000  1
  B  B19  1  0.672068  0.461047  0.000000  1
  B  B20  1  0.539102  0.671225  0.000000  1
  B  B21  1  0.459447  0.327133  0.000000  1
  B  B22  1  0.090536  0.589685  0.000000  1
  B  B23  1  0.910315  0.409464  0.000000  1
  B  B24  1  0.409089  0.090911  0.000000  1
  B  B25  1  0.591332  0.908668  0.000000  1
  B  B26  1  0.000743  0.999586  0.159853  1
  B  B27  1  0.000743  0.999586  0.840147  1
  B  B28  1  0.500414  0.499257  0.840147  1
  B  B29  1  0.500414  0.499257  0.159853  1
