# generated using pymatgen
data_Hf6Ti2Al14GaIr3Rh4
_symmetry_space_group_name_H-M   'P 1'
_cell_length_a   8.80663312
_cell_length_b   8.81264031
_cell_length_c   8.80660100
_cell_angle_alpha   120.27031687
_cell_angle_beta   119.71008405
_cell_angle_gamma   89.99841917
_symmetry_Int_Tables_number   1
_chemical_formula_structural   Hf6Ti2Al14GaIr3Rh4
_chemical_formula_sum   'Hf6 Ti2 Al14 Ga1 Ir3 Rh4'
_cell_volume   483.42986721
_cell_formula_units_Z   1
loop_
 _symmetry_equiv_pos_site_id
 _symmetry_equiv_pos_as_xyz
  1  'x, y, z'
loop_
 _atom_site_type_symbol
 _atom_site_label
 _atom_site_symmetry_multiplicity
 _atom_site_fract_x
 _atom_site_fract_y
 _atom_site_fract_z
 _atom_site_occupancy
  Hf  Hf0  1  0.794282  0.293193  0.080383  1
  Hf  Hf1  1  0.212795  0.293192  0.498904  1
  Hf  Hf2  1  0.204363  0.706320  0.501969  1
  Hf  Hf3  1  0.214417  0.716003  0.919597  1
  Hf  Hf4  1  0.796412  0.716013  0.501584  1
  Hf  Hf5  1  0.785523  0.283216  0.497742  1
  Ti  Ti6  1  0.379182  0.123078  0.743921  1
  Ti  Ti7  1  0.380569  0.637811  0.257233  1
  Al  Al8  1  0.161735  0.338521  0.176775  1
  Al  Al9  1  0.161213  0.987048  0.825837  1
  Al  Al10  1  0.157383  0.341999  0.818925  1
  Al  Al11  1  0.523076  0.341987  0.184632  1
  Al  Al12  1  0.838982  0.659712  0.820727  1
  Al  Al13  1  0.839120  0.015770  0.176637  1
  Al  Al14  1  0.838341  0.660509  0.175411  1
  Al  Al15  1  0.485094  0.660508  0.822175  1
  Al  Al16  1  0.380056  0.121384  0.260043  1
  Al  Al17  1  0.861344  0.121370  0.741335  1
  Al  Al18  1  0.620109  0.876227  0.256102  1
  Al  Al19  1  0.619876  0.361975  0.742093  1
  Al  Al20  1  0.617589  0.877526  0.738968  1
  Al  Al21  1  0.138553  0.877513  0.259917  1
  Ga  Ga22  1  0.994165  0.494120  0.499952  1
  Ir  Ir23  1  0.001724  0.001335  0.502760  1
  Ir  Ir24  1  0.498545  0.001338  0.999606  1
  Ir  Ir25  1  0.497684  0.497463  0.999800  1
  Rh  Rh26  1  0.499077  0.498505  0.498406  1
  Rh  Rh27  1  0.000063  0.498458  0.999392  1
  Rh  Rh28  1  0.999970  0.999718  0.999740  1
  Rh  Rh29  1  0.498752  0.998186  0.499431  1
