# generated using pymatgen
data_LiEu3ZrO6
_symmetry_space_group_name_H-M   'P 1'
_cell_length_a   6.81907272
_cell_length_b   6.81907319
_cell_length_c   6.81907408
_cell_angle_alpha   92.43124157
_cell_angle_beta   92.43124396
_cell_angle_gamma   92.43124659
_symmetry_Int_Tables_number   1
_chemical_formula_structural   LiEu3ZrO6
_chemical_formula_sum   'Li2 Eu6 Zr2 O12'
_cell_volume   316.20395971
_cell_formula_units_Z   2
loop_
 _symmetry_equiv_pos_site_id
 _symmetry_equiv_pos_as_xyz
  1  'x, y, z'
loop_
 _atom_site_type_symbol
 _atom_site_label
 _atom_site_symmetry_multiplicity
 _atom_site_fract_x
 _atom_site_fract_y
 _atom_site_fract_z
 _atom_site_occupancy
  Li  Li0  1  0.250000  0.250000  0.250000  1
  Li  Li1  1  0.750000  0.750000  0.750000  1
  Eu  Eu2  1  0.095923  0.404077  0.750000  1
  Eu  Eu3  1  0.750000  0.095923  0.404077  1
  Eu  Eu4  1  0.404077  0.750000  0.095923  1
  Eu  Eu5  1  0.250000  0.904077  0.595923  1
  Eu  Eu6  1  0.595923  0.250000  0.904077  1
  Eu  Eu7  1  0.904077  0.595923  0.250000  1
  Zr  Zr8  1  0.500000  0.500000  0.500000  1
  Zr  Zr9  1  0.000000  0.000000  0.000000  1
  O  O10  1  0.451055  0.573855  0.797918  1
  O  O11  1  0.797918  0.451055  0.573855  1
  O  O12  1  0.573855  0.797918  0.451055  1
  O  O13  1  0.297918  0.073855  0.951055  1
  O  O14  1  0.951055  0.297918  0.073855  1
  O  O15  1  0.073855  0.951055  0.297918  1
  O  O16  1  0.548945  0.426145  0.202082  1
  O  O17  1  0.202082  0.548945  0.426145  1
  O  O18  1  0.426145  0.202082  0.548945  1
  O  O19  1  0.702082  0.926145  0.048945  1
  O  O20  1  0.048945  0.702082  0.926145  1
  O  O21  1  0.926145  0.048945  0.702082  1
