# generated using pymatgen
data_LaEu(TcO4)6
_symmetry_space_group_name_H-M   'P 1'
_cell_length_a   10.20777300
_cell_length_b   10.20777471
_cell_length_c   6.35210100
_cell_angle_alpha   90.00000000
_cell_angle_beta   90.00000000
_cell_angle_gamma   119.99999121
_symmetry_Int_Tables_number   1
_chemical_formula_structural   LaEu(TcO4)6
_chemical_formula_sum   'La1 Eu1 Tc6 O24'
_cell_volume   573.20523119
_cell_formula_units_Z   1
loop_
 _symmetry_equiv_pos_site_id
 _symmetry_equiv_pos_as_xyz
  1  'x, y, z'
loop_
 _atom_site_type_symbol
 _atom_site_label
 _atom_site_symmetry_multiplicity
 _atom_site_fract_x
 _atom_site_fract_y
 _atom_site_fract_z
 _atom_site_occupancy
  La  La0  1  0.333333  0.666667  0.250000  1
  Eu  Eu1  1  0.666667  0.333333  0.750000  1
  Tc  Tc2  1  0.610341  0.702048  0.750000  1
  Tc  Tc3  1  0.395157  0.293732  0.250000  1
  Tc  Tc4  1  0.091707  0.389659  0.750000  1
  Tc  Tc5  1  0.898575  0.604843  0.250000  1
  Tc  Tc6  1  0.297952  0.908293  0.750000  1
  Tc  Tc7  1  0.706268  0.101425  0.250000  1
  O  O8  1  0.951085  0.439287  0.750000  1
  O  O9  1  0.043903  0.561682  0.250000  1
  O  O10  1  0.488203  0.048915  0.750000  1
  O  O11  1  0.517777  0.956097  0.250000  1
  O  O12  1  0.560713  0.511797  0.750000  1
  O  O13  1  0.438318  0.482223  0.250000  1
  O  O14  1  0.802376  0.813623  0.750000  1
  O  O15  1  0.203794  0.176404  0.250000  1
  O  O16  1  0.011248  0.197624  0.750000  1
  O  O17  1  0.972610  0.796206  0.250000  1
  O  O18  1  0.186377  0.988752  0.750000  1
  O  O19  1  0.823596  0.027390  0.250000  1
  O  O20  1  0.535031  0.741271  0.974016  1
  O  O21  1  0.472718  0.258222  0.025237  1
  O  O22  1  0.206239  0.464969  0.974016  1
  O  O23  1  0.472718  0.258222  0.474763  1
  O  O24  1  0.785505  0.527282  0.025237  1
  O  O25  1  0.535031  0.741271  0.525984  1
  O  O26  1  0.258729  0.793761  0.974016  1
  O  O27  1  0.785505  0.527282  0.474763  1
  O  O28  1  0.741778  0.214495  0.025237  1
  O  O29  1  0.206239  0.464969  0.525984  1
  O  O30  1  0.741778  0.214495  0.474763  1
  O  O31  1  0.258729  0.793761  0.525984  1
