# generated using pymatgen
data_Lu8Hf9Si16W3
_symmetry_space_group_name_H-M   'P 1'
_cell_length_a   7.12526512
_cell_length_b   7.12526572
_cell_length_c   13.03001530
_cell_angle_alpha   90.07798550
_cell_angle_beta   90.07798393
_cell_angle_gamma   90.06850277
_symmetry_Int_Tables_number   1
_chemical_formula_structural   Lu8Hf9Si16W3
_chemical_formula_sum   'Lu8 Hf9 Si16 W3'
_cell_volume   661.52445451
_cell_formula_units_Z   1
loop_
 _symmetry_equiv_pos_site_id
 _symmetry_equiv_pos_as_xyz
  1  'x, y, z'
loop_
 _atom_site_type_symbol
 _atom_site_label
 _atom_site_symmetry_multiplicity
 _atom_site_fract_x
 _atom_site_fract_y
 _atom_site_fract_z
 _atom_site_occupancy
  Lu  Lu0  1  0.999532  0.344399  0.215459  1
  Lu  Lu1  1  0.003490  0.656508  0.714777  1
  Lu  Lu2  1  0.154661  0.500002  0.464002  1
  Lu  Lu3  1  0.499998  0.845339  0.035998  1
  Lu  Lu4  1  0.846265  0.501890  0.967912  1
  Lu  Lu5  1  0.498110  0.153735  0.532088  1
  Lu  Lu6  1  0.343492  0.996510  0.785223  1
  Lu  Lu7  1  0.655601  0.000468  0.284541  1
  Hf  Hf8  1  0.675558  0.324442  0.750000  1
  Hf  Hf9  1  0.145725  0.994216  0.373715  1
  Hf  Hf10  1  0.855465  0.003855  0.876458  1
  Hf  Hf11  1  0.504619  0.648113  0.621473  1
  Hf  Hf12  1  0.351887  0.495381  0.878527  1
  Hf  Hf13  1  0.494169  0.353420  0.125759  1
  Hf  Hf14  1  0.646580  0.505831  0.374241  1
  Hf  Hf15  1  0.996145  0.144535  0.623542  1
  Hf  Hf16  1  0.005784  0.854275  0.126285  1
  Si  Si17  1  0.358237  0.298057  0.317744  1
  Si  Si18  1  0.640416  0.705036  0.818296  1
  Si  Si19  1  0.203319  0.858887  0.566670  1
  Si  Si20  1  0.141113  0.796681  0.933330  1
  Si  Si21  1  0.797476  0.141281  0.068116  1
  Si  Si22  1  0.858719  0.202524  0.431884  1
  Si  Si23  1  0.294964  0.359584  0.681704  1
  Si  Si24  1  0.701943  0.641763  0.182256  1
  Si  Si25  1  0.298304  0.049636  0.183954  1
  Si  Si26  1  0.702175  0.948291  0.681925  1
  Si  Si27  1  0.450014  0.797842  0.432104  1
  Si  Si28  1  0.202158  0.549986  0.067896  1
  Si  Si29  1  0.546385  0.200043  0.935903  1
  Si  Si30  1  0.799957  0.453615  0.564097  1
  Si  Si31  1  0.051709  0.297825  0.818075  1
  Si  Si32  1  0.950364  0.701696  0.316046  1
  W  W33  1  0.176524  0.175130  0.001567  1
  W  W34  1  0.824870  0.823476  0.498433  1
  W  W35  1  0.324274  0.675726  0.250000  1
