# generated using pymatgen
data_Tb10Pb6SCl
_symmetry_space_group_name_H-M   'P 1'
_cell_length_a   9.21090200
_cell_length_b   9.21090139
_cell_length_c   6.69920200
_cell_angle_alpha   90.00000000
_cell_angle_beta   90.00000000
_cell_angle_gamma   119.99999500
_symmetry_Int_Tables_number   1
_chemical_formula_structural   Tb10Pb6SCl
_chemical_formula_sum   'Tb10 Pb6 S1 Cl1'
_cell_volume   492.21860065
_cell_formula_units_Z   1
loop_
 _symmetry_equiv_pos_site_id
 _symmetry_equiv_pos_as_xyz
  1  'x, y, z'
loop_
 _atom_site_type_symbol
 _atom_site_label
 _atom_site_symmetry_multiplicity
 _atom_site_fract_x
 _atom_site_fract_y
 _atom_site_fract_z
 _atom_site_occupancy
  Tb  Tb0  1  0.250442  0.000000  0.240079  1
  Tb  Tb1  1  0.749558  0.000000  0.759921  1
  Tb  Tb2  1  0.000000  0.250442  0.240079  1
  Tb  Tb3  1  0.000000  0.749558  0.759921  1
  Tb  Tb4  1  0.749558  0.749558  0.240079  1
  Tb  Tb5  1  0.250442  0.250442  0.759921  1
  Tb  Tb6  1  0.333333  0.666667  0.000000  1
  Tb  Tb7  1  0.666667  0.333333  0.000000  1
  Tb  Tb8  1  0.666667  0.333333  0.500000  1
  Tb  Tb9  1  0.333333  0.666667  0.500000  1
  Pb  Pb10  1  0.605832  0.000000  0.250430  1
  Pb  Pb11  1  0.394168  0.000000  0.749570  1
  Pb  Pb12  1  0.000000  0.605832  0.250430  1
  Pb  Pb13  1  0.000000  0.394168  0.749570  1
  Pb  Pb14  1  0.394168  0.394168  0.250430  1
  Pb  Pb15  1  0.605832  0.605832  0.749570  1
  S  S16  1  0.000000  0.000000  0.000000  1
  Cl  Cl17  1  0.000000  0.000000  0.500000  1
