# generated using pymatgen
data_Hf7Sc2TaRe3Si
_symmetry_space_group_name_H-M   'P 1'
_cell_length_a   8.70880513
_cell_length_b   8.70880454
_cell_length_c   8.58944100
_cell_angle_alpha   90.00000000
_cell_angle_beta   90.00000000
_cell_angle_gamma   119.94163042
_symmetry_Int_Tables_number   1
_chemical_formula_structural   Hf7Sc2TaRe3Si
_chemical_formula_sum   'Hf14 Sc4 Ta2 Re6 Si2'
_cell_volume   564.50499313
_cell_formula_units_Z   2
loop_
 _symmetry_equiv_pos_site_id
 _symmetry_equiv_pos_as_xyz
  1  'x, y, z'
loop_
 _atom_site_type_symbol
 _atom_site_label
 _atom_site_symmetry_multiplicity
 _atom_site_fract_x
 _atom_site_fract_y
 _atom_site_fract_z
 _atom_site_occupancy
  Hf  Hf0  1  0.196925  0.803075  0.453998  1
  Hf  Hf1  1  0.197060  0.393688  0.454095  1
  Hf  Hf2  1  0.606312  0.802940  0.454095  1
  Hf  Hf3  1  0.803549  0.196451  0.546593  1
  Hf  Hf4  1  0.802951  0.606617  0.546492  1
  Hf  Hf5  1  0.393383  0.197049  0.546492  1
  Hf  Hf6  1  0.803549  0.196451  0.953407  1
  Hf  Hf7  1  0.802951  0.606617  0.953508  1
  Hf  Hf8  1  0.393383  0.197049  0.953508  1
  Hf  Hf9  1  0.196925  0.803075  0.046002  1
  Hf  Hf10  1  0.197060  0.393688  0.045905  1
  Hf  Hf11  1  0.606312  0.802940  0.045905  1
  Hf  Hf12  1  0.460696  0.921508  0.750000  1
  Hf  Hf13  1  0.078492  0.539304  0.750000  1
  Sc  Sc14  1  0.538829  0.461171  0.250000  1
  Sc  Sc15  1  0.538842  0.077469  0.250000  1
  Sc  Sc16  1  0.922531  0.461158  0.250000  1
  Sc  Sc17  1  0.460220  0.539780  0.750000  1
  Ta  Ta18  1  0.999873  0.000127  0.498219  1
  Ta  Ta19  1  0.999873  0.000127  0.001781  1
  Re  Re20  1  0.887989  0.112011  0.250000  1
  Re  Re21  1  0.888210  0.776073  0.250000  1
  Re  Re22  1  0.223927  0.111790  0.250000  1
  Re  Re23  1  0.112486  0.887514  0.750000  1
  Re  Re24  1  0.110919  0.224054  0.750000  1
  Re  Re25  1  0.775946  0.889081  0.750000  1
  Si  Si26  1  0.333150  0.666850  0.250000  1
  Si  Si27  1  0.667656  0.332344  0.750000  1
