# generated using pymatgen
data_Lu6B4Ir7Rh3
_symmetry_space_group_name_H-M   'P 1'
_cell_length_a   9.73117104
_cell_length_b   9.75544868
_cell_length_c   3.20427800
_cell_angle_alpha   90.00000000
_cell_angle_beta   90.00000000
_cell_angle_gamma   90.07140569
_symmetry_Int_Tables_number   1
_chemical_formula_structural   Lu6B4Ir7Rh3
_chemical_formula_sum   'Lu6 B4 Ir7 Rh3'
_cell_volume   304.18808960
_cell_formula_units_Z   1
loop_
 _symmetry_equiv_pos_site_id
 _symmetry_equiv_pos_as_xyz
  1  'x, y, z'
loop_
 _atom_site_type_symbol
 _atom_site_label
 _atom_site_symmetry_multiplicity
 _atom_site_fract_x
 _atom_site_fract_y
 _atom_site_fract_z
 _atom_site_occupancy
  Lu  Lu0  1  0.824939  0.325365  0.000000  1
  Lu  Lu1  1  0.325310  0.174508  0.000000  1
  Lu  Lu2  1  0.674599  0.825011  0.000000  1
  Lu  Lu3  1  0.174210  0.675601  0.000000  1
  Lu  Lu4  1  0.000003  0.000271  0.000000  1
  Lu  Lu5  1  0.497524  0.499283  0.000000  1
  B  B6  1  0.620772  0.120833  0.000000  1
  B  B7  1  0.118661  0.378436  0.000000  1
  B  B8  1  0.878878  0.620171  0.000000  1
  B  B9  1  0.379945  0.879580  0.000000  1
  Ir  Ir10  1  0.072462  0.228846  0.500000  1
  Ir  Ir11  1  0.228270  0.929272  0.500000  1
  Ir  Ir12  1  0.772420  0.070479  0.500000  1
  Ir  Ir13  1  0.929502  0.771469  0.500000  1
  Ir  Ir14  1  0.429630  0.728619  0.500000  1
  Ir  Ir15  1  0.571860  0.272187  0.500000  1
  Ir  Ir16  1  0.727645  0.570164  0.500000  1
  Rh  Rh17  1  0.272223  0.429394  0.500000  1
  Rh  Rh18  1  0.500192  0.000797  0.500000  1
  Rh  Rh19  1  0.000955  0.499716  0.500000  1
