# generated using pymatgen
data_Ta4Fe3Co3Os2
_symmetry_space_group_name_H-M   'P 1'
_cell_length_a   4.82580700
_cell_length_b   4.82580722
_cell_length_c   8.15702200
_cell_angle_alpha   90.00000000
_cell_angle_beta   90.00000000
_cell_angle_gamma   119.99999163
_symmetry_Int_Tables_number   1
_chemical_formula_structural   Ta4Fe3Co3Os2
_chemical_formula_sum   'Ta4 Fe3 Co3 Os2'
_cell_volume   164.51375682
_cell_formula_units_Z   1
loop_
 _symmetry_equiv_pos_site_id
 _symmetry_equiv_pos_as_xyz
  1  'x, y, z'
loop_
 _atom_site_type_symbol
 _atom_site_label
 _atom_site_symmetry_multiplicity
 _atom_site_fract_x
 _atom_site_fract_y
 _atom_site_fract_z
 _atom_site_occupancy
  Ta  Ta0  1  0.333333  0.666667  0.429675  1
  Ta  Ta1  1  0.666667  0.333333  0.572630  1
  Ta  Ta2  1  0.666667  0.333333  0.927370  1
  Ta  Ta3  1  0.333333  0.666667  0.070325  1
  Fe  Fe4  1  0.828158  0.171842  0.250000  1
  Fe  Fe5  1  0.828158  0.656317  0.250000  1
  Fe  Fe6  1  0.343683  0.171842  0.250000  1
  Co  Co7  1  0.171144  0.828856  0.750000  1
  Co  Co8  1  0.171144  0.342286  0.750000  1
  Co  Co9  1  0.657714  0.828856  0.750000  1
  Os  Os10  1  0.000000  0.000000  0.503178  1
  Os  Os11  1  0.000000  0.000000  0.996822  1
