# generated using pymatgen
data_Nd4TiMn5(PtO10)2
_symmetry_space_group_name_H-M   'P 1'
_cell_length_a   5.92111600
_cell_length_b   7.65689749
_cell_length_c   8.82875916
_cell_angle_alpha   89.81868206
_cell_angle_beta   90.00000000
_cell_angle_gamma   90.00000000
_symmetry_Int_Tables_number   1
_chemical_formula_structural   Nd4TiMn5(PtO10)2
_chemical_formula_sum   'Nd4 Ti1 Mn5 Pt2 O20'
_cell_volume   400.27078922
_cell_formula_units_Z   1
loop_
 _symmetry_equiv_pos_site_id
 _symmetry_equiv_pos_as_xyz
  1  'x, y, z'
loop_
 _atom_site_type_symbol
 _atom_site_label
 _atom_site_symmetry_multiplicity
 _atom_site_fract_x
 _atom_site_fract_y
 _atom_site_fract_z
 _atom_site_occupancy
  Nd  Nd0  1  0.004837  0.360088  0.671979  1
  Nd  Nd1  1  0.004837  0.639912  0.328021  1
  Nd  Nd2  1  0.997800  0.860181  0.828813  1
  Nd  Nd3  1  0.997800  0.139819  0.171187  1
  Ti  Ti4  1  0.724706  0.500000  0.000000  1
  Mn  Mn5  1  0.494959  0.082044  0.849347  1
  Mn  Mn6  1  0.494959  0.917956  0.150653  1
  Mn  Mn7  1  0.505485  0.589087  0.646286  1
  Mn  Mn8  1  0.505485  0.410913  0.353714  1
  Mn  Mn9  1  0.257518  0.000000  0.500000  1
  Pt  Pt10  1  0.256713  0.500000  0.000000  1
  Pt  Pt11  1  0.746716  0.000000  0.500000  1
  O  O12  1  0.245201  0.902407  0.293571  1
  O  O13  1  0.245201  0.097593  0.706429  1
  O  O14  1  0.752119  0.397428  0.209510  1
  O  O15  1  0.752119  0.602572  0.790490  1
  O  O16  1  0.754486  0.101343  0.713445  1
  O  O17  1  0.754486  0.898657  0.286555  1
  O  O18  1  0.246948  0.601620  0.785765  1
  O  O19  1  0.246948  0.398380  0.214235  1
  O  O20  1  0.509519  0.337600  0.929084  1
  O  O21  1  0.509519  0.662400  0.070916  1
  O  O22  1  0.489004  0.844488  0.565248  1
  O  O23  1  0.489004  0.155512  0.434752  1
  O  O24  1  0.272129  0.000000  0.000000  1
  O  O25  1  0.728772  0.500000  0.500000  1
  O  O26  1  0.718215  0.000000  0.000000  1
  O  O27  1  0.282675  0.500000  0.500000  1
  O  O28  1  0.013026  0.162628  0.445404  1
  O  O29  1  0.013026  0.837372  0.554596  1
  O  O30  1  0.992895  0.661239  0.054208  1
  O  O31  1  0.992895  0.338761  0.945792  1
