# generated using pymatgen
data_Ta3Ti3Co15Si7Ir
_symmetry_space_group_name_H-M   'P 1'
_cell_length_a   7.92317592
_cell_length_b   7.92355066
_cell_length_c   7.92884189
_cell_angle_alpha   59.77080775
_cell_angle_beta   59.77438065
_cell_angle_gamma   59.75622655
_symmetry_Int_Tables_number   1
_chemical_formula_structural   Ta3Ti3Co15Si7Ir
_chemical_formula_sum   'Ta3 Ti3 Co15 Si7 Ir1'
_cell_volume   350.11568170
_cell_formula_units_Z   1
loop_
 _symmetry_equiv_pos_site_id
 _symmetry_equiv_pos_as_xyz
  1  'x, y, z'
loop_
 _atom_site_type_symbol
 _atom_site_label
 _atom_site_symmetry_multiplicity
 _atom_site_fract_x
 _atom_site_fract_y
 _atom_site_fract_z
 _atom_site_occupancy
  Ta  Ta0  1  0.799274  0.199159  0.799019  1
  Ta  Ta1  1  0.798860  0.798013  0.199977  1
  Ta  Ta2  1  0.198992  0.198103  0.804138  1
  Ti  Ti3  1  0.201043  0.796764  0.797558  1
  Ti  Ti4  1  0.200255  0.801453  0.200644  1
  Ti  Ti5  1  0.802180  0.199415  0.200989  1
  Co  Co6  1  0.498669  0.834727  0.833561  1
  Co  Co7  1  0.621990  0.621694  0.141581  1
  Co  Co8  1  0.162376  0.162546  0.505649  1
  Co  Co9  1  0.833521  0.834597  0.498704  1
  Co  Co10  1  0.165958  0.167046  0.166839  1
  Co  Co11  1  0.833644  0.834018  0.833066  1
  Co  Co12  1  0.380846  0.380232  0.857815  1
  Co  Co13  1  0.834013  0.498324  0.834128  1
  Co  Co14  1  0.620372  0.619615  0.619937  1
  Co  Co15  1  0.380700  0.858812  0.380339  1
  Co  Co16  1  0.141788  0.621075  0.622112  1
  Co  Co17  1  0.621337  0.142706  0.621932  1
  Co  Co18  1  0.162428  0.505899  0.162101  1
  Co  Co19  1  0.857959  0.380727  0.381188  1
  Co  Co20  1  0.505373  0.163193  0.162430  1
  Si  Si21  1  0.001192  0.998026  0.497161  1
  Si  Si22  1  0.500246  0.992586  0.501093  1
  Si  Si23  1  0.504132  0.505978  0.504179  1
  Si  Si24  1  0.999447  0.498810  0.999326  1
  Si  Si25  1  0.499205  0.503055  0.992708  1
  Si  Si26  1  0.496944  0.998143  0.001360  1
  Si  Si27  1  0.994085  0.502486  0.499328  1
  Ir  Ir28  1  0.383172  0.382798  0.381138  1
