# generated using pymatgen
data_SrAc(Si2Ir3)2
_symmetry_space_group_name_H-M   'P 1'
_cell_length_a   6.80311195
_cell_length_b   6.80311125
_cell_length_c   6.80311307
_cell_angle_alpha   130.07926267
_cell_angle_beta   115.83666004
_cell_angle_gamma   85.43133861
_symmetry_Int_Tables_number   1
_chemical_formula_structural   SrAc(Si2Ir3)2
_chemical_formula_sum   'Sr1 Ac1 Si4 Ir6'
_cell_volume   207.40174409
_cell_formula_units_Z   1
loop_
 _symmetry_equiv_pos_site_id
 _symmetry_equiv_pos_as_xyz
  1  'x, y, z'
loop_
 _atom_site_type_symbol
 _atom_site_label
 _atom_site_symmetry_multiplicity
 _atom_site_fract_x
 _atom_site_fract_y
 _atom_site_fract_z
 _atom_site_occupancy
  Sr  Sr0  1  0.250000  0.977357  0.727357  1
  Ac  Ac1  1  0.750000  0.021976  0.271976  1
  Si  Si2  1  0.086610  0.295251  0.208641  1
  Si  Si3  1  0.927598  0.723693  0.796096  1
  Si  Si4  1  0.413390  0.622031  0.208641  1
  Si  Si5  1  0.572402  0.368498  0.796096  1
  Ir  Ir6  1  0.508815  0.497398  0.506212  1
  Ir  Ir7  1  0.991185  0.497398  0.988582  1
  Ir  Ir8  1  0.278908  0.999461  0.277644  1
  Ir  Ir9  1  0.721817  0.999461  0.720553  1
  Ir  Ir10  1  0.221092  0.498737  0.720553  1
  Ir  Ir11  1  0.778183  0.498737  0.277644  1
