# generated using pymatgen
data_LaPr2Co(P3Rh4)2
_symmetry_space_group_name_H-M   'P 1'
_cell_length_a   3.94073100
_cell_length_b   11.32186400
_cell_length_c   12.98649800
_cell_angle_alpha   90.00000000
_cell_angle_beta   90.00000000
_cell_angle_gamma   90.00000000
_symmetry_Int_Tables_number   1
_chemical_formula_structural   LaPr2Co(P3Rh4)2
_chemical_formula_sum   'La2 Pr4 Co2 P12 Rh16'
_cell_volume   579.41105484
_cell_formula_units_Z   2
loop_
 _symmetry_equiv_pos_site_id
 _symmetry_equiv_pos_as_xyz
  1  'x, y, z'
loop_
 _atom_site_type_symbol
 _atom_site_label
 _atom_site_symmetry_multiplicity
 _atom_site_fract_x
 _atom_site_fract_y
 _atom_site_fract_z
 _atom_site_occupancy
  La  La0  1  0.000000  0.500000  0.521864  1
  La  La1  1  0.500000  0.000000  0.478136  1
  Pr  Pr2  1  0.500000  0.816167  0.201292  1
  Pr  Pr3  1  0.500000  0.183833  0.201292  1
  Pr  Pr4  1  0.000000  0.683833  0.798708  1
  Pr  Pr5  1  0.000000  0.316167  0.798708  1
  Co  Co6  1  0.000000  0.500000  0.984548  1
  Co  Co7  1  0.500000  0.000000  0.015452  1
  P  P8  1  0.500000  0.500000  0.886350  1
  P  P9  1  0.000000  0.000000  0.113650  1
  P  P10  1  0.500000  0.500000  0.345028  1
  P  P11  1  0.000000  0.000000  0.654972  1
  P  P12  1  0.500000  0.311208  0.618395  1
  P  P13  1  0.500000  0.688792  0.618395  1
  P  P14  1  0.000000  0.188792  0.381605  1
  P  P15  1  0.000000  0.811208  0.381605  1
  P  P16  1  0.500000  0.853985  0.897044  1
  P  P17  1  0.500000  0.146015  0.897044  1
  P  P18  1  0.000000  0.646015  0.102956  1
  P  P19  1  0.000000  0.353985  0.102956  1
  Rh  Rh20  1  0.500000  0.500000  0.166206  1
  Rh  Rh21  1  0.000000  0.000000  0.833794  1
  Rh  Rh22  1  0.500000  0.500000  0.704648  1
  Rh  Rh23  1  0.000000  0.000000  0.295352  1
  Rh  Rh24  1  0.500000  0.337174  0.996930  1
  Rh  Rh25  1  0.500000  0.662826  0.996930  1
  Rh  Rh26  1  0.000000  0.162826  0.003070  1
  Rh  Rh27  1  0.000000  0.837174  0.003070  1
  Rh  Rh28  1  0.500000  0.293173  0.429568  1
  Rh  Rh29  1  0.500000  0.706827  0.429568  1
  Rh  Rh30  1  0.000000  0.206827  0.570432  1
  Rh  Rh31  1  0.000000  0.793173  0.570432  1
  Rh  Rh32  1  0.500000  0.875947  0.712373  1
  Rh  Rh33  1  0.500000  0.124053  0.712373  1
  Rh  Rh34  1  0.000000  0.624053  0.287627  1
  Rh  Rh35  1  0.000000  0.375947  0.287627  1
