# generated using pymatgen
data_Sr2Nb3Ni9P7
_symmetry_space_group_name_H-M   'P 1'
_cell_length_a   3.77558000
_cell_length_b   9.44832571
_cell_length_c   9.44832600
_cell_angle_alpha   120.00000103
_cell_angle_beta   90.00000000
_cell_angle_gamma   90.00000000
_symmetry_Int_Tables_number   1
_chemical_formula_structural   Sr2Nb3Ni9P7
_chemical_formula_sum   'Sr2 Nb3 Ni9 P7'
_cell_volume   291.89323490
_cell_formula_units_Z   1
loop_
 _symmetry_equiv_pos_site_id
 _symmetry_equiv_pos_as_xyz
  1  'x, y, z'
loop_
 _atom_site_type_symbol
 _atom_site_label
 _atom_site_symmetry_multiplicity
 _atom_site_fract_x
 _atom_site_fract_y
 _atom_site_fract_z
 _atom_site_occupancy
  Sr  Sr0  1  0.000000  0.666667  0.333333  1
  Sr  Sr1  1  0.500000  0.333333  0.666667  1
  Nb  Nb2  1  0.500000  0.778059  0.894422  1
  Nb  Nb3  1  0.500000  0.116363  0.221941  1
  Nb  Nb4  1  0.500000  0.105578  0.883637  1
  Ni  Ni5  1  0.000000  0.572684  0.939186  1
  Ni  Ni6  1  0.000000  0.366500  0.427316  1
  Ni  Ni7  1  0.000000  0.060814  0.633500  1
  Ni  Ni8  1  0.000000  0.872069  0.152628  1
  Ni  Ni9  1  0.000000  0.280560  0.127931  1
  Ni  Ni10  1  0.000000  0.847372  0.719440  1
  Ni  Ni11  1  0.500000  0.946707  0.386015  1
  Ni  Ni12  1  0.500000  0.439309  0.053293  1
  Ni  Ni13  1  0.500000  0.613985  0.560691  1
  P  P14  1  0.500000  0.707836  0.111628  1
  P  P15  1  0.500000  0.403793  0.292164  1
  P  P16  1  0.500000  0.888372  0.596207  1
  P  P17  1  0.000000  0.000000  0.000000  1
  P  P18  1  0.000000  0.591151  0.691874  1
  P  P19  1  0.000000  0.100723  0.408849  1
  P  P20  1  0.000000  0.308126  0.899277  1
