# generated using pymatgen
data_Tb3Lu3Al24Ru7Rh
_symmetry_space_group_name_H-M   'P 1'
_cell_length_a   8.78613693
_cell_length_b   8.78898253
_cell_length_c   9.55079900
_cell_angle_alpha   89.99999911
_cell_angle_beta   89.86742260
_cell_angle_gamma   120.01071298
_symmetry_Int_Tables_number   1
_chemical_formula_structural   Tb3Lu3Al24Ru7Rh
_chemical_formula_sum   'Tb3 Lu3 Al24 Ru7 Rh1'
_cell_volume   638.64344993
_cell_formula_units_Z   1
loop_
 _symmetry_equiv_pos_site_id
 _symmetry_equiv_pos_as_xyz
  1  'x, y, z'
loop_
 _atom_site_type_symbol
 _atom_site_label
 _atom_site_symmetry_multiplicity
 _atom_site_fract_x
 _atom_site_fract_y
 _atom_site_fract_z
 _atom_site_occupancy
  Tb  Tb0  1  0.613919  0.806959  0.750627  1
  Tb  Tb1  1  0.193146  0.807663  0.750710  1
  Tb  Tb2  1  0.193146  0.385485  0.750710  1
  Lu  Lu3  1  0.389999  0.195000  0.249402  1
  Lu  Lu4  1  0.804656  0.193497  0.248877  1
  Lu  Lu5  1  0.804656  0.611158  0.248877  1
  Al  Al6  1  0.438980  0.878597  0.250097  1
  Al  Al7  1  0.120725  0.560363  0.249596  1
  Al  Al8  1  0.438980  0.560383  0.250097  1
  Al  Al9  1  0.562474  0.124058  0.749738  1
  Al  Al10  1  0.876246  0.438123  0.751088  1
  Al  Al11  1  0.562474  0.438415  0.749738  1
  Al  Al12  1  0.164455  0.839875  0.420161  1
  Al  Al13  1  0.164455  0.324581  0.420161  1
  Al  Al14  1  0.675276  0.837638  0.419572  1
  Al  Al15  1  0.835116  0.161276  0.574986  1
  Al  Al16  1  0.835116  0.673839  0.574986  1
  Al  Al17  1  0.326318  0.163159  0.575279  1
  Al  Al18  1  0.836683  0.163193  0.925428  1
  Al  Al19  1  0.836683  0.673489  0.925428  1
  Al  Al20  1  0.326683  0.163341  0.925303  1
  Al  Al21  1  0.162405  0.837534  0.079381  1
  Al  Al22  1  0.162405  0.324872  0.079381  1
  Al  Al23  1  0.674626  0.837313  0.079774  1
  Al  Al24  1  0.335416  0.667708  0.515474  1
  Al  Al25  1  0.665426  0.332713  0.479407  1
  Al  Al26  1  0.666547  0.333273  0.020310  1
  Al  Al27  1  0.333153  0.666576  0.984757  1
  Al  Al28  1  0.999650  0.999825  0.250034  1
  Al  Al29  1  0.000506  0.000253  0.750114  1
  Ru  Ru30  1  0.999924  0.999962  0.499943  1
  Ru  Ru31  1  0.999801  0.999900  0.000140  1
  Ru  Ru32  1  0.500901  0.001817  0.497962  1
  Ru  Ru33  1  0.500901  0.499085  0.497962  1
  Ru  Ru34  1  0.500616  0.001524  0.001783  1
  Ru  Ru35  1  0.998077  0.499039  0.002124  1
  Ru  Ru36  1  0.500616  0.499092  0.001783  1
  Rh  Rh37  1  0.998843  0.499421  0.498811  1
