# generated using pymatgen
data_Tm6Si24Ru7Pt
_symmetry_space_group_name_H-M   'P 1'
_cell_length_a   10.08860103
_cell_length_b   10.08860287
_cell_length_c   8.10427500
_cell_angle_alpha   89.99572352
_cell_angle_beta   89.99571784
_cell_angle_gamma   132.62351371
_symmetry_Int_Tables_number   1
_chemical_formula_structural   Tm6Si24Ru7Pt
_chemical_formula_sum   'Tm6 Si24 Ru7 Pt1'
_cell_volume   606.94211835
_cell_formula_units_Z   1
loop_
 _symmetry_equiv_pos_site_id
 _symmetry_equiv_pos_as_xyz
  1  'x, y, z'
loop_
 _atom_site_type_symbol
 _atom_site_label
 _atom_site_symmetry_multiplicity
 _atom_site_fract_x
 _atom_site_fract_y
 _atom_site_fract_z
 _atom_site_occupancy
  Tm  Tm0  1  0.498457  0.501543  0.500000  1
  Tm  Tm1  1  0.999858  0.000142  0.000000  1
  Tm  Tm2  1  0.501770  0.001885  0.750803  1
  Tm  Tm3  1  0.998115  0.498230  0.249197  1
  Tm  Tm4  1  0.494833  0.994865  0.248923  1
  Tm  Tm5  1  0.005135  0.505167  0.751077  1
  Si  Si6  1  0.796536  0.203464  0.500000  1
  Si  Si7  1  0.294719  0.705281  0.000000  1
  Si  Si8  1  0.206785  0.793215  0.500000  1
  Si  Si9  1  0.707089  0.292911  0.000000  1
  Si  Si10  1  0.330919  0.334450  0.832284  1
  Si  Si11  1  0.665550  0.669081  0.167716  1
  Si  Si12  1  0.165246  0.168028  0.331599  1
  Si  Si13  1  0.831972  0.834754  0.668401  1
  Si  Si14  1  0.122193  0.886672  0.729796  1
  Si  Si15  1  0.113328  0.877807  0.270204  1
  Si  Si16  1  0.615356  0.381467  0.219100  1
  Si  Si17  1  0.618533  0.384644  0.780900  1
  Si  Si18  1  0.879263  0.113650  0.270948  1
  Si  Si19  1  0.886350  0.120737  0.729052  1
  Si  Si20  1  0.385924  0.620885  0.772387  1
  Si  Si21  1  0.379115  0.614076  0.227613  1
  Si  Si22  1  0.337246  0.102509  0.501793  1
  Si  Si23  1  0.897491  0.662754  0.498207  1
  Si  Si24  1  0.387045  0.151702  0.005364  1
  Si  Si25  1  0.848298  0.612955  0.994636  1
  Si  Si26  1  0.653986  0.888562  0.494647  1
  Si  Si27  1  0.111438  0.346014  0.505353  1
  Si  Si28  1  0.610676  0.845733  0.995322  1
  Si  Si29  1  0.154267  0.389324  0.004678  1
  Ru  Ru30  1  0.168979  0.831021  0.000000  1
  Ru  Ru31  1  0.331969  0.668031  0.500000  1
  Ru  Ru32  1  0.831997  0.168003  0.000000  1
  Ru  Ru33  1  0.128771  0.127426  0.626198  1
  Ru  Ru34  1  0.872574  0.871229  0.373802  1
  Ru  Ru35  1  0.373285  0.372266  0.127025  1
  Ru  Ru36  1  0.627734  0.626715  0.872975  1
  Pt  Pt37  1  0.667196  0.332804  0.500000  1
