# generated using pymatgen
data_Pa(SiAu2)2
_symmetry_space_group_name_H-M   'P 1'
_cell_length_a   4.27636700
_cell_length_b   4.27636700
_cell_length_c   28.41973700
_cell_angle_alpha   90.00000000
_cell_angle_beta   90.00000000
_cell_angle_gamma   90.00000000
_symmetry_Int_Tables_number   1
_chemical_formula_structural   Pa(SiAu2)2
_chemical_formula_sum   'Pa4 Si8 Au16'
_cell_volume   519.72067474
_cell_formula_units_Z   4
loop_
 _symmetry_equiv_pos_site_id
 _symmetry_equiv_pos_as_xyz
  1  'x, y, z'
loop_
 _atom_site_type_symbol
 _atom_site_label
 _atom_site_symmetry_multiplicity
 _atom_site_fract_x
 _atom_site_fract_y
 _atom_site_fract_z
 _atom_site_occupancy
  Pa  Pa0  1  0.000000  0.500000  0.749405  1
  Pa  Pa1  1  0.500000  0.000000  0.250595  1
  Pa  Pa2  1  0.500000  0.500000  0.000000  1
  Pa  Pa3  1  0.500000  0.500000  0.500000  1
  Si  Si4  1  0.000000  0.000000  0.959798  1
  Si  Si5  1  0.000000  0.000000  0.459955  1
  Si  Si6  1  0.500000  0.000000  0.789699  1
  Si  Si7  1  0.500000  0.000000  0.709460  1
  Si  Si8  1  0.000000  0.500000  0.210301  1
  Si  Si9  1  0.000000  0.500000  0.290540  1
  Si  Si10  1  0.000000  0.000000  0.040202  1
  Si  Si11  1  0.000000  0.000000  0.540045  1
  Au  Au12  1  0.500000  0.000000  0.088068  1
  Au  Au13  1  0.500000  0.500000  0.662186  1
  Au  Au14  1  0.500000  0.500000  0.836945  1
  Au  Au15  1  0.000000  0.500000  0.086311  1
  Au  Au16  1  0.500000  0.000000  0.913689  1
  Au  Au17  1  0.000000  0.000000  0.663395  1
  Au  Au18  1  0.000000  0.500000  0.414507  1
  Au  Au19  1  0.500000  0.500000  0.337814  1
  Au  Au20  1  0.500000  0.000000  0.412664  1
  Au  Au21  1  0.000000  0.000000  0.336605  1
  Au  Au22  1  0.000000  0.000000  0.164213  1
  Au  Au23  1  0.500000  0.000000  0.585493  1
  Au  Au24  1  0.000000  0.000000  0.835787  1
  Au  Au25  1  0.500000  0.500000  0.163055  1
  Au  Au26  1  0.000000  0.500000  0.587336  1
  Au  Au27  1  0.000000  0.500000  0.911932  1
