# generated using pymatgen
data_Er4B8OsRu3
_symmetry_space_group_name_H-M   'P 1'
_cell_length_a   5.29893700
_cell_length_b   5.88300902
_cell_length_c   6.33475663
_cell_angle_alpha   89.79972171
_cell_angle_beta   90.00000000
_cell_angle_gamma   90.00000000
_symmetry_Int_Tables_number   1
_chemical_formula_structural   Er4B8OsRu3
_chemical_formula_sum   'Er4 B8 Os1 Ru3'
_cell_volume   197.47655960
_cell_formula_units_Z   1
loop_
 _symmetry_equiv_pos_site_id
 _symmetry_equiv_pos_as_xyz
  1  'x, y, z'
loop_
 _atom_site_type_symbol
 _atom_site_label
 _atom_site_symmetry_multiplicity
 _atom_site_fract_x
 _atom_site_fract_y
 _atom_site_fract_z
 _atom_site_occupancy
  Er  Er0  1  0.250000  0.510529  0.835768  1
  Er  Er1  1  0.250000  0.011010  0.665056  1
  Er  Er2  1  0.750000  0.489486  0.163095  1
  Er  Er3  1  0.750000  0.989019  0.335581  1
  B  B4  1  0.082834  0.866263  0.038768  1
  B  B5  1  0.416088  0.367367  0.463031  1
  B  B6  1  0.584322  0.132529  0.962875  1
  B  B7  1  0.916617  0.633472  0.537073  1
  B  B8  1  0.915678  0.132529  0.962875  1
  B  B9  1  0.583383  0.633472  0.537073  1
  B  B10  1  0.417166  0.866263  0.038768  1
  B  B11  1  0.083912  0.367367  0.463031  1
  Os  Os12  1  0.250000  0.680765  0.317483  1
  Ru  Ru13  1  0.250000  0.181301  0.181336  1
  Ru  Ru14  1  0.750000  0.319150  0.680468  1
  Ru  Ru15  1  0.750000  0.819478  0.817718  1
