# generated using pymatgen
data_Hf2Mn4Nb2Si3P
_symmetry_space_group_name_H-M   'P 1'
_cell_length_a   3.57869000
_cell_length_b   6.43558084
_cell_length_c   7.53798415
_cell_angle_alpha   90.08655471
_cell_angle_beta   90.00000000
_cell_angle_gamma   90.00000000
_symmetry_Int_Tables_number   1
_chemical_formula_structural   Hf2Mn4Nb2Si3P
_chemical_formula_sum   'Hf2 Mn4 Nb2 Si3 P1'
_cell_volume   173.60672879
_cell_formula_units_Z   1
loop_
 _symmetry_equiv_pos_site_id
 _symmetry_equiv_pos_as_xyz
  1  'x, y, z'
loop_
 _atom_site_type_symbol
 _atom_site_label
 _atom_site_symmetry_multiplicity
 _atom_site_fract_x
 _atom_site_fract_y
 _atom_site_fract_z
 _atom_site_occupancy
  Hf  Hf0  1  0.750000  0.029677  0.671985  1
  Hf  Hf1  1  0.750000  0.535317  0.824781  1
  Mn  Mn2  1  0.250000  0.365408  0.561972  1
  Mn  Mn3  1  0.250000  0.860816  0.935170  1
  Mn  Mn4  1  0.750000  0.639199  0.439490  1
  Mn  Mn5  1  0.750000  0.135717  0.063463  1
  Nb  Nb6  1  0.250000  0.966956  0.325329  1
  Nb  Nb7  1  0.250000  0.467792  0.176141  1
  Si  Si8  1  0.250000  0.232498  0.876531  1
  Si  Si9  1  0.750000  0.267835  0.369987  1
  Si  Si10  1  0.750000  0.766910  0.130918  1
  P  P11  1  0.250000  0.731876  0.624232  1
