# generated using pymatgen
data_Dy5Ho7TcRu3
_symmetry_space_group_name_H-M   'P 1'
_cell_length_a   6.27802792
_cell_length_b   7.33807403
_cell_length_c   9.13828926
_cell_angle_alpha   89.99289009
_cell_angle_beta   90.02627457
_cell_angle_gamma   90.03111601
_symmetry_Int_Tables_number   1
_chemical_formula_structural   Dy5Ho7TcRu3
_chemical_formula_sum   'Dy5 Ho7 Tc1 Ru3'
_cell_volume   420.98838968
_cell_formula_units_Z   1
loop_
 _symmetry_equiv_pos_site_id
 _symmetry_equiv_pos_as_xyz
  1  'x, y, z'
loop_
 _atom_site_type_symbol
 _atom_site_label
 _atom_site_symmetry_multiplicity
 _atom_site_fract_x
 _atom_site_fract_y
 _atom_site_fract_z
 _atom_site_occupancy
  Dy  Dy0  1  0.333115  0.676229  0.064437  1
  Dy  Dy1  1  0.868009  0.539543  0.250143  1
  Dy  Dy2  1  0.627996  0.041510  0.250121  1
  Dy  Dy3  1  0.134065  0.457850  0.749870  1
  Dy  Dy4  1  0.366287  0.958427  0.749871  1
  Ho  Ho5  1  0.167353  0.175980  0.435756  1
  Ho  Ho6  1  0.667936  0.323827  0.564404  1
  Ho  Ho7  1  0.834446  0.824842  0.936772  1
  Ho  Ho8  1  0.668139  0.323626  0.935478  1
  Ho  Ho9  1  0.834479  0.824788  0.563129  1
  Ho  Ho10  1  0.333165  0.675998  0.435673  1
  Ho  Ho11  1  0.167234  0.175958  0.064287  1
  Tc  Tc12  1  0.037448  0.885385  0.250122  1
  Ru  Ru13  1  0.461190  0.384226  0.250147  1
  Ru  Ru14  1  0.960040  0.116787  0.750059  1
  Ru  Ru15  1  0.539100  0.615028  0.749729  1
