# generated using pymatgen
data_DyHoNb4C5
_symmetry_space_group_name_H-M   'P 1'
_cell_length_a   5.75214547
_cell_length_b   5.75214444
_cell_length_c   5.61491051
_cell_angle_alpha   81.82545663
_cell_angle_beta   81.82545564
_cell_angle_gamma   121.60955711
_symmetry_Int_Tables_number   1
_chemical_formula_structural   DyHoNb4C5
_chemical_formula_sum   'Dy1 Ho1 Nb4 C5'
_cell_volume   151.34762856
_cell_formula_units_Z   1
loop_
 _symmetry_equiv_pos_site_id
 _symmetry_equiv_pos_as_xyz
  1  'x, y, z'
loop_
 _atom_site_type_symbol
 _atom_site_label
 _atom_site_symmetry_multiplicity
 _atom_site_fract_x
 _atom_site_fract_y
 _atom_site_fract_z
 _atom_site_occupancy
  Dy  Dy0  1  0.761009  0.761009  0.758005  1
  Ho  Ho1  1  0.239509  0.239509  0.242500  1
  Nb  Nb2  1  0.100897  0.454198  0.740889  1
  Nb  Nb3  1  0.545933  0.899265  0.258922  1
  Nb  Nb4  1  0.899265  0.545933  0.258922  1
  Nb  Nb5  1  0.454198  0.100897  0.740889  1
  C  C6  1  0.499302  0.499302  0.500113  1
  C  C7  1  0.678890  0.319904  0.000420  1
  C  C8  1  0.319904  0.678890  0.000420  1
  C  C9  1  0.820839  0.180256  0.499460  1
  C  C10  1  0.180256  0.820839  0.499460  1
