# generated using pymatgen
data_Zr2GeRh5
_symmetry_space_group_name_H-M   'P 1'
_cell_length_a   4.08447500
_cell_length_b   5.60099800
_cell_length_c   11.02288700
_cell_angle_alpha   90.00000000
_cell_angle_beta   90.00000000
_cell_angle_gamma   90.00000000
_symmetry_Int_Tables_number   1
_chemical_formula_structural   Zr2GeRh5
_chemical_formula_sum   'Zr4 Ge2 Rh10'
_cell_volume   252.17208839
_cell_formula_units_Z   2
loop_
 _symmetry_equiv_pos_site_id
 _symmetry_equiv_pos_as_xyz
  1  'x, y, z'
loop_
 _atom_site_type_symbol
 _atom_site_label
 _atom_site_symmetry_multiplicity
 _atom_site_fract_x
 _atom_site_fract_y
 _atom_site_fract_z
 _atom_site_occupancy
  Zr  Zr0  1  0.500000  0.181954  0.640726  1
  Zr  Zr1  1  0.500000  0.818046  0.359274  1
  Zr  Zr2  1  0.500000  0.681954  0.859274  1
  Zr  Zr3  1  0.500000  0.318046  0.140726  1
  Ge  Ge4  1  0.000000  0.500000  0.500000  1
  Ge  Ge5  1  0.000000  0.000000  0.000000  1
  Rh  Rh6  1  0.500000  0.188592  0.893682  1
  Rh  Rh7  1  0.500000  0.811408  0.106318  1
  Rh  Rh8  1  0.500000  0.688592  0.606318  1
  Rh  Rh9  1  0.500000  0.311408  0.393682  1
  Rh  Rh10  1  0.000000  0.434865  0.745606  1
  Rh  Rh11  1  0.000000  0.565135  0.254394  1
  Rh  Rh12  1  0.000000  0.000000  0.500000  1
  Rh  Rh13  1  0.000000  0.500000  0.000000  1
  Rh  Rh14  1  0.000000  0.065135  0.245606  1
  Rh  Rh15  1  0.000000  0.934865  0.754394  1
