# generated using pymatgen
data_La10Pr6Cd4Ir3Pd
_symmetry_space_group_name_H-M   'P 1'
_cell_length_a   10.09771451
_cell_length_b   10.09771408
_cell_length_c   10.09771400
_cell_angle_alpha   60.25816370
_cell_angle_beta   60.25817459
_cell_angle_gamma   60.25816356
_symmetry_Int_Tables_number   1
_chemical_formula_structural   La10Pr6Cd4Ir3Pd
_chemical_formula_sum   'La10 Pr6 Cd4 Ir3 Pd1'
_cell_volume   732.29273196
_cell_formula_units_Z   1
loop_
 _symmetry_equiv_pos_site_id
 _symmetry_equiv_pos_as_xyz
  1  'x, y, z'
loop_
 _atom_site_type_symbol
 _atom_site_label
 _atom_site_symmetry_multiplicity
 _atom_site_fract_x
 _atom_site_fract_y
 _atom_site_fract_z
 _atom_site_occupancy
  La  La0  1  0.346568  0.346568  0.346568  1
  La  La1  1  0.351853  0.351853  0.951878  1
  La  La2  1  0.351853  0.951878  0.351853  1
  La  La3  1  0.951878  0.351853  0.351853  1
  La  La4  1  0.803533  0.191215  0.191215  1
  La  La5  1  0.189603  0.809282  0.809282  1
  La  La6  1  0.191215  0.803533  0.191215  1
  La  La7  1  0.809282  0.189603  0.809282  1
  La  La8  1  0.191215  0.191215  0.803533  1
  La  La9  1  0.809282  0.809282  0.189603  1
  Pr  Pr10  1  0.939357  0.562819  0.562819  1
  Pr  Pr11  1  0.563620  0.937550  0.937550  1
  Pr  Pr12  1  0.562819  0.939357  0.562819  1
  Pr  Pr13  1  0.937550  0.563620  0.937550  1
  Pr  Pr14  1  0.562819  0.562819  0.939357  1
  Pr  Pr15  1  0.937550  0.937550  0.563620  1
  Cd  Cd16  1  0.580124  0.580124  0.580124  1
  Cd  Cd17  1  0.580034  0.580034  0.259747  1
  Cd  Cd18  1  0.580034  0.259747  0.580034  1
  Cd  Cd19  1  0.259747  0.580034  0.580034  1
  Ir  Ir20  1  0.141574  0.141574  0.574552  1
  Ir  Ir21  1  0.141574  0.574552  0.141574  1
  Ir  Ir22  1  0.574552  0.141574  0.141574  1
  Pd  Pd23  1  0.142358  0.142358  0.142358  1
