# generated using pymatgen
data_Sc2Al8Fe9
_symmetry_space_group_name_H-M   'P 1'
_cell_length_a   6.47258846
_cell_length_b   6.47554966
_cell_length_c   6.46506519
_cell_angle_alpha   83.70128144
_cell_angle_beta   96.33769571
_cell_angle_gamma   96.14210923
_symmetry_Int_Tables_number   1
_chemical_formula_structural   Sc2Al8Fe9
_chemical_formula_sum   'Sc2 Al8 Fe9'
_cell_volume   266.45454401
_cell_formula_units_Z   1
loop_
 _symmetry_equiv_pos_site_id
 _symmetry_equiv_pos_as_xyz
  1  'x, y, z'
loop_
 _atom_site_type_symbol
 _atom_site_label
 _atom_site_symmetry_multiplicity
 _atom_site_fract_x
 _atom_site_fract_y
 _atom_site_fract_z
 _atom_site_occupancy
  Sc  Sc0  1  0.629295  0.370621  0.370631  1
  Sc  Sc1  1  0.370705  0.629380  0.629369  1
  Al  Al2  1  0.322594  0.322692  0.999879  1
  Al  Al3  1  0.677406  0.677308  0.000121  1
  Al  Al4  1  0.871658  0.128291  0.128187  1
  Al  Al5  1  0.322635  0.999924  0.322590  1
  Al  Al6  1  0.999946  0.677216  0.322646  1
  Al  Al7  1  0.677365  0.000076  0.677409  1
  Al  Al8  1  0.000054  0.322785  0.677355  1
  Al  Al9  1  0.128342  0.871709  0.871812  1
  Fe  Fe10  1  0.499999  0.000000  0.000000  1
  Fe  Fe11  1  0.000000  0.499999  0.000000  1
  Fe  Fe12  1  0.337331  0.662683  0.167440  1
  Fe  Fe13  1  0.167299  0.337280  0.337192  1
  Fe  Fe14  1  0.662604  0.832573  0.337249  1
  Fe  Fe15  1  0.000000  0.000000  0.499999  1
  Fe  Fe16  1  0.337396  0.167426  0.662751  1
  Fe  Fe17  1  0.832702  0.662718  0.662808  1
  Fe  Fe18  1  0.662671  0.337317  0.832561  1
