# generated using pymatgen
data_Zr5Nb5(ZnSn3)2
_symmetry_space_group_name_H-M   'P 1'
_cell_length_a   8.52471596
_cell_length_b   8.52471534
_cell_length_c   5.76060600
_cell_angle_alpha   90.00000000
_cell_angle_beta   90.00000000
_cell_angle_gamma   120.17513839
_symmetry_Int_Tables_number   1
_chemical_formula_structural   Zr5Nb5(ZnSn3)2
_chemical_formula_sum   'Zr5 Nb5 Zn2 Sn6'
_cell_volume   361.90072335
_cell_formula_units_Z   1
loop_
 _symmetry_equiv_pos_site_id
 _symmetry_equiv_pos_as_xyz
  1  'x, y, z'
loop_
 _atom_site_type_symbol
 _atom_site_label
 _atom_site_symmetry_multiplicity
 _atom_site_fract_x
 _atom_site_fract_y
 _atom_site_fract_z
 _atom_site_occupancy
  Zr  Zr0  1  0.273973  0.002297  0.750000  1
  Zr  Zr1  1  0.002297  0.273973  0.750000  1
  Zr  Zr2  1  0.268010  0.268010  0.250000  1
  Zr  Zr3  1  0.729095  0.000794  0.250000  1
  Zr  Zr4  1  0.000794  0.729095  0.250000  1
  Nb  Nb5  1  0.666249  0.333810  0.000590  1
  Nb  Nb6  1  0.333810  0.666249  0.000590  1
  Nb  Nb7  1  0.333810  0.666249  0.499410  1
  Nb  Nb8  1  0.666249  0.333810  0.499410  1
  Nb  Nb9  1  0.729178  0.729178  0.750000  1
  Zn  Zn10  1  0.995821  0.995821  0.995697  1
  Zn  Zn11  1  0.995821  0.995821  0.504303  1
  Sn  Sn12  1  0.391661  0.391661  0.750000  1
  Sn  Sn13  1  0.615190  0.997199  0.750000  1
  Sn  Sn14  1  0.997199  0.615190  0.750000  1
  Sn  Sn15  1  0.614059  0.614059  0.250000  1
  Sn  Sn16  1  0.386625  0.000160  0.250000  1
  Sn  Sn17  1  0.000160  0.386625  0.250000  1
