# generated using pymatgen
data_Zr2Co9B6Os
_symmetry_space_group_name_H-M   'P 1'
_cell_length_a   5.66911053
_cell_length_b   5.66911166
_cell_length_c   5.66911111
_cell_angle_alpha   95.68116863
_cell_angle_beta   95.68117893
_cell_angle_gamma   95.68118676
_symmetry_Int_Tables_number   1
_chemical_formula_structural   Zr2Co9B6Os
_chemical_formula_sum   'Zr2 Co9 B6 Os1'
_cell_volume   179.32086529
_cell_formula_units_Z   1
loop_
 _symmetry_equiv_pos_site_id
 _symmetry_equiv_pos_as_xyz
  1  'x, y, z'
loop_
 _atom_site_type_symbol
 _atom_site_label
 _atom_site_symmetry_multiplicity
 _atom_site_fract_x
 _atom_site_fract_y
 _atom_site_fract_z
 _atom_site_occupancy
  Zr  Zr0  1  0.685163  0.685163  0.685163  1
  Zr  Zr1  1  0.314837  0.314837  0.314837  1
  Co  Co2  1  0.000000  0.000000  0.500000  1
  Co  Co3  1  0.500000  0.000000  0.000000  1
  Co  Co4  1  0.000000  0.500000  0.000000  1
  Co  Co5  1  0.703855  0.200298  0.703855  1
  Co  Co6  1  0.703855  0.703855  0.200298  1
  Co  Co7  1  0.200298  0.703855  0.703855  1
  Co  Co8  1  0.296145  0.799702  0.296145  1
  Co  Co9  1  0.296145  0.296145  0.799702  1
  Co  Co10  1  0.799702  0.296145  0.296145  1
  B  B11  1  0.615246  0.384754  0.000000  1
  B  B12  1  0.000000  0.615246  0.384754  1
  B  B13  1  0.384754  0.000000  0.615246  1
  B  B14  1  0.000000  0.384754  0.615246  1
  B  B15  1  0.615246  0.000000  0.384754  1
  B  B16  1  0.384754  0.615246  0.000000  1
  Os  Os17  1  0.000000  0.000000  0.000000  1
