# generated using pymatgen
data_Ti13Al9TcRh7
_symmetry_space_group_name_H-M   'P 1'
_cell_length_a   8.73888935
_cell_length_b   8.73851347
_cell_length_c   8.73846347
_cell_angle_alpha   59.66895479
_cell_angle_beta   59.66749717
_cell_angle_gamma   59.66717265
_symmetry_Int_Tables_number   1
_chemical_formula_structural   Ti13Al9TcRh7
_chemical_formula_sum   'Ti13 Al9 Tc1 Rh7'
_cell_volume   468.30026618
_cell_formula_units_Z   1
loop_
 _symmetry_equiv_pos_site_id
 _symmetry_equiv_pos_as_xyz
  1  'x, y, z'
loop_
 _atom_site_type_symbol
 _atom_site_label
 _atom_site_symmetry_multiplicity
 _atom_site_fract_x
 _atom_site_fract_y
 _atom_site_fract_z
 _atom_site_occupancy
  Ti  Ti0  1  0.212776  0.212828  0.788317  1
  Ti  Ti1  1  0.788283  0.212847  0.212840  1
  Ti  Ti2  1  0.212790  0.788305  0.212836  1
  Ti  Ti3  1  0.798499  0.798491  0.186091  1
  Ti  Ti4  1  0.185998  0.798519  0.798527  1
  Ti  Ti5  1  0.798504  0.186079  0.798506  1
  Ti  Ti6  1  0.377936  0.377904  0.377899  1
  Ti  Ti7  1  0.379190  0.867220  0.379083  1
  Ti  Ti8  1  0.867215  0.379157  0.379123  1
  Ti  Ti9  1  0.379169  0.379093  0.867231  1
  Ti  Ti10  1  0.846614  0.462377  0.846648  1
  Ti  Ti11  1  0.462490  0.846609  0.846611  1
  Ti  Ti12  1  0.846616  0.846646  0.462346  1
  Al  Al13  1  0.151897  0.151924  0.151928  1
  Al  Al14  1  0.155684  0.537945  0.155711  1
  Al  Al15  1  0.538018  0.155670  0.155675  1
  Al  Al16  1  0.155688  0.155714  0.537928  1
  Al  Al17  1  0.619488  0.619456  0.619459  1
  Al  Al18  1  0.620139  0.142151  0.620080  1
  Al  Al19  1  0.142126  0.620109  0.620103  1
  Al  Al20  1  0.620137  0.620087  0.142149  1
  Al  Al21  1  0.830488  0.830535  0.830534  1
  Tc  Tc22  1  0.003649  0.003761  0.003814  1
  Rh  Rh23  1  0.003844  0.003826  0.497736  1
  Rh  Rh24  1  0.497734  0.003822  0.003840  1
  Rh  Rh25  1  0.003829  0.497746  0.003835  1
  Rh  Rh26  1  0.499764  0.499743  0.001274  1
  Rh  Rh27  1  0.001247  0.499786  0.499767  1
  Rh  Rh28  1  0.499773  0.001268  0.499734  1
  Rh  Rh29  1  0.500416  0.500382  0.500378  1
