# generated using pymatgen
data_Ba3Li4Sb3As
_symmetry_space_group_name_H-M   'P 1'
_cell_length_a   9.39147592
_cell_length_b   9.39147626
_cell_length_c   9.39147572
_cell_angle_alpha   149.20284091
_cell_angle_beta   132.70238934
_cell_angle_gamma   57.50842752
_symmetry_Int_Tables_number   1
_chemical_formula_structural   Ba3Li4Sb3As
_chemical_formula_sum   'Ba3 Li4 Sb3 As1'
_cell_volume   309.39269688
_cell_formula_units_Z   1
loop_
 _symmetry_equiv_pos_site_id
 _symmetry_equiv_pos_as_xyz
  1  'x, y, z'
loop_
 _atom_site_type_symbol
 _atom_site_label
 _atom_site_symmetry_multiplicity
 _atom_site_fract_x
 _atom_site_fract_y
 _atom_site_fract_z
 _atom_site_occupancy
  Ba  Ba0  1  0.633858  0.129002  0.504856  1
  Ba  Ba1  1  0.375854  0.870998  0.504856  1
  Ba  Ba2  1  0.988748  0.000000  0.988748  1
  Li  Li3  1  0.980507  0.675405  0.305103  1
  Li  Li4  1  0.017878  0.323435  0.694442  1
  Li  Li5  1  0.629698  0.324595  0.305103  1
  Li  Li6  1  0.371007  0.676565  0.694442  1
  Sb  Sb7  1  0.321783  0.500000  0.821783  1
  Sb  Sb8  1  0.786763  0.787435  0.999328  1
  Sb  Sb9  1  0.211892  0.212565  0.999328  1
  As  As10  1  0.682011  0.500000  0.182011  1
