# generated using pymatgen
data_TbErMn14(SiC)3
_symmetry_space_group_name_H-M   'P 1'
_cell_length_a   6.42468823
_cell_length_b   6.42468953
_cell_length_c   6.42468750
_cell_angle_alpha   82.74038885
_cell_angle_beta   82.74037920
_cell_angle_gamma   82.74039049
_symmetry_Int_Tables_number   1
_chemical_formula_structural   TbErMn14(SiC)3
_chemical_formula_sum   'Tb1 Er1 Mn14 Si3 C3'
_cell_volume   259.30740048
_cell_formula_units_Z   1
loop_
 _symmetry_equiv_pos_site_id
 _symmetry_equiv_pos_as_xyz
  1  'x, y, z'
loop_
 _atom_site_type_symbol
 _atom_site_label
 _atom_site_symmetry_multiplicity
 _atom_site_fract_x
 _atom_site_fract_y
 _atom_site_fract_z
 _atom_site_occupancy
  Tb  Tb0  1  0.650946  0.650946  0.650946  1
  Er  Er1  1  0.348545  0.348545  0.348545  1
  Mn  Mn2  1  0.723681  0.275575  0.000697  1
  Mn  Mn3  1  0.000697  0.723681  0.275575  1
  Mn  Mn4  1  0.275575  0.000697  0.723681  1
  Mn  Mn5  1  0.000697  0.275575  0.723681  1
  Mn  Mn6  1  0.723681  0.000697  0.275575  1
  Mn  Mn7  1  0.275575  0.723681  0.000697  1
  Mn  Mn8  1  0.343775  0.860977  0.343775  1
  Mn  Mn9  1  0.343775  0.343775  0.860977  1
  Mn  Mn10  1  0.860977  0.343775  0.343775  1
  Mn  Mn11  1  0.655685  0.141104  0.655685  1
  Mn  Mn12  1  0.655685  0.655685  0.141104  1
  Mn  Mn13  1  0.141104  0.655685  0.655685  1
  Mn  Mn14  1  0.905837  0.905837  0.905837  1
  Mn  Mn15  1  0.094512  0.094512  0.094512  1
  Si  Si16  1  0.999481  0.999481  0.499926  1
  Si  Si17  1  0.499926  0.999481  0.999481  1
  Si  Si18  1  0.999481  0.499926  0.999481  1
  C  C19  1  0.498804  0.498804  0.002757  1
  C  C20  1  0.002757  0.498804  0.498804  1
  C  C21  1  0.498804  0.002757  0.498804  1
