# generated using pymatgen
data_Y2Ta5WO18
_symmetry_space_group_name_H-M   'P 1'
_cell_length_a   7.52731619
_cell_length_b   5.31528599
_cell_length_c   8.33758304
_cell_angle_alpha   87.72227252
_cell_angle_beta   90.13166785
_cell_angle_gamma   89.78344966
_symmetry_Int_Tables_number   1
_chemical_formula_structural   Y2Ta5WO18
_chemical_formula_sum   'Y2 Ta5 W1 O18'
_cell_volume   333.31840919
_cell_formula_units_Z   1
loop_
 _symmetry_equiv_pos_site_id
 _symmetry_equiv_pos_as_xyz
  1  'x, y, z'
loop_
 _atom_site_type_symbol
 _atom_site_label
 _atom_site_symmetry_multiplicity
 _atom_site_fract_x
 _atom_site_fract_y
 _atom_site_fract_z
 _atom_site_occupancy
  Y  Y0  1  0.247492  0.964798  0.435788  1
  Y  Y1  1  0.752508  0.035202  0.564212  1
  Ta  Ta2  1  0.500000  0.000000  0.000000  1
  Ta  Ta3  1  0.493723  0.526878  0.696050  1
  Ta  Ta4  1  0.007479  0.529879  0.696643  1
  Ta  Ta5  1  0.992521  0.470121  0.303357  1
  Ta  Ta6  1  0.506277  0.473122  0.303950  1
  W  W7  1  0.000000  0.000000  0.000000  1
  O  O8  1  0.246713  0.910666  0.978352  1
  O  O9  1  0.933298  0.853567  0.781335  1
  O  O10  1  0.561892  0.849108  0.787358  1
  O  O11  1  0.957138  0.741332  0.468550  1
  O  O12  1  0.542405  0.741321  0.467961  1
  O  O13  1  0.250544  0.662367  0.655763  1
  O  O14  1  0.947284  0.673927  0.123630  1
  O  O15  1  0.550536  0.676986  0.120956  1
  O  O16  1  0.250256  0.576301  0.314897  1
  O  O17  1  0.749744  0.423699  0.685103  1
  O  O18  1  0.052716  0.326073  0.876370  1
  O  O19  1  0.449464  0.323014  0.879044  1
  O  O20  1  0.749456  0.337633  0.344237  1
  O  O21  1  0.042862  0.258668  0.531450  1
  O  O22  1  0.457595  0.258679  0.532039  1
  O  O23  1  0.066702  0.146433  0.218665  1
  O  O24  1  0.438108  0.150892  0.212642  1
  O  O25  1  0.753287  0.089334  0.021648  1
