# generated using pymatgen
data_TbLu3(Nb3Si4)2
_symmetry_space_group_name_H-M   'P 1'
_cell_length_a   7.03282740
_cell_length_b   7.03534461
_cell_length_c   12.95779300
_cell_angle_alpha   90.00000000
_cell_angle_beta   90.00000000
_cell_angle_gamma   90.04942312
_symmetry_Int_Tables_number   1
_chemical_formula_structural   TbLu3(Nb3Si4)2
_chemical_formula_sum   'Tb2 Lu6 Nb12 Si16'
_cell_volume   641.13016405
_cell_formula_units_Z   2
loop_
 _symmetry_equiv_pos_site_id
 _symmetry_equiv_pos_as_xyz
  1  'x, y, z'
loop_
 _atom_site_type_symbol
 _atom_site_label
 _atom_site_symmetry_multiplicity
 _atom_site_fract_x
 _atom_site_fract_y
 _atom_site_fract_z
 _atom_site_occupancy
  Tb  Tb0  1  0.997718  0.340591  0.218071  1
  Tb  Tb1  1  0.002282  0.659409  0.718071  1
  Lu  Lu2  1  0.159402  0.499603  0.468368  1
  Lu  Lu3  1  0.500523  0.840826  0.031538  1
  Lu  Lu4  1  0.840598  0.500397  0.968368  1
  Lu  Lu5  1  0.499477  0.159174  0.531538  1
  Lu  Lu6  1  0.341669  0.000113  0.781869  1
  Lu  Lu7  1  0.658331  0.999887  0.281869  1
  Nb  Nb8  1  0.170923  0.170036  0.999850  1
  Nb  Nb9  1  0.829077  0.829964  0.499850  1
  Nb  Nb10  1  0.329573  0.670910  0.250065  1
  Nb  Nb11  1  0.670427  0.329090  0.750065  1
  Nb  Nb12  1  0.153682  0.993990  0.376413  1
  Nb  Nb13  1  0.846318  0.006010  0.876413  1
  Nb  Nb14  1  0.506708  0.653320  0.625919  1
  Nb  Nb15  1  0.347843  0.492281  0.874322  1
  Nb  Nb16  1  0.493292  0.346680  0.125919  1
  Nb  Nb17  1  0.652157  0.507719  0.374322  1
  Nb  Nb18  1  0.993540  0.153614  0.623685  1
  Nb  Nb19  1  0.006460  0.846386  0.123685  1
  Si  Si20  1  0.297088  0.043554  0.186012  1
  Si  Si21  1  0.702912  0.956446  0.686012  1
  Si  Si22  1  0.455229  0.796544  0.436298  1
  Si  Si23  1  0.205224  0.545812  0.062942  1
  Si  Si24  1  0.544771  0.203456  0.936298  1
  Si  Si25  1  0.794776  0.454188  0.562942  1
  Si  Si26  1  0.045110  0.293710  0.814567  1
  Si  Si27  1  0.954890  0.706290  0.314567  1
  Si  Si28  1  0.367571  0.294285  0.319857  1
  Si  Si29  1  0.632429  0.705715  0.819857  1
  Si  Si30  1  0.206907  0.867947  0.568128  1
  Si  Si31  1  0.134761  0.795308  0.931380  1
  Si  Si32  1  0.793093  0.132053  0.068128  1
  Si  Si33  1  0.865239  0.204692  0.431380  1
  Si  Si34  1  0.296390  0.364472  0.680715  1
  Si  Si35  1  0.703610  0.635528  0.180715  1
