# generated using pymatgen
data_Dy3HoAl18(OsRh2)2
_symmetry_space_group_name_H-M   'P 1'
_cell_length_a   7.51146120
_cell_length_b   7.51118168
_cell_length_c   9.48260100
_cell_angle_alpha   90.00000000
_cell_angle_beta   90.00000000
_cell_angle_gamma   118.26739547
_symmetry_Int_Tables_number   1
_chemical_formula_structural   Dy3HoAl18(OsRh2)2
_chemical_formula_sum   'Dy3 Ho1 Al18 Os2 Rh4'
_cell_volume   471.20657492
_cell_formula_units_Z   1
loop_
 _symmetry_equiv_pos_site_id
 _symmetry_equiv_pos_as_xyz
  1  'x, y, z'
loop_
 _atom_site_type_symbol
 _atom_site_label
 _atom_site_symmetry_multiplicity
 _atom_site_fract_x
 _atom_site_fract_y
 _atom_site_fract_z
 _atom_site_occupancy
  Dy  Dy0  1  0.007393  0.316822  0.250000  1
  Dy  Dy1  1  0.683059  0.992360  0.750000  1
  Dy  Dy2  1  0.316793  0.007406  0.250000  1
  Ho  Ho3  1  0.992345  0.683117  0.750000  1
  Al  Al4  1  0.136623  0.136600  0.750000  1
  Al  Al5  1  0.863296  0.863302  0.250000  1
  Al  Al6  1  0.002728  0.339040  0.575581  1
  Al  Al7  1  0.997343  0.661050  0.424458  1
  Al  Al8  1  0.997343  0.661050  0.075542  1
  Al  Al9  1  0.338925  0.002657  0.924441  1
  Al  Al10  1  0.002728  0.339040  0.924419  1
  Al  Al11  1  0.661035  0.997321  0.075604  1
  Al  Al12  1  0.661035  0.997321  0.424396  1
  Al  Al13  1  0.338925  0.002657  0.575559  1
  Al  Al14  1  0.331264  0.331276  0.042786  1
  Al  Al15  1  0.668795  0.668746  0.957155  1
  Al  Al16  1  0.668795  0.668746  0.542845  1
  Al  Al17  1  0.331264  0.331276  0.457214  1
  Al  Al18  1  0.341714  0.556014  0.750000  1
  Al  Al19  1  0.658295  0.444009  0.250000  1
  Al  Al20  1  0.556062  0.341812  0.750000  1
  Al  Al21  1  0.443989  0.658286  0.250000  1
  Os  Os22  1  0.000032  0.999927  0.500098  1
  Os  Os23  1  0.000032  0.999927  0.999902  1
  Rh  Rh24  1  0.671695  0.328452  0.500035  1
  Rh  Rh25  1  0.328399  0.671667  0.500041  1
  Rh  Rh26  1  0.328399  0.671667  0.999959  1
  Rh  Rh27  1  0.671695  0.328452  0.999965  1
