# generated using pymatgen
data_Tb2NdEr(Mo2O7)2
_symmetry_space_group_name_H-M   'P 1'
_cell_length_a   7.41337635
_cell_length_b   7.33893426
_cell_length_c   7.33893295
_cell_angle_alpha   60.41907447
_cell_angle_beta   60.99137617
_cell_angle_gamma   60.99137436
_symmetry_Int_Tables_number   1
_chemical_formula_structural   Tb2NdEr(Mo2O7)2
_chemical_formula_sum   'Tb2 Nd1 Er1 Mo4 O14'
_cell_volume   287.41623813
_cell_formula_units_Z   1
loop_
 _symmetry_equiv_pos_site_id
 _symmetry_equiv_pos_as_xyz
  1  'x, y, z'
loop_
 _atom_site_type_symbol
 _atom_site_label
 _atom_site_symmetry_multiplicity
 _atom_site_fract_x
 _atom_site_fract_y
 _atom_site_fract_z
 _atom_site_occupancy
  Tb  Tb0  1  0.125000  0.125000  0.625000  1
  Tb  Tb1  1  0.125000  0.625000  0.125000  1
  Nd  Nd2  1  0.625000  0.125000  0.125000  1
  Er  Er3  1  0.125000  0.125000  0.125000  1
  Mo  Mo4  1  0.625000  0.625000  0.625000  1
  Mo  Mo5  1  0.125000  0.625000  0.625000  1
  Mo  Mo6  1  0.625000  0.625000  0.125000  1
  Mo  Mo7  1  0.625000  0.125000  0.625000  1
  O  O8  1  0.011238  0.998370  0.998370  1
  O  O9  1  0.238762  0.251630  0.251630  1
  O  O10  1  0.289038  0.299926  0.712644  1
  O  O11  1  0.520335  0.538644  0.977305  1
  O  O12  1  0.729665  0.272695  0.711356  1
  O  O13  1  0.732532  0.287666  0.287666  1
  O  O14  1  0.277830  0.714043  0.714043  1
  O  O15  1  0.289038  0.712644  0.299926  1
  O  O16  1  0.729665  0.711356  0.272695  1
  O  O17  1  0.972170  0.535957  0.535957  1
  O  O18  1  0.517468  0.962334  0.962334  1
  O  O19  1  0.960962  0.950074  0.537356  1
  O  O20  1  0.960962  0.537356  0.950074  1
  O  O21  1  0.520335  0.977305  0.538644  1
