# generated using pymatgen
data_Sr6YbCo2PbO12
_symmetry_space_group_name_H-M   'P 1'
_cell_length_a   6.75736502
_cell_length_b   6.75780043
_cell_length_c   6.75711004
_cell_angle_alpha   91.92033428
_cell_angle_beta   91.93024304
_cell_angle_gamma   91.92721449
_symmetry_Int_Tables_number   1
_chemical_formula_structural   Sr6YbCo2PbO12
_chemical_formula_sum   'Sr6 Yb1 Co2 Pb1 O12'
_cell_volume   308.02797326
_cell_formula_units_Z   1
loop_
 _symmetry_equiv_pos_site_id
 _symmetry_equiv_pos_as_xyz
  1  'x, y, z'
loop_
 _atom_site_type_symbol
 _atom_site_label
 _atom_site_symmetry_multiplicity
 _atom_site_fract_x
 _atom_site_fract_y
 _atom_site_fract_z
 _atom_site_occupancy
  Sr  Sr0  1  0.876489  0.249919  0.623516  1
  Sr  Sr1  1  0.250017  0.623563  0.876452  1
  Sr  Sr2  1  0.623518  0.876456  0.250052  1
  Sr  Sr3  1  0.749988  0.386842  0.113203  1
  Sr  Sr4  1  0.386847  0.113126  0.749958  1
  Sr  Sr5  1  0.113134  0.750073  0.386882  1
  Yb  Yb6  1  0.749963  0.749889  0.750138  1
  Co  Co7  1  0.996211  0.996260  0.996249  1
  Co  Co8  1  0.503786  0.503746  0.503767  1
  Pb  Pb9  1  0.250051  0.250117  0.249807  1
  O  O10  1  0.219370  0.410439  0.542204  1
  O  O11  1  0.410592  0.542511  0.219282  1
  O  O12  1  0.542432  0.219390  0.410329  1
  O  O13  1  0.918900  0.721310  0.049082  1
  O  O14  1  0.721217  0.048792  0.918962  1
  O  O15  1  0.048773  0.918811  0.721298  1
  O  O16  1  0.778748  0.581126  0.451244  1
  O  O17  1  0.581063  0.450983  0.778740  1
  O  O18  1  0.451051  0.778635  0.581241  1
  O  O19  1  0.089475  0.280695  0.957484  1
  O  O20  1  0.280654  0.957724  0.089462  1
  O  O21  1  0.957722  0.089590  0.280649  1
