# generated using pymatgen
data_ErTm3Tc4F28
_symmetry_space_group_name_H-M   'P 1'
_cell_length_a   5.52863306
_cell_length_b   8.80282666
_cell_length_c   11.91968935
_cell_angle_alpha   62.74995228
_cell_angle_beta   90.01552444
_cell_angle_gamma   90.01414969
_symmetry_Int_Tables_number   1
_chemical_formula_structural   ErTm3Tc4F28
_chemical_formula_sum   'Er1 Tm3 Tc4 F28'
_cell_volume   515.72095965
_cell_formula_units_Z   1
loop_
 _symmetry_equiv_pos_site_id
 _symmetry_equiv_pos_as_xyz
  1  'x, y, z'
loop_
 _atom_site_type_symbol
 _atom_site_label
 _atom_site_symmetry_multiplicity
 _atom_site_fract_x
 _atom_site_fract_y
 _atom_site_fract_z
 _atom_site_occupancy
  Er  Er0  1  0.741239  0.814278  0.264562  1
  Tm  Tm1  1  0.758813  0.814581  0.764441  1
  Tm  Tm2  1  0.258836  0.185419  0.735588  1
  Tm  Tm3  1  0.241171  0.185864  0.235524  1
  Tc  Tc4  1  0.758591  0.273109  0.956773  1
  Tc  Tc5  1  0.258422  0.727132  0.543439  1
  Tc  Tc6  1  0.241427  0.727044  0.042759  1
  Tc  Tc7  1  0.741487  0.272425  0.457021  1
  F  F8  1  0.443267  0.706647  0.915744  1
  F  F9  1  0.943134  0.293336  0.584143  1
  F  F10  1  0.556948  0.293351  0.084099  1
  F  F11  1  0.057709  0.706317  0.416197  1
  F  F12  1  0.441567  0.274194  0.546731  1
  F  F13  1  0.941360  0.725795  0.953212  1
  F  F14  1  0.557865  0.725336  0.454128  1
  F  F15  1  0.058419  0.274235  0.046680  1
  F  F16  1  0.776639  0.523328  0.858921  1
  F  F17  1  0.276622  0.476748  0.641074  1
  F  F18  1  0.223364  0.476795  0.141016  1
  F  F19  1  0.723242  0.522230  0.359249  1
  F  F20  1  0.754899  0.024473  0.053225  1
  F  F21  1  0.254901  0.975968  0.446194  1
  F  F22  1  0.245124  0.976026  0.946137  1
  F  F23  1  0.745123  0.023804  0.553921  1
  F  F24  1  0.970570  0.727933  0.639705  1
  F  F25  1  0.470723  0.272080  0.860335  1
  F  F26  1  0.029207  0.272084  0.360389  1
  F  F27  1  0.528794  0.727523  0.139190  1
  F  F28  1  0.046767  0.747373  0.173853  1
  F  F29  1  0.545358  0.252241  0.325859  1
  F  F30  1  0.954724  0.252273  0.825823  1
  F  F31  1  0.454775  0.747762  0.674242  1
  F  F32  1  0.418136  0.972262  0.232416  1
  F  F33  1  0.921048  0.030066  0.267398  1
  F  F34  1  0.579873  0.028588  0.767369  1
  F  F35  1  0.079855  0.971378  0.732642  1
