# generated using pymatgen
data_Sm3Th11TcOs5
_symmetry_space_group_name_H-M   'P 1'
_cell_length_a   9.90673914
_cell_length_b   9.99718577
_cell_length_c   6.40120744
_cell_angle_alpha   89.79250753
_cell_angle_beta   90.28789431
_cell_angle_gamma   120.11207641
_symmetry_Int_Tables_number   1
_chemical_formula_structural   Sm3Th11TcOs5
_chemical_formula_sum   'Sm3 Th11 Tc1 Os5'
_cell_volume   548.40777915
_cell_formula_units_Z   1
loop_
 _symmetry_equiv_pos_site_id
 _symmetry_equiv_pos_as_xyz
  1  'x, y, z'
loop_
 _atom_site_type_symbol
 _atom_site_label
 _atom_site_symmetry_multiplicity
 _atom_site_fract_x
 _atom_site_fract_y
 _atom_site_fract_z
 _atom_site_occupancy
  Sm  Sm0  1  0.462910  0.535673  0.296363  1
  Sm  Sm1  1  0.073703  0.536060  0.296937  1
  Sm  Sm2  1  0.925304  0.460397  0.795256  1
  Th  Th3  1  0.251388  0.127020  0.509631  1
  Th  Th4  1  0.539817  0.078166  0.798862  1
  Th  Th5  1  0.748749  0.870840  0.012615  1
  Th  Th6  1  0.667338  0.334298  0.274679  1
  Th  Th7  1  0.124640  0.869934  0.007141  1
  Th  Th8  1  0.462847  0.921318  0.299514  1
  Th  Th9  1  0.537207  0.465207  0.798062  1
  Th  Th10  1  0.874661  0.129351  0.509615  1
  Th  Th11  1  0.124951  0.251043  0.011797  1
  Th  Th12  1  0.875355  0.751725  0.510708  1
  Th  Th13  1  0.332122  0.665197  0.772935  1
  Tc  Tc14  1  0.810864  0.636083  0.042414  1
  Os  Os15  1  0.809949  0.178140  0.049933  1
  Os  Os16  1  0.630127  0.817108  0.550810  1
  Os  Os17  1  0.371177  0.184985  0.043197  1
  Os  Os18  1  0.186285  0.367014  0.558137  1
  Os  Os19  1  0.190608  0.820442  0.545393  1
