# generated using pymatgen
data_Nd2Al9RePt2
_symmetry_space_group_name_H-M   'P 1'
_cell_length_a   7.66600991
_cell_length_b   7.66601001
_cell_length_c   9.66105600
_cell_angle_alpha   90.00000000
_cell_angle_beta   90.00000000
_cell_angle_gamma   118.78575824
_symmetry_Int_Tables_number   1
_chemical_formula_structural   Nd2Al9RePt2
_chemical_formula_sum   'Nd4 Al18 Re2 Pt4'
_cell_volume   497.59820974
_cell_formula_units_Z   2
loop_
 _symmetry_equiv_pos_site_id
 _symmetry_equiv_pos_as_xyz
  1  'x, y, z'
loop_
 _atom_site_type_symbol
 _atom_site_label
 _atom_site_symmetry_multiplicity
 _atom_site_fract_x
 _atom_site_fract_y
 _atom_site_fract_z
 _atom_site_occupancy
  Nd  Nd0  1  0.993579  0.677198  0.250000  1
  Nd  Nd1  1  0.006421  0.322802  0.750000  1
  Nd  Nd2  1  0.677198  0.993579  0.250000  1
  Nd  Nd3  1  0.322802  0.006421  0.750000  1
  Al  Al4  1  0.131062  0.131062  0.250000  1
  Al  Al5  1  0.868938  0.868938  0.750000  1
  Al  Al6  1  0.002863  0.333073  0.073997  1
  Al  Al7  1  0.997137  0.666927  0.926003  1
  Al  Al8  1  0.997137  0.666927  0.573997  1
  Al  Al9  1  0.333073  0.002863  0.426003  1
  Al  Al10  1  0.002863  0.333073  0.426003  1
  Al  Al11  1  0.666927  0.997137  0.573997  1
  Al  Al12  1  0.666927  0.997137  0.926003  1
  Al  Al13  1  0.333073  0.002863  0.073997  1
  Al  Al14  1  0.330176  0.330176  0.546347  1
  Al  Al15  1  0.669824  0.669824  0.453653  1
  Al  Al16  1  0.669824  0.669824  0.046347  1
  Al  Al17  1  0.330176  0.330176  0.953653  1
  Al  Al18  1  0.342260  0.547142  0.250000  1
  Al  Al19  1  0.657740  0.452858  0.750000  1
  Al  Al20  1  0.547142  0.342260  0.250000  1
  Al  Al21  1  0.452858  0.657740  0.750000  1
  Re  Re22  1  0.000000  0.000000  0.000000  1
  Re  Re23  1  0.000000  0.000000  0.500000  1
  Pt  Pt24  1  0.670923  0.329077  0.000000  1
  Pt  Pt25  1  0.329077  0.670923  0.000000  1
  Pt  Pt26  1  0.329077  0.670923  0.500000  1
  Pt  Pt27  1  0.670923  0.329077  0.500000  1
