# generated using pymatgen
data_La8Al8IrPt7
_symmetry_space_group_name_H-M   'P 1'
_cell_length_a   4.29490900
_cell_length_b   7.31085848
_cell_length_c   16.67651314
_cell_angle_alpha   89.79659486
_cell_angle_beta   90.00000000
_cell_angle_gamma   90.00000000
_symmetry_Int_Tables_number   1
_chemical_formula_structural   La8Al8IrPt7
_chemical_formula_sum   'La8 Al8 Ir1 Pt7'
_cell_volume   523.63040582
_cell_formula_units_Z   1
loop_
 _symmetry_equiv_pos_site_id
 _symmetry_equiv_pos_as_xyz
  1  'x, y, z'
loop_
 _atom_site_type_symbol
 _atom_site_label
 _atom_site_symmetry_multiplicity
 _atom_site_fract_x
 _atom_site_fract_y
 _atom_site_fract_z
 _atom_site_occupancy
  La  La0  1  0.250000  0.511677  0.776688  1
  La  La1  1  0.750000  0.489564  0.223564  1
  La  La2  1  0.750000  0.989804  0.277457  1
  La  La3  1  0.250000  0.016951  0.718900  1
  La  La4  1  0.250000  0.645211  0.560071  1
  La  La5  1  0.750000  0.346228  0.443749  1
  La  La6  1  0.750000  0.853994  0.059812  1
  La  La7  1  0.250000  0.144722  0.939778  1
  Al  Al8  1  0.250000  0.663541  0.353541  1
  Al  Al9  1  0.750000  0.336811  0.645488  1
  Al  Al10  1  0.750000  0.835291  0.851456  1
  Al  Al11  1  0.250000  0.165627  0.146984  1
  Al  Al12  1  0.250000  0.508666  0.061547  1
  Al  Al13  1  0.750000  0.491665  0.938455  1
  Al  Al14  1  0.750000  0.992480  0.560626  1
  Al  Al15  1  0.250000  0.008670  0.440463  1
  Ir  Ir16  1  0.250000  0.208166  0.571778  1
  Pt  Pt17  1  0.250000  0.776625  0.180123  1
  Pt  Pt18  1  0.750000  0.224983  0.820478  1
  Pt  Pt19  1  0.750000  0.724391  0.680485  1
  Pt  Pt20  1  0.250000  0.275893  0.320053  1
  Pt  Pt21  1  0.250000  0.707387  0.929525  1
  Pt  Pt22  1  0.750000  0.292673  0.070466  1
  Pt  Pt23  1  0.750000  0.788979  0.428514  1
