# generated using pymatgen
data_Pa6Al24Re5Pd3
_symmetry_space_group_name_H-M   'P 1'
_cell_length_a   8.84250222
_cell_length_b   8.87622678
_cell_length_c   9.35018000
_cell_angle_alpha   90.00000000
_cell_angle_beta   90.34383497
_cell_angle_gamma   120.12624220
_symmetry_Int_Tables_number   1
_chemical_formula_structural   Pa6Al24Re5Pd3
_chemical_formula_sum   'Pa6 Al24 Re5 Pd3'
_cell_volume   634.73119674
_cell_formula_units_Z   1
loop_
 _symmetry_equiv_pos_site_id
 _symmetry_equiv_pos_as_xyz
  1  'x, y, z'
loop_
 _atom_site_type_symbol
 _atom_site_label
 _atom_site_symmetry_multiplicity
 _atom_site_fract_x
 _atom_site_fract_y
 _atom_site_fract_z
 _atom_site_occupancy
  Pa  Pa0  1  0.791771  0.190947  0.756536  1
  Pa  Pa1  1  0.208229  0.809053  0.243464  1
  Pa  Pa2  1  0.401733  0.200865  0.750989  1
  Pa  Pa3  1  0.598267  0.799135  0.249011  1
  Pa  Pa4  1  0.791771  0.600824  0.756536  1
  Pa  Pa5  1  0.208229  0.399176  0.243464  1
  Al  Al6  1  0.667228  0.333614  0.989879  1
  Al  Al7  1  0.332772  0.666386  0.010121  1
  Al  Al8  1  0.332321  0.666161  0.483124  1
  Al  Al9  1  0.667679  0.333839  0.516876  1
  Al  Al10  1  0.836402  0.160872  0.416728  1
  Al  Al11  1  0.163598  0.839128  0.583272  1
  Al  Al12  1  0.329305  0.164652  0.415023  1
  Al  Al13  1  0.161082  0.835341  0.912113  1
  Al  Al14  1  0.670695  0.835348  0.584977  1
  Al  Al15  1  0.838918  0.164659  0.087887  1
  Al  Al16  1  0.836402  0.675529  0.416728  1
  Al  Al17  1  0.671204  0.835603  0.916299  1
  Al  Al18  1  0.163598  0.324471  0.583272  1
  Al  Al19  1  0.328796  0.164397  0.083701  1
  Al  Al20  1  0.161082  0.325742  0.912113  1
  Al  Al21  1  0.838918  0.674258  0.087887  1
  Al  Al22  1  0.431696  0.561873  0.748655  1
  Al  Al23  1  0.568304  0.438127  0.251345  1
  Al  Al24  1  0.118926  0.559463  0.748793  1
  Al  Al25  1  0.881074  0.440537  0.251207  1
  Al  Al26  1  0.431696  0.869823  0.748655  1
  Al  Al27  1  0.568304  0.130177  0.251345  1
  Al  Al28  1  0.996842  0.998421  0.750581  1
  Al  Al29  1  0.003158  0.001579  0.249419  1
  Re  Re30  1  0.500000  0.500000  0.000000  1
  Re  Re31  1  0.000000  0.500000  0.000000  1
  Re  Re32  1  0.500000  0.500000  0.500000  1
  Re  Re33  1  0.500000  0.000000  0.000000  1
  Re  Re34  1  0.500000  0.000000  0.500000  1
  Pd  Pd35  1  0.000000  0.500000  0.500000  1
  Pd  Pd36  1  0.000000  0.000000  0.000000  1
  Pd  Pd37  1  0.000000  0.000000  0.500000  1
