# generated using pymatgen
data_Hf12Re5MoIr6
_symmetry_space_group_name_H-M   'P 1'
_cell_length_a   4.62039500
_cell_length_b   6.54857100
_cell_length_c   13.89432100
_cell_angle_alpha   90.00083646
_cell_angle_beta   89.99801408
_cell_angle_gamma   89.99994896
_symmetry_Int_Tables_number   1
_chemical_formula_structural   Hf12Re5MoIr6
_chemical_formula_sum   'Hf12 Re5 Mo1 Ir6'
_cell_volume   420.40025784
_cell_formula_units_Z   1
loop_
 _symmetry_equiv_pos_site_id
 _symmetry_equiv_pos_as_xyz
  1  'x, y, z'
loop_
 _atom_site_type_symbol
 _atom_site_label
 _atom_site_symmetry_multiplicity
 _atom_site_fract_x
 _atom_site_fract_y
 _atom_site_fract_z
 _atom_site_occupancy
  Hf  Hf0  1  0.499997  0.249933  0.999995  1
  Hf  Hf1  1  0.500003  0.750059  0.000000  1
  Hf  Hf2  1  0.000002  0.250368  0.166537  1
  Hf  Hf3  1  0.999992  0.749627  0.166537  1
  Hf  Hf4  1  0.499979  0.250112  0.333094  1
  Hf  Hf5  1  0.499968  0.749881  0.333095  1
  Hf  Hf6  1  0.000000  0.250165  0.500002  1
  Hf  Hf7  1  0.999996  0.749829  0.500002  1
  Hf  Hf8  1  0.500026  0.250107  0.666908  1
  Hf  Hf9  1  0.500028  0.749887  0.666909  1
  Hf  Hf10  1  0.000009  0.250364  0.833463  1
  Hf  Hf11  1  0.000009  0.749632  0.833459  1
  Re  Re12  1  0.499974  0.000010  0.166967  1
  Re  Re13  1  0.000002  0.500006  0.333629  1
  Re  Re14  1  0.500000  0.000000  0.499998  1
  Re  Re15  1  0.000009  0.500008  0.666368  1
  Re  Re16  1  0.500019  0.000004  0.833039  1
  Mo  Mo17  1  0.999996  0.500007  0.000001  1
  Ir  Ir18  1  0.999992  0.000001  0.999995  1
  Ir  Ir19  1  0.499978  0.499997  0.166875  1
  Ir  Ir20  1  0.999987  0.000004  0.333532  1
  Ir  Ir21  1  0.500004  0.500003  0.500001  1
  Ir  Ir22  1  0.000015  0.999998  0.666470  1
  Ir  Ir23  1  0.500019  0.499997  0.833126  1
