# generated using pymatgen
data_Nd3In3Ag2Rh
_symmetry_space_group_name_H-M   'P 1'
_cell_length_a   7.88303700
_cell_length_b   7.88303699
_cell_length_c   4.08764500
_cell_angle_alpha   90.00000000
_cell_angle_beta   90.00000000
_cell_angle_gamma   120.00000424
_symmetry_Int_Tables_number   1
_chemical_formula_structural   Nd3In3Ag2Rh
_chemical_formula_sum   'Nd3 In3 Ag2 Rh1'
_cell_volume   219.98390855
_cell_formula_units_Z   1
loop_
 _symmetry_equiv_pos_site_id
 _symmetry_equiv_pos_as_xyz
  1  'x, y, z'
loop_
 _atom_site_type_symbol
 _atom_site_label
 _atom_site_symmetry_multiplicity
 _atom_site_fract_x
 _atom_site_fract_y
 _atom_site_fract_z
 _atom_site_occupancy
  Nd  Nd0  1  0.597887  0.022558  0.500000  1
  Nd  Nd1  1  0.424671  0.402113  0.500000  1
  Nd  Nd2  1  0.977442  0.575329  0.500000  1
  In  In3  1  0.257735  0.000099  0.000000  1
  In  In4  1  0.742364  0.742265  0.000000  1
  In  In5  1  0.999901  0.257636  0.000000  1
  Ag  Ag6  1  0.000000  0.000000  0.500000  1
  Ag  Ag7  1  0.333333  0.666667  0.000000  1
  Rh  Rh8  1  0.666667  0.333333  0.000000  1
