# generated using pymatgen
data_Y3Ho13MgAg3Rh4
_symmetry_space_group_name_H-M   'P 1'
_cell_length_a   9.52541630
_cell_length_b   9.54673390
_cell_length_c   9.54322907
_cell_angle_alpha   60.16078166
_cell_angle_beta   60.15184824
_cell_angle_gamma   60.13161600
_symmetry_Int_Tables_number   1
_chemical_formula_structural   Y3Ho13MgAg3Rh4
_chemical_formula_sum   'Y3 Ho13 Mg1 Ag3 Rh4'
_cell_volume   615.70597084
_cell_formula_units_Z   1
loop_
 _symmetry_equiv_pos_site_id
 _symmetry_equiv_pos_as_xyz
  1  'x, y, z'
loop_
 _atom_site_type_symbol
 _atom_site_label
 _atom_site_symmetry_multiplicity
 _atom_site_fract_x
 _atom_site_fract_y
 _atom_site_fract_z
 _atom_site_occupancy
  Y  Y0  1  0.184849  0.813914  0.186399  1
  Y  Y1  1  0.813736  0.815853  0.185386  1
  Y  Y2  1  0.184252  0.186193  0.813922  1
  Ho  Ho3  1  0.601902  0.598937  0.599268  1
  Ho  Ho4  1  0.600516  0.598747  0.201999  1
  Ho  Ho5  1  0.600324  0.202189  0.598932  1
  Ho  Ho6  1  0.185173  0.604875  0.605160  1
  Ho  Ho7  1  0.060652  0.437873  0.438445  1
  Ho  Ho8  1  0.435901  0.063394  0.063189  1
  Ho  Ho9  1  0.435789  0.063340  0.436524  1
  Ho  Ho10  1  0.060359  0.438206  0.061374  1
  Ho  Ho11  1  0.435977  0.436099  0.063449  1
  Ho  Ho12  1  0.060203  0.061326  0.438566  1
  Ho  Ho13  1  0.184557  0.813674  0.812985  1
  Ho  Ho14  1  0.814115  0.185898  0.185684  1
  Ho  Ho15  1  0.813611  0.185936  0.815139  1
  Mg  Mg16  1  0.539112  0.820589  0.820544  1
  Ag  Ag17  1  0.832722  0.835245  0.834066  1
  Ag  Ag18  1  0.832499  0.835621  0.499192  1
  Ag  Ag19  1  0.832349  0.498294  0.835457  1
  Rh  Rh20  1  0.389022  0.394519  0.394382  1
  Rh  Rh21  1  0.390498  0.396240  0.820516  1
  Rh  Rh22  1  0.390229  0.820447  0.396334  1
  Rh  Rh23  1  0.821652  0.392594  0.393089  1
