# generated using pymatgen
data_Pr4Mg2AsP4
_symmetry_space_group_name_H-M   'P 1'
_cell_length_a   4.25848300
_cell_length_b   4.25848235
_cell_length_c   17.31687000
_cell_angle_alpha   90.00000000
_cell_angle_beta   90.00000000
_cell_angle_gamma   119.99999727
_symmetry_Int_Tables_number   1
_chemical_formula_structural   Pr4Mg2AsP4
_chemical_formula_sum   'Pr4 Mg2 As1 P4'
_cell_volume   271.96299172
_cell_formula_units_Z   1
loop_
 _symmetry_equiv_pos_site_id
 _symmetry_equiv_pos_as_xyz
  1  'x, y, z'
loop_
 _atom_site_type_symbol
 _atom_site_label
 _atom_site_symmetry_multiplicity
 _atom_site_fract_x
 _atom_site_fract_y
 _atom_site_fract_z
 _atom_site_occupancy
  Pr  Pr0  1  0.666667  0.333333  0.900038  1
  Pr  Pr1  1  0.333333  0.666667  0.099962  1
  Pr  Pr2  1  0.000000  0.000000  0.710022  1
  Pr  Pr3  1  0.000000  0.000000  0.289978  1
  Mg  Mg4  1  0.666667  0.333333  0.445123  1
  Mg  Mg5  1  0.333333  0.666667  0.554877  1
  As  As6  1  0.000000  0.000000  0.000000  1
  P  P7  1  0.666667  0.333333  0.598742  1
  P  P8  1  0.333333  0.666667  0.401258  1
  P  P9  1  0.666667  0.333333  0.200481  1
  P  P10  1  0.333333  0.666667  0.799519  1
