# generated using pymatgen
data_NdFe2(B2Ru)2
_symmetry_space_group_name_H-M   'P 1'
_cell_length_a   7.29667400
_cell_length_b   7.29667400
_cell_length_c   3.91194100
_cell_angle_alpha   90.00000000
_cell_angle_beta   90.00000000
_cell_angle_gamma   90.00000000
_symmetry_Int_Tables_number   1
_chemical_formula_structural   NdFe2(B2Ru)2
_chemical_formula_sum   'Nd2 Fe4 B8 Ru4'
_cell_volume   208.27741687
_cell_formula_units_Z   2
loop_
 _symmetry_equiv_pos_site_id
 _symmetry_equiv_pos_as_xyz
  1  'x, y, z'
loop_
 _atom_site_type_symbol
 _atom_site_label
 _atom_site_symmetry_multiplicity
 _atom_site_fract_x
 _atom_site_fract_y
 _atom_site_fract_z
 _atom_site_occupancy
  Nd  Nd0  1  0.000000  0.000000  0.917598  1
  Nd  Nd1  1  0.500000  0.500000  0.417598  1
  Fe  Fe2  1  0.113818  0.380612  0.621358  1
  Fe  Fe3  1  0.886182  0.619388  0.621358  1
  Fe  Fe4  1  0.119388  0.613818  0.121358  1
  Fe  Fe5  1  0.880612  0.386182  0.121358  1
  B  B6  1  0.819969  0.660415  0.120806  1
  B  B7  1  0.180031  0.339585  0.120806  1
  B  B8  1  0.839585  0.319969  0.620806  1
  B  B9  1  0.160415  0.680031  0.620806  1
  B  B10  1  0.729033  0.824054  0.401830  1
  B  B11  1  0.270967  0.175946  0.401830  1
  B  B12  1  0.675946  0.229033  0.901830  1
  B  B13  1  0.324054  0.770967  0.901830  1
  Ru  Ru14  1  0.392456  0.156969  0.897208  1
  Ru  Ru15  1  0.607544  0.843031  0.897208  1
  Ru  Ru16  1  0.343031  0.892456  0.397208  1
  Ru  Ru17  1  0.656969  0.107544  0.397208  1
