# generated using pymatgen
data_Tb5Lu11(ScIr3)4
_symmetry_space_group_name_H-M   'P 1'
_cell_length_a   10.64564868
_cell_length_b   10.66978659
_cell_length_c   6.20506600
_cell_angle_alpha   89.94207479
_cell_angle_beta   89.97959652
_cell_angle_gamma   90.00925320
_symmetry_Int_Tables_number   1
_chemical_formula_structural   Tb5Lu11(ScIr3)4
_chemical_formula_sum   'Tb5 Lu11 Sc4 Ir12'
_cell_volume   704.81317352
_cell_formula_units_Z   1
loop_
 _symmetry_equiv_pos_site_id
 _symmetry_equiv_pos_as_xyz
  1  'x, y, z'
loop_
 _atom_site_type_symbol
 _atom_site_label
 _atom_site_symmetry_multiplicity
 _atom_site_fract_x
 _atom_site_fract_y
 _atom_site_fract_z
 _atom_site_occupancy
  Tb  Tb0  1  0.785294  0.586862  0.626834  1
  Tb  Tb1  1  0.912829  0.713555  0.126834  1
  Tb  Tb2  1  0.912180  0.286128  0.627462  1
  Tb  Tb3  1  0.089231  0.713250  0.626669  1
  Tb  Tb4  1  0.088616  0.286203  0.128030  1
  Lu  Lu5  1  0.290693  0.083617  0.377364  1
  Lu  Lu6  1  0.290231  0.916456  0.876605  1
  Lu  Lu7  1  0.709242  0.083793  0.877266  1
  Lu  Lu8  1  0.709597  0.916352  0.376873  1
  Lu  Lu9  1  0.583368  0.790371  0.877620  1
  Lu  Lu10  1  0.585311  0.211006  0.374830  1
  Lu  Lu11  1  0.415071  0.789094  0.377598  1
  Lu  Lu12  1  0.414450  0.210757  0.876082  1
  Lu  Lu13  1  0.212416  0.414026  0.625015  1
  Lu  Lu14  1  0.212992  0.585590  0.125133  1
  Lu  Lu15  1  0.788619  0.413778  0.124240  1
  Sc  Sc16  1  0.000450  0.000061  0.495002  1
  Sc  Sc17  1  0.000288  0.000519  0.995740  1
  Sc  Sc18  1  0.499933  0.499314  0.996411  1
  Sc  Sc19  1  0.498389  0.498973  0.496045  1
  Ir  Ir20  1  0.847704  0.148098  0.245766  1
  Ir  Ir21  1  0.847775  0.855025  0.748051  1
  Ir  Ir22  1  0.152318  0.148131  0.745713  1
  Ir  Ir23  1  0.153035  0.852794  0.246313  1
  Ir  Ir24  1  0.646032  0.347626  0.752531  1
  Ir  Ir25  1  0.646147  0.649878  0.246580  1
  Ir  Ir26  1  0.352301  0.349897  0.251288  1
  Ir  Ir27  1  0.352326  0.649278  0.750960  1
  Ir  Ir28  1  0.499574  0.000239  0.123143  1
  Ir  Ir29  1  0.500006  0.000656  0.622457  1
  Ir  Ir30  1  0.001951  0.499243  0.880725  1
  Ir  Ir31  1  0.001631  0.499427  0.378818  1
