# generated using pymatgen
data_TbZr(Co5As3)2
_symmetry_space_group_name_H-M   'P 1'
_cell_length_a   3.75904500
_cell_length_b   12.13988409
_cell_length_c   10.63869601
_cell_angle_alpha   89.90446393
_cell_angle_beta   90.00000000
_cell_angle_gamma   90.00000000
_symmetry_Int_Tables_number   1
_chemical_formula_structural   TbZr(Co5As3)2
_chemical_formula_sum   'Tb2 Zr2 Co20 As12'
_cell_volume   485.48952119
_cell_formula_units_Z   2
loop_
 _symmetry_equiv_pos_site_id
 _symmetry_equiv_pos_as_xyz
  1  'x, y, z'
loop_
 _atom_site_type_symbol
 _atom_site_label
 _atom_site_symmetry_multiplicity
 _atom_site_fract_x
 _atom_site_fract_y
 _atom_site_fract_z
 _atom_site_occupancy
  Tb  Tb0  1  0.250000  0.797768  0.582035  1
  Tb  Tb1  1  0.750000  0.202232  0.417965  1
  Zr  Zr2  1  0.750000  0.700762  0.078843  1
  Zr  Zr3  1  0.250000  0.299238  0.921157  1
  Co  Co4  1  0.750000  0.696611  0.381611  1
  Co  Co5  1  0.250000  0.303389  0.618389  1
  Co  Co6  1  0.250000  0.801496  0.888261  1
  Co  Co7  1  0.750000  0.198504  0.111739  1
  Co  Co8  1  0.750000  0.993301  0.213257  1
  Co  Co9  1  0.250000  0.006699  0.786743  1
  Co  Co10  1  0.250000  0.508196  0.716004  1
  Co  Co11  1  0.750000  0.491804  0.283996  1
  Co  Co12  1  0.750000  0.678022  0.785529  1
  Co  Co13  1  0.250000  0.321978  0.214471  1
  Co  Co14  1  0.250000  0.820276  0.281194  1
  Co  Co15  1  0.750000  0.179724  0.718806  1
  Co  Co16  1  0.750000  0.930547  0.971411  1
  Co  Co17  1  0.250000  0.069453  0.028589  1
  Co  Co18  1  0.250000  0.568290  0.467569  1
  Co  Co19  1  0.750000  0.431710  0.532431  1
  Co  Co20  1  0.750000  0.988514  0.593214  1
  Co  Co21  1  0.250000  0.011486  0.406786  1
  Co  Co22  1  0.250000  0.513340  0.090299  1
  Co  Co23  1  0.750000  0.486659  0.909701  1
  As  As24  1  0.750000  0.613570  0.584879  1
  As  As25  1  0.250000  0.386430  0.415121  1
  As  As26  1  0.250000  0.884702  0.085296  1
  As  As27  1  0.750000  0.115298  0.914704  1
  As  As28  1  0.750000  0.890114  0.398509  1
  As  As29  1  0.250000  0.109886  0.601491  1
  As  As30  1  0.250000  0.610785  0.900968  1
  As  As31  1  0.750000  0.389215  0.099032  1
  As  As32  1  0.750000  0.870885  0.770345  1
  As  As33  1  0.250000  0.129115  0.229655  1
  As  As34  1  0.250000  0.629472  0.265198  1
  As  As35  1  0.750000  0.370528  0.734802  1
