# generated using pymatgen
data_TbDy4Bi2Te
_symmetry_space_group_name_H-M   'P 1'
_cell_length_a   8.18309000
_cell_length_b   9.48182700
_cell_length_c   11.93245100
_cell_angle_alpha   90.00000000
_cell_angle_beta   90.00000000
_cell_angle_gamma   90.00000000
_symmetry_Int_Tables_number   1
_chemical_formula_structural   TbDy4Bi2Te
_chemical_formula_sum   'Tb4 Dy16 Bi8 Te4'
_cell_volume   925.84655407
_cell_formula_units_Z   4
loop_
 _symmetry_equiv_pos_site_id
 _symmetry_equiv_pos_as_xyz
  1  'x, y, z'
loop_
 _atom_site_type_symbol
 _atom_site_label
 _atom_site_symmetry_multiplicity
 _atom_site_fract_x
 _atom_site_fract_y
 _atom_site_fract_z
 _atom_site_occupancy
  Tb  Tb0  1  0.317527  0.250000  0.218592  1
  Tb  Tb1  1  0.817527  0.250000  0.281408  1
  Tb  Tb2  1  0.682473  0.750000  0.781408  1
  Tb  Tb3  1  0.182473  0.750000  0.718592  1
  Dy  Dy4  1  0.352918  0.750000  0.213262  1
  Dy  Dy5  1  0.852918  0.750000  0.286738  1
  Dy  Dy6  1  0.647082  0.250000  0.786738  1
  Dy  Dy7  1  0.147082  0.250000  0.713262  1
  Dy  Dy8  1  0.690197  0.561165  0.057268  1
  Dy  Dy9  1  0.190197  0.938835  0.442732  1
  Dy  Dy10  1  0.309803  0.061165  0.942732  1
  Dy  Dy11  1  0.809803  0.438835  0.557268  1
  Dy  Dy12  1  0.309803  0.438835  0.942732  1
  Dy  Dy13  1  0.809803  0.061165  0.557268  1
  Dy  Dy14  1  0.690197  0.938835  0.057268  1
  Dy  Dy15  1  0.190197  0.561165  0.442732  1
  Dy  Dy16  1  0.476044  0.250000  0.488015  1
  Dy  Dy17  1  0.976044  0.250000  0.011985  1
  Dy  Dy18  1  0.523956  0.750000  0.511985  1
  Dy  Dy19  1  0.023956  0.750000  0.988015  1
  Bi  Bi20  1  0.567751  0.995087  0.325182  1
  Bi  Bi21  1  0.067751  0.504913  0.174818  1
  Bi  Bi22  1  0.432249  0.495087  0.674818  1
  Bi  Bi23  1  0.932249  0.004913  0.825182  1
  Bi  Bi24  1  0.432249  0.004913  0.674818  1
  Bi  Bi25  1  0.932249  0.495087  0.825182  1
  Bi  Bi26  1  0.567751  0.504913  0.325182  1
  Bi  Bi27  1  0.067751  0.995087  0.174818  1
  Te  Te28  1  0.408263  0.750000  0.957593  1
  Te  Te29  1  0.908263  0.750000  0.542407  1
  Te  Te30  1  0.591737  0.250000  0.042407  1
  Te  Te31  1  0.091737  0.250000  0.457593  1
