# generated using pymatgen
data_LiLaErAgSn2
_symmetry_space_group_name_H-M   'P 1'
_cell_length_a   4.76620600
_cell_length_b   4.76620472
_cell_length_c   7.63907500
_cell_angle_alpha   90.00000000
_cell_angle_beta   90.00000000
_cell_angle_gamma   120.00000887
_symmetry_Int_Tables_number   1
_chemical_formula_structural   LiLaErAgSn2
_chemical_formula_sum   'Li1 La1 Er1 Ag1 Sn2'
_cell_volume   150.28542660
_cell_formula_units_Z   1
loop_
 _symmetry_equiv_pos_site_id
 _symmetry_equiv_pos_as_xyz
  1  'x, y, z'
loop_
 _atom_site_type_symbol
 _atom_site_label
 _atom_site_symmetry_multiplicity
 _atom_site_fract_x
 _atom_site_fract_y
 _atom_site_fract_z
 _atom_site_occupancy
  Li  Li0  1  0.666667  0.333333  0.493600  1
  La  La1  1  0.000000  0.000000  0.730916  1
  Er  Er2  1  0.000000  0.000000  0.228123  1
  Ag  Ag3  1  0.333333  0.666667  0.053555  1
  Sn  Sn4  1  0.333333  0.666667  0.449422  1
  Sn  Sn5  1  0.666667  0.333333  0.960386  1
