# generated using pymatgen
data_Y2Tm8Cd3Ru
_symmetry_space_group_name_H-M   'P 1'
_cell_length_a   9.49069107
_cell_length_b   9.48864645
_cell_length_c   9.72730500
_cell_angle_alpha   90.00000000
_cell_angle_beta   90.00000000
_cell_angle_gamma   119.99286868
_symmetry_Int_Tables_number   1
_chemical_formula_structural   Y2Tm8Cd3Ru
_chemical_formula_sum   'Y4 Tm16 Cd6 Ru2'
_cell_volume   758.67621867
_cell_formula_units_Z   2
loop_
 _symmetry_equiv_pos_site_id
 _symmetry_equiv_pos_as_xyz
  1  'x, y, z'
loop_
 _atom_site_type_symbol
 _atom_site_label
 _atom_site_symmetry_multiplicity
 _atom_site_fract_x
 _atom_site_fract_y
 _atom_site_fract_z
 _atom_site_occupancy
  Y  Y0  1  0.917424  0.458712  0.250000  1
  Y  Y1  1  0.459278  0.540631  0.750000  1
  Y  Y2  1  0.459278  0.918647  0.750000  1
  Y  Y3  1  0.081217  0.540608  0.750000  1
  Tm  Tm4  1  0.000081  0.000041  0.500056  1
  Tm  Tm5  1  0.000081  0.000041  0.999944  1
  Tm  Tm6  1  0.210498  0.790680  0.439958  1
  Tm  Tm7  1  0.210498  0.419818  0.439958  1
  Tm  Tm8  1  0.580233  0.790117  0.439726  1
  Tm  Tm9  1  0.789637  0.209633  0.559453  1
  Tm  Tm10  1  0.789637  0.580002  0.559453  1
  Tm  Tm11  1  0.420099  0.210049  0.559078  1
  Tm  Tm12  1  0.789637  0.209633  0.940547  1
  Tm  Tm13  1  0.789637  0.580002  0.940547  1
  Tm  Tm14  1  0.420099  0.210049  0.940922  1
  Tm  Tm15  1  0.210498  0.790680  0.060042  1
  Tm  Tm16  1  0.210498  0.419818  0.060042  1
  Tm  Tm17  1  0.580233  0.790117  0.060274  1
  Tm  Tm18  1  0.540395  0.458984  0.250000  1
  Tm  Tm19  1  0.540395  0.081411  0.250000  1
  Cd  Cd20  1  0.885125  0.113832  0.250000  1
  Cd  Cd21  1  0.885125  0.771294  0.250000  1
  Cd  Cd22  1  0.229523  0.114762  0.250000  1
  Cd  Cd23  1  0.114151  0.886081  0.750000  1
  Cd  Cd24  1  0.114151  0.228069  0.750000  1
  Cd  Cd25  1  0.771902  0.885951  0.750000  1
  Ru  Ru26  1  0.333780  0.666891  0.250000  1
  Ru  Ru27  1  0.666896  0.333447  0.750000  1
