# generated using pymatgen
data_Hf7Fe3Co13P12W
_symmetry_space_group_name_H-M   'P 1'
_cell_length_a   11.98379933
_cell_length_b   11.98613703
_cell_length_c   3.64435900
_cell_angle_alpha   90.00000000
_cell_angle_beta   90.00000000
_cell_angle_gamma   119.99578905
_symmetry_Int_Tables_number   1
_chemical_formula_structural   Hf7Fe3Co13P12W
_chemical_formula_sum   'Hf7 Fe3 Co13 P12 W1'
_cell_volume   453.36081128
_cell_formula_units_Z   1
loop_
 _symmetry_equiv_pos_site_id
 _symmetry_equiv_pos_as_xyz
  1  'x, y, z'
loop_
 _atom_site_type_symbol
 _atom_site_label
 _atom_site_symmetry_multiplicity
 _atom_site_fract_x
 _atom_site_fract_y
 _atom_site_fract_z
 _atom_site_occupancy
  Hf  Hf0  1  0.819422  0.818831  0.500000  1
  Hf  Hf1  1  0.000147  0.175403  0.500000  1
  Hf  Hf2  1  0.555442  0.000025  0.000000  1
  Hf  Hf3  1  0.335242  0.666582  0.000000  1
  Hf  Hf4  1  0.666588  0.335036  0.000000  1
  Hf  Hf5  1  0.000351  0.555910  0.000000  1
  Hf  Hf6  1  0.174658  0.999247  0.500000  1
  Fe  Fe7  1  0.626108  0.820374  0.000000  1
  Fe  Fe8  1  0.999244  0.720823  0.500000  1
  Fe  Fe9  1  0.281014  0.280843  0.500000  1
  Co  Co10  1  0.373047  0.197647  0.000000  1
  Co  Co11  1  0.873413  0.353790  0.500000  1
  Co  Co12  1  0.722941  0.001907  0.500000  1
  Co  Co13  1  0.817294  0.625906  0.000000  1
  Co  Co14  1  0.179820  0.807672  0.000000  1
  Co  Co15  1  0.355014  0.873981  0.500000  1
  Co  Co16  1  0.131312  0.481797  0.500000  1
  Co  Co17  1  0.642838  0.514431  0.500000  1
  Co  Co18  1  0.000855  0.000641  0.000000  1
  Co  Co19  1  0.514552  0.641931  0.500000  1
  Co  Co20  1  0.482482  0.131807  0.500000  1
  Co  Co21  1  0.197268  0.372449  0.000000  1
  Co  Co22  1  0.807316  0.178528  0.000000  1
  P  P23  1  0.003143  0.346185  0.000000  1
  P  P24  1  0.827477  0.517630  0.500000  1
  P  P25  1  0.689691  0.173748  0.500000  1
  P  P26  1  0.176573  0.176414  0.000000  1
  P  P27  1  0.644597  0.646829  0.000000  1
  P  P28  1  0.822645  0.996004  0.000000  1
  P  P29  1  0.517818  0.826442  0.500000  1
  P  P30  1  0.173003  0.690859  0.500000  1
  P  P31  1  0.346206  0.003161  0.000000  1
  P  P32  1  0.480581  0.315048  0.500000  1
  P  P33  1  0.998020  0.822722  0.000000  1
  P  P34  1  0.314913  0.480340  0.500000  1
  W  W35  1  0.448964  0.449054  0.000000  1
