# generated using pymatgen
data_LiTbY7Mg(SiB4)4
_symmetry_space_group_name_H-M   'P 1'
_cell_length_a   7.17024507
_cell_length_b   7.16942002
_cell_length_c   7.86504600
_cell_angle_alpha   90.00254743
_cell_angle_beta   89.99421275
_cell_angle_gamma   90.00391534
_symmetry_Int_Tables_number   1
_chemical_formula_structural   LiTbY7Mg(SiB4)4
_chemical_formula_sum   'Li1 Tb1 Y7 Mg1 Si4 B16'
_cell_volume   404.31447254
_cell_formula_units_Z   1
loop_
 _symmetry_equiv_pos_site_id
 _symmetry_equiv_pos_as_xyz
  1  'x, y, z'
loop_
 _atom_site_type_symbol
 _atom_site_label
 _atom_site_symmetry_multiplicity
 _atom_site_fract_x
 _atom_site_fract_y
 _atom_site_fract_z
 _atom_site_occupancy
  Li  Li0  1  0.999919  0.999825  0.500149  1
  Tb  Tb1  1  0.182632  0.315735  0.235051  1
  Y  Y2  1  0.683912  0.182293  0.234660  1
  Y  Y3  1  0.316064  0.817689  0.765351  1
  Y  Y4  1  0.316051  0.817723  0.234645  1
  Y  Y5  1  0.817494  0.684203  0.234714  1
  Y  Y6  1  0.817456  0.684201  0.765241  1
  Y  Y7  1  0.684001  0.182300  0.765373  1
  Y  Y8  1  0.182520  0.315806  0.765185  1
  Mg  Mg9  1  0.500102  0.500062  0.500124  1
  Si  Si10  1  0.113762  0.615958  0.500253  1
  Si  Si11  1  0.885824  0.384519  0.500218  1
  Si  Si12  1  0.384522  0.113781  0.500311  1
  Si  Si13  1  0.615931  0.885834  0.500107  1
  B  B14  1  0.173902  0.039472  0.999887  1
  B  B15  1  0.825957  0.960455  0.999885  1
  B  B16  1  0.960522  0.173920  0.999902  1
  B  B17  1  0.326673  0.539585  0.999939  1
  B  B18  1  0.039411  0.825975  0.999852  1
  B  B19  1  0.673412  0.460483  0.999863  1
  B  B20  1  0.539716  0.673430  0.999868  1
  B  B21  1  0.460363  0.326700  0.999927  1
  B  B22  1  0.088928  0.589172  0.999988  1
  B  B23  1  0.911050  0.410843  0.999947  1
  B  B24  1  0.410659  0.089172  0.000129  1
  B  B25  1  0.589245  0.910922  0.999941  1
  B  B26  1  0.999917  0.999839  0.160057  1
  B  B27  1  0.999931  0.999973  0.839650  1
  B  B28  1  0.500050  0.500058  0.837406  1
  B  B29  1  0.500072  0.500076  0.162378  1
