# generated using pymatgen
data_Y6Er10Cd4RuPt3
_symmetry_space_group_name_H-M   'P 1'
_cell_length_a   9.65061360
_cell_length_b   9.65061285
_cell_length_c   9.65061400
_cell_angle_alpha   59.69812113
_cell_angle_beta   59.69812655
_cell_angle_gamma   59.69812406
_symmetry_Int_Tables_number   1
_chemical_formula_structural   Y6Er10Cd4RuPt3
_chemical_formula_sum   'Y6 Er10 Cd4 Ru1 Pt3'
_cell_volume   631.19199556
_cell_formula_units_Z   1
loop_
 _symmetry_equiv_pos_site_id
 _symmetry_equiv_pos_as_xyz
  1  'x, y, z'
loop_
 _atom_site_type_symbol
 _atom_site_label
 _atom_site_symmetry_multiplicity
 _atom_site_fract_x
 _atom_site_fract_y
 _atom_site_fract_z
 _atom_site_occupancy
  Y  Y0  1  0.936271  0.564555  0.564555  1
  Y  Y1  1  0.560187  0.937002  0.937002  1
  Y  Y2  1  0.564555  0.936271  0.564555  1
  Y  Y3  1  0.937002  0.560187  0.937002  1
  Y  Y4  1  0.564555  0.564555  0.936271  1
  Y  Y5  1  0.937002  0.937002  0.560187  1
  Er  Er6  1  0.351737  0.351737  0.351737  1
  Er  Er7  1  0.349293  0.349293  0.949215  1
  Er  Er8  1  0.349293  0.949215  0.349293  1
  Er  Er9  1  0.949215  0.349293  0.349293  1
  Er  Er10  1  0.815307  0.188438  0.188438  1
  Er  Er11  1  0.188651  0.810212  0.810212  1
  Er  Er12  1  0.188438  0.815307  0.188438  1
  Er  Er13  1  0.810212  0.188651  0.810212  1
  Er  Er14  1  0.188438  0.188438  0.815307  1
  Er  Er15  1  0.810212  0.810212  0.188651  1
  Cd  Cd16  1  0.580317  0.580317  0.580317  1
  Cd  Cd17  1  0.581168  0.581168  0.255114  1
  Cd  Cd18  1  0.581168  0.255114  0.581168  1
  Cd  Cd19  1  0.255114  0.581168  0.581168  1
  Ru  Ru20  1  0.142794  0.142794  0.142794  1
  Pt  Pt21  1  0.143379  0.143379  0.572311  1
  Pt  Pt22  1  0.143379  0.572311  0.143379  1
  Pt  Pt23  1  0.572311  0.143379  0.143379  1
