# generated using pymatgen
data_Ho12Mn2ZnIn2
_symmetry_space_group_name_H-M   'P 1'
_cell_length_a   8.38552991
_cell_length_b   8.38582330
_cell_length_c   8.38553028
_cell_angle_alpha   109.61065692
_cell_angle_beta   109.61843162
_cell_angle_gamma   109.18355197
_symmetry_Int_Tables_number   1
_chemical_formula_structural   Ho12Mn2ZnIn2
_chemical_formula_sum   'Ho12 Mn2 Zn1 In2'
_cell_volume   453.92509873
_cell_formula_units_Z   1
loop_
 _symmetry_equiv_pos_site_id
 _symmetry_equiv_pos_as_xyz
  1  'x, y, z'
loop_
 _atom_site_type_symbol
 _atom_site_label
 _atom_site_symmetry_multiplicity
 _atom_site_fract_x
 _atom_site_fract_y
 _atom_site_fract_z
 _atom_site_occupancy
  Ho  Ho0  1  0.445320  0.202404  0.242905  1
  Ho  Ho1  1  0.554680  0.797596  0.757095  1
  Ho  Ho2  1  0.959499  0.202404  0.757085  1
  Ho  Ho3  1  0.202415  0.959525  0.757110  1
  Ho  Ho4  1  0.040501  0.797596  0.242915  1
  Ho  Ho5  1  0.797585  0.040475  0.242890  1
  Ho  Ho6  1  0.202432  0.445306  0.242873  1
  Ho  Ho7  1  0.797568  0.554694  0.757127  1
  Ho  Ho8  1  0.304975  0.304917  0.609935  1
  Ho  Ho9  1  0.695025  0.695083  0.390065  1
  Ho  Ho10  1  0.305017  0.695083  0.000058  1
  Ho  Ho11  1  0.694983  0.304917  0.999942  1
  Mn  Mn12  1  0.391426  0.391451  0.000024  1
  Mn  Mn13  1  0.608574  0.608549  0.999976  1
  Zn  Zn14  1  0.000000  0.000000  0.000000  1
  In  In15  1  0.500000  0.000000  0.500000  1
  In  In16  1  0.000000  0.500000  0.500000  1
