# generated using pymatgen
data_Ta12Al8VIr3C4
_symmetry_space_group_name_H-M   'P 1'
_cell_length_a   8.33922253
_cell_length_b   8.31676834
_cell_length_c   8.31676800
_cell_angle_alpha   60.00000137
_cell_angle_beta   60.08903194
_cell_angle_gamma   60.08902791
_symmetry_Int_Tables_number   1
_chemical_formula_structural   Ta12Al8VIr3C4
_chemical_formula_sum   'Ta12 Al8 V1 Ir3 C4'
_cell_volume   408.41612160
_cell_formula_units_Z   1
loop_
 _symmetry_equiv_pos_site_id
 _symmetry_equiv_pos_as_xyz
  1  'x, y, z'
loop_
 _atom_site_type_symbol
 _atom_site_label
 _atom_site_symmetry_multiplicity
 _atom_site_fract_x
 _atom_site_fract_y
 _atom_site_fract_z
 _atom_site_occupancy
  Ta  Ta0  1  0.563979  0.942265  0.551490  1
  Ta  Ta1  1  0.312869  0.686546  0.686546  1
  Ta  Ta2  1  0.686021  0.307735  0.307735  1
  Ta  Ta3  1  0.312869  0.686546  0.314039  1
  Ta  Ta4  1  0.686021  0.698510  0.307735  1
  Ta  Ta5  1  0.312869  0.314039  0.686546  1
  Ta  Ta6  1  0.563979  0.551490  0.942265  1
  Ta  Ta7  1  0.937131  0.563454  0.563454  1
  Ta  Ta8  1  0.563979  0.942265  0.942265  1
  Ta  Ta9  1  0.937131  0.935961  0.563454  1
  Ta  Ta10  1  0.686021  0.307735  0.698510  1
  Ta  Ta11  1  0.937131  0.563454  0.935961  1
  Al  Al12  1  0.918417  0.915912  0.915912  1
  Al  Al13  1  0.993232  0.335589  0.335589  1
  Al  Al14  1  0.331583  0.000238  0.334088  1
  Al  Al15  1  0.331583  0.334088  0.000238  1
  Al  Al16  1  0.918417  0.249762  0.915912  1
  Al  Al17  1  0.918417  0.915912  0.249762  1
  Al  Al18  1  0.256768  0.914411  0.914411  1
  Al  Al19  1  0.331583  0.334088  0.334088  1
  V  V20  1  0.625000  0.125000  0.125000  1
  Ir  Ir21  1  0.125000  0.125000  0.125000  1
  Ir  Ir22  1  0.125000  0.625000  0.125000  1
  Ir  Ir23  1  0.125000  0.125000  0.625000  1
  C  C24  1  0.625000  0.625000  0.625000  1
  C  C25  1  0.125000  0.625000  0.625000  1
  C  C26  1  0.625000  0.125000  0.625000  1
  C  C27  1  0.625000  0.625000  0.125000  1
