# generated using pymatgen
data_LaTh2(MgAu)3
_symmetry_space_group_name_H-M   'P 1'
_cell_length_a   7.80482381
_cell_length_b   7.80482348
_cell_length_c   4.24978200
_cell_angle_alpha   90.00000000
_cell_angle_beta   90.00000000
_cell_angle_gamma   120.38832285
_symmetry_Int_Tables_number   1
_chemical_formula_structural   LaTh2(MgAu)3
_chemical_formula_sum   'La1 Th2 Mg3 Au3'
_cell_volume   223.31132333
_cell_formula_units_Z   1
loop_
 _symmetry_equiv_pos_site_id
 _symmetry_equiv_pos_as_xyz
  1  'x, y, z'
loop_
 _atom_site_type_symbol
 _atom_site_label
 _atom_site_symmetry_multiplicity
 _atom_site_fract_x
 _atom_site_fract_y
 _atom_site_fract_z
 _atom_site_occupancy
  La  La0  1  0.415591  0.415591  0.000000  1
  Th  Th1  1  0.584958  0.001312  0.000000  1
  Th  Th2  1  0.001312  0.584958  0.000000  1
  Mg  Mg3  1  0.239547  0.000464  0.500000  1
  Mg  Mg4  1  0.000464  0.239547  0.500000  1
  Mg  Mg5  1  0.760150  0.760150  0.500000  1
  Au  Au6  1  0.331132  0.675653  0.500000  1
  Au  Au7  1  0.675653  0.331132  0.500000  1
  Au  Au8  1  0.991193  0.991193  0.000000  1
