# generated using pymatgen
data_Ca2Zn9Ag
_symmetry_space_group_name_H-M   'P 1'
_cell_length_a   6.98941456
_cell_length_b   6.98941376
_cell_length_c   6.98792124
_cell_angle_alpha   136.09373490
_cell_angle_beta   103.98192454
_cell_angle_gamma   92.18431609
_symmetry_Int_Tables_number   1
_chemical_formula_structural   Ca2Zn9Ag
_chemical_formula_sum   'Ca2 Zn9 Ag1'
_cell_volume   218.00227105
_cell_formula_units_Z   1
loop_
 _symmetry_equiv_pos_site_id
 _symmetry_equiv_pos_as_xyz
  1  'x, y, z'
loop_
 _atom_site_type_symbol
 _atom_site_label
 _atom_site_symmetry_multiplicity
 _atom_site_fract_x
 _atom_site_fract_y
 _atom_site_fract_z
 _atom_site_occupancy
  Ca  Ca0  1  0.746889  0.496187  0.743075  1
  Ca  Ca1  1  0.253111  0.503813  0.256925  1
  Zn  Zn2  1  0.074327  0.828640  0.755587  1
  Zn  Zn3  1  0.426947  0.181260  0.755587  1
  Zn  Zn4  1  0.573053  0.818740  0.244413  1
  Zn  Zn5  1  0.925673  0.171360  0.244413  1
  Zn  Zn6  1  0.500000  0.000000  0.000000  1
  Zn  Zn7  1  0.743570  0.994193  0.746854  1
  Zn  Zn8  1  0.747339  0.496716  0.253146  1
  Zn  Zn9  1  0.252661  0.503284  0.746854  1
  Zn  Zn10  1  0.256430  0.005807  0.253146  1
  Ag  Ag11  1  0.000000  0.000000  0.500000  1
