# generated using pymatgen
data_NdGaSiIr2
_symmetry_space_group_name_H-M   'P 1'
_cell_length_a   4.17722500
_cell_length_b   4.17718500
_cell_length_c   10.32241900
_cell_angle_alpha   90.00000000
_cell_angle_beta   90.00000000
_cell_angle_gamma   90.00000000
_symmetry_Int_Tables_number   1
_chemical_formula_structural   NdGaSiIr2
_chemical_formula_sum   'Nd2 Ga2 Si2 Ir4'
_cell_volume   180.11631866
_cell_formula_units_Z   2
loop_
 _symmetry_equiv_pos_site_id
 _symmetry_equiv_pos_as_xyz
  1  'x, y, z'
loop_
 _atom_site_type_symbol
 _atom_site_label
 _atom_site_symmetry_multiplicity
 _atom_site_fract_x
 _atom_site_fract_y
 _atom_site_fract_z
 _atom_site_occupancy
  Nd  Nd0  1  0.000000  0.500000  0.249574  1
  Nd  Nd1  1  0.500000  0.000000  0.750426  1
  Ga  Ga2  1  0.000000  0.000000  0.500000  1
  Ga  Ga3  1  0.500000  0.500000  0.500000  1
  Si  Si4  1  0.000000  0.500000  0.876737  1
  Si  Si5  1  0.500000  0.000000  0.123263  1
  Ir  Ir6  1  0.000000  0.000000  0.000000  1
  Ir  Ir7  1  0.500000  0.500000  0.000000  1
  Ir  Ir8  1  0.000000  0.500000  0.646126  1
  Ir  Ir9  1  0.500000  0.000000  0.353874  1
