# generated using pymatgen
data_Ca4Ga15(SiIr2)3
_symmetry_space_group_name_H-M   'P 1'
_cell_length_a   7.56461830
_cell_length_b   7.46617593
_cell_length_c   9.68766413
_cell_angle_alpha   89.92274902
_cell_angle_beta   89.96965513
_cell_angle_gamma   119.72904923
_symmetry_Int_Tables_number   1
_chemical_formula_structural   Ca4Ga15(SiIr2)3
_chemical_formula_sum   'Ca4 Ga15 Si3 Ir6'
_cell_volume   475.13105531
_cell_formula_units_Z   1
loop_
 _symmetry_equiv_pos_site_id
 _symmetry_equiv_pos_as_xyz
  1  'x, y, z'
loop_
 _atom_site_type_symbol
 _atom_site_label
 _atom_site_symmetry_multiplicity
 _atom_site_fract_x
 _atom_site_fract_y
 _atom_site_fract_z
 _atom_site_occupancy
  Ca  Ca0  1  0.996035  0.666217  0.248066  1
  Ca  Ca1  1  0.004719  0.338463  0.750147  1
  Ca  Ca2  1  0.673156  0.003986  0.247665  1
  Ca  Ca3  1  0.323540  0.991888  0.750064  1
  Ga  Ga4  1  0.128684  0.128268  0.250295  1
  Ga  Ga5  1  0.871367  0.868473  0.751235  1
  Ga  Ga6  1  0.340488  0.005661  0.421966  1
  Ga  Ga7  1  0.000889  0.327848  0.425041  1
  Ga  Ga8  1  0.666796  0.001372  0.578218  1
  Ga  Ga9  1  0.662888  0.997882  0.919777  1
  Ga  Ga10  1  0.338675  0.004459  0.078551  1
  Ga  Ga11  1  0.333782  0.329939  0.566018  1
  Ga  Ga12  1  0.659219  0.668681  0.435747  1
  Ga  Ga13  1  0.659088  0.668249  0.066047  1
  Ga  Ga14  1  0.338561  0.330511  0.932960  1
  Ga  Ga15  1  0.334534  0.545710  0.250440  1
  Ga  Ga16  1  0.665056  0.456333  0.752412  1
  Ga  Ga17  1  0.547810  0.340727  0.250567  1
  Ga  Ga18  1  0.453729  0.661426  0.751328  1
  Si  Si19  1  0.002414  0.329210  0.066709  1
  Si  Si20  1  0.997234  0.670347  0.934579  1
  Si  Si21  1  0.999432  0.665386  0.562892  1
  Ir  Ir22  1  0.696941  0.344137  0.003591  1
  Ir  Ir23  1  0.302712  0.655800  0.997575  1
  Ir  Ir24  1  0.315877  0.668356  0.504330  1
  Ir  Ir25  1  0.685813  0.345007  0.501995  1
  Ir  Ir26  1  0.999841  0.999767  0.000195  1
  Ir  Ir27  1  0.000719  0.985894  0.501592  1
