# generated using pymatgen
data_CsLiS6
_symmetry_space_group_name_H-M   'P 1'
_cell_length_a   7.89405173
_cell_length_b   11.16611897
_cell_length_c   11.46565760
_cell_angle_alpha   73.79477328
_cell_angle_beta   83.73535620
_cell_angle_gamma   78.22212898
_symmetry_Int_Tables_number   1
_chemical_formula_structural   CsLiS6
_chemical_formula_sum   'Cs4 Li4 S24'
_cell_volume   948.60006502
_cell_formula_units_Z   4
loop_
 _symmetry_equiv_pos_site_id
 _symmetry_equiv_pos_as_xyz
  1  'x, y, z'
loop_
 _atom_site_type_symbol
 _atom_site_label
 _atom_site_symmetry_multiplicity
 _atom_site_fract_x
 _atom_site_fract_y
 _atom_site_fract_z
 _atom_site_occupancy
  Cs  Cs0  1  0.833130  0.701968  0.581598  1
  Cs  Cs1  1  0.166870  0.298032  0.418402  1
  Cs  Cs2  1  0.690746  0.301786  0.930921  1
  Cs  Cs3  1  0.309254  0.698214  0.069079  1
  Li  Li4  1  0.604510  0.494378  0.385347  1
  Li  Li5  1  0.395490  0.505622  0.614653  1
  Li  Li6  1  0.146979  0.504790  0.859132  1
  Li  Li7  1  0.853021  0.495210  0.140868  1
  S  S8  1  0.379765  0.622689  0.770925  1
  S  S9  1  0.620235  0.377311  0.229075  1
  S  S10  1  0.204197  0.792507  0.732702  1
  S  S11  1  0.795803  0.207493  0.267298  1
  S  S12  1  0.311923  0.921845  0.595854  1
  S  S13  1  0.688077  0.078155  0.404146  1
  S  S14  1  0.231443  0.918501  0.428345  1
  S  S15  1  0.768557  0.081499  0.571655  1
  S  S16  1  0.408127  0.789520  0.359475  1
  S  S17  1  0.591873  0.210480  0.640525  1
  S  S18  1  0.682958  0.380329  0.593968  1
  S  S19  1  0.317042  0.619671  0.406032  1
  S  S20  1  0.142531  0.404290  0.698935  1
  S  S21  1  0.857469  0.595710  0.301065  1
  S  S22  1  0.094886  0.221287  0.756667  1
  S  S23  1  0.905114  0.778713  0.243333  1
  S  S24  1  0.272640  0.104468  0.877061  1
  S  S25  1  0.727360  0.895532  0.122939  1
  S  S26  1  0.175920  0.100901  0.056008  1
  S  S27  1  0.824080  0.899099  0.943992  1
  S  S28  1  0.708361  0.781266  0.881278  1
  S  S29  1  0.291639  0.218734  0.118722  1
  S  S30  1  0.852012  0.599488  0.926247  1
  S  S31  1  0.147988  0.400512  0.073753  1
