# generated using pymatgen
data_YbNb8PdSe16
_symmetry_space_group_name_H-M   'P 1'
_cell_length_a   7.03257400
_cell_length_b   7.03257473
_cell_length_c   13.99936800
_cell_angle_alpha   90.00000000
_cell_angle_beta   90.00000000
_cell_angle_gamma   120.00000599
_symmetry_Int_Tables_number   1
_chemical_formula_structural   YbNb8PdSe16
_chemical_formula_sum   'Yb1 Nb8 Pd1 Se16'
_cell_volume   599.60839092
_cell_formula_units_Z   1
loop_
 _symmetry_equiv_pos_site_id
 _symmetry_equiv_pos_as_xyz
  1  'x, y, z'
loop_
 _atom_site_type_symbol
 _atom_site_label
 _atom_site_symmetry_multiplicity
 _atom_site_fract_x
 _atom_site_fract_y
 _atom_site_fract_z
 _atom_site_occupancy
  Yb  Yb0  1  0.000000  0.000000  0.500000  1
  Nb  Nb1  1  0.000000  0.000000  0.230285  1
  Nb  Nb2  1  0.000000  0.000000  0.769715  1
  Nb  Nb3  1  0.509228  0.018456  0.233577  1
  Nb  Nb4  1  0.490772  0.981544  0.766423  1
  Nb  Nb5  1  0.981544  0.490772  0.233577  1
  Nb  Nb6  1  0.018456  0.509228  0.766423  1
  Nb  Nb7  1  0.509228  0.490772  0.233577  1
  Nb  Nb8  1  0.490772  0.509228  0.766423  1
  Pd  Pd9  1  0.000000  0.000000  0.000000  1
  Se  Se10  1  0.333333  0.666667  0.639619  1
  Se  Se11  1  0.666667  0.333333  0.360381  1
  Se  Se12  1  0.666667  0.333333  0.109192  1
  Se  Se13  1  0.333333  0.666667  0.890808  1
  Se  Se14  1  0.171569  0.343139  0.117406  1
  Se  Se15  1  0.828431  0.656861  0.882594  1
  Se  Se16  1  0.656861  0.828431  0.117406  1
  Se  Se17  1  0.832901  0.665802  0.649429  1
  Se  Se18  1  0.343139  0.171569  0.882594  1
  Se  Se19  1  0.167099  0.334198  0.350571  1
  Se  Se20  1  0.171569  0.828431  0.117406  1
  Se  Se21  1  0.334198  0.167099  0.649429  1
  Se  Se22  1  0.828431  0.171569  0.882594  1
  Se  Se23  1  0.665802  0.832901  0.350571  1
  Se  Se24  1  0.832901  0.167099  0.649429  1
  Se  Se25  1  0.167099  0.832901  0.350571  1
