# generated using pymatgen
data_Er3Sc5Ti11Si16Pt
_symmetry_space_group_name_H-M   'P 1'
_cell_length_a   6.92311296
_cell_length_b   6.92922214
_cell_length_c   12.64134471
_cell_angle_alpha   90.19560745
_cell_angle_beta   89.85864897
_cell_angle_gamma   89.64026053
_symmetry_Int_Tables_number   1
_chemical_formula_structural   Er3Sc5Ti11Si16Pt
_chemical_formula_sum   'Er3 Sc5 Ti11 Si16 Pt1'
_cell_volume   606.41053863
_cell_formula_units_Z   1
loop_
 _symmetry_equiv_pos_site_id
 _symmetry_equiv_pos_as_xyz
  1  'x, y, z'
loop_
 _atom_site_type_symbol
 _atom_site_label
 _atom_site_symmetry_multiplicity
 _atom_site_fract_x
 _atom_site_fract_y
 _atom_site_fract_z
 _atom_site_occupancy
  Er  Er0  1  0.656310  0.997981  0.968843  1
  Er  Er1  1  0.005776  0.340147  0.531805  1
  Er  Er2  1  0.998215  0.655862  0.031696  1
  Sc  Sc3  1  0.343648  0.001057  0.466045  1
  Sc  Sc4  1  0.498587  0.843987  0.717428  1
  Sc  Sc5  1  0.500491  0.155507  0.215861  1
  Sc  Sc6  1  0.843680  0.498571  0.283165  1
  Sc  Sc7  1  0.155348  0.499921  0.784033  1
  Ti  Ti8  1  0.175735  0.826503  0.249280  1
  Ti  Ti9  1  0.825917  0.174926  0.750694  1
  Ti  Ti10  1  0.672294  0.673938  0.499807  1
  Ti  Ti11  1  0.148904  0.001334  0.874309  1
  Ti  Ti12  1  0.494055  0.652532  0.124048  1
  Ti  Ti13  1  0.504271  0.353320  0.626060  1
  Ti  Ti14  1  0.653058  0.494170  0.876507  1
  Ti  Ti15  1  0.353475  0.507343  0.373281  1
  Ti  Ti16  1  0.851246  0.995566  0.374365  1
  Ti  Ti17  1  0.001653  0.148501  0.126535  1
  Ti  Ti18  1  0.993968  0.852478  0.624766  1
  Si  Si19  1  0.206203  0.134995  0.683220  1
  Si  Si20  1  0.368633  0.709377  0.925964  1
  Si  Si21  1  0.632610  0.292403  0.428423  1
  Si  Si22  1  0.709457  0.368508  0.074259  1
  Si  Si23  1  0.296450  0.640882  0.569990  1
  Si  Si24  1  0.793584  0.864511  0.184147  1
  Si  Si25  1  0.140489  0.201141  0.317800  1
  Si  Si26  1  0.864813  0.794110  0.816103  1
  Si  Si27  1  0.288090  0.948407  0.065211  1
  Si  Si28  1  0.546473  0.797242  0.315794  1
  Si  Si29  1  0.448610  0.207719  0.813969  1
  Si  Si30  1  0.793817  0.548309  0.685306  1
  Si  Si31  1  0.207437  0.447709  0.186793  1
  Si  Si32  1  0.700154  0.046292  0.565241  1
  Si  Si33  1  0.949156  0.287962  0.935003  1
  Si  Si34  1  0.049089  0.707823  0.433656  1
  Pt  Pt35  1  0.328308  0.328964  0.000593  1
