# generated using pymatgen
data_Tc3Os3Rh8
_symmetry_space_group_name_H-M   'P 1'
_cell_length_a   7.29820200
_cell_length_b   7.29809092
_cell_length_c   4.33918700
_cell_angle_alpha   90.00000000
_cell_angle_beta   90.00000000
_cell_angle_gamma   59.99934627
_symmetry_Int_Tables_number   1
_chemical_formula_structural   Tc3Os3Rh8
_chemical_formula_sum   'Tc3 Os3 Rh8'
_cell_volume   200.15262343
_cell_formula_units_Z   1
loop_
 _symmetry_equiv_pos_site_id
 _symmetry_equiv_pos_as_xyz
  1  'x, y, z'
loop_
 _atom_site_type_symbol
 _atom_site_label
 _atom_site_symmetry_multiplicity
 _atom_site_fract_x
 _atom_site_fract_y
 _atom_site_fract_z
 _atom_site_occupancy
  Tc  Tc0  1  0.527444  0.383628  0.500000  1
  Tc  Tc1  1  0.660328  0.670295  0.500000  1
  Tc  Tc2  1  0.240786  0.803184  0.500000  1
  Os  Os3  1  0.709247  0.436873  0.000000  1
  Os  Os4  1  0.294026  0.568148  0.000000  1
  Os  Os5  1  0.425262  0.852112  0.000000  1
  Rh  Rh6  1  0.572196  0.143131  0.000000  1
  Rh  Rh7  1  0.142851  0.285708  0.000000  1
  Rh  Rh8  1  0.856067  0.715052  0.000000  1
  Rh  Rh9  1  0.000268  0.998952  0.000000  1
  Rh  Rh10  1  0.381231  0.093926  0.500000  1
  Rh  Rh11  1  0.951092  0.239101  0.500000  1
  Rh  Rh12  1  0.096249  0.524088  0.500000  1
  Rh  Rh13  1  0.809512  0.952370  0.500000  1
