# generated using pymatgen
data_Ce4Mn3(Al6Pd)3
_symmetry_space_group_name_H-M   'P 1'
_cell_length_a   7.61620687
_cell_length_b   7.61620695
_cell_length_c   9.50445526
_cell_angle_alpha   90.01331629
_cell_angle_beta   90.01331878
_cell_angle_gamma   118.90061149
_symmetry_Int_Tables_number   1
_chemical_formula_structural   Ce4Mn3(Al6Pd)3
_chemical_formula_sum   'Ce4 Mn3 Al18 Pd3'
_cell_volume   482.65926635
_cell_formula_units_Z   1
loop_
 _symmetry_equiv_pos_site_id
 _symmetry_equiv_pos_as_xyz
  1  'x, y, z'
loop_
 _atom_site_type_symbol
 _atom_site_label
 _atom_site_symmetry_multiplicity
 _atom_site_fract_x
 _atom_site_fract_y
 _atom_site_fract_z
 _atom_site_occupancy
  Ce  Ce0  1  0.994237  0.675991  0.247601  1
  Ce  Ce1  1  0.003076  0.324056  0.751763  1
  Ce  Ce2  1  0.675944  0.996924  0.248237  1
  Ce  Ce3  1  0.324009  0.005763  0.752399  1
  Mn  Mn4  1  0.675011  0.324989  0.000000  1
  Mn  Mn5  1  0.998336  0.001664  0.000000  1
  Mn  Mn6  1  0.999374  0.000626  0.500000  1
  Al  Al7  1  0.001738  0.333748  0.076222  1
  Al  Al8  1  0.991182  0.662134  0.923404  1
  Al  Al9  1  0.996639  0.670550  0.575683  1
  Al  Al10  1  0.329450  0.003361  0.424317  1
  Al  Al11  1  0.003012  0.331199  0.424950  1
  Al  Al12  1  0.668801  0.996988  0.575050  1
  Al  Al13  1  0.666252  0.998262  0.923778  1
  Al  Al14  1  0.337866  0.008818  0.076596  1
  Al  Al15  1  0.327988  0.328571  0.548464  1
  Al  Al16  1  0.671429  0.672012  0.451536  1
  Al  Al17  1  0.669182  0.662609  0.045734  1
  Al  Al18  1  0.337391  0.330818  0.954266  1
  Al  Al19  1  0.128022  0.129409  0.251006  1
  Al  Al20  1  0.870591  0.871978  0.748994  1
  Al  Al21  1  0.342831  0.547317  0.250707  1
  Al  Al22  1  0.656929  0.448312  0.755926  1
  Al  Al23  1  0.551688  0.343071  0.244074  1
  Al  Al24  1  0.452683  0.657169  0.749293  1
  Pd  Pd25  1  0.327558  0.672442  0.000000  1
  Pd  Pd26  1  0.327546  0.672454  0.500000  1
  Pd  Pd27  1  0.671234  0.328766  0.500000  1
