# generated using pymatgen
data_Th2Co10Tc2P7
_symmetry_space_group_name_H-M   'P 1'
_cell_length_a   9.11072700
_cell_length_b   9.09800397
_cell_length_c   3.69954900
_cell_angle_alpha   90.00000000
_cell_angle_beta   90.00000000
_cell_angle_gamma   120.00995580
_symmetry_Int_Tables_number   1
_chemical_formula_structural   Th2Co10Tc2P7
_chemical_formula_sum   'Th2 Co10 Tc2 P7'
_cell_volume   265.54308296
_cell_formula_units_Z   1
loop_
 _symmetry_equiv_pos_site_id
 _symmetry_equiv_pos_as_xyz
  1  'x, y, z'
loop_
 _atom_site_type_symbol
 _atom_site_label
 _atom_site_symmetry_multiplicity
 _atom_site_fract_x
 _atom_site_fract_y
 _atom_site_fract_z
 _atom_site_occupancy
  Th  Th0  1  0.329987  0.665863  0.000000  1
  Th  Th1  1  0.999257  0.998483  0.500000  1
  Co  Co2  1  0.037360  0.269204  0.000000  1
  Co  Co3  1  0.729647  0.767230  0.000000  1
  Co  Co4  1  0.235433  0.965308  0.000000  1
  Co  Co5  1  0.545931  0.059655  0.000000  1
  Co  Co6  1  0.940517  0.480552  0.000000  1
  Co  Co7  1  0.511253  0.459404  0.000000  1
  Co  Co8  1  0.613092  0.900038  0.500000  1
  Co  Co9  1  0.103270  0.715549  0.500000  1
  Co  Co10  1  0.284413  0.389193  0.500000  1
  Co  Co11  1  0.794243  0.226922  0.500000  1
  Tc  Tc12  1  0.762671  0.547205  0.500000  1
  Tc  Tc13  1  0.450192  0.219150  0.500000  1
  P  P14  1  0.770908  0.036396  0.000000  1
  P  P15  1  0.967062  0.734462  0.000000  1
  P  P16  1  0.262252  0.230916  0.000000  1
  P  P17  1  0.374750  0.935513  0.500000  1
  P  P18  1  0.060988  0.436566  0.500000  1
  P  P19  1  0.560383  0.629358  0.500000  1
  P  P20  1  0.666390  0.333032  0.000000  1
