# generated using pymatgen
data_Th2Ga3Si2Ir3
_symmetry_space_group_name_H-M   'P 1'
_cell_length_a   8.50948447
_cell_length_b   8.50948361
_cell_length_c   8.50948446
_cell_angle_alpha   139.84536084
_cell_angle_beta   106.55039875
_cell_angle_gamma   87.18189418
_symmetry_Int_Tables_number   1
_chemical_formula_structural   Th2Ga3Si2Ir3
_chemical_formula_sum   'Th4 Ga6 Si4 Ir6'
_cell_volume   366.45121212
_cell_formula_units_Z   2
loop_
 _symmetry_equiv_pos_site_id
 _symmetry_equiv_pos_as_xyz
  1  'x, y, z'
loop_
 _atom_site_type_symbol
 _atom_site_label
 _atom_site_symmetry_multiplicity
 _atom_site_fract_x
 _atom_site_fract_y
 _atom_site_fract_z
 _atom_site_occupancy
  Th  Th0  1  0.863901  0.632239  0.231663  1
  Th  Th1  1  0.136100  0.367761  0.768337  1
  Th  Th2  1  0.400576  0.132239  0.268337  1
  Th  Th3  1  0.599424  0.867761  0.731663  1
  Ga  Ga4  1  0.500000  0.750000  0.250000  1
  Ga  Ga5  1  0.500000  0.250000  0.750000  1
  Ga  Ga6  1  0.224110  0.974110  0.750000  1
  Ga  Ga7  1  0.775890  0.525890  0.750000  1
  Ga  Ga8  1  0.775890  0.025890  0.250000  1
  Ga  Ga9  1  0.224110  0.474110  0.250000  1
  Si  Si10  1  0.047351  0.898002  0.149349  1
  Si  Si11  1  0.952649  0.101998  0.850651  1
  Si  Si12  1  0.748653  0.398002  0.350651  1
  Si  Si13  1  0.251347  0.601998  0.649349  1
  Ir  Ir14  1  0.000000  0.750000  0.750000  1
  Ir  Ir15  1  0.000000  0.250000  0.250000  1
  Ir  Ir16  1  0.233407  0.859186  0.374220  1
  Ir  Ir17  1  0.766593  0.140814  0.625780  1
  Ir  Ir18  1  0.484966  0.359186  0.125780  1
  Ir  Ir19  1  0.515034  0.640814  0.874220  1
