# generated using pymatgen
data_RuCl12
_symmetry_space_group_name_H-M   'P 1'
_cell_length_a   11.41989145
_cell_length_b   10.55872859
_cell_length_c   7.51467412
_cell_angle_alpha   59.11350740
_cell_angle_beta   37.55217570
_cell_angle_gamma   61.05410094
_symmetry_Int_Tables_number   1
_chemical_formula_structural   RuCl12
_chemical_formula_sum   'Ru1 Cl12'
_cell_volume   468.77922021
_cell_formula_units_Z   1
loop_
 _symmetry_equiv_pos_site_id
 _symmetry_equiv_pos_as_xyz
  1  'x, y, z'
loop_
 _atom_site_type_symbol
 _atom_site_label
 _atom_site_symmetry_multiplicity
 _atom_site_fract_x
 _atom_site_fract_y
 _atom_site_fract_z
 _atom_site_occupancy
  Ru  Ru0  1  0.999723  0.000258  0.999917  1
  Cl  Cl1  1  0.503852  0.636080  0.100979  1
  Cl  Cl2  1  0.731068  0.523617  0.035324  1
  Cl  Cl3  1  0.849849  0.798752  0.211464  1
  Cl  Cl4  1  0.553840  0.862616  0.381719  1
  Cl  Cl5  1  0.736129  0.089969  0.445864  1
  Cl  Cl6  1  0.126224  0.845706  0.181226  1
  Cl  Cl7  1  0.873356  0.154456  0.819309  1
  Cl  Cl8  1  0.263666  0.909845  0.554902  1
  Cl  Cl9  1  0.446560  0.137148  0.618728  1
  Cl  Cl10  1  0.150214  0.201157  0.788270  1
  Cl  Cl11  1  0.268913  0.476608  0.964298  1
  Cl  Cl12  1  0.496603  0.363784  0.898001  1
