# generated using pymatgen
data_Ce4Pr7NdSe20
_symmetry_space_group_name_H-M   'P 1'
_cell_length_a   7.92320962
_cell_length_b   8.50581992
_cell_length_c   12.63230229
_cell_angle_alpha   89.99489866
_cell_angle_beta   90.02393530
_cell_angle_gamma   89.98085961
_symmetry_Int_Tables_number   1
_chemical_formula_structural   Ce4Pr7NdSe20
_chemical_formula_sum   'Ce4 Pr7 Nd1 Se20'
_cell_volume   851.33360299
_cell_formula_units_Z   1
loop_
 _symmetry_equiv_pos_site_id
 _symmetry_equiv_pos_as_xyz
  1  'x, y, z'
loop_
 _atom_site_type_symbol
 _atom_site_label
 _atom_site_symmetry_multiplicity
 _atom_site_fract_x
 _atom_site_fract_y
 _atom_site_fract_z
 _atom_site_occupancy
  Ce  Ce0  1  0.928917  0.750056  0.007455  1
  Ce  Ce1  1  0.571066  0.749862  0.507753  1
  Ce  Ce2  1  0.071117  0.250082  0.992321  1
  Ce  Ce3  1  0.429010  0.250456  0.492618  1
  Pr  Pr4  1  0.476398  0.499270  0.178233  1
  Pr  Pr5  1  0.023911  0.000604  0.678111  1
  Pr  Pr6  1  0.523569  0.999049  0.821418  1
  Pr  Pr7  1  0.976411  0.500944  0.321875  1
  Pr  Pr8  1  0.523577  0.500778  0.821560  1
  Pr  Pr9  1  0.976165  0.999239  0.322075  1
  Pr  Pr10  1  0.476148  0.000955  0.178408  1
  Nd  Nd11  1  0.022598  0.498417  0.678835  1
  Se  Se12  1  0.171219  0.750211  0.186647  1
  Se  Se13  1  0.327995  0.748936  0.686323  1
  Se  Se14  1  0.829372  0.250490  0.812973  1
  Se  Se15  1  0.671291  0.249991  0.313398  1
  Se  Se16  1  0.695541  0.750359  0.285690  1
  Se  Se17  1  0.804981  0.749209  0.785159  1
  Se  Se18  1  0.303868  0.250614  0.714456  1
  Se  Se19  1  0.195319  0.249960  0.214592  1
  Se  Se20  1  0.543751  0.750160  0.000763  1
  Se  Se21  1  0.956672  0.748643  0.501527  1
  Se  Se22  1  0.456181  0.249978  0.998917  1
  Se  Se23  1  0.043746  0.251390  0.499698  1
  Se  Se24  1  0.835457  0.457175  0.096718  1
  Se  Se25  1  0.664963  0.042986  0.596638  1
  Se  Se26  1  0.164747  0.956885  0.903145  1
  Se  Se27  1  0.335929  0.543461  0.402996  1
  Se  Se28  1  0.163948  0.542889  0.902380  1
  Se  Se29  1  0.335099  0.957091  0.403727  1
  Se  Se30  1  0.835293  0.043102  0.096751  1
  Se  Se31  1  0.665737  0.456757  0.596838  1
