# generated using pymatgen
data_La3Lu3TcSb2
_symmetry_space_group_name_H-M   'P 1'
_cell_length_a   8.33077500
_cell_length_b   8.33077580
_cell_length_c   4.37268100
_cell_angle_alpha   90.00000000
_cell_angle_beta   90.00000000
_cell_angle_gamma   119.99999284
_symmetry_Int_Tables_number   1
_chemical_formula_structural   La3Lu3TcSb2
_chemical_formula_sum   'La3 Lu3 Tc1 Sb2'
_cell_volume   262.81449279
_cell_formula_units_Z   1
loop_
 _symmetry_equiv_pos_site_id
 _symmetry_equiv_pos_as_xyz
  1  'x, y, z'
loop_
 _atom_site_type_symbol
 _atom_site_label
 _atom_site_symmetry_multiplicity
 _atom_site_fract_x
 _atom_site_fract_y
 _atom_site_fract_z
 _atom_site_occupancy
  La  La0  1  0.604743  0.000000  0.000000  1
  La  La1  1  0.000000  0.604743  0.000000  1
  La  La2  1  0.395257  0.395257  0.000000  1
  Lu  Lu3  1  0.227685  0.000000  0.500000  1
  Lu  Lu4  1  0.000000  0.227685  0.500000  1
  Lu  Lu5  1  0.772315  0.772315  0.500000  1
  Tc  Tc6  1  0.000000  0.000000  0.000000  1
  Sb  Sb7  1  0.333333  0.666667  0.500000  1
  Sb  Sb8  1  0.666667  0.333333  0.500000  1
