# generated using pymatgen
data_Nd5Y(SiIr)4
_symmetry_space_group_name_H-M   'P 1'
_cell_length_a   5.78071256
_cell_length_b   5.78071372
_cell_length_c   13.38276100
_cell_angle_alpha   90.00000000
_cell_angle_beta   90.00000000
_cell_angle_gamma   137.98524658
_symmetry_Int_Tables_number   1
_chemical_formula_structural   Nd5Y(SiIr)4
_chemical_formula_sum   'Nd5 Y1 Si4 Ir4'
_cell_volume   299.32543383
_cell_formula_units_Z   1
loop_
 _symmetry_equiv_pos_site_id
 _symmetry_equiv_pos_as_xyz
  1  'x, y, z'
loop_
 _atom_site_type_symbol
 _atom_site_label
 _atom_site_symmetry_multiplicity
 _atom_site_fract_x
 _atom_site_fract_y
 _atom_site_fract_z
 _atom_site_occupancy
  Nd  Nd0  1  0.772596  0.227404  0.602468  1
  Nd  Nd1  1  0.227234  0.772766  0.395807  1
  Nd  Nd2  1  0.772596  0.227404  0.897532  1
  Nd  Nd3  1  0.480896  0.519104  0.750000  1
  Nd  Nd4  1  0.227234  0.772766  0.104193  1
  Y  Y5  1  0.515387  0.484613  0.250000  1
  Si  Si6  1  0.059574  0.940426  0.587607  1
  Si  Si7  1  0.059574  0.940426  0.912393  1
  Si  Si8  1  0.940828  0.059172  0.409196  1
  Si  Si9  1  0.940828  0.059172  0.090804  1
  Ir  Ir10  1  0.817701  0.182299  0.250000  1
  Ir  Ir11  1  0.183340  0.816660  0.750000  1
  Ir  Ir12  1  0.501106  0.498894  0.002875  1
  Ir  Ir13  1  0.501106  0.498894  0.497125  1
