# generated using pymatgen
data_Ho5ErAl18
_symmetry_space_group_name_H-M   'P 1'
_cell_length_a   14.38633183
_cell_length_b   14.38633220
_cell_length_c   14.38633364
_cell_angle_alpha   24.83578734
_cell_angle_beta   24.83579401
_cell_angle_gamma   24.83579074
_symmetry_Int_Tables_number   1
_chemical_formula_structural   Ho5ErAl18
_chemical_formula_sum   'Ho5 Er1 Al18'
_cell_volume   462.02110023
_cell_formula_units_Z   1
loop_
 _symmetry_equiv_pos_site_id
 _symmetry_equiv_pos_as_xyz
  1  'x, y, z'
loop_
 _atom_site_type_symbol
 _atom_site_label
 _atom_site_symmetry_multiplicity
 _atom_site_fract_x
 _atom_site_fract_y
 _atom_site_fract_z
 _atom_site_occupancy
  Ho  Ho0  1  0.999927  0.999927  0.999927  1
  Ho  Ho1  1  0.500044  0.500044  0.500044  1
  Ho  Ho2  1  0.108596  0.108596  0.108596  1
  Ho  Ho3  1  0.891478  0.891478  0.891478  1
  Ho  Ho4  1  0.391249  0.391249  0.391249  1
  Er  Er5  1  0.608575  0.608575  0.608575  1
  Al  Al6  1  0.925357  0.369901  0.369901  1
  Al  Al7  1  0.425673  0.869441  0.869441  1
  Al  Al8  1  0.369901  0.369901  0.925357  1
  Al  Al9  1  0.869441  0.869441  0.425673  1
  Al  Al10  1  0.369901  0.925357  0.369901  1
  Al  Al11  1  0.869441  0.425673  0.869441  1
  Al  Al12  1  0.573994  0.130647  0.130647  1
  Al  Al13  1  0.074284  0.630511  0.630511  1
  Al  Al14  1  0.130647  0.130647  0.573994  1
  Al  Al15  1  0.630511  0.630511  0.074284  1
  Al  Al16  1  0.130647  0.573994  0.130647  1
  Al  Al17  1  0.630511  0.074284  0.630511  1
  Al  Al18  1  0.500666  0.500666  0.998197  1
  Al  Al19  1  0.000281  0.000281  0.499734  1
  Al  Al20  1  0.500666  0.998197  0.500666  1
  Al  Al21  1  0.000281  0.499734  0.000281  1
  Al  Al22  1  0.998197  0.500666  0.500666  1
  Al  Al23  1  0.499734  0.000281  0.000281  1
