# generated using pymatgen
data_Ca2NiRhBr
_symmetry_space_group_name_H-M   'P 1'
_cell_length_a   4.14128500
_cell_length_b   4.14128474
_cell_length_c   16.24157900
_cell_angle_alpha   90.00000000
_cell_angle_beta   90.00000000
_cell_angle_gamma   119.99999411
_symmetry_Int_Tables_number   1
_chemical_formula_structural   Ca2NiRhBr
_chemical_formula_sum   'Ca4 Ni2 Rh2 Br2'
_cell_volume   241.22877840
_cell_formula_units_Z   2
loop_
 _symmetry_equiv_pos_site_id
 _symmetry_equiv_pos_as_xyz
  1  'x, y, z'
loop_
 _atom_site_type_symbol
 _atom_site_label
 _atom_site_symmetry_multiplicity
 _atom_site_fract_x
 _atom_site_fract_y
 _atom_site_fract_z
 _atom_site_occupancy
  Ca  Ca0  1  0.000000  0.000000  0.613157  1
  Ca  Ca1  1  0.000000  0.000000  0.387295  1
  Ca  Ca2  1  0.000000  0.000000  0.113157  1
  Ca  Ca3  1  0.000000  0.000000  0.887295  1
  Ni  Ni4  1  0.666667  0.333333  0.998211  1
  Ni  Ni5  1  0.333333  0.666667  0.498211  1
  Rh  Rh6  1  0.666667  0.333333  0.501322  1
  Rh  Rh7  1  0.333333  0.666667  0.001322  1
  Br  Br8  1  0.666667  0.333333  0.250015  1
  Br  Br9  1  0.333333  0.666667  0.750015  1
