# generated using pymatgen
data_KGeF5
_symmetry_space_group_name_H-M   'P 1'
_cell_length_a   5.96408200
_cell_length_b   5.40097328
_cell_length_c   14.95882552
_cell_angle_alpha   69.90535535
_cell_angle_beta   90.00000000
_cell_angle_gamma   90.00000000
_symmetry_Int_Tables_number   1
_chemical_formula_structural   KGeF5
_chemical_formula_sum   'K4 Ge4 F20'
_cell_volume   452.51936192
_cell_formula_units_Z   4
loop_
 _symmetry_equiv_pos_site_id
 _symmetry_equiv_pos_as_xyz
  1  'x, y, z'
loop_
 _atom_site_type_symbol
 _atom_site_label
 _atom_site_symmetry_multiplicity
 _atom_site_fract_x
 _atom_site_fract_y
 _atom_site_fract_z
 _atom_site_occupancy
  K  K0  1  0.630619  0.639990  0.850177  1
  K  K1  1  0.130619  0.360010  0.649823  1
  K  K2  1  0.369381  0.360010  0.149823  1
  K  K3  1  0.869381  0.639990  0.350177  1
  Ge  Ge4  1  0.134579  0.031554  0.906224  1
  Ge  Ge5  1  0.634579  0.968446  0.593776  1
  Ge  Ge6  1  0.865421  0.968446  0.093776  1
  Ge  Ge7  1  0.365421  0.031554  0.406224  1
  F  F8  1  0.618811  0.833897  0.487137  1
  F  F9  1  0.118811  0.166103  0.012863  1
  F  F10  1  0.381189  0.166103  0.512863  1
  F  F11  1  0.881189  0.833897  0.987137  1
  F  F12  1  0.183156  0.774538  0.476069  1
  F  F13  1  0.683156  0.225462  0.023931  1
  F  F14  1  0.816844  0.225462  0.523931  1
  F  F15  1  0.316844  0.774538  0.976069  1
  F  F16  1  0.932101  0.275830  0.845289  1
  F  F17  1  0.432101  0.724170  0.654711  1
  F  F18  1  0.067899  0.724170  0.154711  1
  F  F19  1  0.567899  0.275830  0.345289  1
  F  F20  1  0.093747  0.869061  0.821317  1
  F  F21  1  0.593747  0.130939  0.678683  1
  F  F22  1  0.906253  0.130939  0.178683  1
  F  F23  1  0.406253  0.869061  0.321317  1
  F  F24  1  0.361523  0.241451  0.849715  1
  F  F25  1  0.861523  0.758549  0.650285  1
  F  F26  1  0.638477  0.758549  0.150285  1
  F  F27  1  0.138477  0.241451  0.349715  1
