# generated using pymatgen
data_Re4TcPt2W
_symmetry_space_group_name_H-M   'P 1'
_cell_length_a   5.62265758
_cell_length_b   5.61783466
_cell_length_c   4.43978000
_cell_angle_alpha   90.00000000
_cell_angle_beta   90.00000000
_cell_angle_gamma   120.13816627
_symmetry_Int_Tables_number   1
_chemical_formula_structural   Re4TcPt2W
_chemical_formula_sum   'Re4 Tc1 Pt2 W1'
_cell_volume   121.28199641
_cell_formula_units_Z   1
loop_
 _symmetry_equiv_pos_site_id
 _symmetry_equiv_pos_as_xyz
  1  'x, y, z'
loop_
 _atom_site_type_symbol
 _atom_site_label
 _atom_site_symmetry_multiplicity
 _atom_site_fract_x
 _atom_site_fract_y
 _atom_site_fract_z
 _atom_site_occupancy
  Re  Re0  1  0.683177  0.841922  0.250000  1
  Re  Re1  1  0.158301  0.841689  0.250000  1
  Re  Re2  1  0.841023  0.683114  0.750000  1
  Re  Re3  1  0.316415  0.155057  0.750000  1
  Tc  Tc4  1  0.838743  0.154956  0.750000  1
  Pt  Pt5  1  0.335049  0.668098  0.750000  1
  Pt  Pt6  1  0.667738  0.334174  0.250000  1
  W  W7  1  0.159554  0.320992  0.250000  1
