# generated using pymatgen
data_Er10Tm2Co4RhPb
_symmetry_space_group_name_H-M   'P 1'
_cell_length_a   8.24307560
_cell_length_b   8.24024647
_cell_length_c   8.24307679
_cell_angle_alpha   110.92067811
_cell_angle_beta   110.78473437
_cell_angle_gamma   106.75552404
_symmetry_Int_Tables_number   1
_chemical_formula_structural   Er10Tm2Co4RhPb
_chemical_formula_sum   'Er10 Tm2 Co4 Rh1 Pb1'
_cell_volume   430.22296193
_cell_formula_units_Z   1
loop_
 _symmetry_equiv_pos_site_id
 _symmetry_equiv_pos_as_xyz
  1  'x, y, z'
loop_
 _atom_site_type_symbol
 _atom_site_label
 _atom_site_symmetry_multiplicity
 _atom_site_fract_x
 _atom_site_fract_y
 _atom_site_fract_z
 _atom_site_occupancy
  Er  Er0  1  0.312988  0.006050  0.693063  1
  Er  Er1  1  0.687012  0.993950  0.306937  1
  Er  Er2  1  0.408566  0.212248  0.197067  1
  Er  Er3  1  0.591434  0.787752  0.802933  1
  Er  Er4  1  0.015181  0.212248  0.803682  1
  Er  Er5  1  0.984819  0.787752  0.196318  1
  Er  Er6  1  0.185987  0.290407  0.475579  1
  Er  Er7  1  0.814013  0.709593  0.524421  1
  Er  Er8  1  0.185172  0.709593  0.895579  1
  Er  Er9  1  0.814828  0.290407  0.104421  1
  Tm  Tm10  1  0.313004  0.619915  0.306909  1
  Tm  Tm11  1  0.686996  0.380086  0.693091  1
  Co  Co12  1  0.111889  0.611545  0.499656  1
  Co  Co13  1  0.888112  0.388456  0.500344  1
  Co  Co14  1  0.378496  0.000000  0.378496  1
  Co  Co15  1  0.621504  0.000000  0.621504  1
  Rh  Rh16  1  0.000000  0.000000  0.000000  1
  Pb  Pb17  1  0.500000  0.500000  0.000000  1
