# generated using pymatgen
data_Dy3(Bi2Rh)4
_symmetry_space_group_name_H-M   'P 1'
_cell_length_a   4.14470100
_cell_length_b   10.87850300
_cell_length_c   16.95110500
_cell_angle_alpha   90.00000000
_cell_angle_beta   90.00000000
_cell_angle_gamma   90.00000000
_symmetry_Int_Tables_number   1
_chemical_formula_structural   Dy3(Bi2Rh)4
_chemical_formula_sum   'Dy6 Bi16 Rh8'
_cell_volume   764.29383375
_cell_formula_units_Z   2
loop_
 _symmetry_equiv_pos_site_id
 _symmetry_equiv_pos_as_xyz
  1  'x, y, z'
loop_
 _atom_site_type_symbol
 _atom_site_label
 _atom_site_symmetry_multiplicity
 _atom_site_fract_x
 _atom_site_fract_y
 _atom_site_fract_z
 _atom_site_occupancy
  Dy  Dy0  1  0.500000  0.000000  0.500000  1
  Dy  Dy1  1  0.500000  0.500000  0.000000  1
  Dy  Dy2  1  0.500000  0.865270  0.192491  1
  Dy  Dy3  1  0.500000  0.134730  0.807509  1
  Dy  Dy4  1  0.500000  0.365270  0.307509  1
  Dy  Dy5  1  0.500000  0.634730  0.692491  1
  Bi  Bi6  1  0.000000  0.111685  0.214761  1
  Bi  Bi7  1  0.000000  0.888315  0.785239  1
  Bi  Bi8  1  0.000000  0.611685  0.285239  1
  Bi  Bi9  1  0.000000  0.388315  0.714761  1
  Bi  Bi10  1  0.000000  0.393880  0.143937  1
  Bi  Bi11  1  0.000000  0.606120  0.856063  1
  Bi  Bi12  1  0.000000  0.893880  0.356063  1
  Bi  Bi13  1  0.000000  0.106120  0.643937  1
  Bi  Bi14  1  0.500000  0.129057  0.037821  1
  Bi  Bi15  1  0.500000  0.870943  0.962179  1
  Bi  Bi16  1  0.500000  0.629057  0.462179  1
  Bi  Bi17  1  0.500000  0.370943  0.537821  1
  Bi  Bi18  1  0.000000  0.692548  0.085220  1
  Bi  Bi19  1  0.000000  0.307452  0.914780  1
  Bi  Bi20  1  0.000000  0.192548  0.414780  1
  Bi  Bi21  1  0.000000  0.807452  0.585220  1
  Rh  Rh22  1  0.000000  0.949905  0.082717  1
  Rh  Rh23  1  0.000000  0.050095  0.917283  1
  Rh  Rh24  1  0.000000  0.449905  0.417283  1
  Rh  Rh25  1  0.000000  0.550095  0.582717  1
  Rh  Rh26  1  0.500000  0.573801  0.175742  1
  Rh  Rh27  1  0.500000  0.426199  0.824258  1
  Rh  Rh28  1  0.500000  0.073801  0.324258  1
  Rh  Rh29  1  0.500000  0.926199  0.675742  1
