# generated using pymatgen
data_YbDy5(Ni7B2)2
_symmetry_space_group_name_H-M   'P 1'
_cell_length_a   5.04606100
_cell_length_b   5.04606074
_cell_length_c   14.34827400
_cell_angle_alpha   90.00000000
_cell_angle_beta   90.00000000
_cell_angle_gamma   119.99999517
_symmetry_Int_Tables_number   1
_chemical_formula_structural   YbDy5(Ni7B2)2
_chemical_formula_sum   'Yb1 Dy5 Ni14 B4'
_cell_volume   316.39913260
_cell_formula_units_Z   1
loop_
 _symmetry_equiv_pos_site_id
 _symmetry_equiv_pos_as_xyz
  1  'x, y, z'
loop_
 _atom_site_type_symbol
 _atom_site_label
 _atom_site_symmetry_multiplicity
 _atom_site_fract_x
 _atom_site_fract_y
 _atom_site_fract_z
 _atom_site_occupancy
  Yb  Yb0  1  0.333333  0.666667  0.469159  1
  Dy  Dy1  1  0.666667  0.333333  0.967602  1
  Dy  Dy2  1  0.666667  0.333333  0.529326  1
  Dy  Dy3  1  0.333333  0.666667  0.033528  1
  Dy  Dy4  1  0.666667  0.333333  0.748752  1
  Dy  Dy5  1  0.333333  0.666667  0.253705  1
  Ni  Ni6  1  0.834739  0.669478  0.351325  1
  Ni  Ni7  1  0.330522  0.165261  0.351325  1
  Ni  Ni8  1  0.000000  0.000000  0.999813  1
  Ni  Ni9  1  0.000000  0.000000  0.499175  1
  Ni  Ni10  1  0.834362  0.165638  0.149241  1
  Ni  Ni11  1  0.669740  0.834870  0.648555  1
  Ni  Ni12  1  0.165130  0.330260  0.648555  1
  Ni  Ni13  1  0.834362  0.668725  0.149241  1
  Ni  Ni14  1  0.331275  0.165638  0.149241  1
  Ni  Ni15  1  0.668639  0.834320  0.850968  1
  Ni  Ni16  1  0.165680  0.331361  0.850968  1
  Ni  Ni17  1  0.165130  0.834870  0.648555  1
  Ni  Ni18  1  0.165680  0.834320  0.850968  1
  Ni  Ni19  1  0.834739  0.165261  0.351325  1
  B  B20  1  0.666667  0.333333  0.250333  1
  B  B21  1  0.333333  0.666667  0.749096  1
  B  B22  1  0.000000  0.000000  0.749316  1
  B  B23  1  0.000000  0.000000  0.249927  1
