# generated using pymatgen
data_HoTmSc2(B6Ir)2
_symmetry_space_group_name_H-M   'P 1'
_cell_length_a   3.53711700
_cell_length_b   8.99359503
_cell_length_c   11.35207004
_cell_angle_alpha   90.00979484
_cell_angle_beta   90.00000000
_cell_angle_gamma   90.00000000
_symmetry_Int_Tables_number   1
_chemical_formula_structural   HoTmSc2(B6Ir)2
_chemical_formula_sum   'Ho2 Tm2 Sc4 B24 Ir4'
_cell_volume   361.12521159
_cell_formula_units_Z   2
loop_
 _symmetry_equiv_pos_site_id
 _symmetry_equiv_pos_as_xyz
  1  'x, y, z'
loop_
 _atom_site_type_symbol
 _atom_site_label
 _atom_site_symmetry_multiplicity
 _atom_site_fract_x
 _atom_site_fract_y
 _atom_site_fract_z
 _atom_site_occupancy
  Ho  Ho0  1  0.500000  0.319947  0.414037  1
  Ho  Ho1  1  0.500000  0.680053  0.585963  1
  Tm  Tm2  1  0.500000  0.180414  0.914089  1
  Tm  Tm3  1  0.500000  0.819586  0.085911  1
  Sc  Sc4  1  0.500000  0.445009  0.124049  1
  Sc  Sc5  1  0.500000  0.554991  0.875951  1
  Sc  Sc6  1  0.500000  0.054996  0.624365  1
  Sc  Sc7  1  0.500000  0.945004  0.375635  1
  B  B8  1  0.000000  0.100453  0.472797  1
  B  B9  1  0.000000  0.899547  0.527203  1
  B  B10  1  0.000000  0.398836  0.972612  1
  B  B11  1  0.000000  0.601164  0.027388  1
  B  B12  1  0.000000  0.129888  0.318346  1
  B  B13  1  0.000000  0.870112  0.681654  1
  B  B14  1  0.000000  0.369661  0.818861  1
  B  B15  1  0.000000  0.630339  0.181139  1
  B  B16  1  0.000000  0.054450  0.064951  1
  B  B17  1  0.000000  0.945550  0.935049  1
  B  B18  1  0.000000  0.445391  0.565516  1
  B  B19  1  0.000000  0.554609  0.434484  1
  B  B20  1  0.000000  0.481506  0.285067  1
  B  B21  1  0.000000  0.518494  0.714933  1
  B  B22  1  0.000000  0.018907  0.785590  1
  B  B23  1  0.000000  0.981093  0.214410  1
  B  B24  1  0.000000  0.253577  0.079470  1
  B  B25  1  0.000000  0.746423  0.920530  1
  B  B26  1  0.000000  0.246135  0.580080  1
  B  B27  1  0.000000  0.753865  0.419920  1
  B  B28  1  0.000000  0.295641  0.235374  1
  B  B29  1  0.000000  0.704359  0.764626  1
  B  B30  1  0.000000  0.204052  0.736166  1
  B  B31  1  0.000000  0.795948  0.263834  1
  Ir  Ir32  1  0.500000  0.140680  0.180719  1
  Ir  Ir33  1  0.500000  0.859320  0.819281  1
  Ir  Ir34  1  0.500000  0.358283  0.681869  1
  Ir  Ir35  1  0.500000  0.641717  0.318131  1
