# generated using pymatgen
data_Y2Cr3Co9As7
_symmetry_space_group_name_H-M   'P 1'
_cell_length_a   3.75672600
_cell_length_b   9.42142938
_cell_length_c   9.42143000
_cell_angle_alpha   120.00000219
_cell_angle_beta   90.00000000
_cell_angle_gamma   90.00000000
_symmetry_Int_Tables_number   1
_chemical_formula_structural   Y2Cr3Co9As7
_chemical_formula_sum   'Y2 Cr3 Co9 As7'
_cell_volume   288.78442411
_cell_formula_units_Z   1
loop_
 _symmetry_equiv_pos_site_id
 _symmetry_equiv_pos_as_xyz
  1  'x, y, z'
loop_
 _atom_site_type_symbol
 _atom_site_label
 _atom_site_symmetry_multiplicity
 _atom_site_fract_x
 _atom_site_fract_y
 _atom_site_fract_z
 _atom_site_occupancy
  Y  Y0  1  0.000000  0.666667  0.333333  1
  Y  Y1  1  0.500000  0.333333  0.666667  1
  Cr  Cr2  1  0.500000  0.776558  0.894101  1
  Cr  Cr3  1  0.500000  0.117544  0.223442  1
  Cr  Cr4  1  0.500000  0.105899  0.882456  1
  Co  Co5  1  0.000000  0.569345  0.940328  1
  Co  Co6  1  0.000000  0.370982  0.430655  1
  Co  Co7  1  0.000000  0.059672  0.629018  1
  Co  Co8  1  0.000000  0.878194  0.157940  1
  Co  Co9  1  0.000000  0.279746  0.121806  1
  Co  Co10  1  0.000000  0.842060  0.720254  1
  Co  Co11  1  0.500000  0.948577  0.382851  1
  Co  Co12  1  0.500000  0.434273  0.051423  1
  Co  Co13  1  0.500000  0.617149  0.565727  1
  As  As14  1  0.000000  0.000000  0.000000  1
  As  As15  1  0.500000  0.708097  0.117477  1
  As  As16  1  0.500000  0.409379  0.291903  1
  As  As17  1  0.500000  0.882523  0.590621  1
  As  As18  1  0.000000  0.586909  0.701256  1
  As  As19  1  0.000000  0.114347  0.413091  1
  As  As20  1  0.000000  0.298744  0.885653  1
