# generated using pymatgen
data_CeEr19Rh12
_symmetry_space_group_name_H-M   'P 1'
_cell_length_a   10.83464162
_cell_length_b   10.84635646
_cell_length_c   6.33133300
_cell_angle_alpha   89.92354120
_cell_angle_beta   90.03982017
_cell_angle_gamma   90.04802343
_symmetry_Int_Tables_number   1
_chemical_formula_structural   CeEr19Rh12
_chemical_formula_sum   'Ce1 Er19 Rh12'
_cell_volume   744.03426395
_cell_formula_units_Z   1
loop_
 _symmetry_equiv_pos_site_id
 _symmetry_equiv_pos_as_xyz
  1  'x, y, z'
loop_
 _atom_site_type_symbol
 _atom_site_label
 _atom_site_symmetry_multiplicity
 _atom_site_fract_x
 _atom_site_fract_y
 _atom_site_fract_z
 _atom_site_occupancy
  Ce  Ce0  1  0.090199  0.288381  0.122184  1
  Er  Er1  1  0.291723  0.087538  0.380531  1
  Er  Er2  1  0.291196  0.910803  0.880542  1
  Er  Er3  1  0.708262  0.088747  0.879258  1
  Er  Er4  1  0.708767  0.910965  0.380201  1
  Er  Er5  1  0.589106  0.791700  0.880178  1
  Er  Er6  1  0.588730  0.208834  0.379909  1
  Er  Er7  1  0.411072  0.791345  0.379841  1
  Er  Er8  1  0.411747  0.208817  0.878910  1
  Er  Er9  1  0.209342  0.412177  0.620786  1
  Er  Er10  1  0.209507  0.590518  0.120166  1
  Er  Er11  1  0.789775  0.411191  0.119582  1
  Er  Er12  1  0.791733  0.589399  0.620032  1
  Er  Er13  1  0.910941  0.709291  0.119333  1
  Er  Er14  1  0.909180  0.291310  0.621218  1
  Er  Er15  1  0.089374  0.708342  0.619446  1
  Er  Er16  1  0.000383  0.999812  0.500524  1
  Er  Er17  1  0.999216  0.998611  0.999882  1
  Er  Er18  1  0.500433  0.500927  0.998812  1
  Er  Er19  1  0.499894  0.500050  0.498659  1
  Rh  Rh20  1  0.845089  0.154258  0.250814  1
  Rh  Rh21  1  0.846550  0.846446  0.749969  1
  Rh  Rh22  1  0.153938  0.155480  0.754218  1
  Rh  Rh23  1  0.153976  0.846168  0.250125  1
  Rh  Rh24  1  0.653701  0.346288  0.749619  1
  Rh  Rh25  1  0.654395  0.653834  0.250006  1
  Rh  Rh26  1  0.344243  0.346852  0.247517  1
  Rh  Rh27  1  0.346750  0.654033  0.749421  1
  Rh  Rh28  1  0.500527  0.999960  0.125391  1
  Rh  Rh29  1  0.499718  0.999933  0.624759  1
  Rh  Rh30  1  0.000113  0.499559  0.875079  1
  Rh  Rh31  1  0.000420  0.498435  0.373086  1
