# generated using pymatgen
data_Ta10Si5Pt
_symmetry_space_group_name_H-M   'P 1'
_cell_length_a   7.55986042
_cell_length_b   7.55985993
_cell_length_c   7.55986076
_cell_angle_alpha   127.87458994
_cell_angle_beta   127.87459134
_cell_angle_gamma   76.82827334
_symmetry_Int_Tables_number   1
_chemical_formula_structural   Ta10Si5Pt
_chemical_formula_sum   'Ta10 Si5 Pt1'
_cell_volume   261.39230318
_cell_formula_units_Z   1
loop_
 _symmetry_equiv_pos_site_id
 _symmetry_equiv_pos_as_xyz
  1  'x, y, z'
loop_
 _atom_site_type_symbol
 _atom_site_label
 _atom_site_symmetry_multiplicity
 _atom_site_fract_x
 _atom_site_fract_y
 _atom_site_fract_z
 _atom_site_occupancy
  Ta  Ta0  1  0.019835  0.191612  0.508718  1
  Ta  Ta1  1  0.682894  0.511117  0.491282  1
  Ta  Ta2  1  0.511117  0.019835  0.828222  1
  Ta  Ta3  1  0.191612  0.682894  0.171778  1
  Ta  Ta4  1  0.988883  0.817106  0.508718  1
  Ta  Ta5  1  0.308388  0.480165  0.491282  1
  Ta  Ta6  1  0.480165  0.988883  0.171778  1
  Ta  Ta7  1  0.817106  0.308388  0.828222  1
  Ta  Ta8  1  0.999462  0.999462  0.000000  1
  Ta  Ta9  1  0.500538  0.500538  0.000000  1
  Si  Si10  1  0.250000  0.250000  0.000000  1
  Si  Si11  1  0.370282  0.129718  0.500000  1
  Si  Si12  1  0.629718  0.870282  0.500000  1
  Si  Si13  1  0.870282  0.370282  0.240563  1
  Si  Si14  1  0.129718  0.629718  0.759437  1
  Pt  Pt15  1  0.750000  0.750000  0.000000  1
