# generated using pymatgen
data_Hf3Ti2Si2GeN
_symmetry_space_group_name_H-M   'P 1'
_cell_length_a   7.73974000
_cell_length_b   7.72767814
_cell_length_c   5.36027100
_cell_angle_alpha   90.00000000
_cell_angle_beta   90.00000000
_cell_angle_gamma   120.05164642
_symmetry_Int_Tables_number   1
_chemical_formula_structural   Hf3Ti2Si2GeN
_chemical_formula_sum   'Hf6 Ti4 Si4 Ge2 N2'
_cell_volume   277.50225933
_cell_formula_units_Z   2
loop_
 _symmetry_equiv_pos_site_id
 _symmetry_equiv_pos_as_xyz
  1  'x, y, z'
loop_
 _atom_site_type_symbol
 _atom_site_label
 _atom_site_symmetry_multiplicity
 _atom_site_fract_x
 _atom_site_fract_y
 _atom_site_fract_z
 _atom_site_occupancy
  Hf  Hf0  1  0.234119  0.000000  0.250000  1
  Hf  Hf1  1  0.765881  0.000000  0.750000  1
  Hf  Hf2  1  0.002336  0.239174  0.250000  1
  Hf  Hf3  1  0.997664  0.760826  0.750000  1
  Hf  Hf4  1  0.763162  0.760826  0.250000  1
  Hf  Hf5  1  0.236838  0.239174  0.750000  1
  Ti  Ti6  1  0.331239  0.662479  0.000000  1
  Ti  Ti7  1  0.668761  0.337521  0.000000  1
  Ti  Ti8  1  0.668761  0.337521  0.500000  1
  Ti  Ti9  1  0.331239  0.662479  0.500000  1
  Si  Si10  1  0.000548  0.591153  0.250000  1
  Si  Si11  1  0.999452  0.408847  0.750000  1
  Si  Si12  1  0.409396  0.408847  0.250000  1
  Si  Si13  1  0.590604  0.591153  0.750000  1
  Ge  Ge14  1  0.592066  0.000000  0.250000  1
  Ge  Ge15  1  0.407934  0.000000  0.750000  1
  N  N16  1  0.000000  0.000000  0.000000  1
  N  N17  1  0.000000  0.000000  0.500000  1
