# generated using pymatgen
data_Sm8SiAsI12
_symmetry_space_group_name_H-M   'P 1'
_cell_length_a   4.31338800
_cell_length_b   14.22983036
_cell_length_c   15.03186732
_cell_angle_alpha   89.98210879
_cell_angle_beta   90.00000000
_cell_angle_gamma   90.00000000
_symmetry_Int_Tables_number   1
_chemical_formula_structural   Sm8SiAsI12
_chemical_formula_sum   'Sm8 Si1 As1 I12'
_cell_volume   922.63762459
_cell_formula_units_Z   1
loop_
 _symmetry_equiv_pos_site_id
 _symmetry_equiv_pos_as_xyz
  1  'x, y, z'
loop_
 _atom_site_type_symbol
 _atom_site_label
 _atom_site_symmetry_multiplicity
 _atom_site_fract_x
 _atom_site_fract_y
 _atom_site_fract_z
 _atom_site_occupancy
  Sm  Sm0  1  0.500000  0.114882  0.346205  1
  Sm  Sm1  1  0.500000  0.885118  0.653795  1
  Sm  Sm2  1  0.500000  0.614351  0.152952  1
  Sm  Sm3  1  0.500000  0.385649  0.847048  1
  Sm  Sm4  1  0.000000  0.111095  0.573878  1
  Sm  Sm5  1  0.000000  0.888905  0.426122  1
  Sm  Sm6  1  0.000000  0.612248  0.925212  1
  Sm  Sm7  1  0.000000  0.387752  0.074788  1
  Si  Si8  1  0.500000  0.500000  0.000000  1
  As  As9  1  0.500000  0.000000  0.500000  1
  I  I10  1  0.500000  0.243883  0.162194  1
  I  I11  1  0.500000  0.756117  0.837806  1
  I  I12  1  0.500000  0.745380  0.339533  1
  I  I13  1  0.500000  0.254620  0.660467  1
  I  I14  1  0.000000  0.258215  0.413348  1
  I  I15  1  0.000000  0.741785  0.586652  1
  I  I16  1  0.000000  0.758659  0.086837  1
  I  I17  1  0.000000  0.241341  0.913163  1
  I  I18  1  0.000000  0.999202  0.240970  1
  I  I19  1  0.000000  0.000798  0.759030  1
  I  I20  1  0.000000  0.499496  0.259614  1
  I  I21  1  0.000000  0.500504  0.740386  1
