# generated using pymatgen
data_Tm16Zn3SnRh4
_symmetry_space_group_name_H-M   'P 1'
_cell_length_a   9.39017823
_cell_length_b   9.39225716
_cell_length_c   9.39225600
_cell_angle_alpha   60.00000407
_cell_angle_beta   59.99268015
_cell_angle_gamma   59.99267669
_symmetry_Int_Tables_number   1
_chemical_formula_structural   Tm16Zn3SnRh4
_chemical_formula_sum   'Tm16 Zn3 Sn1 Rh4'
_cell_volume   585.66689582
_cell_formula_units_Z   1
loop_
 _symmetry_equiv_pos_site_id
 _symmetry_equiv_pos_as_xyz
  1  'x, y, z'
loop_
 _atom_site_type_symbol
 _atom_site_label
 _atom_site_symmetry_multiplicity
 _atom_site_fract_x
 _atom_site_fract_y
 _atom_site_fract_z
 _atom_site_occupancy
  Tm  Tm0  1  0.808443  0.808656  0.191450  1
  Tm  Tm1  1  0.808443  0.191450  0.808656  1
  Tm  Tm2  1  0.189739  0.191187  0.809537  1
  Tm  Tm3  1  0.645383  0.059708  0.647455  1
  Tm  Tm4  1  0.071297  0.057111  0.435796  1
  Tm  Tm5  1  0.437866  0.435152  0.063491  1
  Tm  Tm6  1  0.645383  0.647455  0.647455  1
  Tm  Tm7  1  0.808443  0.191450  0.191450  1
  Tm  Tm8  1  0.189739  0.809537  0.809537  1
  Tm  Tm9  1  0.064152  0.645283  0.645283  1
  Tm  Tm10  1  0.437866  0.063491  0.063491  1
  Tm  Tm11  1  0.437866  0.063491  0.435152  1
  Tm  Tm12  1  0.071297  0.435796  0.057111  1
  Tm  Tm13  1  0.645383  0.647455  0.059708  1
  Tm  Tm14  1  0.189739  0.809537  0.191187  1
  Tm  Tm15  1  0.071297  0.435796  0.435796  1
  Zn  Zn16  1  0.413780  0.420095  0.420095  1
  Zn  Zn17  1  0.413780  0.420095  0.746029  1
  Zn  Zn18  1  0.413780  0.746029  0.420095  1
  Sn  Sn19  1  0.738808  0.420397  0.420397  1
  Rh  Rh20  1  0.856055  0.431585  0.856180  1
  Rh  Rh21  1  0.856055  0.856180  0.856180  1
  Rh  Rh22  1  0.856055  0.856180  0.431585  1
  Rh  Rh23  1  0.429351  0.856883  0.856883  1
