# generated using pymatgen
data_CaSm(Si7Rh3)2
_symmetry_space_group_name_H-M   'P 1'
_cell_length_a   8.01507418
_cell_length_b   8.01507293
_cell_length_c   8.01507348
_cell_angle_alpha   57.06459437
_cell_angle_beta   57.06459158
_cell_angle_gamma   57.06458529
_symmetry_Int_Tables_number   1
_chemical_formula_structural   CaSm(Si7Rh3)2
_chemical_formula_sum   'Ca1 Sm1 Si14 Rh6'
_cell_volume   339.45394965
_cell_formula_units_Z   1
loop_
 _symmetry_equiv_pos_site_id
 _symmetry_equiv_pos_as_xyz
  1  'x, y, z'
loop_
 _atom_site_type_symbol
 _atom_site_label
 _atom_site_symmetry_multiplicity
 _atom_site_fract_x
 _atom_site_fract_y
 _atom_site_fract_z
 _atom_site_occupancy
  Ca  Ca0  1  0.000000  0.000000  0.000000  1
  Sm  Sm1  1  0.500000  0.500000  0.500000  1
  Si  Si2  1  0.749872  0.749872  0.749872  1
  Si  Si3  1  0.250128  0.250128  0.250128  1
  Si  Si4  1  0.852251  0.064585  0.673468  1
  Si  Si5  1  0.673468  0.852251  0.064585  1
  Si  Si6  1  0.064585  0.673468  0.852251  1
  Si  Si7  1  0.650241  0.828001  0.434045  1
  Si  Si8  1  0.434045  0.650241  0.828001  1
  Si  Si9  1  0.828001  0.434045  0.650241  1
  Si  Si10  1  0.171999  0.565955  0.349759  1
  Si  Si11  1  0.565955  0.349759  0.171999  1
  Si  Si12  1  0.349759  0.171999  0.565955  1
  Si  Si13  1  0.935415  0.326532  0.147749  1
  Si  Si14  1  0.326532  0.147749  0.935415  1
  Si  Si15  1  0.147749  0.935415  0.326532  1
  Rh  Rh16  1  0.070613  0.431337  0.749275  1
  Rh  Rh17  1  0.250725  0.929387  0.568663  1
  Rh  Rh18  1  0.568663  0.250725  0.929387  1
  Rh  Rh19  1  0.929387  0.568663  0.250725  1
  Rh  Rh20  1  0.431337  0.749275  0.070613  1
  Rh  Rh21  1  0.749275  0.070613  0.431337  1
