# generated using pymatgen
data_Er4Tc5Ir2Os
_symmetry_space_group_name_H-M   'P 1'
_cell_length_a   5.24316866
_cell_length_b   5.24316839
_cell_length_c   9.21812700
_cell_angle_alpha   90.00000000
_cell_angle_beta   90.00000000
_cell_angle_gamma   120.54665709
_symmetry_Int_Tables_number   1
_chemical_formula_structural   Er4Tc5Ir2Os
_chemical_formula_sum   'Er4 Tc5 Ir2 Os1'
_cell_volume   218.24394174
_cell_formula_units_Z   1
loop_
 _symmetry_equiv_pos_site_id
 _symmetry_equiv_pos_as_xyz
  1  'x, y, z'
loop_
 _atom_site_type_symbol
 _atom_site_label
 _atom_site_symmetry_multiplicity
 _atom_site_fract_x
 _atom_site_fract_y
 _atom_site_fract_z
 _atom_site_occupancy
  Er  Er0  1  0.333732  0.666268  0.434214  1
  Er  Er1  1  0.666568  0.333432  0.565265  1
  Er  Er2  1  0.666568  0.333432  0.934735  1
  Er  Er3  1  0.333732  0.666268  0.065786  1
  Tc  Tc4  1  0.829321  0.659621  0.250000  1
  Tc  Tc5  1  0.340379  0.170679  0.250000  1
  Tc  Tc6  1  0.169571  0.830429  0.750000  1
  Tc  Tc7  1  0.170629  0.340816  0.750000  1
  Tc  Tc8  1  0.659184  0.829371  0.750000  1
  Ir  Ir9  1  0.000600  0.999400  0.499239  1
  Ir  Ir10  1  0.000600  0.999400  0.000761  1
  Os  Os11  1  0.829116  0.170884  0.250000  1
