# generated using pymatgen
data_TmTa3MoN6
_symmetry_space_group_name_H-M   'P 1'
_cell_length_a   5.24832205
_cell_length_b   5.24724576
_cell_length_c   10.74161210
_cell_angle_alpha   90.01558674
_cell_angle_beta   89.99220962
_cell_angle_gamma   119.99322262
_symmetry_Int_Tables_number   1
_chemical_formula_structural   TmTa3MoN6
_chemical_formula_sum   'Tm2 Ta6 Mo2 N12'
_cell_volume   256.20147024
_cell_formula_units_Z   2
loop_
 _symmetry_equiv_pos_site_id
 _symmetry_equiv_pos_as_xyz
  1  'x, y, z'
loop_
 _atom_site_type_symbol
 _atom_site_label
 _atom_site_symmetry_multiplicity
 _atom_site_fract_x
 _atom_site_fract_y
 _atom_site_fract_z
 _atom_site_occupancy
  Tm  Tm0  1  0.666076  0.333906  0.000987  1
  Tm  Tm1  1  0.333924  0.667831  0.000987  1
  Ta  Ta2  1  0.000000  0.324188  0.741485  1
  Ta  Ta3  1  0.324304  0.324503  0.260565  1
  Ta  Ta4  1  0.675696  0.000199  0.260565  1
  Ta  Ta5  1  0.000000  0.675278  0.260390  1
  Ta  Ta6  1  0.333154  0.668087  0.492753  1
  Ta  Ta7  1  0.666846  0.334932  0.492753  1
  Mo  Mo8  1  0.674132  0.672787  0.739830  1
  Mo  Mo9  1  0.325868  0.998655  0.739830  1
  N  N10  1  0.666801  0.667657  0.386510  1
  N  N11  1  0.333199  0.000856  0.386510  1
  N  N12  1  0.000000  0.333146  0.386023  1
  N  N13  1  0.346057  0.346418  0.617754  1
  N  N14  1  0.653943  0.000361  0.617754  1
  N  N15  1  0.000000  0.652046  0.618169  1
  N  N16  1  0.338802  0.339247  0.857582  1
  N  N17  1  0.661198  0.000445  0.857582  1
  N  N18  1  0.000000  0.658815  0.857576  1
  N  N19  1  0.657289  0.657419  0.141418  1
  N  N20  1  0.342711  0.000130  0.141418  1
  N  N21  1  0.000000  0.343091  0.141560  1
