# generated using pymatgen
data_La3Pr(P4O13)2
_symmetry_space_group_name_H-M   'P 1'
_cell_length_a   9.79055943
_cell_length_b   9.80789179
_cell_length_c   8.92632820
_cell_angle_alpha   90.15770403
_cell_angle_beta   89.87769985
_cell_angle_gamma   135.70266081
_symmetry_Int_Tables_number   1
_chemical_formula_structural   La3Pr(P4O13)2
_chemical_formula_sum   'La3 Pr1 P8 O26'
_cell_volume   598.61477859
_cell_formula_units_Z   1
loop_
 _symmetry_equiv_pos_site_id
 _symmetry_equiv_pos_as_xyz
  1  'x, y, z'
loop_
 _atom_site_type_symbol
 _atom_site_label
 _atom_site_symmetry_multiplicity
 _atom_site_fract_x
 _atom_site_fract_y
 _atom_site_fract_z
 _atom_site_occupancy
  La  La0  1  0.896291  0.604330  0.858141  1
  La  La1  1  0.605416  0.897630  0.142008  1
  La  La2  1  0.104313  0.395926  0.359195  1
  Pr  Pr3  1  0.394930  0.103785  0.642322  1
  P  P4  1  0.415507  0.099042  0.999464  1
  P  P5  1  0.099964  0.415522  0.998638  1
  P  P6  1  0.582773  0.903653  0.502556  1
  P  P7  1  0.900866  0.584494  0.499022  1
  P  P8  1  0.272267  0.142865  0.267710  1
  P  P9  1  0.146221  0.271048  0.733465  1
  P  P10  1  0.727473  0.855188  0.765388  1
  P  P11  1  0.854948  0.727787  0.233834  1
  O  O12  1  0.480060  0.029117  0.098900  1
  O  O13  1  0.030524  0.479268  0.897163  1
  O  O14  1  0.519018  0.971898  0.606005  1
  O  O15  1  0.969924  0.520290  0.396997  1
  O  O16  1  0.232028  0.936771  0.904009  1
  O  O17  1  0.936888  0.232778  0.093878  1
  O  O18  1  0.765806  0.067236  0.407544  1
  O  O19  1  0.064664  0.767336  0.594446  1
  O  O20  1  0.571438  0.261259  0.887751  1
  O  O21  1  0.262584  0.572226  0.109959  1
  O  O22  1  0.425446  0.741851  0.391099  1
  O  O23  1  0.737280  0.427185  0.609506  1
  O  O24  1  0.086212  0.912717  0.248306  1
  O  O25  1  0.915578  0.085305  0.749140  1
  O  O26  1  0.800699  0.631439  0.396401  1
  O  O27  1  0.629166  0.802269  0.603667  1
  O  O28  1  0.200897  0.369087  0.895679  1
  O  O29  1  0.371106  0.199567  0.105309  1
  O  O30  1  0.750823  0.786703  0.213874  1
  O  O31  1  0.782079  0.747234  0.784646  1
  O  O32  1  0.251276  0.213317  0.713108  1
  O  O33  1  0.214633  0.247895  0.289932  1
  O  O34  1  0.826410  0.600940  0.114141  1
  O  O35  1  0.603915  0.830956  0.885980  1
  O  O36  1  0.173942  0.396816  0.613789  1
  O  O37  1  0.396635  0.167269  0.387028  1
