# generated using pymatgen
data_Y7Er8Tm5Pt16
_symmetry_space_group_name_H-M   'P 1'
_cell_length_a   7.44662881
_cell_length_b   7.52698045
_cell_length_c   14.67589253
_cell_angle_alpha   89.99400873
_cell_angle_beta   90.01944715
_cell_angle_gamma   89.95920571
_symmetry_Int_Tables_number   1
_chemical_formula_structural   Y7Er8Tm5Pt16
_chemical_formula_sum   'Y7 Er8 Tm5 Pt16'
_cell_volume   822.59275420
_cell_formula_units_Z   1
loop_
 _symmetry_equiv_pos_site_id
 _symmetry_equiv_pos_as_xyz
  1  'x, y, z'
loop_
 _atom_site_type_symbol
 _atom_site_label
 _atom_site_symmetry_multiplicity
 _atom_site_fract_x
 _atom_site_fract_y
 _atom_site_fract_z
 _atom_site_occupancy
  Y  Y0  1  0.498659  0.679403  0.093345  1
  Y  Y1  1  0.501544  0.320576  0.593082  1
  Y  Y2  1  0.001405  0.179431  0.906772  1
  Y  Y3  1  0.000862  0.178432  0.592885  1
  Y  Y4  1  0.501516  0.320749  0.906772  1
  Y  Y5  1  0.498738  0.679637  0.407017  1
  Y  Y6  1  0.998583  0.820439  0.093061  1
  Er  Er7  1  0.155932  0.667918  0.877559  1
  Er  Er8  1  0.844157  0.331993  0.377578  1
  Er  Er9  1  0.343992  0.167974  0.122506  1
  Er  Er10  1  0.343739  0.167652  0.377766  1
  Er  Er11  1  0.844104  0.332001  0.122551  1
  Er  Er12  1  0.155370  0.668411  0.622188  1
  Er  Er13  1  0.655970  0.831996  0.877630  1
  Er  Er14  1  0.997673  0.819415  0.406708  1
  Tm  Tm15  1  0.681378  0.988919  0.250248  1
  Tm  Tm16  1  0.181492  0.511246  0.250287  1
  Tm  Tm17  1  0.818614  0.488978  0.749837  1
  Tm  Tm18  1  0.318801  0.011040  0.749972  1
  Tm  Tm19  1  0.655741  0.832225  0.622444  1
  Pt  Pt20  1  0.817868  0.642747  0.251105  1
  Pt  Pt21  1  0.316140  0.858076  0.250480  1
  Pt  Pt22  1  0.683319  0.141727  0.749631  1
  Pt  Pt23  1  0.183434  0.358228  0.749690  1
  Pt  Pt24  1  0.546902  0.384885  0.250191  1
  Pt  Pt25  1  0.046378  0.114560  0.250504  1
  Pt  Pt26  1  0.953055  0.884609  0.749772  1
  Pt  Pt27  1  0.453577  0.615699  0.749684  1
  Pt  Pt28  1  0.817508  0.534778  0.541508  1
  Pt  Pt29  1  0.317576  0.966547  0.958116  1
  Pt  Pt30  1  0.684432  0.031731  0.457906  1
  Pt  Pt31  1  0.182250  0.466766  0.042078  1
  Pt  Pt32  1  0.181802  0.468266  0.457506  1
  Pt  Pt33  1  0.682368  0.033529  0.042007  1
  Pt  Pt34  1  0.317532  0.965992  0.541487  1
  Pt  Pt35  1  0.817590  0.533425  0.958126  1
