# generated using pymatgen
data_Tb5Dy11MgCo4Au3
_symmetry_space_group_name_H-M   'P 1'
_cell_length_a   9.37647671
_cell_length_b   9.42140613
_cell_length_c   9.40961900
_cell_angle_alpha   60.04138096
_cell_angle_beta   59.88301016
_cell_angle_gamma   59.99091118
_symmetry_Int_Tables_number   1
_chemical_formula_structural   Tb5Dy11MgCo4Au3
_chemical_formula_sum   'Tb5 Dy11 Mg1 Co4 Au3'
_cell_volume   587.39815997
_cell_formula_units_Z   1
loop_
 _symmetry_equiv_pos_site_id
 _symmetry_equiv_pos_as_xyz
  1  'x, y, z'
loop_
 _atom_site_type_symbol
 _atom_site_label
 _atom_site_symmetry_multiplicity
 _atom_site_fract_x
 _atom_site_fract_y
 _atom_site_fract_z
 _atom_site_occupancy
  Tb  Tb0  1  0.938336  0.938822  0.561422  1
  Tb  Tb1  1  0.347576  0.345968  0.344978  1
  Tb  Tb2  1  0.347576  0.345968  0.961477  1
  Tb  Tb3  1  0.348926  0.960485  0.345294  1
  Tb  Tb4  1  0.931471  0.356821  0.355854  1
  Dy  Dy5  1  0.806332  0.190763  0.191744  1
  Dy  Dy6  1  0.186227  0.812699  0.814458  1
  Dy  Dy7  1  0.186227  0.812699  0.186616  1
  Dy  Dy8  1  0.806332  0.190763  0.811163  1
  Dy  Dy9  1  0.186832  0.185555  0.813806  1
  Dy  Dy10  1  0.806175  0.809889  0.191968  1
  Dy  Dy11  1  0.936711  0.560969  0.561710  1
  Dy  Dy12  1  0.563776  0.936602  0.936741  1
  Dy  Dy13  1  0.563777  0.936602  0.562881  1
  Dy  Dy14  1  0.936711  0.560969  0.940611  1
  Dy  Dy15  1  0.563486  0.563284  0.936615  1
  Mg  Mg16  1  0.312111  0.562759  0.562564  1
  Co  Co17  1  0.134702  0.145290  0.142879  1
  Co  Co18  1  0.134702  0.145290  0.577129  1
  Co  Co19  1  0.135162  0.576863  0.143987  1
  Co  Co20  1  0.576139  0.142237  0.140812  1
  Au  Au21  1  0.583994  0.591759  0.591015  1
  Au  Au22  1  0.583994  0.591759  0.233233  1
  Au  Au23  1  0.582726  0.235179  0.591047  1
