# generated using pymatgen
data_Dy3Zn3Cu2Ir
_symmetry_space_group_name_H-M   'P 1'
_cell_length_a   7.30474300
_cell_length_b   7.30474374
_cell_length_c   3.70058200
_cell_angle_alpha   90.00000000
_cell_angle_beta   90.00000000
_cell_angle_gamma   120.00000237
_symmetry_Int_Tables_number   1
_chemical_formula_structural   Dy3Zn3Cu2Ir
_chemical_formula_sum   'Dy3 Zn3 Cu2 Ir1'
_cell_volume   171.00569719
_cell_formula_units_Z   1
loop_
 _symmetry_equiv_pos_site_id
 _symmetry_equiv_pos_as_xyz
  1  'x, y, z'
loop_
 _atom_site_type_symbol
 _atom_site_label
 _atom_site_symmetry_multiplicity
 _atom_site_fract_x
 _atom_site_fract_y
 _atom_site_fract_z
 _atom_site_occupancy
  Dy  Dy0  1  0.416935  0.406956  0.500000  1
  Dy  Dy1  1  0.593044  0.009979  0.500000  1
  Dy  Dy2  1  0.990021  0.583065  0.500000  1
  Zn  Zn3  1  0.751760  0.751647  0.000000  1
  Zn  Zn4  1  0.248353  0.000112  0.000000  1
  Zn  Zn5  1  0.999888  0.248240  0.000000  1
  Cu  Cu6  1  0.333333  0.666667  0.000000  1
  Cu  Cu7  1  0.000000  0.000000  0.500000  1
  Ir  Ir8  1  0.666667  0.333333  0.000000  1
