# generated using pymatgen
data_Zr3Pt(SeO3)8
_symmetry_space_group_name_H-M   'P 1'
_cell_length_a   8.56708926
_cell_length_b   8.56708815
_cell_length_c   8.56708849
_cell_angle_alpha   90.16780276
_cell_angle_beta   89.83219047
_cell_angle_gamma   89.83219449
_symmetry_Int_Tables_number   1
_chemical_formula_structural   Zr3Pt(SeO3)8
_chemical_formula_sum   'Zr3 Pt1 Se8 O24'
_cell_volume   628.77343019
_cell_formula_units_Z   1
loop_
 _symmetry_equiv_pos_site_id
 _symmetry_equiv_pos_as_xyz
  1  'x, y, z'
loop_
 _atom_site_type_symbol
 _atom_site_label
 _atom_site_symmetry_multiplicity
 _atom_site_fract_x
 _atom_site_fract_y
 _atom_site_fract_z
 _atom_site_occupancy
  Zr  Zr0  1  0.500000  0.000000  0.500000  1
  Zr  Zr1  1  0.000000  0.000000  0.000000  1
  Zr  Zr2  1  0.000000  0.500000  0.500000  1
  Pt  Pt3  1  0.500000  0.500000  0.000000  1
  Se  Se4  1  0.819024  0.180976  0.680976  1
  Se  Se5  1  0.180976  0.819024  0.319024  1
  Se  Se6  1  0.672765  0.667986  0.709903  1
  Se  Se7  1  0.209903  0.672765  0.832014  1
  Se  Se8  1  0.332014  0.209903  0.827235  1
  Se  Se9  1  0.790097  0.327235  0.167986  1
  Se  Se10  1  0.667986  0.790097  0.172765  1
  Se  Se11  1  0.327235  0.332014  0.290097  1
  O  O12  1  0.228376  0.445153  0.424273  1
  O  O13  1  0.924273  0.228376  0.054847  1
  O  O14  1  0.032606  0.730538  0.422060  1
  O  O15  1  0.470140  0.266054  0.970351  1
  O  O16  1  0.269462  0.922060  0.467394  1
  O  O17  1  0.529649  0.529860  0.766054  1
  O  O18  1  0.922060  0.032606  0.769462  1
  O  O19  1  0.529860  0.733946  0.029649  1
  O  O20  1  0.554847  0.924273  0.271624  1
  O  O21  1  0.445153  0.075727  0.728376  1
  O  O22  1  0.777504  0.912765  0.059219  1
  O  O23  1  0.266054  0.529649  0.970140  1
  O  O24  1  0.087235  0.559219  0.722496  1
  O  O25  1  0.077940  0.967394  0.230538  1
  O  O26  1  0.222496  0.087235  0.940781  1
  O  O27  1  0.470351  0.470140  0.233946  1
  O  O28  1  0.771624  0.554847  0.575727  1
  O  O29  1  0.912765  0.440781  0.277504  1
  O  O30  1  0.075727  0.771624  0.945153  1
  O  O31  1  0.440781  0.222496  0.412765  1
  O  O32  1  0.559219  0.777504  0.587235  1
  O  O33  1  0.967394  0.269462  0.577940  1
  O  O34  1  0.730538  0.077940  0.532606  1
  O  O35  1  0.733946  0.470351  0.029860  1
