# generated using pymatgen
data_DyHo5Al23SiOs8
_symmetry_space_group_name_H-M   'P 1'
_cell_length_a   8.76316000
_cell_length_b   8.76280391
_cell_length_c   9.63363300
_cell_angle_alpha   90.00247192
_cell_angle_beta   90.00000000
_cell_angle_gamma   120.00134424
_symmetry_Int_Tables_number   1
_chemical_formula_structural   DyHo5Al23SiOs8
_chemical_formula_sum   'Dy1 Ho5 Al23 Si1 Os8'
_cell_volume   640.64682885
_cell_formula_units_Z   1
loop_
 _symmetry_equiv_pos_site_id
 _symmetry_equiv_pos_as_xyz
  1  'x, y, z'
loop_
 _atom_site_type_symbol
 _atom_site_label
 _atom_site_symmetry_multiplicity
 _atom_site_fract_x
 _atom_site_fract_y
 _atom_site_fract_z
 _atom_site_occupancy
  Dy  Dy0  1  0.194936  0.389871  0.249838  1
  Ho  Ho1  1  0.805774  0.611548  0.751299  1
  Ho  Ho2  1  0.609841  0.804950  0.249820  1
  Ho  Ho3  1  0.388460  0.194227  0.751297  1
  Ho  Ho4  1  0.195110  0.804950  0.249820  1
  Ho  Ho5  1  0.805767  0.194227  0.751297  1
  Al  Al6  1  0.666668  0.333336  0.980664  1
  Al  Al7  1  0.666664  0.333326  0.522508  1
  Al  Al8  1  0.333373  0.666746  0.478047  1
  Al  Al9  1  0.163559  0.327117  0.575073  1
  Al  Al10  1  0.836089  0.672177  0.424318  1
  Al  Al11  1  0.672877  0.836442  0.575028  1
  Al  Al12  1  0.836232  0.672463  0.075154  1
  Al  Al13  1  0.327840  0.163879  0.424331  1
  Al  Al14  1  0.164904  0.329809  0.922738  1
  Al  Al15  1  0.163566  0.836442  0.575028  1
  Al  Al16  1  0.327553  0.163742  0.075144  1
  Al  Al17  1  0.836040  0.163879  0.424331  1
  Al  Al18  1  0.670176  0.835089  0.922777  1
  Al  Al19  1  0.836190  0.163742  0.075144  1
  Al  Al20  1  0.164913  0.835089  0.922777  1
  Al  Al21  1  0.562219  0.124438  0.248560  1
  Al  Al22  1  0.437359  0.874716  0.748166  1
  Al  Al23  1  0.875467  0.437787  0.248559  1
  Al  Al24  1  0.125288  0.562644  0.748171  1
  Al  Al25  1  0.562319  0.437787  0.248559  1
  Al  Al26  1  0.437358  0.562644  0.748171  1
  Al  Al27  1  0.999970  0.999940  0.248906  1
  Al  Al28  1  0.000001  0.000003  0.748775  1
  Si  Si29  1  0.333401  0.666803  0.040398  1
  Os  Os30  1  0.495904  0.991808  0.000565  1
  Os  Os31  1  0.008171  0.504149  0.000527  1
  Os  Os32  1  0.500330  0.000659  0.498714  1
  Os  Os33  1  0.495977  0.504149  0.000527  1
  Os  Os34  1  0.999322  0.499732  0.498756  1
  Os  Os35  1  0.500410  0.499732  0.498756  1
  Os  Os36  1  0.999990  0.999981  0.998799  1
  Os  Os37  1  0.999987  0.999973  0.498653  1
