# generated using pymatgen
data_Dy3Er(Sc3Ga4)2
_symmetry_space_group_name_H-M   'P 1'
_cell_length_a   7.27381503
_cell_length_b   7.57954314
_cell_length_c   14.46548625
_cell_angle_alpha   89.97957214
_cell_angle_beta   90.00606743
_cell_angle_gamma   90.00858716
_symmetry_Int_Tables_number   1
_chemical_formula_structural   Dy3Er(Sc3Ga4)2
_chemical_formula_sum   'Dy6 Er2 Sc12 Ga16'
_cell_volume   797.51394213
_cell_formula_units_Z   2
loop_
 _symmetry_equiv_pos_site_id
 _symmetry_equiv_pos_as_xyz
  1  'x, y, z'
loop_
 _atom_site_type_symbol
 _atom_site_label
 _atom_site_symmetry_multiplicity
 _atom_site_fract_x
 _atom_site_fract_y
 _atom_site_fract_z
 _atom_site_occupancy
  Dy  Dy0  1  0.010564  0.180217  0.094330  1
  Dy  Dy1  1  0.989436  0.819783  0.905670  1
  Dy  Dy2  1  0.489409  0.680225  0.905719  1
  Dy  Dy3  1  0.989426  0.819751  0.594333  1
  Dy  Dy4  1  0.510591  0.319775  0.094281  1
  Dy  Dy5  1  0.010574  0.180249  0.405667  1
  Er  Er6  1  0.510611  0.319607  0.405682  1
  Er  Er7  1  0.489389  0.680393  0.594318  1
  Sc  Sc8  1  0.162358  0.503038  0.749923  1
  Sc  Sc9  1  0.837642  0.496962  0.250077  1
  Sc  Sc10  1  0.337898  0.003038  0.250061  1
  Sc  Sc11  1  0.662102  0.996962  0.749939  1
  Sc  Sc12  1  0.330137  0.172899  0.624666  1
  Sc  Sc13  1  0.669863  0.827101  0.375334  1
  Sc  Sc14  1  0.170199  0.672817  0.375280  1
  Sc  Sc15  1  0.669979  0.827171  0.124796  1
  Sc  Sc16  1  0.829801  0.327183  0.624720  1
  Sc  Sc17  1  0.330021  0.172829  0.875204  1
  Sc  Sc18  1  0.830017  0.327101  0.875249  1
  Sc  Sc19  1  0.169983  0.672899  0.124751  1
  Ga  Ga20  1  0.030638  0.116020  0.749999  1
  Ga  Ga21  1  0.969362  0.883980  0.250001  1
  Ga  Ga22  1  0.469385  0.615902  0.250069  1
  Ga  Ga23  1  0.530615  0.384098  0.749931  1
  Ga  Ga24  1  0.283607  0.870376  0.749899  1
  Ga  Ga25  1  0.716393  0.129624  0.250101  1
  Ga  Ga26  1  0.216802  0.370473  0.250152  1
  Ga  Ga27  1  0.783198  0.629527  0.749848  1
  Ga  Ga28  1  0.163256  0.465412  0.540457  1
  Ga  Ga29  1  0.836744  0.534588  0.459543  1
  Ga  Ga30  1  0.337543  0.965377  0.459627  1
  Ga  Ga31  1  0.837287  0.534734  0.040382  1
  Ga  Ga32  1  0.662457  0.034623  0.540373  1
  Ga  Ga33  1  0.162713  0.465266  0.959618  1
  Ga  Ga34  1  0.662689  0.034783  0.959591  1
  Ga  Ga35  1  0.337311  0.965217  0.040409  1
