# generated using pymatgen
data_Hf18ZnRe7WSe
_symmetry_space_group_name_H-M   'P 1'
_cell_length_a   8.64522026
_cell_length_b   8.64522001
_cell_length_c   8.64253100
_cell_angle_alpha   90.00000000
_cell_angle_beta   90.00000000
_cell_angle_gamma   120.06198064
_symmetry_Int_Tables_number   1
_chemical_formula_structural   Hf18ZnRe7WSe
_chemical_formula_sum   'Hf18 Zn1 Re7 W1 Se1'
_cell_volume   559.05187622
_cell_formula_units_Z   1
loop_
 _symmetry_equiv_pos_site_id
 _symmetry_equiv_pos_as_xyz
  1  'x, y, z'
loop_
 _atom_site_type_symbol
 _atom_site_label
 _atom_site_symmetry_multiplicity
 _atom_site_fract_x
 _atom_site_fract_y
 _atom_site_fract_z
 _atom_site_occupancy
  Hf  Hf0  1  0.193606  0.806394  0.447696  1
  Hf  Hf1  1  0.193527  0.386705  0.448297  1
  Hf  Hf2  1  0.613295  0.806473  0.448297  1
  Hf  Hf3  1  0.807602  0.192398  0.547965  1
  Hf  Hf4  1  0.807230  0.615025  0.547895  1
  Hf  Hf5  1  0.384975  0.192770  0.547895  1
  Hf  Hf6  1  0.807602  0.192398  0.952035  1
  Hf  Hf7  1  0.807230  0.615025  0.952105  1
  Hf  Hf8  1  0.384975  0.192770  0.952105  1
  Hf  Hf9  1  0.193606  0.806394  0.052304  1
  Hf  Hf10  1  0.193527  0.386705  0.051703  1
  Hf  Hf11  1  0.613295  0.806473  0.051703  1
  Hf  Hf12  1  0.541547  0.458453  0.250000  1
  Hf  Hf13  1  0.541993  0.083328  0.250000  1
  Hf  Hf14  1  0.916672  0.458007  0.250000  1
  Hf  Hf15  1  0.454902  0.545098  0.750000  1
  Hf  Hf16  1  0.455330  0.909539  0.750000  1
  Hf  Hf17  1  0.090461  0.544670  0.750000  1
  Zn  Zn18  1  0.333501  0.666499  0.250000  1
  Re  Re19  1  0.890269  0.109731  0.250000  1
  Re  Re20  1  0.889723  0.779849  0.250000  1
  Re  Re21  1  0.220151  0.110277  0.250000  1
  Re  Re22  1  0.110913  0.221024  0.750000  1
  Re  Re23  1  0.778976  0.889087  0.750000  1
  Re  Re24  1  0.999722  0.000278  0.499811  1
  Re  Re25  1  0.999722  0.000278  0.000189  1
  W  W26  1  0.108863  0.891137  0.750000  1
  Se  Se27  1  0.666790  0.333210  0.750000  1
