# generated using pymatgen
data_Tm2Lu4Al24Ru7Rh
_symmetry_space_group_name_H-M   'P 1'
_cell_length_a   8.74261392
_cell_length_b   8.75728442
_cell_length_c   9.54623027
_cell_angle_alpha   89.99464961
_cell_angle_beta   89.83689429
_cell_angle_gamma   120.05732518
_symmetry_Int_Tables_number   1
_chemical_formula_structural   Tm2Lu4Al24Ru7Rh
_chemical_formula_sum   'Tm2 Lu4 Al24 Ru7 Rh1'
_cell_volume   632.58618804
_cell_formula_units_Z   1
loop_
 _symmetry_equiv_pos_site_id
 _symmetry_equiv_pos_as_xyz
  1  'x, y, z'
loop_
 _atom_site_type_symbol
 _atom_site_label
 _atom_site_symmetry_multiplicity
 _atom_site_fract_x
 _atom_site_fract_y
 _atom_site_fract_z
 _atom_site_occupancy
  Tm  Tm0  1  0.804567  0.612515  0.748857  1
  Tm  Tm1  1  0.195433  0.387485  0.251143  1
  Lu  Lu2  1  0.804200  0.192310  0.748797  1
  Lu  Lu3  1  0.195800  0.807690  0.251203  1
  Lu  Lu4  1  0.389282  0.194609  0.749614  1
  Lu  Lu5  1  0.610718  0.805391  0.250386  1
  Al  Al6  1  0.665279  0.332514  0.979552  1
  Al  Al7  1  0.334721  0.667486  0.020448  1
  Al  Al8  1  0.333199  0.666711  0.480329  1
  Al  Al9  1  0.666801  0.333289  0.519671  1
  Al  Al10  1  0.837802  0.163303  0.421906  1
  Al  Al11  1  0.162198  0.836697  0.578094  1
  Al  Al12  1  0.326295  0.163091  0.422462  1
  Al  Al13  1  0.163715  0.838746  0.921755  1
  Al  Al14  1  0.673705  0.836909  0.577538  1
  Al  Al15  1  0.836285  0.161254  0.078245  1
  Al  Al16  1  0.837900  0.674572  0.421775  1
  Al  Al17  1  0.674446  0.837265  0.922095  1
  Al  Al18  1  0.162100  0.325428  0.578225  1
  Al  Al19  1  0.325554  0.162735  0.077905  1
  Al  Al20  1  0.163652  0.324893  0.921644  1
  Al  Al21  1  0.836348  0.675107  0.078356  1
  Al  Al22  1  0.437599  0.560717  0.750208  1
  Al  Al23  1  0.562401  0.439283  0.249792  1
  Al  Al24  1  0.122191  0.560966  0.749360  1
  Al  Al25  1  0.877809  0.439034  0.250640  1
  Al  Al26  1  0.437841  0.877085  0.750206  1
  Al  Al27  1  0.562159  0.122915  0.249794  1
  Al  Al28  1  0.999965  0.000200  0.749962  1
  Al  Al29  1  0.000035  0.999800  0.250038  1
  Ru  Ru30  1  0.500000  0.500000  0.000000  1
  Ru  Ru31  1  0.500000  0.500000  0.500000  1
  Ru  Ru32  1  0.500000  0.000000  0.000000  1
  Ru  Ru33  1  0.000000  0.500000  0.500000  1
  Ru  Ru34  1  0.500000  0.000000  0.500000  1
  Ru  Ru35  1  0.000000  0.000000  0.000000  1
  Ru  Ru36  1  0.000000  0.000000  0.500000  1
  Rh  Rh37  1  0.000000  0.500000  0.000000  1
