# generated using pymatgen
data_LiEuSc(H6Ir)2
_symmetry_space_group_name_H-M   'P 1'
_cell_length_a   4.72243200
_cell_length_b   4.72243280
_cell_length_c   7.96369700
_cell_angle_alpha   90.00000000
_cell_angle_beta   90.00000000
_cell_angle_gamma   119.99999442
_symmetry_Int_Tables_number   1
_chemical_formula_structural   LiEuSc(H6Ir)2
_chemical_formula_sum   'Li1 Eu1 Sc1 H12 Ir2'
_cell_volume   153.80727696
_cell_formula_units_Z   1
loop_
 _symmetry_equiv_pos_site_id
 _symmetry_equiv_pos_as_xyz
  1  'x, y, z'
loop_
 _atom_site_type_symbol
 _atom_site_label
 _atom_site_symmetry_multiplicity
 _atom_site_fract_x
 _atom_site_fract_y
 _atom_site_fract_z
 _atom_site_occupancy
  Li  Li0  1  0.666667  0.333333  0.361309  1
  Eu  Eu1  1  0.000000  0.000000  0.035339  1
  Sc  Sc2  1  0.333333  0.666667  0.616646  1
  H  H3  1  0.164052  0.835948  0.388930  1
  H  H4  1  0.671897  0.835948  0.388930  1
  H  H5  1  0.164052  0.328103  0.388930  1
  H  H6  1  0.836267  0.163733  0.609211  1
  H  H7  1  0.327465  0.163733  0.609211  1
  H  H8  1  0.836267  0.672535  0.609211  1
  H  H9  1  0.498908  0.997816  0.849652  1
  H  H10  1  0.498908  0.501092  0.849652  1
  H  H11  1  0.002184  0.501092  0.849652  1
  H  H12  1  0.499559  0.999120  0.148174  1
  H  H13  1  0.499559  0.500441  0.148174  1
  H  H14  1  0.000880  0.500441  0.148174  1
  Ir  Ir15  1  0.666667  0.333333  0.726436  1
  Ir  Ir16  1  0.333333  0.666667  0.272364  1
