# generated using pymatgen
data_Tb16Ho(TmIr4)3
_symmetry_space_group_name_H-M   'P 1'
_cell_length_a   10.92256700
_cell_length_b   10.92256700
_cell_length_c   6.37482700
_cell_angle_alpha   90.00000000
_cell_angle_beta   90.00000000
_cell_angle_gamma   90.00000000
_symmetry_Int_Tables_number   1
_chemical_formula_structural   Tb16Ho(TmIr4)3
_chemical_formula_sum   'Tb16 Ho1 Tm3 Ir12'
_cell_volume   760.53260609
_cell_formula_units_Z   1
loop_
 _symmetry_equiv_pos_site_id
 _symmetry_equiv_pos_as_xyz
  1  'x, y, z'
loop_
 _atom_site_type_symbol
 _atom_site_label
 _atom_site_symmetry_multiplicity
 _atom_site_fract_x
 _atom_site_fract_y
 _atom_site_fract_z
 _atom_site_occupancy
  Tb  Tb0  1  0.290500  0.087712  0.377628  1
  Tb  Tb1  1  0.290345  0.912324  0.877727  1
  Tb  Tb2  1  0.709655  0.087676  0.877727  1
  Tb  Tb3  1  0.709500  0.912288  0.377628  1
  Tb  Tb4  1  0.587659  0.790261  0.877664  1
  Tb  Tb5  1  0.587612  0.209747  0.377698  1
  Tb  Tb6  1  0.412388  0.790253  0.377698  1
  Tb  Tb7  1  0.412341  0.209739  0.877664  1
  Tb  Tb8  1  0.209747  0.412388  0.622302  1
  Tb  Tb9  1  0.209739  0.587659  0.122336  1
  Tb  Tb10  1  0.790261  0.412341  0.122336  1
  Tb  Tb11  1  0.790253  0.587612  0.622302  1
  Tb  Tb12  1  0.912324  0.709655  0.122273  1
  Tb  Tb13  1  0.912288  0.290500  0.622372  1
  Tb  Tb14  1  0.087712  0.709500  0.622372  1
  Tb  Tb15  1  0.087676  0.290345  0.122273  1
  Ho  Ho16  1  0.000000  0.000000  0.500000  1
  Tm  Tm17  1  0.000000  0.000000  0.000000  1
  Tm  Tm18  1  0.500000  0.500000  0.000000  1
  Tm  Tm19  1  0.500000  0.500000  0.500000  1
  Ir  Ir20  1  0.847798  0.152189  0.249521  1
  Ir  Ir21  1  0.847811  0.847798  0.750479  1
  Ir  Ir22  1  0.152189  0.152202  0.750479  1
  Ir  Ir23  1  0.152202  0.847811  0.249521  1
  Ir  Ir24  1  0.651860  0.348148  0.749987  1
  Ir  Ir25  1  0.651852  0.651860  0.250013  1
  Ir  Ir26  1  0.348148  0.348140  0.250013  1
  Ir  Ir27  1  0.348140  0.651852  0.749987  1
  Ir  Ir28  1  0.500000  0.000000  0.121777  1
  Ir  Ir29  1  0.500000  0.000000  0.621760  1
  Ir  Ir30  1  0.000000  0.500000  0.878223  1
  Ir  Ir31  1  0.000000  0.500000  0.378240  1
