# generated using pymatgen
data_La5Yb(ZnSb3)4
_symmetry_space_group_name_H-M   'P 1'
_cell_length_a   4.34643000
_cell_length_b   10.56425700
_cell_length_c   13.46458900
_cell_angle_alpha   90.00000000
_cell_angle_beta   90.00000000
_cell_angle_gamma   90.00000000
_symmetry_Int_Tables_number   1
_chemical_formula_structural   La5Yb(ZnSb3)4
_chemical_formula_sum   'La5 Yb1 Zn4 Sb12'
_cell_volume   618.25088803
_cell_formula_units_Z   1
loop_
 _symmetry_equiv_pos_site_id
 _symmetry_equiv_pos_as_xyz
  1  'x, y, z'
loop_
 _atom_site_type_symbol
 _atom_site_label
 _atom_site_symmetry_multiplicity
 _atom_site_fract_x
 _atom_site_fract_y
 _atom_site_fract_z
 _atom_site_occupancy
  La  La0  1  0.750000  0.257529  0.412617  1
  La  La1  1  0.250000  0.740911  0.910648  1
  La  La2  1  0.250000  0.740911  0.589352  1
  La  La3  1  0.250000  0.752896  0.250000  1
  La  La4  1  0.750000  0.257529  0.087383  1
  Yb  Yb5  1  0.750000  0.249521  0.750000  1
  Zn  Zn6  1  0.250000  0.003360  0.089449  1
  Zn  Zn7  1  0.250000  0.003360  0.410551  1
  Zn  Zn8  1  0.750000  0.000754  0.594036  1
  Zn  Zn9  1  0.750000  0.000754  0.905964  1
  Sb  Sb10  1  0.750000  0.504456  0.250000  1
  Sb  Sb11  1  0.750000  0.492746  0.915960  1
  Sb  Sb12  1  0.750000  0.841167  0.750000  1
  Sb  Sb13  1  0.750000  0.844231  0.419781  1
  Sb  Sb14  1  0.250000  0.154595  0.918582  1
  Sb  Sb15  1  0.250000  0.154595  0.581418  1
  Sb  Sb16  1  0.250000  0.158420  0.250000  1
  Sb  Sb17  1  0.250000  0.506419  0.083192  1
  Sb  Sb18  1  0.250000  0.492451  0.750000  1
  Sb  Sb19  1  0.250000  0.506419  0.416808  1
  Sb  Sb20  1  0.750000  0.492746  0.584040  1
  Sb  Sb21  1  0.750000  0.844231  0.080219  1
