# generated using pymatgen
data_Ba2Co3(Si2Ni3)5
_symmetry_space_group_name_H-M   'P 1'
_cell_length_a   6.79517852
_cell_length_b   6.79500371
_cell_length_c   10.58487642
_cell_angle_alpha   90.03154392
_cell_angle_beta   89.99284177
_cell_angle_gamma   120.04563145
_symmetry_Int_Tables_number   1
_chemical_formula_structural   Ba2Co3(Si2Ni3)5
_chemical_formula_sum   'Ba2 Co3 Si10 Ni15'
_cell_volume   423.06494554
_cell_formula_units_Z   1
loop_
 _symmetry_equiv_pos_site_id
 _symmetry_equiv_pos_as_xyz
  1  'x, y, z'
loop_
 _atom_site_type_symbol
 _atom_site_label
 _atom_site_symmetry_multiplicity
 _atom_site_fract_x
 _atom_site_fract_y
 _atom_site_fract_z
 _atom_site_occupancy
  Ba  Ba0  1  0.999251  0.000299  0.999640  1
  Ba  Ba1  1  0.999264  0.000422  0.498747  1
  Co  Co2  1  0.539762  0.459790  0.113262  1
  Co  Co3  1  0.081210  0.540492  0.614265  1
  Co  Co4  1  0.459491  0.919154  0.614067  1
  Si  Si5  1  0.828859  0.170921  0.250182  1
  Si  Si6  1  0.662383  0.831714  0.748795  1
  Si  Si7  1  0.168249  0.337019  0.749068  1
  Si  Si8  1  0.830113  0.660722  0.248765  1
  Si  Si9  1  0.339099  0.169689  0.248836  1
  Si  Si10  1  0.167514  0.833122  0.747958  1
  Si  Si11  1  0.336175  0.663168  0.065435  1
  Si  Si12  1  0.669913  0.330154  0.566802  1
  Si  Si13  1  0.665488  0.335011  0.935680  1
  Si  Si14  1  0.331866  0.668665  0.437180  1
  Ni  Ni15  1  0.538493  0.076262  0.109560  1
  Ni  Ni16  1  0.923438  0.461159  0.109497  1
  Ni  Ni17  1  0.079399  0.540656  0.886778  1
  Ni  Ni18  1  0.459718  0.921002  0.886827  1
  Ni  Ni19  1  0.461482  0.537937  0.610027  1
  Ni  Ni20  1  0.462293  0.538043  0.888559  1
  Ni  Ni21  1  0.539946  0.460236  0.388121  1
  Ni  Ni22  1  0.923502  0.462321  0.390803  1
  Ni  Ni23  1  0.537897  0.076772  0.390660  1
  Ni  Ni24  1  0.207093  0.792636  0.249846  1
  Ni  Ni25  1  0.415787  0.209167  0.749056  1
  Ni  Ni26  1  0.791433  0.585074  0.748941  1
  Ni  Ni27  1  0.207148  0.416904  0.250904  1
  Ni  Ni28  1  0.582563  0.792411  0.250799  1
  Ni  Ni29  1  0.791175  0.209076  0.750941  1
