# generated using pymatgen
data_Y2Lu(AlCu4)3
_symmetry_space_group_name_H-M   'P 1'
_cell_length_a   8.76681300
_cell_length_b   8.76681258
_cell_length_c   4.15809500
_cell_angle_alpha   90.00000000
_cell_angle_beta   90.00000000
_cell_angle_gamma   120.00000534
_symmetry_Int_Tables_number   1
_chemical_formula_structural   Y2Lu(AlCu4)3
_chemical_formula_sum   'Y2 Lu1 Al3 Cu12'
_cell_volume   276.76328777
_cell_formula_units_Z   1
loop_
 _symmetry_equiv_pos_site_id
 _symmetry_equiv_pos_as_xyz
  1  'x, y, z'
loop_
 _atom_site_type_symbol
 _atom_site_label
 _atom_site_symmetry_multiplicity
 _atom_site_fract_x
 _atom_site_fract_y
 _atom_site_fract_z
 _atom_site_occupancy
  Y  Y0  1  0.333333  0.666667  0.000000  1
  Y  Y1  1  0.666667  0.333333  0.000000  1
  Lu  Lu2  1  0.000000  0.000000  0.000000  1
  Al  Al3  1  0.500000  0.000000  0.500000  1
  Al  Al4  1  0.000000  0.500000  0.500000  1
  Al  Al5  1  0.500000  0.500000  0.500000  1
  Cu  Cu6  1  0.328021  0.000000  0.000000  1
  Cu  Cu7  1  0.671979  0.000000  0.000000  1
  Cu  Cu8  1  0.000000  0.328021  0.000000  1
  Cu  Cu9  1  0.000000  0.671979  0.000000  1
  Cu  Cu10  1  0.671979  0.671979  0.000000  1
  Cu  Cu11  1  0.328021  0.328021  0.000000  1
  Cu  Cu12  1  0.165965  0.331929  0.500000  1
  Cu  Cu13  1  0.834035  0.668071  0.500000  1
  Cu  Cu14  1  0.668071  0.834035  0.500000  1
  Cu  Cu15  1  0.331929  0.165965  0.500000  1
  Cu  Cu16  1  0.165965  0.834035  0.500000  1
  Cu  Cu17  1  0.834035  0.165965  0.500000  1
