# generated using pymatgen
data_Ba2Yb3(InSb3)2
_symmetry_space_group_name_H-M   'P 1'
_cell_length_a   7.51567200
_cell_length_b   24.15818000
_cell_length_c   4.82591600
_cell_angle_alpha   90.00000000
_cell_angle_beta   90.00000000
_cell_angle_gamma   90.00000000
_symmetry_Int_Tables_number   1
_chemical_formula_structural   Ba2Yb3(InSb3)2
_chemical_formula_sum   'Ba4 Yb6 In4 Sb12'
_cell_volume   876.21723101
_cell_formula_units_Z   2
loop_
 _symmetry_equiv_pos_site_id
 _symmetry_equiv_pos_as_xyz
  1  'x, y, z'
loop_
 _atom_site_type_symbol
 _atom_site_label
 _atom_site_symmetry_multiplicity
 _atom_site_fract_x
 _atom_site_fract_y
 _atom_site_fract_z
 _atom_site_occupancy
  Ba  Ba0  1  0.971870  0.092470  0.500001  1
  Ba  Ba1  1  0.028130  0.907530  0.500001  1
  Ba  Ba2  1  0.471871  0.407530  0.500001  1
  Ba  Ba3  1  0.528129  0.592470  0.500001  1
  Yb  Yb4  1  0.272058  0.247855  0.500001  1
  Yb  Yb5  1  0.727941  0.752145  0.500001  1
  Yb  Yb6  1  0.772059  0.252145  0.500001  1
  Yb  Yb7  1  0.227941  0.747855  0.500001  1
  Yb  Yb8  1  0.499999  0.000000  0.500001  1
  Yb  Yb9  1  0.000000  0.500000  0.500001  1
  In  In10  1  0.823217  0.374092  0.000000  1
  In  In11  1  0.676783  0.874092  0.000000  1
  In  In12  1  0.323216  0.125908  0.000000  1
  In  In13  1  0.176783  0.625908  0.000000  1
  Sb  Sb14  1  0.020131  0.201349  0.000000  1
  Sb  Sb15  1  0.979869  0.798651  0.000000  1
  Sb  Sb16  1  0.520131  0.298651  0.000000  1
  Sb  Sb17  1  0.479869  0.701349  0.000000  1
  Sb  Sb18  1  0.199253  0.005151  0.000000  1
  Sb  Sb19  1  0.800747  0.994849  0.000000  1
  Sb  Sb20  1  0.699253  0.494849  0.000000  1
  Sb  Sb21  1  0.300746  0.505151  0.000000  1
  Sb  Sb22  1  0.529253  0.137025  0.500001  1
  Sb  Sb23  1  0.470748  0.862975  0.500001  1
  Sb  Sb24  1  0.029251  0.362975  0.500001  1
  Sb  Sb25  1  0.970748  0.637025  0.500001  1
