# generated using pymatgen
data_Hf8Ti7Nb2Si8Ge8Mo3
_symmetry_space_group_name_H-M   'P 1'
_cell_length_a   6.64780800
_cell_length_b   6.77677812
_cell_length_c   13.06994900
_cell_angle_alpha   90.00000000
_cell_angle_beta   90.00000000
_cell_angle_gamma   89.98916105
_symmetry_Int_Tables_number   1
_chemical_formula_structural   Hf8Ti7Nb2Si8Ge8Mo3
_chemical_formula_sum   'Hf8 Ti7 Nb2 Si8 Ge8 Mo3'
_cell_volume   588.81059978
_cell_formula_units_Z   1
loop_
 _symmetry_equiv_pos_site_id
 _symmetry_equiv_pos_as_xyz
  1  'x, y, z'
loop_
 _atom_site_type_symbol
 _atom_site_label
 _atom_site_symmetry_multiplicity
 _atom_site_fract_x
 _atom_site_fract_y
 _atom_site_fract_z
 _atom_site_occupancy
  Hf  Hf0  1  0.990251  0.174389  0.096607  1
  Hf  Hf1  1  0.008547  0.825763  0.904436  1
  Hf  Hf2  1  0.507975  0.673870  0.904227  1
  Hf  Hf3  1  0.009855  0.827249  0.596523  1
  Hf  Hf4  1  0.491900  0.326463  0.095706  1
  Hf  Hf5  1  0.991224  0.174295  0.403655  1
  Hf  Hf6  1  0.491319  0.326043  0.404226  1
  Hf  Hf7  1  0.507179  0.675246  0.596004  1
  Ti  Ti8  1  0.661081  0.834242  0.372335  1
  Ti  Ti9  1  0.159895  0.664152  0.371418  1
  Ti  Ti10  1  0.660162  0.834855  0.127291  1
  Ti  Ti11  1  0.840006  0.333493  0.626448  1
  Ti  Ti12  1  0.339036  0.165817  0.873599  1
  Ti  Ti13  1  0.840128  0.334235  0.873985  1
  Ti  Ti14  1  0.160273  0.664714  0.127612  1
  Nb  Nb15  1  0.166816  0.495324  0.750139  1
  Nb  Nb16  1  0.338558  0.166420  0.625972  1
  Si  Si17  1  0.036555  0.114650  0.751754  1
  Si  Si18  1  0.960448  0.883831  0.249658  1
  Si  Si19  1  0.461156  0.615380  0.249675  1
  Si  Si20  1  0.544540  0.382954  0.751398  1
  Si  Si21  1  0.302599  0.862010  0.751600  1
  Si  Si22  1  0.697796  0.139939  0.249765  1
  Si  Si23  1  0.199318  0.359178  0.249814  1
  Si  Si24  1  0.799338  0.640471  0.749792  1
  Ge  Ge25  1  0.178284  0.463811  0.536214  1
  Ge  Ge26  1  0.817565  0.541655  0.461226  1
  Ge  Ge27  1  0.318536  0.955036  0.458695  1
  Ge  Ge28  1  0.818407  0.542274  0.038869  1
  Ge  Ge29  1  0.684740  0.040462  0.537439  1
  Ge  Ge30  1  0.181766  0.458403  0.962828  1
  Ge  Ge31  1  0.681351  0.041777  0.961872  1
  Ge  Ge32  1  0.318085  0.958254  0.038897  1
  Mo  Mo33  1  0.834342  0.504690  0.249969  1
  Mo  Mo34  1  0.334139  0.994225  0.249603  1
  Mo  Mo35  1  0.666835  0.004430  0.750749  1
