# generated using pymatgen
data_Dy5Mn3(P3Rh4)4
_symmetry_space_group_name_H-M   'P 1'
_cell_length_a   12.74037200
_cell_length_b   12.74037217
_cell_length_c   3.89420100
_cell_angle_alpha   90.00000000
_cell_angle_beta   90.00000000
_cell_angle_gamma   119.99999956
_symmetry_Int_Tables_number   1
_chemical_formula_structural   Dy5Mn3(P3Rh4)4
_chemical_formula_sum   'Dy5 Mn3 P12 Rh16'
_cell_volume   547.41062319
_cell_formula_units_Z   1
loop_
 _symmetry_equiv_pos_site_id
 _symmetry_equiv_pos_as_xyz
  1  'x, y, z'
loop_
 _atom_site_type_symbol
 _atom_site_label
 _atom_site_symmetry_multiplicity
 _atom_site_fract_x
 _atom_site_fract_y
 _atom_site_fract_z
 _atom_site_occupancy
  Dy  Dy0  1  0.333333  0.666667  0.500000  1
  Dy  Dy1  1  0.666667  0.333333  0.500000  1
  Dy  Dy2  1  0.000000  0.809999  0.000000  1
  Dy  Dy3  1  0.190001  0.190001  0.000000  1
  Dy  Dy4  1  0.809999  0.000000  0.000000  1
  Mn  Mn5  1  0.000000  0.448103  0.500000  1
  Mn  Mn6  1  0.551897  0.551897  0.500000  1
  Mn  Mn7  1  0.448103  0.000000  0.500000  1
  P  P8  1  0.000000  0.635289  0.500000  1
  P  P9  1  0.364711  0.364711  0.500000  1
  P  P10  1  0.635289  0.000000  0.500000  1
  P  P11  1  0.516843  0.686251  0.000000  1
  P  P12  1  0.313749  0.830592  0.000000  1
  P  P13  1  0.169408  0.483157  0.000000  1
  P  P14  1  0.483157  0.169408  0.000000  1
  P  P15  1  0.686251  0.516843  0.000000  1
  P  P16  1  0.830592  0.313749  0.000000  1
  P  P17  1  0.000000  0.178328  0.500000  1
  P  P18  1  0.821672  0.821672  0.500000  1
  P  P19  1  0.178328  0.000000  0.500000  1
  Rh  Rh20  1  0.000000  0.000000  0.500000  1
  Rh  Rh21  1  0.510991  0.870457  0.000000  1
  Rh  Rh22  1  0.129543  0.640535  0.000000  1
  Rh  Rh23  1  0.359465  0.489009  0.000000  1
  Rh  Rh24  1  0.489009  0.359465  0.000000  1
  Rh  Rh25  1  0.870457  0.510991  0.000000  1
  Rh  Rh26  1  0.640535  0.129543  0.000000  1
  Rh  Rh27  1  0.000000  0.283762  0.000000  1
  Rh  Rh28  1  0.716238  0.716238  0.000000  1
  Rh  Rh29  1  0.283762  0.000000  0.000000  1
  Rh  Rh30  1  0.623119  0.801895  0.500000  1
  Rh  Rh31  1  0.198105  0.821224  0.500000  1
  Rh  Rh32  1  0.178776  0.376881  0.500000  1
  Rh  Rh33  1  0.376881  0.178776  0.500000  1
  Rh  Rh34  1  0.801895  0.623119  0.500000  1
  Rh  Rh35  1  0.821224  0.198105  0.500000  1
