# generated using pymatgen
data_Yb3Eu7(CdPd2)2
_symmetry_space_group_name_H-M   'P 1'
_cell_length_a   9.36610647
_cell_length_b   9.34039279
_cell_length_c   9.30956568
_cell_angle_alpha   128.70623675
_cell_angle_beta   128.46982830
_cell_angle_gamma   75.40527974
_symmetry_Int_Tables_number   1
_chemical_formula_structural   Yb3Eu7(CdPd2)2
_chemical_formula_sum   'Yb3 Eu7 Cd2 Pd4'
_cell_volume   484.91720300
_cell_formula_units_Z   1
loop_
 _symmetry_equiv_pos_site_id
 _symmetry_equiv_pos_as_xyz
  1  'x, y, z'
loop_
 _atom_site_type_symbol
 _atom_site_label
 _atom_site_symmetry_multiplicity
 _atom_site_fract_x
 _atom_site_fract_y
 _atom_site_fract_z
 _atom_site_occupancy
  Yb  Yb0  1  0.499663  0.498600  0.999451  1
  Yb  Yb1  1  0.998629  0.999695  0.999481  1
  Yb  Yb2  1  0.535917  0.035325  0.829743  1
  Eu  Eu3  1  0.201531  0.701378  0.172885  1
  Eu  Eu4  1  0.030164  0.200419  0.500273  1
  Eu  Eu5  1  0.700449  0.529487  0.499921  1
  Eu  Eu6  1  0.469907  0.970355  0.170535  1
  Eu  Eu7  1  0.799405  0.299604  0.828781  1
  Eu  Eu8  1  0.968648  0.798912  0.499001  1
  Eu  Eu9  1  0.298975  0.469380  0.499389  1
  Cd  Cd10  1  0.251832  0.248377  0.998753  1
  Cd  Cd11  1  0.748352  0.751930  0.998788  1
  Pd  Pd12  1  0.132021  0.632202  0.764508  1
  Pd  Pd13  1  0.863710  0.363552  0.230218  1
  Pd  Pd14  1  0.631403  0.869163  0.503953  1
  Pd  Pd15  1  0.369393  0.131619  0.504321  1
