# generated using pymatgen
data_Er2Pa3(Al2Ga3)3
_symmetry_space_group_name_H-M   'P 1'
_cell_length_a   12.46377779
_cell_length_b   12.46377760
_cell_length_c   12.46377688
_cell_angle_alpha   28.53050196
_cell_angle_beta   28.53050328
_cell_angle_gamma   28.53050450
_symmetry_Int_Tables_number   1
_chemical_formula_structural   Er2Pa3(Al2Ga3)3
_chemical_formula_sum   'Er2 Pa3 Al6 Ga9'
_cell_volume   390.41683563
_cell_formula_units_Z   1
loop_
 _symmetry_equiv_pos_site_id
 _symmetry_equiv_pos_as_xyz
  1  'x, y, z'
loop_
 _atom_site_type_symbol
 _atom_site_label
 _atom_site_symmetry_multiplicity
 _atom_site_fract_x
 _atom_site_fract_y
 _atom_site_fract_z
 _atom_site_occupancy
  Er  Er0  1  0.400640  0.400640  0.400640  1
  Er  Er1  1  0.598996  0.598996  0.598996  1
  Pa  Pa2  1  0.001344  0.001344  0.001344  1
  Pa  Pa3  1  0.130696  0.130696  0.130696  1
  Pa  Pa4  1  0.867810  0.867810  0.867810  1
  Al  Al5  1  0.115718  0.572482  0.115718  1
  Al  Al6  1  0.115718  0.115718  0.572482  1
  Al  Al7  1  0.572482  0.115718  0.115718  1
  Al  Al8  1  0.498491  0.498491  0.001613  1
  Al  Al9  1  0.498491  0.001613  0.498491  1
  Al  Al10  1  0.001613  0.498491  0.498491  1
  Ga  Ga11  1  0.129586  0.634378  0.634378  1
  Ga  Ga12  1  0.634378  0.634378  0.129586  1
  Ga  Ga13  1  0.634378  0.129586  0.634378  1
  Ga  Ga14  1  0.361400  0.881054  0.361400  1
  Ga  Ga15  1  0.361400  0.361400  0.881054  1
  Ga  Ga16  1  0.881054  0.361400  0.361400  1
  Ga  Ga17  1  0.432794  0.881505  0.881505  1
  Ga  Ga18  1  0.881505  0.881505  0.432794  1
  Ga  Ga19  1  0.881505  0.432794  0.881505  1
