# generated using pymatgen
data_LiCe4(Co3C2)3
_symmetry_space_group_name_H-M   'P 1'
_cell_length_a   8.23028000
_cell_length_b   8.23028000
_cell_length_c   3.84072400
_cell_angle_alpha   90.00000000
_cell_angle_beta   90.00000000
_cell_angle_gamma   90.00000000
_symmetry_Int_Tables_number   1
_chemical_formula_structural   LiCe4(Co3C2)3
_chemical_formula_sum   'Li1 Ce4 Co9 C6'
_cell_volume   260.16107605
_cell_formula_units_Z   1
loop_
 _symmetry_equiv_pos_site_id
 _symmetry_equiv_pos_as_xyz
  1  'x, y, z'
loop_
 _atom_site_type_symbol
 _atom_site_label
 _atom_site_symmetry_multiplicity
 _atom_site_fract_x
 _atom_site_fract_y
 _atom_site_fract_z
 _atom_site_occupancy
  Li  Li0  1  0.500000  0.500000  0.000000  1
  Ce  Ce1  1  0.332018  0.843266  0.000000  1
  Ce  Ce2  1  0.667982  0.156734  0.000000  1
  Ce  Ce3  1  0.156734  0.332018  0.000000  1
  Ce  Ce4  1  0.843266  0.667982  0.000000  1
  Co  Co5  1  0.578304  0.710219  0.500000  1
  Co  Co6  1  0.421696  0.289781  0.500000  1
  Co  Co7  1  0.920181  0.212170  0.500000  1
  Co  Co8  1  0.079819  0.787830  0.500000  1
  Co  Co9  1  0.710219  0.421696  0.500000  1
  Co  Co10  1  0.289781  0.578304  0.500000  1
  Co  Co11  1  0.212170  0.079819  0.500000  1
  Co  Co12  1  0.787830  0.920181  0.500000  1
  Co  Co13  1  0.000000  0.000000  0.000000  1
  C  C14  1  0.500000  0.500000  0.500000  1
  C  C15  1  0.000000  0.000000  0.500000  1
  C  C16  1  0.060650  0.557337  0.500000  1
  C  C17  1  0.939350  0.442663  0.500000  1
  C  C18  1  0.442663  0.060650  0.500000  1
  C  C19  1  0.557337  0.939350  0.500000  1
