# generated using pymatgen
data_SmCu2Ni2Au
_symmetry_space_group_name_H-M   'P 1'
_cell_length_a   5.05846877
_cell_length_b   5.02130387
_cell_length_c   5.02130412
_cell_angle_alpha   59.80214486
_cell_angle_beta   59.75484333
_cell_angle_gamma   59.75486002
_symmetry_Int_Tables_number   1
_chemical_formula_structural   SmCu2Ni2Au
_chemical_formula_sum   'Sm1 Cu2 Ni2 Au1'
_cell_volume   89.71583839
_cell_formula_units_Z   1
loop_
 _symmetry_equiv_pos_site_id
 _symmetry_equiv_pos_as_xyz
  1  'x, y, z'
loop_
 _atom_site_type_symbol
 _atom_site_label
 _atom_site_symmetry_multiplicity
 _atom_site_fract_x
 _atom_site_fract_y
 _atom_site_fract_z
 _atom_site_occupancy
  Sm  Sm0  1  0.002597  0.997403  0.997403  1
  Cu  Cu1  1  0.623346  0.624951  0.128356  1
  Cu  Cu2  1  0.623346  0.128356  0.624951  1
  Ni  Ni3  1  0.126431  0.624977  0.624977  1
  Ni  Ni4  1  0.623612  0.624977  0.624977  1
  Au  Au5  1  0.250666  0.249334  0.249334  1
