# generated using pymatgen
data_Dy2Ho2ScOs7
_symmetry_space_group_name_H-M   'P 1'
_cell_length_a   5.39157000
_cell_length_b   5.39156863
_cell_length_c   8.88599400
_cell_angle_alpha   90.00000000
_cell_angle_beta   90.00000000
_cell_angle_gamma   120.00000843
_symmetry_Int_Tables_number   1
_chemical_formula_structural   Dy2Ho2ScOs7
_chemical_formula_sum   'Dy2 Ho2 Sc1 Os7'
_cell_volume   223.70052126
_cell_formula_units_Z   1
loop_
 _symmetry_equiv_pos_site_id
 _symmetry_equiv_pos_as_xyz
  1  'x, y, z'
loop_
 _atom_site_type_symbol
 _atom_site_label
 _atom_site_symmetry_multiplicity
 _atom_site_fract_x
 _atom_site_fract_y
 _atom_site_fract_z
 _atom_site_occupancy
  Dy  Dy0  1  0.333333  0.666667  0.422573  1
  Dy  Dy1  1  0.666667  0.333333  0.577427  1
  Ho  Ho2  1  0.666667  0.333333  0.940131  1
  Ho  Ho3  1  0.333333  0.666667  0.059869  1
  Sc  Sc4  1  0.000000  0.000000  0.500000  1
  Os  Os5  1  0.000000  0.000000  0.000000  1
  Os  Os6  1  0.827382  0.172618  0.244687  1
  Os  Os7  1  0.827382  0.654763  0.244687  1
  Os  Os8  1  0.345237  0.172618  0.244687  1
  Os  Os9  1  0.172618  0.827382  0.755313  1
  Os  Os10  1  0.172618  0.345237  0.755313  1
  Os  Os11  1  0.654763  0.827382  0.755313  1
