# generated using pymatgen
data_Tb11YTc3Rh
_symmetry_space_group_name_H-M   'P 1'
_cell_length_a   6.31537013
_cell_length_b   7.44690284
_cell_length_c   9.23757224
_cell_angle_alpha   89.97834599
_cell_angle_beta   89.98508679
_cell_angle_gamma   90.12335146
_symmetry_Int_Tables_number   1
_chemical_formula_structural   Tb11YTc3Rh
_chemical_formula_sum   'Tb11 Y1 Tc3 Rh1'
_cell_volume   434.44148731
_cell_formula_units_Z   1
loop_
 _symmetry_equiv_pos_site_id
 _symmetry_equiv_pos_as_xyz
  1  'x, y, z'
loop_
 _atom_site_type_symbol
 _atom_site_label
 _atom_site_symmetry_multiplicity
 _atom_site_fract_x
 _atom_site_fract_y
 _atom_site_fract_z
 _atom_site_occupancy
  Tb  Tb0  1  0.632219  0.044093  0.250001  1
  Tb  Tb1  1  0.373129  0.957105  0.749943  1
  Tb  Tb2  1  0.124873  0.460086  0.749954  1
  Tb  Tb3  1  0.870565  0.541368  0.250083  1
  Tb  Tb4  1  0.163161  0.178045  0.061422  1
  Tb  Tb5  1  0.833364  0.823951  0.933801  1
  Tb  Tb6  1  0.661986  0.323534  0.936180  1
  Tb  Tb7  1  0.833165  0.824063  0.566002  1
  Tb  Tb8  1  0.338019  0.673929  0.061646  1
  Tb  Tb9  1  0.163393  0.177993  0.438551  1
  Tb  Tb10  1  0.338084  0.673598  0.438522  1
  Y  Y11  1  0.661918  0.323506  0.563548  1
  Tc  Tc12  1  0.459431  0.384069  0.249904  1
  Tc  Tc13  1  0.539311  0.616321  0.750377  1
  Tc  Tc14  1  0.963205  0.113591  0.750151  1
  Rh  Rh15  1  0.044175  0.884747  0.249914  1
