# generated using pymatgen
data_Sm8Y12Si15Ge
_symmetry_space_group_name_H-M   'P 1'
_cell_length_a   7.48786971
_cell_length_b   7.77661277
_cell_length_c   14.79132617
_cell_angle_alpha   90.04719337
_cell_angle_beta   89.70504207
_cell_angle_gamma   90.03264876
_symmetry_Int_Tables_number   1
_chemical_formula_structural   Sm8Y12Si15Ge
_chemical_formula_sum   'Sm8 Y12 Si15 Ge1'
_cell_volume   861.29097276
_cell_formula_units_Z   1
loop_
 _symmetry_equiv_pos_site_id
 _symmetry_equiv_pos_as_xyz
  1  'x, y, z'
loop_
 _atom_site_type_symbol
 _atom_site_label
 _atom_site_symmetry_multiplicity
 _atom_site_fract_x
 _atom_site_fract_y
 _atom_site_fract_z
 _atom_site_occupancy
  Sm  Sm0  1  0.020306  0.181312  0.097670  1
  Sm  Sm1  1  0.979747  0.819127  0.902201  1
  Sm  Sm2  1  0.480044  0.681233  0.902077  1
  Sm  Sm3  1  0.980054  0.819524  0.597997  1
  Sm  Sm4  1  0.520004  0.319078  0.097778  1
  Sm  Sm5  1  0.018332  0.180293  0.401924  1
  Sm  Sm6  1  0.519380  0.318486  0.401746  1
  Sm  Sm7  1  0.483216  0.682063  0.598335  1
  Y  Y8  1  0.159054  0.511983  0.751023  1
  Y  Y9  1  0.840692  0.487786  0.250127  1
  Y  Y10  1  0.341400  0.012327  0.249959  1
  Y  Y11  1  0.658783  0.988122  0.750197  1
  Y  Y12  1  0.327879  0.176573  0.624132  1
  Y  Y13  1  0.673000  0.821312  0.376552  1
  Y  Y14  1  0.171693  0.680177  0.376970  1
  Y  Y15  1  0.674554  0.820219  0.122521  1
  Y  Y16  1  0.826267  0.320995  0.622728  1
  Y  Y17  1  0.325031  0.179405  0.877299  1
  Y  Y18  1  0.825010  0.320450  0.877264  1
  Y  Y19  1  0.174641  0.679769  0.122628  1
  Si  Si20  1  0.032121  0.107358  0.750280  1
  Si  Si21  1  0.967381  0.893308  0.249435  1
  Si  Si22  1  0.466449  0.607515  0.249520  1
  Si  Si23  1  0.532702  0.392704  0.750466  1
  Si  Si24  1  0.275308  0.875281  0.750459  1
  Si  Si25  1  0.724824  0.123858  0.249423  1
  Si  Si26  1  0.224391  0.376441  0.249844  1
  Si  Si27  1  0.776098  0.624190  0.750101  1
  Si  Si28  1  0.842092  0.531671  0.460139  1
  Si  Si29  1  0.348428  0.969342  0.461143  1
  Si  Si30  1  0.850454  0.530126  0.039044  1
  Si  Si31  1  0.651741  0.030921  0.538828  1
  Si  Si32  1  0.149503  0.469904  0.960885  1
  Si  Si33  1  0.649462  0.030358  0.960877  1
  Si  Si34  1  0.350398  0.969833  0.039100  1
  Ge  Ge35  1  0.159563  0.466955  0.539325  1
