# generated using pymatgen
data_Dy4LuSn3P
_symmetry_space_group_name_H-M   'P 1'
_cell_length_a   9.05018500
_cell_length_b   9.05018465
_cell_length_c   6.65822800
_cell_angle_alpha   90.00000000
_cell_angle_beta   90.00000000
_cell_angle_gamma   119.99999764
_symmetry_Int_Tables_number   1
_chemical_formula_structural   Dy4LuSn3P
_chemical_formula_sum   'Dy8 Lu2 Sn6 P2'
_cell_volume   472.28505372
_cell_formula_units_Z   2
loop_
 _symmetry_equiv_pos_site_id
 _symmetry_equiv_pos_as_xyz
  1  'x, y, z'
loop_
 _atom_site_type_symbol
 _atom_site_label
 _atom_site_symmetry_multiplicity
 _atom_site_fract_x
 _atom_site_fract_y
 _atom_site_fract_z
 _atom_site_occupancy
  Dy  Dy0  1  0.333333  0.666667  0.500000  1
  Dy  Dy1  1  0.666667  0.333333  0.500000  1
  Dy  Dy2  1  0.758026  0.758026  0.750473  1
  Dy  Dy3  1  0.241974  0.000000  0.750473  1
  Dy  Dy4  1  0.000000  0.241974  0.750473  1
  Dy  Dy5  1  0.241974  0.241974  0.249527  1
  Dy  Dy6  1  0.758026  0.000000  0.249527  1
  Dy  Dy7  1  0.000000  0.758026  0.249527  1
  Lu  Lu8  1  0.666667  0.333333  0.000000  1
  Lu  Lu9  1  0.333333  0.666667  0.000000  1
  Sn  Sn10  1  0.399516  0.399516  0.751966  1
  Sn  Sn11  1  0.600484  0.000000  0.751966  1
  Sn  Sn12  1  0.000000  0.600484  0.751966  1
  Sn  Sn13  1  0.600484  0.600484  0.248034  1
  Sn  Sn14  1  0.399516  0.000000  0.248034  1
  Sn  Sn15  1  0.000000  0.399516  0.248034  1
  P  P16  1  0.000000  0.000000  0.000000  1
  P  P17  1  0.000000  0.000000  0.500000  1
