# generated using pymatgen
data_Zr5FeCo16Tc2(As3P)3
_symmetry_space_group_name_H-M   'P 1'
_cell_length_a   12.20975500
_cell_length_b   12.20975611
_cell_length_c   3.73663900
_cell_angle_alpha   90.00000000
_cell_angle_beta   90.00000000
_cell_angle_gamma   119.99999970
_symmetry_Int_Tables_number   1
_chemical_formula_structural   Zr5FeCo16Tc2(As3P)3
_chemical_formula_sum   'Zr5 Fe1 Co16 Tc2 As9 P3'
_cell_volume   482.42045499
_cell_formula_units_Z   1
loop_
 _symmetry_equiv_pos_site_id
 _symmetry_equiv_pos_as_xyz
  1  'x, y, z'
loop_
 _atom_site_type_symbol
 _atom_site_label
 _atom_site_symmetry_multiplicity
 _atom_site_fract_x
 _atom_site_fract_y
 _atom_site_fract_z
 _atom_site_occupancy
  Zr  Zr0  1  0.665910  0.332392  0.000000  1
  Zr  Zr1  1  0.332392  0.665910  0.000000  1
  Zr  Zr2  1  0.825123  0.825123  0.500000  1
  Zr  Zr3  1  0.172385  0.000435  0.500000  1
  Zr  Zr4  1  0.000435  0.172385  0.500000  1
  Fe  Fe5  1  0.446574  0.446574  0.000000  1
  Co  Co6  1  0.195835  0.367934  0.000000  1
  Co  Co7  1  0.171841  0.806001  0.000000  1
  Co  Co8  1  0.828173  0.634974  0.000000  1
  Co  Co9  1  0.806001  0.171841  0.000000  1
  Co  Co10  1  0.367934  0.195835  0.000000  1
  Co  Co11  1  0.126795  0.478954  0.500000  1
  Co  Co12  1  0.353294  0.873393  0.500000  1
  Co  Co13  1  0.519980  0.646865  0.500000  1
  Co  Co14  1  0.646865  0.519980  0.500000  1
  Co  Co15  1  0.873393  0.353294  0.500000  1
  Co  Co16  1  0.478954  0.126795  0.500000  1
  Co  Co17  1  0.999951  0.999951  0.000000  1
  Co  Co18  1  0.726494  0.000246  0.500000  1
  Co  Co19  1  0.000246  0.726494  0.500000  1
  Co  Co20  1  0.634974  0.828173  0.000000  1
  Co  Co21  1  0.273042  0.273042  0.500000  1
  Tc  Tc22  1  0.554994  0.000002  0.000000  1
  Tc  Tc23  1  0.000002  0.554994  0.000000  1
  As  As24  1  0.640412  0.640412  0.000000  1
  As  As25  1  0.355013  0.000518  0.000000  1
  As  As26  1  0.000518  0.355013  0.000000  1
  As  As27  1  0.481349  0.318520  0.500000  1
  As  As28  1  0.683303  0.165673  0.500000  1
  As  As29  1  0.834419  0.518678  0.500000  1
  As  As30  1  0.518678  0.834419  0.500000  1
  As  As31  1  0.165673  0.683303  0.500000  1
  As  As32  1  0.318520  0.481349  0.500000  1
  P  P33  1  0.826110  0.999777  0.000000  1
  P  P34  1  0.999777  0.826110  0.000000  1
  P  P35  1  0.174640  0.174640  0.000000  1
