# generated using pymatgen
data_Hf9Ta3PIr
_symmetry_space_group_name_H-M   'P 1'
_cell_length_a   8.71214000
_cell_length_b   8.71213901
_cell_length_c   8.73753300
_cell_angle_alpha   90.00000000
_cell_angle_beta   90.00000000
_cell_angle_gamma   119.99999615
_symmetry_Int_Tables_number   1
_chemical_formula_structural   Hf9Ta3PIr
_chemical_formula_sum   'Hf18 Ta6 P2 Ir2'
_cell_volume   574.34007402
_cell_formula_units_Z   2
loop_
 _symmetry_equiv_pos_site_id
 _symmetry_equiv_pos_as_xyz
  1  'x, y, z'
loop_
 _atom_site_type_symbol
 _atom_site_label
 _atom_site_symmetry_multiplicity
 _atom_site_fract_x
 _atom_site_fract_y
 _atom_site_fract_z
 _atom_site_occupancy
  Hf  Hf0  1  0.197700  0.802300  0.449897  1
  Hf  Hf1  1  0.197700  0.395401  0.449897  1
  Hf  Hf2  1  0.604599  0.802300  0.449897  1
  Hf  Hf3  1  0.802300  0.197700  0.550103  1
  Hf  Hf4  1  0.802300  0.604599  0.550103  1
  Hf  Hf5  1  0.395401  0.197700  0.550103  1
  Hf  Hf6  1  0.802300  0.197700  0.949897  1
  Hf  Hf7  1  0.802300  0.604599  0.949897  1
  Hf  Hf8  1  0.395401  0.197700  0.949897  1
  Hf  Hf9  1  0.197700  0.802300  0.050103  1
  Hf  Hf10  1  0.197700  0.395401  0.050103  1
  Hf  Hf11  1  0.604599  0.802300  0.050103  1
  Hf  Hf12  1  0.537072  0.462928  0.250000  1
  Hf  Hf13  1  0.537072  0.074143  0.250000  1
  Hf  Hf14  1  0.925857  0.462928  0.250000  1
  Hf  Hf15  1  0.462928  0.537072  0.750000  1
  Hf  Hf16  1  0.462928  0.925857  0.750000  1
  Hf  Hf17  1  0.074143  0.537072  0.750000  1
  Ta  Ta18  1  0.889369  0.110631  0.250000  1
  Ta  Ta19  1  0.889369  0.778738  0.250000  1
  Ta  Ta20  1  0.221262  0.110631  0.250000  1
  Ta  Ta21  1  0.110631  0.889369  0.750000  1
  Ta  Ta22  1  0.110631  0.221262  0.750000  1
  Ta  Ta23  1  0.778738  0.889369  0.750000  1
  P  P24  1  0.333333  0.666667  0.250000  1
  P  P25  1  0.666667  0.333333  0.750000  1
  Ir  Ir26  1  0.000000  0.000000  0.500000  1
  Ir  Ir27  1  0.000000  0.000000  0.000000  1
