# generated using pymatgen
data_AlV4GaTc2
_symmetry_space_group_name_H-M   'P 1'
_cell_length_a   4.81519192
_cell_length_b   4.79451092
_cell_length_c   4.78747100
_cell_angle_alpha   90.00000000
_cell_angle_beta   90.00000000
_cell_angle_gamma   90.12630549
_symmetry_Int_Tables_number   1
_chemical_formula_structural   AlV4GaTc2
_chemical_formula_sum   'Al1 V4 Ga1 Tc2'
_cell_volume   110.52563391
_cell_formula_units_Z   1
loop_
 _symmetry_equiv_pos_site_id
 _symmetry_equiv_pos_as_xyz
  1  'x, y, z'
loop_
 _atom_site_type_symbol
 _atom_site_label
 _atom_site_symmetry_multiplicity
 _atom_site_fract_x
 _atom_site_fract_y
 _atom_site_fract_z
 _atom_site_occupancy
  Al  Al0  1  0.503784  0.496956  0.500000  1
  V  V1  1  0.000119  0.501763  0.747161  1
  V  V2  1  0.498529  0.253131  0.000000  1
  V  V3  1  0.751794  0.999870  0.500000  1
  V  V4  1  0.000119  0.501763  0.252839  1
  Ga  Ga5  1  0.996208  0.005025  0.000000  1
  Tc  Tc6  1  0.499476  0.741963  0.000000  1
  Tc  Tc7  1  0.249971  0.999529  0.500000  1
