# generated using pymatgen
data_Rb3LiSc2Br9
_symmetry_space_group_name_H-M   'P 1'
_cell_length_a   13.40124100
_cell_length_b   13.40122750
_cell_length_c   6.44096900
_cell_angle_alpha   90.00003902
_cell_angle_beta   90.00003489
_cell_angle_gamma   120.00000816
_symmetry_Int_Tables_number   1
_chemical_formula_structural   Rb3LiSc2Br9
_chemical_formula_sum   'Rb6 Li2 Sc4 Br18'
_cell_volume   1001.77779724
_cell_formula_units_Z   2
loop_
 _symmetry_equiv_pos_site_id
 _symmetry_equiv_pos_as_xyz
  1  'x, y, z'
loop_
 _atom_site_type_symbol
 _atom_site_label
 _atom_site_symmetry_multiplicity
 _atom_site_fract_x
 _atom_site_fract_y
 _atom_site_fract_z
 _atom_site_occupancy
  Rb  Rb0  1  0.018887  0.333642  0.751241  1
  Rb  Rb1  1  0.314673  0.332277  0.252140  1
  Rb  Rb2  1  0.666358  0.685245  0.751241  1
  Rb  Rb3  1  0.017604  0.685327  0.252138  1
  Rb  Rb4  1  0.314754  0.981112  0.751241  1
  Rb  Rb5  1  0.667722  0.982396  0.252140  1
  Li  Li6  1  0.333333  0.666667  0.526210  1
  Li  Li7  1  0.000000  0.000000  0.999955  1
  Sc  Sc8  1  0.666667  0.333332  0.471861  1
  Sc  Sc9  1  0.000002  0.000002  0.499886  1
  Sc  Sc10  1  0.666666  0.333332  0.971909  1
  Sc  Sc11  1  0.333331  0.666667  0.027619  1
  Br  Br12  1  0.831356  0.497429  0.721148  1
  Br  Br13  1  0.335176  0.505175  0.783354  1
  Br  Br14  1  0.169999  0.664824  0.783353  1
  Br  Br15  1  0.830899  0.333100  0.221108  1
  Br  Br16  1  0.169886  0.505297  0.272414  1
  Br  Br17  1  0.163569  0.002325  0.255617  1
  Br  Br18  1  0.335412  0.830114  0.272413  1
  Br  Br19  1  0.494825  0.830001  0.783354  1
  Br  Br20  1  0.666074  0.168644  0.721148  1
  Br  Br21  1  0.666901  0.497800  0.221108  1
  Br  Br22  1  0.997675  0.161245  0.255616  1
  Br  Br23  1  0.163158  0.161891  0.743832  1
  Br  Br24  1  0.838109  0.001267  0.743833  1
  Br  Br25  1  0.998733  0.836841  0.743833  1
  Br  Br26  1  0.838756  0.836431  0.255616  1
  Br  Br27  1  0.502200  0.169101  0.221108  1
  Br  Br28  1  0.494702  0.664589  0.272413  1
  Br  Br29  1  0.502574  0.333927  0.721147  1
