# generated using pymatgen
data_Rb8CaYbI12
_symmetry_space_group_name_H-M   'P 1'
_cell_length_a   10.19929349
_cell_length_b   10.19929372
_cell_length_c   10.19929445
_cell_angle_alpha   89.68908402
_cell_angle_beta   89.68908383
_cell_angle_gamma   89.68908634
_symmetry_Int_Tables_number   1
_chemical_formula_structural   Rb8CaYbI12
_chemical_formula_sum   'Rb8 Ca1 Yb1 I12'
_cell_volume   1060.94092778
_cell_formula_units_Z   1
loop_
 _symmetry_equiv_pos_site_id
 _symmetry_equiv_pos_as_xyz
  1  'x, y, z'
loop_
 _atom_site_type_symbol
 _atom_site_label
 _atom_site_symmetry_multiplicity
 _atom_site_fract_x
 _atom_site_fract_y
 _atom_site_fract_z
 _atom_site_occupancy
  Rb  Rb0  1  0.250013  0.250013  0.250013  1
  Rb  Rb1  1  0.749987  0.749987  0.749987  1
  Rb  Rb2  1  0.869792  0.630199  0.250013  1
  Rb  Rb3  1  0.630199  0.250013  0.869792  1
  Rb  Rb4  1  0.250013  0.869792  0.630199  1
  Rb  Rb5  1  0.130208  0.369801  0.749987  1
  Rb  Rb6  1  0.369801  0.749987  0.130208  1
  Rb  Rb7  1  0.749987  0.130208  0.369801  1
  Ca  Ca8  1  0.000000  0.000000  0.000000  1
  Yb  Yb9  1  0.500000  0.500000  0.500000  1
  I  I10  1  0.203711  0.557592  0.430229  1
  I  I11  1  0.057681  0.703215  0.930117  1
  I  I12  1  0.930117  0.057681  0.703215  1
  I  I13  1  0.796289  0.442408  0.569771  1
  I  I14  1  0.703215  0.930117  0.057681  1
  I  I15  1  0.442408  0.569771  0.796289  1
  I  I16  1  0.569771  0.796289  0.442408  1
  I  I17  1  0.557592  0.430229  0.203711  1
  I  I18  1  0.069883  0.942319  0.296785  1
  I  I19  1  0.942319  0.296785  0.069883  1
  I  I20  1  0.296785  0.069883  0.942319  1
  I  I21  1  0.430229  0.203711  0.557592  1
