# generated using pymatgen
data_Dy3ZnSn3Rh2
_symmetry_space_group_name_H-M   'P 1'
_cell_length_a   7.59091000
_cell_length_b   7.59091045
_cell_length_c   3.90654300
_cell_angle_alpha   90.00000000
_cell_angle_beta   90.00000000
_cell_angle_gamma   119.99998930
_symmetry_Int_Tables_number   1
_chemical_formula_structural   Dy3ZnSn3Rh2
_chemical_formula_sum   'Dy3 Zn1 Sn3 Rh2'
_cell_volume   194.94450509
_cell_formula_units_Z   1
loop_
 _symmetry_equiv_pos_site_id
 _symmetry_equiv_pos_as_xyz
  1  'x, y, z'
loop_
 _atom_site_type_symbol
 _atom_site_label
 _atom_site_symmetry_multiplicity
 _atom_site_fract_x
 _atom_site_fract_y
 _atom_site_fract_z
 _atom_site_occupancy
  Dy  Dy0  1  0.394188  0.409333  0.500000  1
  Dy  Dy1  1  0.590667  0.984855  0.500000  1
  Dy  Dy2  1  0.015145  0.605812  0.500000  1
  Zn  Zn3  1  0.666667  0.333333  0.000000  1
  Sn  Sn4  1  0.742164  0.741066  0.000000  1
  Sn  Sn5  1  0.258934  0.001098  0.000000  1
  Sn  Sn6  1  0.998902  0.257836  0.000000  1
  Rh  Rh7  1  0.333333  0.666667  0.000000  1
  Rh  Rh8  1  0.000000  0.000000  0.500000  1
