# generated using pymatgen
data_Ce5Nd3(ZnRh)8
_symmetry_space_group_name_H-M   'P 1'
_cell_length_a   3.94915600
_cell_length_b   7.37201014
_cell_length_c   16.44205997
_cell_angle_alpha   89.41062821
_cell_angle_beta   90.00000000
_cell_angle_gamma   90.00000000
_symmetry_Int_Tables_number   1
_chemical_formula_structural   Ce5Nd3(ZnRh)8
_chemical_formula_sum   'Ce5 Nd3 Zn8 Rh8'
_cell_volume   478.65595258
_cell_formula_units_Z   1
loop_
 _symmetry_equiv_pos_site_id
 _symmetry_equiv_pos_as_xyz
  1  'x, y, z'
loop_
 _atom_site_type_symbol
 _atom_site_label
 _atom_site_symmetry_multiplicity
 _atom_site_fract_x
 _atom_site_fract_y
 _atom_site_fract_z
 _atom_site_occupancy
  Ce  Ce0  1  0.250000  0.181074  0.941022  1
  Ce  Ce1  1  0.750000  0.940208  0.284968  1
  Ce  Ce2  1  0.250000  0.558753  0.785060  1
  Ce  Ce3  1  0.750000  0.445003  0.216887  1
  Ce  Ce4  1  0.750000  0.321223  0.441136  1
  Nd  Nd5  1  0.250000  0.668823  0.559885  1
  Nd  Nd6  1  0.750000  0.830251  0.059960  1
  Nd  Nd7  1  0.250000  0.054742  0.715888  1
  Zn  Zn8  1  0.250000  0.117371  0.151849  1
  Zn  Zn9  1  0.750000  0.510300  0.940824  1
  Zn  Zn10  1  0.750000  0.995331  0.560935  1
  Zn  Zn11  1  0.750000  0.380517  0.651227  1
  Zn  Zn12  1  0.750000  0.891861  0.847402  1
  Zn  Zn13  1  0.250000  0.502804  0.060042  1
  Zn  Zn14  1  0.250000  0.609653  0.349105  1
  Zn  Zn15  1  0.250000  0.995298  0.439335  1
  Rh  Rh16  1  0.750000  0.757060  0.428905  1
  Rh  Rh17  1  0.750000  0.271162  0.819893  1
  Rh  Rh18  1  0.750000  0.743933  0.692552  1
  Rh  Rh19  1  0.250000  0.732181  0.191862  1
  Rh  Rh20  1  0.250000  0.749638  0.929373  1
  Rh  Rh21  1  0.250000  0.249511  0.558046  1
  Rh  Rh22  1  0.750000  0.252533  0.061541  1
  Rh  Rh23  1  0.250000  0.240772  0.312303  1
