# generated using pymatgen
data_CeNd5HfMgSb10
_symmetry_space_group_name_H-M   'P 1'
_cell_length_a   9.46451091
_cell_length_b   9.46451195
_cell_length_c   6.34558144
_cell_angle_alpha   90.07488131
_cell_angle_beta   90.07488446
_cell_angle_gamma   120.07242584
_symmetry_Int_Tables_number   1
_chemical_formula_structural   CeNd5HfMgSb10
_chemical_formula_sum   'Ce1 Nd5 Hf1 Mg1 Sb10'
_cell_volume   491.90309098
_cell_formula_units_Z   1
loop_
 _symmetry_equiv_pos_site_id
 _symmetry_equiv_pos_as_xyz
  1  'x, y, z'
loop_
 _atom_site_type_symbol
 _atom_site_label
 _atom_site_symmetry_multiplicity
 _atom_site_fract_x
 _atom_site_fract_y
 _atom_site_fract_z
 _atom_site_occupancy
  Ce  Ce0  1  0.618378  0.618378  0.752223  1
  Nd  Nd1  1  0.617431  0.999937  0.246118  1
  Nd  Nd2  1  0.381542  0.000664  0.754200  1
  Nd  Nd3  1  0.999937  0.617431  0.246118  1
  Nd  Nd4  1  0.000664  0.381542  0.754200  1
  Nd  Nd5  1  0.380461  0.380461  0.246790  1
  Hf  Hf6  1  0.001151  0.001151  0.499528  1
  Mg  Mg7  1  0.000305  0.000305  0.000742  1
  Sb  Sb8  1  0.263240  0.999851  0.252627  1
  Sb  Sb9  1  0.737086  0.998312  0.747608  1
  Sb  Sb10  1  0.999851  0.263240  0.252627  1
  Sb  Sb11  1  0.998312  0.737086  0.747608  1
  Sb  Sb12  1  0.735273  0.735273  0.253337  1
  Sb  Sb13  1  0.264118  0.264118  0.746358  1
  Sb  Sb14  1  0.334375  0.667046  0.999681  1
  Sb  Sb15  1  0.667046  0.334375  0.999681  1
  Sb  Sb16  1  0.665865  0.334966  0.500276  1
  Sb  Sb17  1  0.334966  0.665865  0.500276  1
