# generated using pymatgen
data_La20CoBi8Os3
_symmetry_space_group_name_H-M   'P 1'
_cell_length_a   8.55980617
_cell_length_b   9.29608300
_cell_length_c   13.09821134
_cell_angle_alpha   90.00000000
_cell_angle_beta   89.79853667
_cell_angle_gamma   90.00000000
_symmetry_Int_Tables_number   1
_chemical_formula_structural   La20CoBi8Os3
_chemical_formula_sum   'La20 Co1 Bi8 Os3'
_cell_volume   1042.25318685
_cell_formula_units_Z   1
loop_
 _symmetry_equiv_pos_site_id
 _symmetry_equiv_pos_as_xyz
  1  'x, y, z'
loop_
 _atom_site_type_symbol
 _atom_site_label
 _atom_site_symmetry_multiplicity
 _atom_site_fract_x
 _atom_site_fract_y
 _atom_site_fract_z
 _atom_site_occupancy
  La  La0  1  0.351547  0.750000  0.698312  1
  La  La1  1  0.648749  0.250000  0.297233  1
  La  La2  1  0.850787  0.250000  0.797144  1
  La  La3  1  0.147583  0.750000  0.201222  1
  La  La4  1  0.878805  0.750000  0.804990  1
  La  La5  1  0.120295  0.250000  0.194228  1
  La  La6  1  0.378328  0.250000  0.693193  1
  La  La7  1  0.619506  0.750000  0.309912  1
  La  La8  1  0.680590  0.535653  0.563441  1
  La  La9  1  0.319953  0.462889  0.437323  1
  La  La10  1  0.179199  0.463925  0.935723  1
  La  La11  1  0.319953  0.037111  0.437323  1
  La  La12  1  0.819644  0.537150  0.064376  1
  La  La13  1  0.680590  0.964347  0.563441  1
  La  La14  1  0.819644  0.962850  0.064376  1
  La  La15  1  0.179199  0.036075  0.935723  1
  La  La16  1  0.061692  0.750000  0.494861  1
  La  La17  1  0.942363  0.250000  0.504397  1
  La  La18  1  0.557040  0.250000  0.003885  1
  La  La19  1  0.443984  0.750000  0.995800  1
  Co  Co20  1  0.428147  0.750000  0.491830  1
  Bi  Bi21  1  0.574041  0.506625  0.826871  1
  Bi  Bi22  1  0.425195  0.494450  0.173635  1
  Bi  Bi23  1  0.075724  0.493934  0.671421  1
  Bi  Bi24  1  0.425195  0.005550  0.173635  1
  Bi  Bi25  1  0.924685  0.506916  0.328575  1
  Bi  Bi26  1  0.574041  0.993375  0.826871  1
  Bi  Bi27  1  0.924685  0.993084  0.328575  1
  Bi  Bi28  1  0.075724  0.006066  0.671421  1
  Os  Os29  1  0.077471  0.750000  0.987602  1
  Os  Os30  1  0.921560  0.250000  0.011871  1
  Os  Os31  1  0.574083  0.250000  0.510788  1
