# generated using pymatgen
data_Sm12GaSi12Au11
_symmetry_space_group_name_H-M   'P 1'
_cell_length_a   4.32057100
_cell_length_b   7.44255042
_cell_length_c   24.40343033
_cell_angle_alpha   90.05990048
_cell_angle_beta   90.00000000
_cell_angle_gamma   90.00000000
_symmetry_Int_Tables_number   1
_chemical_formula_structural   Sm12GaSi12Au11
_chemical_formula_sum   'Sm12 Ga1 Si12 Au11'
_cell_volume   784.71792419
_cell_formula_units_Z   1
loop_
 _symmetry_equiv_pos_site_id
 _symmetry_equiv_pos_as_xyz
  1  'x, y, z'
loop_
 _atom_site_type_symbol
 _atom_site_label
 _atom_site_symmetry_multiplicity
 _atom_site_fract_x
 _atom_site_fract_y
 _atom_site_fract_z
 _atom_site_occupancy
  Sm  Sm0  1  0.250000  0.750919  0.332896  1
  Sm  Sm1  1  0.750000  0.245551  0.668511  1
  Sm  Sm2  1  0.750000  0.250596  0.166519  1
  Sm  Sm3  1  0.250000  0.749103  0.833303  1
  Sm  Sm4  1  0.250000  0.752019  0.166606  1
  Sm  Sm5  1  0.750000  0.248809  0.833689  1
  Sm  Sm6  1  0.750000  0.249358  0.333404  1
  Sm  Sm7  1  0.250000  0.753105  0.668621  1
  Sm  Sm8  1  0.250000  0.750452  0.999608  1
  Sm  Sm9  1  0.750000  0.249827  0.999454  1
  Sm  Sm10  1  0.750000  0.247056  0.498884  1
  Sm  Sm11  1  0.250000  0.754908  0.498333  1
  Ga  Ga12  1  0.250000  0.083491  0.587321  1
  Si  Si13  1  0.250000  0.082810  0.079036  1
  Si  Si14  1  0.750000  0.915275  0.918083  1
  Si  Si15  1  0.750000  0.583849  0.421156  1
  Si  Si16  1  0.250000  0.413222  0.580919  1
  Si  Si17  1  0.250000  0.083090  0.249293  1
  Si  Si18  1  0.750000  0.916024  0.750536  1
  Si  Si19  1  0.750000  0.582045  0.251566  1
  Si  Si20  1  0.250000  0.416939  0.749463  1
  Si  Si21  1  0.250000  0.083916  0.419181  1
  Si  Si22  1  0.750000  0.920697  0.581377  1
  Si  Si23  1  0.750000  0.583310  0.081706  1
  Si  Si24  1  0.250000  0.418409  0.918961  1
  Au  Au25  1  0.250000  0.416889  0.249699  1
  Au  Au26  1  0.750000  0.581420  0.749876  1
  Au  Au27  1  0.750000  0.916392  0.249656  1
  Au  Au28  1  0.250000  0.082836  0.750824  1
  Au  Au29  1  0.250000  0.417886  0.414106  1
  Au  Au30  1  0.750000  0.583078  0.585178  1
  Au  Au31  1  0.750000  0.916903  0.085319  1
  Au  Au32  1  0.250000  0.083051  0.914927  1
  Au  Au33  1  0.250000  0.416834  0.084556  1
  Au  Au34  1  0.750000  0.582468  0.914005  1
  Au  Au35  1  0.750000  0.917462  0.413430  1
