# generated using pymatgen
data_Nd6Al25Os7
_symmetry_space_group_name_H-M   'P 1'
_cell_length_a   8.96085451
_cell_length_b   8.96085387
_cell_length_c   9.67492714
_cell_angle_alpha   90.32567356
_cell_angle_beta   89.67432477
_cell_angle_gamma   119.84205151
_symmetry_Int_Tables_number   1
_chemical_formula_structural   Nd6Al25Os7
_chemical_formula_sum   'Nd6 Al25 Os7'
_cell_volume   673.84003327
_cell_formula_units_Z   1
loop_
 _symmetry_equiv_pos_site_id
 _symmetry_equiv_pos_as_xyz
  1  'x, y, z'
loop_
 _atom_site_type_symbol
 _atom_site_label
 _atom_site_symmetry_multiplicity
 _atom_site_fract_x
 _atom_site_fract_y
 _atom_site_fract_z
 _atom_site_occupancy
  Nd  Nd0  1  0.192213  0.382067  0.244234  1
  Nd  Nd1  1  0.807787  0.617933  0.755766  1
  Nd  Nd2  1  0.617933  0.807787  0.244234  1
  Nd  Nd3  1  0.382067  0.192213  0.755766  1
  Nd  Nd4  1  0.191968  0.808032  0.256600  1
  Nd  Nd5  1  0.808032  0.191968  0.743400  1
  Al  Al6  1  0.326014  0.673986  0.015817  1
  Al  Al7  1  0.673986  0.326014  0.984183  1
  Al  Al8  1  0.666030  0.333970  0.513056  1
  Al  Al9  1  0.333970  0.666030  0.486944  1
  Al  Al10  1  0.162733  0.326119  0.569692  1
  Al  Al11  1  0.837267  0.673881  0.430308  1
  Al  Al12  1  0.673881  0.837267  0.569692  1
  Al  Al13  1  0.852831  0.678218  0.080772  1
  Al  Al14  1  0.326119  0.162733  0.430308  1
  Al  Al15  1  0.147169  0.321782  0.919228  1
  Al  Al16  1  0.162942  0.837058  0.575773  1
  Al  Al17  1  0.321782  0.147169  0.080772  1
  Al  Al18  1  0.837058  0.162942  0.424227  1
  Al  Al19  1  0.678218  0.852831  0.919228  1
  Al  Al20  1  0.837018  0.162982  0.075109  1
  Al  Al21  1  0.162982  0.837018  0.924891  1
  Al  Al22  1  0.562804  0.122386  0.249435  1
  Al  Al23  1  0.437196  0.877614  0.750565  1
  Al  Al24  1  0.877614  0.437196  0.249435  1
  Al  Al25  1  0.122386  0.562804  0.750565  1
  Al  Al26  1  0.566739  0.433261  0.260205  1
  Al  Al27  1  0.433261  0.566739  0.739795  1
  Al  Al28  1  0.998720  0.001280  0.250830  1
  Al  Al29  1  0.001280  0.998720  0.749170  1
  Al  Al30  1  0.500000  0.500000  0.000000  1
  Os  Os31  1  0.500000  0.000000  0.000000  1
  Os  Os32  1  0.000000  0.500000  0.000000  1
  Os  Os33  1  0.500000  0.000000  0.500000  1
  Os  Os34  1  0.000000  0.500000  0.500000  1
  Os  Os35  1  0.500000  0.500000  0.500000  1
  Os  Os36  1  0.000000  0.000000  0.000000  1
  Os  Os37  1  0.000000  0.000000  0.500000  1
