# generated using pymatgen
data_K2CrCuS4
_symmetry_space_group_name_H-M   'P 1'
_cell_length_a   13.21611911
_cell_length_b   11.77916265
_cell_length_c   7.11331455
_cell_angle_alpha   84.97366386
_cell_angle_beta   62.60369344
_cell_angle_gamma   32.42264514
_symmetry_Int_Tables_number   1
_chemical_formula_structural   K2CrCuS4
_chemical_formula_sum   'K4 Cr2 Cu2 S8'
_cell_volume   408.55786629
_cell_formula_units_Z   2
loop_
 _symmetry_equiv_pos_site_id
 _symmetry_equiv_pos_as_xyz
  1  'x, y, z'
loop_
 _atom_site_type_symbol
 _atom_site_label
 _atom_site_symmetry_multiplicity
 _atom_site_fract_x
 _atom_site_fract_y
 _atom_site_fract_z
 _atom_site_occupancy
  K  K0  1  0.572067  0.572067  0.927933  1
  K  K1  1  0.927933  0.927933  0.572067  1
  K  K2  1  0.322067  0.322067  0.677933  1
  K  K3  1  0.677933  0.677933  0.322067  1
  Cr  Cr4  1  0.750000  0.750000  0.750000  1
  Cr  Cr5  1  0.500000  0.500000  0.500000  1
  Cu  Cu6  1  0.000000  0.000000  0.000000  1
  Cu  Cu7  1  0.250000  0.250000  0.250000  1
  S  S8  1  0.228419  0.879134  0.579824  1
  S  S9  1  0.312622  0.579824  0.879134  1
  S  S10  1  0.579824  0.312622  0.228419  1
  S  S11  1  0.879134  0.228419  0.312622  1
  S  S12  1  0.370866  0.021581  0.937378  1
  S  S13  1  0.937378  0.670176  0.370866  1
  S  S14  1  0.670176  0.937378  0.021581  1
  S  S15  1  0.021581  0.370866  0.670176  1
