# generated using pymatgen
data_Ce2CrRhF14
_symmetry_space_group_name_H-M   'P 1'
_cell_length_a   5.70750897
_cell_length_b   5.95385841
_cell_length_c   8.13806872
_cell_angle_alpha   78.87549894
_cell_angle_beta   89.94522510
_cell_angle_gamma   90.02727967
_symmetry_Int_Tables_number   1
_chemical_formula_structural   Ce2CrRhF14
_chemical_formula_sum   'Ce2 Cr1 Rh1 F14'
_cell_volume   271.34900696
_cell_formula_units_Z   1
loop_
 _symmetry_equiv_pos_site_id
 _symmetry_equiv_pos_as_xyz
  1  'x, y, z'
loop_
 _atom_site_type_symbol
 _atom_site_label
 _atom_site_symmetry_multiplicity
 _atom_site_fract_x
 _atom_site_fract_y
 _atom_site_fract_z
 _atom_site_occupancy
  Ce  Ce0  1  0.245909  0.833825  0.198914  1
  Ce  Ce1  1  0.745828  0.167749  0.806063  1
  Cr  Cr2  1  0.753065  0.309912  0.274052  1
  Rh  Rh3  1  0.253809  0.691138  0.728217  1
  F  F4  1  0.468085  0.431795  0.729771  1
  F  F5  1  0.039416  0.955827  0.709541  1
  F  F6  1  0.992810  0.469300  0.737680  1
  F  F7  1  0.028169  0.109890  0.285245  1
  F  F8  1  0.968958  0.565325  0.268918  1
  F  F9  1  0.417689  0.053538  0.977946  1
  F  F10  1  0.920448  0.943296  0.020184  1
  F  F11  1  0.248888  0.737098  0.481804  1
  F  F12  1  0.532624  0.891910  0.711556  1
  F  F13  1  0.539903  0.050731  0.287213  1
  F  F14  1  0.498121  0.533826  0.260804  1
  F  F15  1  0.748494  0.262632  0.516765  1
  F  F16  1  0.757542  0.360892  0.030331  1
  F  F17  1  0.259847  0.631316  0.974996  1
