# generated using pymatgen
data_Tb14Dy2MgCo4Ag3
_symmetry_space_group_name_H-M   'P 1'
_cell_length_a   9.50528340
_cell_length_b   9.52763952
_cell_length_c   9.50432800
_cell_angle_alpha   60.08091103
_cell_angle_beta   60.00333185
_cell_angle_gamma   60.12299159
_symmetry_Int_Tables_number   1
_chemical_formula_structural   Tb14Dy2MgCo4Ag3
_chemical_formula_sum   'Tb14 Dy2 Mg1 Co4 Ag3'
_cell_volume   609.58628187
_cell_formula_units_Z   1
loop_
 _symmetry_equiv_pos_site_id
 _symmetry_equiv_pos_as_xyz
  1  'x, y, z'
loop_
 _atom_site_type_symbol
 _atom_site_label
 _atom_site_symmetry_multiplicity
 _atom_site_fract_x
 _atom_site_fract_y
 _atom_site_fract_z
 _atom_site_occupancy
  Tb  Tb0  1  0.808859  0.189099  0.189863  1
  Tb  Tb1  1  0.185384  0.813418  0.814106  1
  Tb  Tb2  1  0.185384  0.813418  0.187094  1
  Tb  Tb3  1  0.808859  0.189099  0.812179  1
  Tb  Tb4  1  0.185077  0.186072  0.814426  1
  Tb  Tb5  1  0.808226  0.810853  0.190461  1
  Tb  Tb6  1  0.936045  0.562574  0.562306  1
  Tb  Tb7  1  0.562685  0.937255  0.938083  1
  Tb  Tb8  1  0.562685  0.937255  0.561977  1
  Tb  Tb9  1  0.936045  0.562574  0.939076  1
  Tb  Tb10  1  0.562128  0.562950  0.937461  1
  Tb  Tb11  1  0.937314  0.938596  0.562045  1
  Tb  Tb12  1  0.345439  0.345191  0.344811  1
  Tb  Tb13  1  0.345439  0.345191  0.964558  1
  Dy  Dy14  1  0.345539  0.964690  0.344885  1
  Dy  Dy15  1  0.951899  0.350077  0.349012  1
  Mg  Mg16  1  0.291345  0.569664  0.569496  1
  Co  Co17  1  0.138618  0.142489  0.142301  1
  Co  Co18  1  0.138618  0.142489  0.576591  1
  Co  Co19  1  0.138993  0.576893  0.142056  1
  Co  Co20  1  0.576733  0.141282  0.140992  1
  Ag  Ag21  1  0.583002  0.583314  0.582508  1
  Ag  Ag22  1  0.583002  0.583314  0.251176  1
  Ag  Ag23  1  0.582679  0.252241  0.582540  1
