# generated using pymatgen
data_Zr10GaCuSn5Bi
_symmetry_space_group_name_H-M   'P 1'
_cell_length_a   8.73705732
_cell_length_b   8.73705770
_cell_length_c   5.89677653
_cell_angle_alpha   89.97566184
_cell_angle_beta   89.97566296
_cell_angle_gamma   119.98110441
_symmetry_Int_Tables_number   1
_chemical_formula_structural   Zr10GaCuSn5Bi
_chemical_formula_sum   'Zr10 Ga1 Cu1 Sn5 Bi1'
_cell_volume   389.90445119
_cell_formula_units_Z   1
loop_
 _symmetry_equiv_pos_site_id
 _symmetry_equiv_pos_as_xyz
  1  'x, y, z'
loop_
 _atom_site_type_symbol
 _atom_site_label
 _atom_site_symmetry_multiplicity
 _atom_site_fract_x
 _atom_site_fract_y
 _atom_site_fract_z
 _atom_site_occupancy
  Zr  Zr0  1  0.734940  0.000234  0.248855  1
  Zr  Zr1  1  0.000234  0.734940  0.248855  1
  Zr  Zr2  1  0.263744  0.263744  0.249475  1
  Zr  Zr3  1  0.263253  0.995918  0.750920  1
  Zr  Zr4  1  0.995918  0.263253  0.750920  1
  Zr  Zr5  1  0.737718  0.737718  0.751140  1
  Zr  Zr6  1  0.332908  0.668623  0.498260  1
  Zr  Zr7  1  0.668623  0.332908  0.498260  1
  Zr  Zr8  1  0.668843  0.332928  0.001805  1
  Zr  Zr9  1  0.332928  0.668843  0.001805  1
  Ga  Ga10  1  0.999539  0.999539  0.499287  1
  Cu  Cu11  1  0.999510  0.999510  0.000955  1
  Sn  Sn12  1  0.386893  0.000306  0.250508  1
  Sn  Sn13  1  0.000306  0.386893  0.250508  1
  Sn  Sn14  1  0.614822  0.614822  0.250598  1
  Sn  Sn15  1  0.612995  0.999772  0.749321  1
  Sn  Sn16  1  0.999772  0.612995  0.749321  1
  Bi  Bi17  1  0.387054  0.387054  0.749207  1
