# generated using pymatgen
data_Li(ThTe3)4
_symmetry_space_group_name_H-M   'P 1'
_cell_length_a   7.56257093
_cell_length_b   7.56257191
_cell_length_c   11.81546100
_cell_angle_alpha   72.08563288
_cell_angle_beta   72.08563048
_cell_angle_gamma   71.98976421
_symmetry_Int_Tables_number   1
_chemical_formula_structural   Li(ThTe3)4
_chemical_formula_sum   'Li1 Th4 Te12'
_cell_volume   594.38884699
_cell_formula_units_Z   1
loop_
 _symmetry_equiv_pos_site_id
 _symmetry_equiv_pos_as_xyz
  1  'x, y, z'
loop_
 _atom_site_type_symbol
 _atom_site_label
 _atom_site_symmetry_multiplicity
 _atom_site_fract_x
 _atom_site_fract_y
 _atom_site_fract_z
 _atom_site_occupancy
  Li  Li0  1  0.814953  0.814953  0.530468  1
  Th  Th1  1  0.807296  0.807296  0.846523  1
  Th  Th2  1  0.307755  0.307755  0.843760  1
  Th  Th3  1  0.690073  0.195411  0.158039  1
  Th  Th4  1  0.195411  0.690073  0.158039  1
  Te  Te5  1  0.011540  0.011540  0.314887  1
  Te  Te6  1  0.505652  0.505652  0.321138  1
  Te  Te7  1  0.490913  0.992740  0.681806  1
  Te  Te8  1  0.992740  0.490913  0.681806  1
  Te  Te9  1  0.261357  0.261357  0.325402  1
  Te  Te10  1  0.760362  0.760362  0.320213  1
  Te  Te11  1  0.234730  0.736460  0.676127  1
  Te  Te12  1  0.736460  0.234730  0.676127  1
  Te  Te13  1  0.020629  0.020629  0.945779  1
  Te  Te14  1  0.520519  0.520519  0.943278  1
  Te  Te15  1  0.479657  0.981254  0.055502  1
  Te  Te16  1  0.981254  0.479657  0.055502  1
