# generated using pymatgen
data_MnNb2(SnRu2)3
_symmetry_space_group_name_H-M   'P 1'
_cell_length_a   4.51627701
_cell_length_b   6.35163000
_cell_length_c   13.48388901
_cell_angle_alpha   90.00000000
_cell_angle_beta   90.00124310
_cell_angle_gamma   90.00000000
_symmetry_Int_Tables_number   1
_chemical_formula_structural   MnNb2(SnRu2)3
_chemical_formula_sum   'Mn2 Nb4 Sn6 Ru12'
_cell_volume   386.79507150
_cell_formula_units_Z   2
loop_
 _symmetry_equiv_pos_site_id
 _symmetry_equiv_pos_as_xyz
  1  'x, y, z'
loop_
 _atom_site_type_symbol
 _atom_site_label
 _atom_site_symmetry_multiplicity
 _atom_site_fract_x
 _atom_site_fract_y
 _atom_site_fract_z
 _atom_site_occupancy
  Mn  Mn0  1  0.999936  0.000000  0.001828  1
  Mn  Mn1  1  0.499823  0.500001  0.164824  1
  Nb  Nb2  1  0.000014  0.000000  0.326247  1
  Nb  Nb3  1  0.500021  0.500001  0.497685  1
  Nb  Nb4  1  0.000059  0.000000  0.668980  1
  Nb  Nb5  1  0.500069  0.500001  0.840433  1
  Sn  Sn6  1  0.000005  0.500001  0.004331  1
  Sn  Sn7  1  0.499941  0.000000  0.162344  1
  Sn  Sn8  1  0.999954  0.500001  0.327671  1
  Sn  Sn9  1  0.500037  0.000000  0.498526  1
  Sn  Sn10  1  0.000078  0.500001  0.668150  1
  Sn  Sn11  1  0.500012  0.000000  0.838981  1
  Ru  Ru12  1  0.499989  0.254158  0.998876  1
  Ru  Ru13  1  0.499989  0.745843  0.998876  1
  Ru  Ru14  1  0.999935  0.245835  0.167784  1
  Ru  Ru15  1  0.999935  0.754165  0.167784  1
  Ru  Ru16  1  0.499970  0.250110  0.334882  1
  Ru  Ru17  1  0.499970  0.749889  0.334882  1
  Ru  Ru18  1  0.000028  0.251395  0.500352  1
  Ru  Ru19  1  0.000028  0.748605  0.500352  1
  Ru  Ru20  1  0.500065  0.248604  0.666317  1
  Ru  Ru21  1  0.500065  0.751395  0.666317  1
  Ru  Ru22  1  0.000040  0.249891  0.831790  1
  Ru  Ru23  1  0.000040  0.750109  0.831790  1
