# generated using pymatgen
data_Eu2(Al3Ir)3
_symmetry_space_group_name_H-M   'P 1'
_cell_length_a   7.64307905
_cell_length_b   7.64307892
_cell_length_c   9.77569500
_cell_angle_alpha   90.00000000
_cell_angle_beta   90.00000000
_cell_angle_gamma   119.35373663
_symmetry_Int_Tables_number   1
_chemical_formula_structural   Eu2(Al3Ir)3
_chemical_formula_sum   'Eu4 Al18 Ir6'
_cell_volume   497.74453002
_cell_formula_units_Z   2
loop_
 _symmetry_equiv_pos_site_id
 _symmetry_equiv_pos_as_xyz
  1  'x, y, z'
loop_
 _atom_site_type_symbol
 _atom_site_label
 _atom_site_symmetry_multiplicity
 _atom_site_fract_x
 _atom_site_fract_y
 _atom_site_fract_z
 _atom_site_occupancy
  Eu  Eu0  1  0.005014  0.328658  0.750000  1
  Eu  Eu1  1  0.328658  0.005014  0.750000  1
  Eu  Eu2  1  0.671342  0.994986  0.250000  1
  Eu  Eu3  1  0.994986  0.671342  0.250000  1
  Al  Al4  1  0.997686  0.664616  0.570506  1
  Al  Al5  1  0.002314  0.335384  0.070506  1
  Al  Al6  1  0.335384  0.002314  0.429494  1
  Al  Al7  1  0.662997  0.454089  0.750000  1
  Al  Al8  1  0.664616  0.997686  0.570506  1
  Al  Al9  1  0.665729  0.665729  0.045352  1
  Al  Al10  1  0.334271  0.334271  0.954648  1
  Al  Al11  1  0.665729  0.665729  0.454648  1
  Al  Al12  1  0.130610  0.130610  0.250000  1
  Al  Al13  1  0.334271  0.334271  0.545352  1
  Al  Al14  1  0.454089  0.662997  0.750000  1
  Al  Al15  1  0.545911  0.337003  0.250000  1
  Al  Al16  1  0.664616  0.997686  0.929494  1
  Al  Al17  1  0.335384  0.002314  0.070506  1
  Al  Al18  1  0.002314  0.335384  0.429494  1
  Al  Al19  1  0.869390  0.869390  0.750000  1
  Al  Al20  1  0.337003  0.545911  0.250000  1
  Al  Al21  1  0.997686  0.664616  0.929494  1
  Ir  Ir22  1  0.670327  0.329673  0.000000  1
  Ir  Ir23  1  0.329673  0.670327  0.500000  1
  Ir  Ir24  1  0.000000  0.000000  0.000000  1
  Ir  Ir25  1  0.329673  0.670327  0.000000  1
  Ir  Ir26  1  0.000000  0.000000  0.500000  1
  Ir  Ir27  1  0.670327  0.329673  0.500000  1
