# generated using pymatgen
data_Sr5Pr3(Sn4Pd3)4
_symmetry_space_group_name_H-M   'P 1'
_cell_length_a   15.02338300
_cell_length_b   15.02338297
_cell_length_c   4.45333500
_cell_angle_alpha   90.00000000
_cell_angle_beta   90.00000000
_cell_angle_gamma   120.00000228
_symmetry_Int_Tables_number   1
_chemical_formula_structural   Sr5Pr3(Sn4Pd3)4
_chemical_formula_sum   'Sr5 Pr3 Sn16 Pd12'
_cell_volume   870.46530342
_cell_formula_units_Z   1
loop_
 _symmetry_equiv_pos_site_id
 _symmetry_equiv_pos_as_xyz
  1  'x, y, z'
loop_
 _atom_site_type_symbol
 _atom_site_label
 _atom_site_symmetry_multiplicity
 _atom_site_fract_x
 _atom_site_fract_y
 _atom_site_fract_z
 _atom_site_occupancy
  Sr  Sr0  1  0.333333  0.666667  0.000000  1
  Sr  Sr1  1  0.666667  0.333333  0.000000  1
  Sr  Sr2  1  0.810340  0.000000  0.500000  1
  Sr  Sr3  1  0.000000  0.810340  0.500000  1
  Sr  Sr4  1  0.189660  0.189660  0.500000  1
  Pr  Pr5  1  0.430647  0.000000  0.000000  1
  Pr  Pr6  1  0.000000  0.430647  0.000000  1
  Pr  Pr7  1  0.569353  0.569353  0.000000  1
  Sn  Sn8  1  0.192316  0.373921  0.000000  1
  Sn  Sn9  1  0.626079  0.818397  0.000000  1
  Sn  Sn10  1  0.373921  0.192316  0.000000  1
  Sn  Sn11  1  0.181603  0.807684  0.000000  1
  Sn  Sn12  1  0.818397  0.626079  0.000000  1
  Sn  Sn13  1  0.807684  0.181603  0.000000  1
  Sn  Sn14  1  0.272441  0.000000  0.500000  1
  Sn  Sn15  1  0.000000  0.272441  0.500000  1
  Sn  Sn16  1  0.727559  0.727559  0.500000  1
  Sn  Sn17  1  0.373215  0.497171  0.500000  1
  Sn  Sn18  1  0.502829  0.876043  0.500000  1
  Sn  Sn19  1  0.497171  0.373215  0.500000  1
  Sn  Sn20  1  0.123957  0.626785  0.500000  1
  Sn  Sn21  1  0.876043  0.502829  0.500000  1
  Sn  Sn22  1  0.626785  0.123957  0.500000  1
  Sn  Sn23  1  0.000000  0.000000  0.000000  1
  Pd  Pd24  1  0.175499  0.472265  0.500000  1
  Pd  Pd25  1  0.527735  0.703234  0.500000  1
  Pd  Pd26  1  0.472265  0.175499  0.500000  1
  Pd  Pd27  1  0.296766  0.824501  0.500000  1
  Pd  Pd28  1  0.703234  0.527735  0.500000  1
  Pd  Pd29  1  0.824501  0.296766  0.500000  1
  Pd  Pd30  1  0.175128  0.000000  0.000000  1
  Pd  Pd31  1  0.000000  0.175128  0.000000  1
  Pd  Pd32  1  0.824872  0.824872  0.000000  1
  Pd  Pd33  1  0.629656  0.000000  0.000000  1
  Pd  Pd34  1  0.000000  0.629656  0.000000  1
  Pd  Pd35  1  0.370344  0.370344  0.000000  1
