# generated using pymatgen
data_Zr12Ta7NbSi16
_symmetry_space_group_name_H-M   'P 1'
_cell_length_a   6.96301916
_cell_length_b   6.96431731
_cell_length_c   12.84522603
_cell_angle_alpha   90.36033102
_cell_angle_beta   89.96464114
_cell_angle_gamma   89.98623989
_symmetry_Int_Tables_number   1
_chemical_formula_structural   Zr12Ta7NbSi16
_chemical_formula_sum   'Zr12 Ta7 Nb1 Si16'
_cell_volume   622.88691381
_cell_formula_units_Z   1
loop_
 _symmetry_equiv_pos_site_id
 _symmetry_equiv_pos_as_xyz
  1  'x, y, z'
loop_
 _atom_site_type_symbol
 _atom_site_label
 _atom_site_symmetry_multiplicity
 _atom_site_fract_x
 _atom_site_fract_y
 _atom_site_fract_z
 _atom_site_occupancy
  Zr  Zr0  1  0.650604  0.497095  0.876351  1
  Zr  Zr1  1  0.502363  0.351486  0.622656  1
  Zr  Zr2  1  0.499685  0.648040  0.125336  1
  Zr  Zr3  1  0.147419  0.999191  0.873883  1
  Zr  Zr4  1  0.001618  0.653392  0.036327  1
  Zr  Zr5  1  0.000371  0.345150  0.529632  1
  Zr  Zr6  1  0.654711  0.999341  0.967804  1
  Zr  Zr7  1  0.151651  0.498825  0.781718  1
  Zr  Zr8  1  0.847031  0.500952  0.282787  1
  Zr  Zr9  1  0.501227  0.153691  0.220531  1
  Zr  Zr10  1  0.501221  0.846295  0.714262  1
  Zr  Zr11  1  0.342516  0.000672  0.467283  1
  Ta  Ta12  1  0.853637  0.996508  0.374406  1
  Ta  Ta13  1  0.007389  0.148421  0.127050  1
  Ta  Ta14  1  0.994933  0.851596  0.624439  1
  Ta  Ta15  1  0.673807  0.674680  0.498365  1
  Ta  Ta16  1  0.828799  0.170691  0.748148  1
  Ta  Ta17  1  0.170531  0.831425  0.251730  1
  Ta  Ta18  1  0.326735  0.324466  0.001867  1
  Nb  Nb19  1  0.349519  0.507690  0.375574  1
  Si  Si20  1  0.046351  0.703259  0.436261  1
  Si  Si21  1  0.955185  0.298903  0.938025  1
  Si  Si22  1  0.704096  0.045894  0.561482  1
  Si  Si23  1  0.201145  0.450577  0.187754  1
  Si  Si24  1  0.801747  0.549283  0.683725  1
  Si  Si25  1  0.452995  0.197934  0.813996  1
  Si  Si26  1  0.548918  0.799954  0.315530  1
  Si  Si27  1  0.299769  0.954853  0.065881  1
  Si  Si28  1  0.854614  0.796831  0.817468  1
  Si  Si29  1  0.138727  0.208324  0.323125  1
  Si  Si30  1  0.797972  0.864438  0.180173  1
  Si  Si31  1  0.290284  0.643203  0.570977  1
  Si  Si32  1  0.709199  0.352470  0.074214  1
  Si  Si33  1  0.638167  0.293804  0.424904  1
  Si  Si34  1  0.354140  0.700849  0.929949  1
  Si  Si35  1  0.200925  0.139815  0.676388  1
