# generated using pymatgen
data_K5CaNbP4
_symmetry_space_group_name_H-M   'P 1'
_cell_length_a   10.15133609
_cell_length_b   10.15133521
_cell_length_c   7.62443258
_cell_angle_alpha   88.09393992
_cell_angle_beta   88.09394062
_cell_angle_gamma   120.28144197
_symmetry_Int_Tables_number   1
_chemical_formula_structural   K5CaNbP4
_chemical_formula_sum   'K10 Ca2 Nb2 P8'
_cell_volume   676.97801989
_cell_formula_units_Z   2
loop_
 _symmetry_equiv_pos_site_id
 _symmetry_equiv_pos_as_xyz
  1  'x, y, z'
loop_
 _atom_site_type_symbol
 _atom_site_label
 _atom_site_symmetry_multiplicity
 _atom_site_fract_x
 _atom_site_fract_y
 _atom_site_fract_z
 _atom_site_occupancy
  K  K0  1  0.465185  0.526514  0.604393  1
  K  K1  1  0.059400  0.530229  0.608162  1
  K  K2  1  0.526514  0.465185  0.104393  1
  K  K3  1  0.530229  0.059400  0.108162  1
  K  K4  1  0.861829  0.142117  0.790346  1
  K  K5  1  0.290349  0.152813  0.830012  1
  K  K6  1  0.854454  0.715095  0.769785  1
  K  K7  1  0.142117  0.861829  0.290346  1
  K  K8  1  0.715095  0.854454  0.269785  1
  K  K9  1  0.152813  0.290349  0.330012  1
  Ca  Ca10  1  0.458862  0.931873  0.602059  1
  Ca  Ca11  1  0.931873  0.458862  0.102059  1
  Nb  Nb12  1  0.672608  0.329188  0.501199  1
  Nb  Nb13  1  0.329188  0.672608  0.001199  1
  P  P14  1  0.695263  0.345645  0.816254  1
  P  P15  1  0.345645  0.695263  0.316254  1
  P  P16  1  0.196959  0.796862  0.888684  1
  P  P17  1  0.583983  0.802819  0.861876  1
  P  P18  1  0.182883  0.405071  0.934430  1
  P  P19  1  0.796862  0.196959  0.388684  1
  P  P20  1  0.405071  0.182883  0.434430  1
  P  P21  1  0.802819  0.583983  0.361876  1
