# generated using pymatgen
data_TbCeAl8SiIr3
_symmetry_space_group_name_H-M   'P 1'
_cell_length_a   7.57844713
_cell_length_b   7.58134025
_cell_length_c   9.35975500
_cell_angle_alpha   90.00000000
_cell_angle_beta   90.00000000
_cell_angle_gamma   119.64797097
_symmetry_Int_Tables_number   1
_chemical_formula_structural   TbCeAl8SiIr3
_chemical_formula_sum   'Tb2 Ce2 Al16 Si2 Ir6'
_cell_volume   467.35940336
_cell_formula_units_Z   2
loop_
 _symmetry_equiv_pos_site_id
 _symmetry_equiv_pos_as_xyz
  1  'x, y, z'
loop_
 _atom_site_type_symbol
 _atom_site_label
 _atom_site_symmetry_multiplicity
 _atom_site_fract_x
 _atom_site_fract_y
 _atom_site_fract_z
 _atom_site_occupancy
  Tb  Tb0  1  0.674189  0.994035  0.250000  1
  Tb  Tb1  1  0.325811  0.005965  0.750000  1
  Ce  Ce2  1  0.995250  0.673787  0.250000  1
  Ce  Ce3  1  0.004750  0.326213  0.750000  1
  Al  Al4  1  0.001580  0.334551  0.076890  1
  Al  Al5  1  0.998420  0.665449  0.923110  1
  Al  Al6  1  0.998420  0.665449  0.576890  1
  Al  Al7  1  0.338093  0.002486  0.425077  1
  Al  Al8  1  0.001580  0.334551  0.423110  1
  Al  Al9  1  0.661907  0.997514  0.574923  1
  Al  Al10  1  0.661907  0.997514  0.925077  1
  Al  Al11  1  0.338093  0.002486  0.074923  1
  Al  Al12  1  0.336582  0.335543  0.555563  1
  Al  Al13  1  0.663418  0.664457  0.444437  1
  Al  Al14  1  0.663418  0.664457  0.055563  1
  Al  Al15  1  0.336582  0.335543  0.944437  1
  Al  Al16  1  0.337838  0.548227  0.250000  1
  Al  Al17  1  0.662162  0.451773  0.750000  1
  Al  Al18  1  0.546596  0.334509  0.250000  1
  Al  Al19  1  0.453404  0.665491  0.750000  1
  Si  Si20  1  0.129901  0.127851  0.250000  1
  Si  Si21  1  0.870099  0.872149  0.750000  1
  Ir  Ir22  1  0.671984  0.328600  0.999904  1
  Ir  Ir23  1  0.328016  0.671400  0.000096  1
  Ir  Ir24  1  0.328016  0.671400  0.499904  1
  Ir  Ir25  1  0.671984  0.328600  0.500096  1
  Ir  Ir26  1  0.000000  0.000000  0.000000  1
  Ir  Ir27  1  0.000000  0.000000  0.500000  1
