# generated using pymatgen
data_Y7SiS7
_symmetry_space_group_name_H-M   'P 1'
_cell_length_a   7.90291700
_cell_length_b   7.90291736
_cell_length_c   7.90291700
_cell_angle_alpha   120.00000269
_cell_angle_beta   90.00000000
_cell_angle_gamma   120.00000269
_symmetry_Int_Tables_number   1
_chemical_formula_structural   Y7SiS7
_chemical_formula_sum   'Y7 Si1 S7'
_cell_volume   349.01753660
_cell_formula_units_Z   1
loop_
 _symmetry_equiv_pos_site_id
 _symmetry_equiv_pos_as_xyz
  1  'x, y, z'
loop_
 _atom_site_type_symbol
 _atom_site_label
 _atom_site_symmetry_multiplicity
 _atom_site_fract_x
 _atom_site_fract_y
 _atom_site_fract_z
 _atom_site_occupancy
  Y  Y0  1  0.246967  0.000000  0.246967  1
  Y  Y1  1  0.246967  0.493932  0.246967  1
  Y  Y2  1  0.753033  0.000000  0.246968  1
  Y  Y3  1  0.250001  0.500001  0.750002  1
  Y  Y4  1  0.246968  0.000000  0.753033  1
  Y  Y5  1  0.753033  0.000000  0.753033  1
  Y  Y6  1  0.753033  0.506067  0.753033  1
  Si  Si7  1  0.000000  0.000000  0.000000  1
  S  S8  1  0.500000  0.000000  0.500000  1
  S  S9  1  0.002818  0.005639  0.502820  1
  S  S10  1  0.002818  0.500001  0.502820  1
  S  S11  1  0.497183  0.500001  0.502820  1
  S  S12  1  0.002820  0.500001  0.997182  1
  S  S13  1  0.497181  0.500001  0.997182  1
  S  S14  1  0.497181  0.994360  0.997182  1
