# generated using pymatgen
data_Tm5Sc5(GaSb)3
_symmetry_space_group_name_H-M   'P 1'
_cell_length_a   8.49588100
_cell_length_b   8.46239134
_cell_length_c   6.13164100
_cell_angle_alpha   90.00000000
_cell_angle_beta   90.00000000
_cell_angle_gamma   120.13099470
_symmetry_Int_Tables_number   1
_chemical_formula_structural   Tm5Sc5(GaSb)3
_chemical_formula_sum   'Tm5 Sc5 Ga3 Sb3'
_cell_volume   381.27128533
_cell_formula_units_Z   1
loop_
 _symmetry_equiv_pos_site_id
 _symmetry_equiv_pos_as_xyz
  1  'x, y, z'
loop_
 _atom_site_type_symbol
 _atom_site_label
 _atom_site_symmetry_multiplicity
 _atom_site_fract_x
 _atom_site_fract_y
 _atom_site_fract_z
 _atom_site_occupancy
  Tm  Tm0  1  0.236854  0.000000  0.250000  1
  Tm  Tm1  1  0.242381  0.231086  0.750000  1
  Tm  Tm2  1  0.011295  0.768914  0.750000  1
  Tm  Tm3  1  0.012044  0.248072  0.250000  1
  Tm  Tm4  1  0.763972  0.751928  0.250000  1
  Sc  Sc5  1  0.327813  0.666634  0.003391  1
  Sc  Sc6  1  0.661180  0.333366  0.496609  1
  Sc  Sc7  1  0.661180  0.333366  0.003391  1
  Sc  Sc8  1  0.327813  0.666634  0.496609  1
  Sc  Sc9  1  0.752711  0.000000  0.750000  1
  Ga  Ga10  1  0.998269  0.599271  0.250000  1
  Ga  Ga11  1  0.398997  0.400729  0.250000  1
  Ga  Ga12  1  0.404309  0.000000  0.750000  1
  Sb  Sb13  1  0.605238  0.000000  0.250000  1
  Sb  Sb14  1  0.602287  0.608632  0.750000  1
  Sb  Sb15  1  0.993655  0.391368  0.750000  1
