# generated using pymatgen
data_Y3TmCdRu
_symmetry_space_group_name_H-M   'P 1'
_cell_length_a   9.64039118
_cell_length_b   9.64039128
_cell_length_c   9.64039200
_cell_angle_alpha   60.00000439
_cell_angle_beta   60.00000403
_cell_angle_gamma   60.00000503
_symmetry_Int_Tables_number   1
_chemical_formula_structural   Y3TmCdRu
_chemical_formula_sum   'Y12 Tm4 Cd4 Ru4'
_cell_volume   633.53273166
_cell_formula_units_Z   4
loop_
 _symmetry_equiv_pos_site_id
 _symmetry_equiv_pos_as_xyz
  1  'x, y, z'
loop_
 _atom_site_type_symbol
 _atom_site_label
 _atom_site_symmetry_multiplicity
 _atom_site_fract_x
 _atom_site_fract_y
 _atom_site_fract_z
 _atom_site_occupancy
  Y  Y0  1  0.810465  0.189535  0.189535  1
  Y  Y1  1  0.189535  0.810465  0.810465  1
  Y  Y2  1  0.189535  0.810465  0.189535  1
  Y  Y3  1  0.810465  0.189535  0.810465  1
  Y  Y4  1  0.189535  0.189535  0.810465  1
  Y  Y5  1  0.810465  0.810465  0.189535  1
  Y  Y6  1  0.939762  0.560238  0.560238  1
  Y  Y7  1  0.560238  0.939762  0.939762  1
  Y  Y8  1  0.560238  0.939762  0.560238  1
  Y  Y9  1  0.939762  0.560238  0.939762  1
  Y  Y10  1  0.560238  0.560238  0.939762  1
  Y  Y11  1  0.939762  0.939762  0.560238  1
  Tm  Tm12  1  0.345334  0.345334  0.345334  1
  Tm  Tm13  1  0.345334  0.345334  0.963998  1
  Tm  Tm14  1  0.345334  0.963998  0.345334  1
  Tm  Tm15  1  0.963998  0.345334  0.345334  1
  Cd  Cd16  1  0.579988  0.579988  0.579988  1
  Cd  Cd17  1  0.579988  0.579988  0.260038  1
  Cd  Cd18  1  0.579988  0.260038  0.579988  1
  Cd  Cd19  1  0.260038  0.579988  0.579988  1
  Ru  Ru20  1  0.141241  0.141241  0.141241  1
  Ru  Ru21  1  0.141241  0.141241  0.576277  1
  Ru  Ru22  1  0.141241  0.576277  0.141241  1
  Ru  Ru23  1  0.576277  0.141241  0.141241  1
