# generated using pymatgen
data_Er3In3Ir2Pb
_symmetry_space_group_name_H-M   'P 1'
_cell_length_a   7.78085100
_cell_length_b   7.78085107
_cell_length_c   3.94543400
_cell_angle_alpha   90.00000000
_cell_angle_beta   90.00000000
_cell_angle_gamma   119.99999545
_symmetry_Int_Tables_number   1
_chemical_formula_structural   Er3In3Ir2Pb
_chemical_formula_sum   'Er3 In3 Ir2 Pb1'
_cell_volume   206.86148408
_cell_formula_units_Z   1
loop_
 _symmetry_equiv_pos_site_id
 _symmetry_equiv_pos_as_xyz
  1  'x, y, z'
loop_
 _atom_site_type_symbol
 _atom_site_label
 _atom_site_symmetry_multiplicity
 _atom_site_fract_x
 _atom_site_fract_y
 _atom_site_fract_z
 _atom_site_occupancy
  Er  Er0  1  0.580277  0.613966  0.000000  1
  Er  Er1  1  0.386034  0.966312  0.000000  1
  Er  Er2  1  0.033688  0.419723  0.000000  1
  In  In3  1  0.015108  0.758284  0.500000  1
  In  In4  1  0.241716  0.256825  0.500000  1
  In  In5  1  0.743175  0.984892  0.500000  1
  Ir  Ir6  1  0.000000  0.000000  0.000000  1
  Ir  Ir7  1  0.333333  0.666667  0.500000  1
  Pb  Pb8  1  0.666667  0.333333  0.500000  1
