# generated using pymatgen
data_YbPrHo5CoI12
_symmetry_space_group_name_H-M   'P 1'
_cell_length_a   9.80927002
_cell_length_b   9.86938889
_cell_length_c   9.89080273
_cell_angle_alpha   106.73966056
_cell_angle_beta   107.34932614
_cell_angle_gamma   106.76518409
_symmetry_Int_Tables_number   1
_chemical_formula_structural   YbPrHo5CoI12
_chemical_formula_sum   'Yb1 Pr1 Ho5 Co1 I12'
_cell_volume   798.48399379
_cell_formula_units_Z   1
loop_
 _symmetry_equiv_pos_site_id
 _symmetry_equiv_pos_as_xyz
  1  'x, y, z'
loop_
 _atom_site_type_symbol
 _atom_site_label
 _atom_site_symmetry_multiplicity
 _atom_site_fract_x
 _atom_site_fract_y
 _atom_site_fract_z
 _atom_site_occupancy
  Yb  Yb0  1  0.500515  0.498956  0.499711  1
  Pr  Pr1  1  0.709583  0.976988  0.905399  1
  Ho  Ho2  1  0.975578  0.904936  0.708581  1
  Ho  Ho3  1  0.024000  0.095135  0.291934  1
  Ho  Ho4  1  0.097000  0.292316  0.024527  1
  Ho  Ho5  1  0.276325  0.022722  0.090988  1
  Ho  Ho6  1  0.906763  0.708194  0.976614  1
  Co  Co7  1  0.997886  0.000562  0.999543  1
  I  I8  1  0.545287  0.613311  0.845081  1
  I  I9  1  0.453751  0.373674  0.152745  1
  I  I10  1  0.314310  0.928136  0.782019  1
  I  I11  1  0.376351  0.151342  0.450988  1
  I  I12  1  0.930144  0.781033  0.318552  1
  I  I13  1  0.685338  0.075337  0.231569  1
  I  I14  1  0.071860  0.219454  0.682212  1
  I  I15  1  0.786225  0.331016  0.930789  1
  I  I16  1  0.224231  0.685008  0.073100  1
  I  I17  1  0.850063  0.548141  0.624787  1
  I  I18  1  0.151682  0.452589  0.375235  1
  I  I19  1  0.623107  0.841150  0.535625  1
