# generated using pymatgen
data_Tm12Th4Mg3CdIr4
_symmetry_space_group_name_H-M   'P 1'
_cell_length_a   9.68812744
_cell_length_b   9.68927544
_cell_length_c   9.70901800
_cell_angle_alpha   59.93230044
_cell_angle_beta   59.92829736
_cell_angle_gamma   59.80809457
_symmetry_Int_Tables_number   1
_chemical_formula_structural   Tm12Th4Mg3CdIr4
_chemical_formula_sum   'Tm12 Th4 Mg3 Cd1 Ir4'
_cell_volume   642.83660933
_cell_formula_units_Z   1
loop_
 _symmetry_equiv_pos_site_id
 _symmetry_equiv_pos_as_xyz
  1  'x, y, z'
loop_
 _atom_site_type_symbol
 _atom_site_label
 _atom_site_symmetry_multiplicity
 _atom_site_fract_x
 _atom_site_fract_y
 _atom_site_fract_z
 _atom_site_occupancy
  Tm  Tm0  1  0.063231  0.436486  0.436756  1
  Tm  Tm1  1  0.437336  0.062907  0.063323  1
  Tm  Tm2  1  0.437336  0.062906  0.436434  1
  Tm  Tm3  1  0.063235  0.436484  0.063525  1
  Tm  Tm4  1  0.437972  0.437127  0.062448  1
  Tm  Tm5  1  0.063918  0.063831  0.436125  1
  Tm  Tm6  1  0.187365  0.816041  0.815028  1
  Tm  Tm7  1  0.816737  0.185045  0.182621  1
  Tm  Tm8  1  0.816735  0.185044  0.815601  1
  Tm  Tm9  1  0.187364  0.816045  0.181564  1
  Tm  Tm10  1  0.816869  0.816747  0.183193  1
  Tm  Tm11  1  0.186799  0.183136  0.815033  1
  Th  Th12  1  0.600075  0.599838  0.598366  1
  Th  Th13  1  0.600076  0.599837  0.201719  1
  Th  Th14  1  0.601115  0.199091  0.599898  1
  Th  Th15  1  0.199858  0.600761  0.599689  1
  Mg  Mg16  1  0.828398  0.830407  0.832768  1
  Mg  Mg17  1  0.828396  0.830412  0.508427  1
  Mg  Mg18  1  0.827697  0.508497  0.831900  1
  Cd  Cd19  1  0.500125  0.831832  0.834022  1
  Ir  Ir20  1  0.392344  0.391900  0.393577  1
  Ir  Ir21  1  0.392344  0.391901  0.822179  1
  Ir  Ir22  1  0.391601  0.822455  0.392973  1
  Ir  Ir23  1  0.823073  0.391269  0.392828  1
