# generated using pymatgen
data_NdPaAl16Pt9
_symmetry_space_group_name_H-M   'P 1'
_cell_length_a   11.16178320
_cell_length_b   11.16178389
_cell_length_c   11.16178356
_cell_angle_alpha   158.61433562
_cell_angle_beta   114.77546500
_cell_angle_gamma   69.49981680
_symmetry_Int_Tables_number   1
_chemical_formula_structural   NdPaAl16Pt9
_chemical_formula_sum   'Nd1 Pa1 Al16 Pt9'
_cell_volume   457.02724206
_cell_formula_units_Z   1
loop_
 _symmetry_equiv_pos_site_id
 _symmetry_equiv_pos_as_xyz
  1  'x, y, z'
loop_
 _atom_site_type_symbol
 _atom_site_label
 _atom_site_symmetry_multiplicity
 _atom_site_fract_x
 _atom_site_fract_y
 _atom_site_fract_z
 _atom_site_occupancy
  Nd  Nd0  1  0.227469  0.227469  0.000000  1
  Pa  Pa1  1  0.773064  0.773064  0.000000  1
  Al  Al2  1  0.269879  0.390573  0.879305  1
  Al  Al3  1  0.092770  0.920767  0.172003  1
  Al  Al4  1  0.510466  0.203057  0.307411  1
  Al  Al5  1  0.250970  0.079178  0.171792  1
  Al  Al6  1  0.914138  0.414138  0.500000  1
  Al  Al7  1  0.728100  0.609303  0.118797  1
  Al  Al8  1  0.895645  0.203057  0.692589  1
  Al  Al9  1  0.488999  0.796353  0.692646  1
  Al  Al10  1  0.387546  0.000021  0.387526  1
  Al  Al11  1  0.612495  0.000021  0.612474  1
  Al  Al12  1  0.490508  0.609303  0.881203  1
  Al  Al13  1  0.103708  0.796353  0.307354  1
  Al  Al14  1  0.907386  0.079178  0.828208  1
  Al  Al15  1  0.748764  0.920767  0.827997  1
  Al  Al16  1  0.511267  0.390573  0.120695  1
  Al  Al17  1  0.086974  0.586974  0.500000  1
  Pt  Pt18  1  0.746171  0.499628  0.246543  1
  Pt  Pt19  1  0.017807  0.338276  0.679530  1
  Pt  Pt20  1  0.628505  0.128505  0.500000  1
  Pt  Pt21  1  0.253084  0.499628  0.753457  1
  Pt  Pt22  1  0.374983  0.874983  0.500000  1
  Pt  Pt23  1  0.999997  0.999997  0.000000  1
  Pt  Pt24  1  0.658746  0.338276  0.320470  1
  Pt  Pt25  1  0.346045  0.660280  0.685765  1
  Pt  Pt26  1  0.974514  0.660280  0.314235  1
