# generated using pymatgen
data_HoTm3Al8
_symmetry_space_group_name_H-M   'P 1'
_cell_length_a   9.61149295
_cell_length_b   9.61149271
_cell_length_c   9.61149341
_cell_angle_alpha   33.33929934
_cell_angle_beta   33.33930240
_cell_angle_gamma   33.33930146
_symmetry_Int_Tables_number   1
_chemical_formula_structural   HoTm3Al8
_chemical_formula_sum   'Ho1 Tm3 Al8'
_cell_volume   238.80717990
_cell_formula_units_Z   1
loop_
 _symmetry_equiv_pos_site_id
 _symmetry_equiv_pos_as_xyz
  1  'x, y, z'
loop_
 _atom_site_type_symbol
 _atom_site_label
 _atom_site_symmetry_multiplicity
 _atom_site_fract_x
 _atom_site_fract_y
 _atom_site_fract_z
 _atom_site_occupancy
  Ho  Ho0  1  0.874972  0.874972  0.874972  1
  Tm  Tm1  1  0.374848  0.374848  0.374848  1
  Tm  Tm2  1  0.999993  0.999993  0.999993  1
  Tm  Tm3  1  0.500124  0.500124  0.500124  1
  Al  Al4  1  0.437527  0.937271  0.437527  1
  Al  Al5  1  0.937536  0.437699  0.937536  1
  Al  Al6  1  0.437527  0.437527  0.937271  1
  Al  Al7  1  0.937536  0.937536  0.437699  1
  Al  Al8  1  0.187418  0.187418  0.187418  1
  Al  Al9  1  0.687551  0.687551  0.687551  1
  Al  Al10  1  0.937271  0.437527  0.437527  1
  Al  Al11  1  0.437699  0.937536  0.937536  1
