# generated using pymatgen
data_DyTm3(B4Mo)4
_symmetry_space_group_name_H-M   'P 1'
_cell_length_a   3.60611000
_cell_length_b   6.00872536
_cell_length_c   11.60916469
_cell_angle_alpha   89.96043753
_cell_angle_beta   90.00000000
_cell_angle_gamma   90.00000000
_symmetry_Int_Tables_number   1
_chemical_formula_structural   DyTm3(B4Mo)4
_chemical_formula_sum   'Dy1 Tm3 B16 Mo4'
_cell_volume   251.54876709
_cell_formula_units_Z   1
loop_
 _symmetry_equiv_pos_site_id
 _symmetry_equiv_pos_as_xyz
  1  'x, y, z'
loop_
 _atom_site_type_symbol
 _atom_site_label
 _atom_site_symmetry_multiplicity
 _atom_site_fract_x
 _atom_site_fract_y
 _atom_site_fract_z
 _atom_site_occupancy
  Dy  Dy0  1  0.000000  0.372735  0.649873  1
  Tm  Tm1  1  0.000000  0.127258  0.149667  1
  Tm  Tm2  1  0.000000  0.872695  0.850502  1
  Tm  Tm3  1  0.000000  0.627317  0.350254  1
  B  B4  1  0.500000  0.476568  0.194206  1
  B  B5  1  0.500000  0.524077  0.806490  1
  B  B6  1  0.500000  0.976591  0.305701  1
  B  B7  1  0.500000  0.022853  0.694205  1
  B  B8  1  0.500000  0.288007  0.313267  1
  B  B9  1  0.500000  0.712937  0.686796  1
  B  B10  1  0.500000  0.788069  0.186597  1
  B  B11  1  0.500000  0.211677  0.813944  1
  B  B12  1  0.500000  0.367394  0.467596  1
  B  B13  1  0.500000  0.632853  0.531405  1
  B  B14  1  0.500000  0.867597  0.031924  1
  B  B15  1  0.500000  0.132294  0.968286  1
  B  B16  1  0.500000  0.385232  0.048040  1
  B  B17  1  0.500000  0.614921  0.952227  1
  B  B18  1  0.500000  0.885127  0.451739  1
  B  B19  1  0.500000  0.113861  0.547358  1
  Mo  Mo20  1  0.000000  0.130259  0.415535  1
  Mo  Mo21  1  0.000000  0.869602  0.583813  1
  Mo  Mo22  1  0.000000  0.630517  0.084175  1
  Mo  Mo23  1  0.000000  0.369560  0.916401  1
