# generated using pymatgen
data_Tb5SmHf2(Co4P3)4
_symmetry_space_group_name_H-M   'P 1'
_cell_length_a   3.72985600
_cell_length_b   10.71131000
_cell_length_c   12.42610100
_cell_angle_alpha   90.00000000
_cell_angle_beta   90.00000000
_cell_angle_gamma   90.00000000
_symmetry_Int_Tables_number   1
_chemical_formula_structural   Tb5SmHf2(Co4P3)4
_chemical_formula_sum   'Tb5 Sm1 Hf2 Co16 P12'
_cell_volume   496.44316186
_cell_formula_units_Z   1
loop_
 _symmetry_equiv_pos_site_id
 _symmetry_equiv_pos_as_xyz
  1  'x, y, z'
loop_
 _atom_site_type_symbol
 _atom_site_label
 _atom_site_symmetry_multiplicity
 _atom_site_fract_x
 _atom_site_fract_y
 _atom_site_fract_z
 _atom_site_occupancy
  Tb  Tb0  1  0.500000  0.000000  0.471932  1
  Tb  Tb1  1  0.500000  0.821556  0.204699  1
  Tb  Tb2  1  0.500000  0.178444  0.204699  1
  Tb  Tb3  1  0.000000  0.678624  0.795548  1
  Tb  Tb4  1  0.000000  0.321376  0.795548  1
  Sm  Sm5  1  0.000000  0.500000  0.528577  1
  Hf  Hf6  1  0.500000  0.500000  0.155683  1
  Hf  Hf7  1  0.000000  0.000000  0.843585  1
  Co  Co8  1  0.500000  0.500000  0.704417  1
  Co  Co9  1  0.000000  0.000000  0.296875  1
  Co  Co10  1  0.000000  0.500000  0.986592  1
  Co  Co11  1  0.500000  0.000000  0.013462  1
  Co  Co12  1  0.500000  0.331966  0.993348  1
  Co  Co13  1  0.500000  0.668034  0.993348  1
  Co  Co14  1  0.000000  0.167783  0.006677  1
  Co  Co15  1  0.000000  0.832217  0.006677  1
  Co  Co16  1  0.500000  0.294254  0.432450  1
  Co  Co17  1  0.500000  0.705746  0.432450  1
  Co  Co18  1  0.000000  0.203804  0.567247  1
  Co  Co19  1  0.000000  0.796196  0.567247  1
  Co  Co20  1  0.500000  0.878626  0.703628  1
  Co  Co21  1  0.500000  0.121374  0.703628  1
  Co  Co22  1  0.000000  0.621947  0.296085  1
  Co  Co23  1  0.000000  0.378053  0.296085  1
  P  P24  1  0.500000  0.500000  0.883960  1
  P  P25  1  0.000000  0.000000  0.116385  1
  P  P26  1  0.500000  0.500000  0.358996  1
  P  P27  1  0.000000  0.000000  0.639466  1
  P  P28  1  0.500000  0.307820  0.615806  1
  P  P29  1  0.500000  0.692180  0.615806  1
  P  P30  1  0.000000  0.190421  0.384583  1
  P  P31  1  0.000000  0.809579  0.384583  1
  P  P32  1  0.500000  0.839059  0.893961  1
  P  P33  1  0.500000  0.160941  0.893961  1
  P  P34  1  0.000000  0.661192  0.106004  1
  P  P35  1  0.000000  0.338808  0.106004  1
