# generated using pymatgen
data_Y7Se8
_symmetry_space_group_name_H-M   'P 1'
_cell_length_a   8.14976444
_cell_length_b   8.14598359
_cell_length_c   8.14975402
_cell_angle_alpha   119.98790397
_cell_angle_beta   90.03458207
_cell_angle_gamma   119.98762533
_symmetry_Int_Tables_number   1
_chemical_formula_structural   Y7Se8
_chemical_formula_sum   'Y7 Se8'
_cell_volume   382.60230097
_cell_formula_units_Z   1
loop_
 _symmetry_equiv_pos_site_id
 _symmetry_equiv_pos_as_xyz
  1  'x, y, z'
loop_
 _atom_site_type_symbol
 _atom_site_label
 _atom_site_symmetry_multiplicity
 _atom_site_fract_x
 _atom_site_fract_y
 _atom_site_fract_z
 _atom_site_occupancy
  Y  Y0  1  0.249801  0.000022  0.249800  1
  Y  Y1  1  0.249800  0.499589  0.249803  1
  Y  Y2  1  0.750186  0.000005  0.249821  1
  Y  Y3  1  0.250021  0.500005  0.749983  1
  Y  Y4  1  0.249812  0.000008  0.750199  1
  Y  Y5  1  0.750204  0.999988  0.750204  1
  Y  Y6  1  0.750206  0.500427  0.750207  1
  Se  Se7  1  0.999988  0.999984  0.999990  1
  Se  Se8  1  0.499990  0.999975  0.499985  1
  Se  Se9  1  0.996988  0.994019  0.496990  1
  Se  Se10  1  0.996942  0.499947  0.496929  1
  Se  Se11  1  0.503030  0.500001  0.496979  1
  Se  Se12  1  0.996962  0.499998  0.003050  1
  Se  Se13  1  0.503050  0.500033  0.003047  1
  Se  Se14  1  0.503022  0.006001  0.003021  1
