# generated using pymatgen
data_Ba2ErC2(O2F)3
_symmetry_space_group_name_H-M   'P 1'
_cell_length_a   7.04432500
_cell_length_b   9.54133600
_cell_length_c   11.88455600
_cell_angle_alpha   90.00000000
_cell_angle_beta   90.00000000
_cell_angle_gamma   90.00000000
_symmetry_Int_Tables_number   1
_chemical_formula_structural   Ba2ErC2(O2F)3
_chemical_formula_sum   'Ba8 Er4 C8 O24 F12'
_cell_volume   798.78800712
_cell_formula_units_Z   4
loop_
 _symmetry_equiv_pos_site_id
 _symmetry_equiv_pos_as_xyz
  1  'x, y, z'
loop_
 _atom_site_type_symbol
 _atom_site_label
 _atom_site_symmetry_multiplicity
 _atom_site_fract_x
 _atom_site_fract_y
 _atom_site_fract_z
 _atom_site_occupancy
  Ba  Ba0  1  0.262276  0.879514  0.071168  1
  Ba  Ba1  1  0.262276  0.120486  0.428832  1
  Ba  Ba2  1  0.237724  0.379514  0.928832  1
  Ba  Ba3  1  0.237724  0.620486  0.571168  1
  Ba  Ba4  1  0.737724  0.120486  0.928832  1
  Ba  Ba5  1  0.737724  0.879514  0.571168  1
  Ba  Ba6  1  0.762276  0.620486  0.071168  1
  Ba  Ba7  1  0.762276  0.379514  0.428832  1
  Er  Er8  1  0.227673  0.500000  0.250000  1
  Er  Er9  1  0.272327  0.000000  0.750000  1
  Er  Er10  1  0.772327  0.500000  0.750000  1
  Er  Er11  1  0.727673  0.000000  0.250000  1
  C  C12  1  0.520223  0.306054  0.180222  1
  C  C13  1  0.520223  0.693946  0.319778  1
  C  C14  1  0.979777  0.806054  0.819778  1
  C  C15  1  0.979777  0.193946  0.680222  1
  C  C16  1  0.479777  0.693946  0.819778  1
  C  C17  1  0.479777  0.306054  0.680222  1
  C  C18  1  0.020223  0.193946  0.180222  1
  C  C19  1  0.020223  0.806054  0.319778  1
  O  O20  1  0.620428  0.201727  0.147243  1
  O  O21  1  0.620428  0.798273  0.352757  1
  O  O22  1  0.879572  0.701727  0.852757  1
  O  O23  1  0.879572  0.298273  0.647243  1
  O  O24  1  0.379572  0.798273  0.852757  1
  O  O25  1  0.379572  0.201727  0.647243  1
  O  O26  1  0.120428  0.298273  0.147243  1
  O  O27  1  0.120428  0.701727  0.352757  1
  O  O28  1  0.478570  0.409432  0.112783  1
  O  O29  1  0.478570  0.590568  0.387217  1
  O  O30  1  0.021430  0.909432  0.887217  1
  O  O31  1  0.021430  0.090568  0.612783  1
  O  O32  1  0.521430  0.590568  0.887217  1
  O  O33  1  0.521430  0.409432  0.612783  1
  O  O34  1  0.978570  0.090568  0.112783  1
  O  O35  1  0.978570  0.909432  0.387217  1
  O  O36  1  0.955433  0.815590  0.216771  1
  O  O37  1  0.955433  0.184410  0.283229  1
  O  O38  1  0.544567  0.315590  0.783229  1
  O  O39  1  0.544567  0.684410  0.716771  1
  O  O40  1  0.044567  0.184410  0.783229  1
  O  O41  1  0.044567  0.815590  0.716771  1
  O  O42  1  0.455433  0.684410  0.216771  1
  O  O43  1  0.455433  0.315590  0.283229  1
  F  F44  1  0.904755  0.500000  0.250000  1
  F  F45  1  0.595245  0.000000  0.750000  1
  F  F46  1  0.095245  0.500000  0.750000  1
  F  F47  1  0.404755  0.000000  0.250000  1
  F  F48  1  0.651280  0.906634  0.079500  1
  F  F49  1  0.651280  0.093366  0.420500  1
  F  F50  1  0.848720  0.406634  0.920500  1
  F  F51  1  0.848720  0.593366  0.579500  1
  F  F52  1  0.348720  0.093366  0.920500  1
  F  F53  1  0.348720  0.906634  0.579500  1
  F  F54  1  0.151280  0.593366  0.079500  1
  F  F55  1  0.151280  0.406634  0.420500  1
