# generated using pymatgen
data_Ca6NpPaO12
_symmetry_space_group_name_H-M   'P 1'
_cell_length_a   6.77679413
_cell_length_b   6.77679338
_cell_length_c   6.77679400
_cell_angle_alpha   90.81887438
_cell_angle_beta   90.81888274
_cell_angle_gamma   90.81888114
_symmetry_Int_Tables_number   1
_chemical_formula_structural   Ca6NpPaO12
_chemical_formula_sum   'Ca6 Np1 Pa1 O12'
_cell_volume   311.12753896
_cell_formula_units_Z   1
loop_
 _symmetry_equiv_pos_site_id
 _symmetry_equiv_pos_as_xyz
  1  'x, y, z'
loop_
 _atom_site_type_symbol
 _atom_site_label
 _atom_site_symmetry_multiplicity
 _atom_site_fract_x
 _atom_site_fract_y
 _atom_site_fract_z
 _atom_site_occupancy
  Ca  Ca0  1  0.062694  0.254942  0.549526  1
  Ca  Ca1  1  0.450474  0.937306  0.745058  1
  Ca  Ca2  1  0.745058  0.450474  0.937306  1
  Ca  Ca3  1  0.254942  0.549526  0.062694  1
  Ca  Ca4  1  0.549526  0.062694  0.254942  1
  Ca  Ca5  1  0.937306  0.745058  0.450474  1
  Np  Np6  1  0.000000  0.000000  0.000000  1
  Pa  Pa7  1  0.500000  0.500000  0.500000  1
  O  O8  1  0.061029  0.285909  0.935275  1
  O  O9  1  0.064725  0.938971  0.714091  1
  O  O10  1  0.457827  0.596819  0.804545  1
  O  O11  1  0.714091  0.064725  0.938971  1
  O  O12  1  0.195455  0.542173  0.403181  1
  O  O13  1  0.403181  0.195455  0.542173  1
  O  O14  1  0.596819  0.804545  0.457827  1
  O  O15  1  0.804545  0.457827  0.596819  1
  O  O16  1  0.285909  0.935275  0.061029  1
  O  O17  1  0.542173  0.403181  0.195455  1
  O  O18  1  0.935275  0.061029  0.285909  1
  O  O19  1  0.938971  0.714091  0.064725  1
