# generated using pymatgen
data_Sr7B6PdO18
_symmetry_space_group_name_H-M   'P 1'
_cell_length_a   7.87782819
_cell_length_b   7.87799176
_cell_length_c   7.87676316
_cell_angle_alpha   105.38913753
_cell_angle_beta   105.41970680
_cell_angle_gamma   105.39511208
_symmetry_Int_Tables_number   1
_chemical_formula_structural   Sr7B6PdO18
_chemical_formula_sum   'Sr7 B6 Pd1 O18'
_cell_volume   423.61634117
_cell_formula_units_Z   1
loop_
 _symmetry_equiv_pos_site_id
 _symmetry_equiv_pos_as_xyz
  1  'x, y, z'
loop_
 _atom_site_type_symbol
 _atom_site_label
 _atom_site_symmetry_multiplicity
 _atom_site_fract_x
 _atom_site_fract_y
 _atom_site_fract_z
 _atom_site_occupancy
  Sr  Sr0  1  0.345689  0.731135  0.843870  1
  Sr  Sr1  1  0.843889  0.345730  0.731119  1
  Sr  Sr2  1  0.731118  0.843860  0.345716  1
  Sr  Sr3  1  0.654311  0.268865  0.156130  1
  Sr  Sr4  1  0.156111  0.654270  0.268881  1
  Sr  Sr5  1  0.268882  0.156140  0.654284  1
  Sr  Sr6  1  0.000000  0.000000  0.000000  1
  B  B7  1  0.390345  0.056130  0.299448  1
  B  B8  1  0.299416  0.390318  0.056083  1
  B  B9  1  0.056098  0.299426  0.390243  1
  B  B10  1  0.700584  0.609682  0.943917  1
  B  B11  1  0.943902  0.700574  0.609757  1
  B  B12  1  0.609655  0.943870  0.700552  1
  Pd  Pd13  1  0.500000  0.500000  0.500000  1
  O  O14  1  0.419090  0.526085  0.238935  1
  O  O15  1  0.238950  0.419095  0.526035  1
  O  O16  1  0.788649  0.003107  0.699111  1
  O  O17  1  0.003103  0.699163  0.788811  1
  O  O18  1  0.699151  0.788672  0.003085  1
  O  O19  1  0.300849  0.211328  0.996915  1
  O  O20  1  0.211351  0.996893  0.300889  1
  O  O21  1  0.996897  0.300837  0.211189  1
  O  O22  1  0.539504  0.056295  0.805703  1
  O  O23  1  0.056369  0.805708  0.539611  1
  O  O24  1  0.805744  0.539533  0.056426  1
  O  O25  1  0.460496  0.943705  0.194297  1
  O  O26  1  0.943631  0.194292  0.460389  1
  O  O27  1  0.194256  0.460467  0.943574  1
  O  O28  1  0.473920  0.761023  0.580903  1
  O  O29  1  0.761050  0.580905  0.473965  1
  O  O30  1  0.580910  0.473915  0.761065  1
  O  O31  1  0.526080  0.238977  0.419097  1
