# generated using pymatgen
data_Ca2Ac2Cu8As7
_symmetry_space_group_name_H-M   'P 1'
_cell_length_a   4.12671400
_cell_length_b   13.30816331
_cell_length_c   13.49962379
_cell_angle_alpha   81.99585674
_cell_angle_beta   90.00000000
_cell_angle_gamma   90.00000000
_symmetry_Int_Tables_number   1
_chemical_formula_structural   Ca2Ac2Cu8As7
_chemical_formula_sum   'Ca4 Ac4 Cu16 As14'
_cell_volume   734.16304364
_cell_formula_units_Z   2
loop_
 _symmetry_equiv_pos_site_id
 _symmetry_equiv_pos_as_xyz
  1  'x, y, z'
loop_
 _atom_site_type_symbol
 _atom_site_label
 _atom_site_symmetry_multiplicity
 _atom_site_fract_x
 _atom_site_fract_y
 _atom_site_fract_z
 _atom_site_occupancy
  Ca  Ca0  1  0.250000  0.522929  0.295478  1
  Ca  Ca1  1  0.750000  0.477071  0.704522  1
  Ca  Ca2  1  0.250000  0.206452  0.452239  1
  Ca  Ca3  1  0.750000  0.793548  0.547761  1
  Ac  Ac4  1  0.250000  0.109596  0.791057  1
  Ac  Ac5  1  0.750000  0.890404  0.208943  1
  Ac  Ac6  1  0.250000  0.276129  0.101371  1
  Ac  Ac7  1  0.750000  0.723871  0.898629  1
  Cu  Cu8  1  0.250000  0.980041  0.572251  1
  Cu  Cu9  1  0.750000  0.019959  0.427749  1
  Cu  Cu10  1  0.250000  0.658592  0.720355  1
  Cu  Cu11  1  0.750000  0.341408  0.279645  1
  Cu  Cu12  1  0.250000  0.552405  0.050994  1
  Cu  Cu13  1  0.750000  0.447595  0.949006  1
  Cu  Cu14  1  0.250000  0.067538  0.275434  1
  Cu  Cu15  1  0.750000  0.932462  0.724566  1
  Cu  Cu16  1  0.250000  0.438175  0.524114  1
  Cu  Cu17  1  0.750000  0.561825  0.475886  1
  Cu  Cu18  1  0.250000  0.905068  0.992383  1
  Cu  Cu19  1  0.750000  0.094932  0.007617  1
  Cu  Cu20  1  0.250000  0.732439  0.394058  1
  Cu  Cu21  1  0.750000  0.267561  0.605942  1
  Cu  Cu22  1  0.250000  0.351271  0.853592  1
  Cu  Cu23  1  0.750000  0.648729  0.146408  1
  As  As24  1  0.250000  0.044413  0.096429  1
  As  As25  1  0.750000  0.955587  0.903571  1
  As  As26  1  0.250000  0.322744  0.677205  1
  As  As27  1  0.750000  0.677256  0.322795  1
  As  As28  1  0.250000  0.614589  0.558339  1
  As  As29  1  0.750000  0.385411  0.441661  1
  As  As30  1  0.250000  0.836761  0.714478  1
  As  As31  1  0.750000  0.163239  0.285522  1
  As  As32  1  0.750000  0.265032  0.917866  1
  As  As33  1  0.250000  0.734968  0.082134  1
  As  As34  1  0.750000  0.084667  0.596596  1
  As  As35  1  0.250000  0.915333  0.403404  1
  As  As36  1  0.750000  0.464618  0.131855  1
  As  As37  1  0.250000  0.535382  0.868145  1
