# generated using pymatgen
data_LaTm7(Si3Pt)4
_symmetry_space_group_name_H-M   'P 1'
_cell_length_a   8.18274400
_cell_length_b   8.18889946
_cell_length_c   7.88517700
_cell_angle_alpha   90.00000000
_cell_angle_beta   90.00000000
_cell_angle_gamma   119.97513762
_symmetry_Int_Tables_number   1
_chemical_formula_structural   LaTm7(Si3Pt)4
_chemical_formula_sum   'La1 Tm7 Si12 Pt4'
_cell_volume   457.69411757
_cell_formula_units_Z   1
loop_
 _symmetry_equiv_pos_site_id
 _symmetry_equiv_pos_as_xyz
  1  'x, y, z'
loop_
 _atom_site_type_symbol
 _atom_site_label
 _atom_site_symmetry_multiplicity
 _atom_site_fract_x
 _atom_site_fract_y
 _atom_site_fract_z
 _atom_site_occupancy
  La  La0  1  0.512450  0.024899  0.250000  1
  Tm  Tm1  1  0.488452  0.976905  0.750000  1
  Tm  Tm2  1  0.980298  0.491174  0.250000  1
  Tm  Tm3  1  0.025049  0.511769  0.750000  1
  Tm  Tm4  1  0.510877  0.491174  0.250000  1
  Tm  Tm5  1  0.486719  0.511769  0.750000  1
  Tm  Tm6  1  0.000103  0.000205  0.250000  1
  Tm  Tm7  1  0.000007  0.000015  0.750000  1
  Si  Si8  1  0.163416  0.326831  0.000526  1
  Si  Si9  1  0.834812  0.669626  0.998197  1
  Si  Si10  1  0.670090  0.834381  0.998943  1
  Si  Si11  1  0.834812  0.669626  0.501803  1
  Si  Si12  1  0.330577  0.166475  0.990525  1
  Si  Si13  1  0.163416  0.326831  0.499474  1
  Si  Si14  1  0.164292  0.834381  0.998943  1
  Si  Si15  1  0.330577  0.166475  0.509475  1
  Si  Si16  1  0.835897  0.166475  0.990525  1
  Si  Si17  1  0.670090  0.834381  0.501057  1
  Si  Si18  1  0.835897  0.166475  0.509475  1
  Si  Si19  1  0.164292  0.834381  0.501057  1
  Pt  Pt20  1  0.330248  0.660496  0.029220  1
  Pt  Pt21  1  0.668691  0.337380  0.949153  1
  Pt  Pt22  1  0.668691  0.337380  0.550847  1
  Pt  Pt23  1  0.330248  0.660496  0.470780  1
