# generated using pymatgen
data_Tb4HoHf5(Si5Ir2)4
_symmetry_space_group_name_H-M   'P 1'
_cell_length_a   12.50521300
_cell_length_b   12.50521300
_cell_length_c   4.17222100
_cell_angle_alpha   90.00000000
_cell_angle_beta   90.00000000
_cell_angle_gamma   90.00000000
_symmetry_Int_Tables_number   1
_chemical_formula_structural   Tb4HoHf5(Si5Ir2)4
_chemical_formula_sum   'Tb4 Ho1 Hf5 Si20 Ir8'
_cell_volume   652.45338933
_cell_formula_units_Z   1
loop_
 _symmetry_equiv_pos_site_id
 _symmetry_equiv_pos_as_xyz
  1  'x, y, z'
loop_
 _atom_site_type_symbol
 _atom_site_label
 _atom_site_symmetry_multiplicity
 _atom_site_fract_x
 _atom_site_fract_y
 _atom_site_fract_z
 _atom_site_occupancy
  Tb  Tb0  1  0.884139  0.384715  0.500000  1
  Tb  Tb1  1  0.115861  0.615285  0.500000  1
  Tb  Tb2  1  0.384715  0.115861  0.500000  1
  Tb  Tb3  1  0.615285  0.884139  0.500000  1
  Ho  Ho4  1  0.000000  0.000000  0.000000  1
  Hf  Hf5  1  0.500000  0.500000  0.000000  1
  Hf  Hf6  1  0.673674  0.175142  0.500000  1
  Hf  Hf7  1  0.326326  0.824858  0.500000  1
  Hf  Hf8  1  0.175142  0.326326  0.500000  1
  Hf  Hf9  1  0.824858  0.673674  0.500000  1
  Si  Si10  1  0.565940  0.067986  0.000000  1
  Si  Si11  1  0.434060  0.932014  0.000000  1
  Si  Si12  1  0.067986  0.434060  0.000000  1
  Si  Si13  1  0.932014  0.565940  0.000000  1
  Si  Si14  1  0.665446  0.701382  0.000000  1
  Si  Si15  1  0.334554  0.298618  0.000000  1
  Si  Si16  1  0.163850  0.800648  0.000000  1
  Si  Si17  1  0.836150  0.199352  0.000000  1
  Si  Si18  1  0.298618  0.665446  0.000000  1
  Si  Si19  1  0.701382  0.334554  0.000000  1
  Si  Si20  1  0.199352  0.163850  0.000000  1
  Si  Si21  1  0.800648  0.836150  0.000000  1
  Si  Si22  1  0.650968  0.508064  0.500000  1
  Si  Si23  1  0.349032  0.491936  0.500000  1
  Si  Si24  1  0.156597  0.992666  0.500000  1
  Si  Si25  1  0.843403  0.007334  0.500000  1
  Si  Si26  1  0.491936  0.650968  0.500000  1
  Si  Si27  1  0.508064  0.349032  0.500000  1
  Si  Si28  1  0.007334  0.156597  0.500000  1
  Si  Si29  1  0.992666  0.843403  0.500000  1
  Ir  Ir30  1  0.741537  0.522074  0.000000  1
  Ir  Ir31  1  0.258463  0.477926  0.000000  1
  Ir  Ir32  1  0.246061  0.977478  0.000000  1
  Ir  Ir33  1  0.753939  0.022522  0.000000  1
  Ir  Ir34  1  0.477926  0.741537  0.000000  1
  Ir  Ir35  1  0.522074  0.258463  0.000000  1
  Ir  Ir36  1  0.022522  0.246061  0.000000  1
  Ir  Ir37  1  0.977478  0.753939  0.000000  1
