# generated using pymatgen
data_Tb9Ho(Tl2Pt)4
_symmetry_space_group_name_H-M   'P 1'
_cell_length_a   3.64449400
_cell_length_b   8.19059279
_cell_length_c   18.35091200
_cell_angle_alpha   90.12909166
_cell_angle_beta   90.00000000
_cell_angle_gamma   90.00000000
_symmetry_Int_Tables_number   1
_chemical_formula_structural   Tb9Ho(Tl2Pt)4
_chemical_formula_sum   'Tb9 Ho1 Tl8 Pt4'
_cell_volume   547.78372452
_cell_formula_units_Z   1
loop_
 _symmetry_equiv_pos_site_id
 _symmetry_equiv_pos_as_xyz
  1  'x, y, z'
loop_
 _atom_site_type_symbol
 _atom_site_label
 _atom_site_symmetry_multiplicity
 _atom_site_fract_x
 _atom_site_fract_y
 _atom_site_fract_z
 _atom_site_occupancy
  Tb  Tb0  1  0.000000  0.116081  0.413908  1
  Tb  Tb1  1  0.000000  0.883426  0.585631  1
  Tb  Tb2  1  0.000000  0.383584  0.914255  1
  Tb  Tb3  1  0.000000  0.616648  0.086180  1
  Tb  Tb4  1  0.000000  0.242790  0.220012  1
  Tb  Tb5  1  0.000000  0.757280  0.780043  1
  Tb  Tb6  1  0.000000  0.257290  0.719849  1
  Tb  Tb7  1  0.000000  0.000053  0.000184  1
  Tb  Tb8  1  0.000000  0.499892  0.499930  1
  Ho  Ho9  1  0.000000  0.743121  0.279863  1
  Tl  Tl10  1  0.500000  0.422123  0.352532  1
  Tl  Tl11  1  0.500000  0.578556  0.647383  1
  Tl  Tl12  1  0.500000  0.078603  0.852398  1
  Tl  Tl13  1  0.500000  0.921052  0.147772  1
  Tl  Tl14  1  0.500000  0.293058  0.065811  1
  Tl  Tl15  1  0.500000  0.707387  0.934411  1
  Tl  Tl16  1  0.500000  0.207237  0.565389  1
  Tl  Tl17  1  0.500000  0.792112  0.434018  1
  Pt  Pt18  1  0.500000  0.024408  0.303326  1
  Pt  Pt19  1  0.500000  0.973415  0.696431  1
  Pt  Pt20  1  0.500000  0.473583  0.803578  1
  Pt  Pt21  1  0.500000  0.528299  0.197094  1
