# generated using pymatgen
data_RbBa3MnCr3N8
_symmetry_space_group_name_H-M   'P 1'
_cell_length_a   6.50517593
_cell_length_b   6.50517580
_cell_length_c   7.85387954
_cell_angle_alpha   89.45885511
_cell_angle_beta   90.54114206
_cell_angle_gamma   126.51534287
_symmetry_Int_Tables_number   1
_chemical_formula_structural   RbBa3MnCr3N8
_chemical_formula_sum   'Rb1 Ba3 Mn1 Cr3 N8'
_cell_volume   267.09802392
_cell_formula_units_Z   1
loop_
 _symmetry_equiv_pos_site_id
 _symmetry_equiv_pos_as_xyz
  1  'x, y, z'
loop_
 _atom_site_type_symbol
 _atom_site_label
 _atom_site_symmetry_multiplicity
 _atom_site_fract_x
 _atom_site_fract_y
 _atom_site_fract_z
 _atom_site_occupancy
  Rb  Rb0  1  0.841557  0.158443  0.562070  1
  Ba  Ba1  1  0.160822  0.839178  0.453312  1
  Ba  Ba2  1  0.659409  0.340591  0.063548  1
  Ba  Ba3  1  0.342863  0.657137  0.932553  1
  Mn  Mn4  1  0.050106  0.949894  0.867073  1
  Cr  Cr5  1  0.548042  0.451958  0.634628  1
  Cr  Cr6  1  0.449333  0.550667  0.361625  1
  Cr  Cr7  1  0.954407  0.045593  0.133526  1
  N  N8  1  0.895624  0.104376  0.920020  1
  N  N9  1  0.108756  0.891244  0.090789  1
  N  N10  1  0.602769  0.397231  0.411755  1
  N  N11  1  0.393257  0.606743  0.581988  1
  N  N12  1  0.334861  0.162712  0.751580  1
  N  N13  1  0.163392  0.342487  0.241976  1
  N  N14  1  0.657513  0.836608  0.241976  1
  N  N15  1  0.837288  0.665139  0.751580  1
