# generated using pymatgen
data_Y4LuPd9
_symmetry_space_group_name_H-M   'P 1'
_cell_length_a   9.76905300
_cell_length_b   9.76905300
_cell_length_c   5.77197600
_cell_angle_alpha   90.00000000
_cell_angle_beta   90.00000000
_cell_angle_gamma   90.00000000
_symmetry_Int_Tables_number   1
_chemical_formula_structural   Y4LuPd9
_chemical_formula_sum   'Y8 Lu2 Pd18'
_cell_volume   550.84504627
_cell_formula_units_Z   2
loop_
 _symmetry_equiv_pos_site_id
 _symmetry_equiv_pos_as_xyz
  1  'x, y, z'
loop_
 _atom_site_type_symbol
 _atom_site_label
 _atom_site_symmetry_multiplicity
 _atom_site_fract_x
 _atom_site_fract_y
 _atom_site_fract_z
 _atom_site_occupancy
  Y  Y0  1  0.453373  0.808495  0.000000  1
  Y  Y1  1  0.546627  0.191505  0.000000  1
  Y  Y2  1  0.191505  0.546627  0.000000  1
  Y  Y3  1  0.808495  0.453373  0.000000  1
  Y  Y4  1  0.308495  0.046627  0.500000  1
  Y  Y5  1  0.691505  0.953373  0.500000  1
  Y  Y6  1  0.953373  0.691505  0.500000  1
  Y  Y7  1  0.046627  0.308495  0.500000  1
  Lu  Lu8  1  0.500000  0.500000  0.500000  1
  Lu  Lu9  1  0.000000  0.000000  0.000000  1
  Pd  Pd10  1  0.189471  0.810529  0.249114  1
  Pd  Pd11  1  0.810529  0.189471  0.750886  1
  Pd  Pd12  1  0.810529  0.189471  0.249114  1
  Pd  Pd13  1  0.189471  0.810529  0.750886  1
  Pd  Pd14  1  0.438917  0.777089  0.500000  1
  Pd  Pd15  1  0.561083  0.222911  0.500000  1
  Pd  Pd16  1  0.222911  0.561083  0.500000  1
  Pd  Pd17  1  0.777089  0.438917  0.500000  1
  Pd  Pd18  1  0.310529  0.310529  0.250886  1
  Pd  Pd19  1  0.689471  0.689471  0.749114  1
  Pd  Pd20  1  0.689471  0.689471  0.250886  1
  Pd  Pd21  1  0.310529  0.310529  0.749114  1
  Pd  Pd22  1  0.277089  0.061083  0.000000  1
  Pd  Pd23  1  0.722911  0.938917  0.000000  1
  Pd  Pd24  1  0.938917  0.722911  0.000000  1
  Pd  Pd25  1  0.061083  0.277089  0.000000  1
  Pd  Pd26  1  0.000000  0.000000  0.500000  1
  Pd  Pd27  1  0.500000  0.500000  0.000000  1
