# generated using pymatgen
data_Er2ZnBRh5
_symmetry_space_group_name_H-M   'P 1'
_cell_length_a   5.91476460
_cell_length_b   5.77178562
_cell_length_c   5.77178552
_cell_angle_alpha   61.64578240
_cell_angle_beta   59.17709648
_cell_angle_gamma   59.17710541
_symmetry_Int_Tables_number   1
_chemical_formula_structural   Er2ZnBRh5
_chemical_formula_sum   'Er2 Zn1 B1 Rh5'
_cell_volume   139.15403449
_cell_formula_units_Z   1
loop_
 _symmetry_equiv_pos_site_id
 _symmetry_equiv_pos_as_xyz
  1  'x, y, z'
loop_
 _atom_site_type_symbol
 _atom_site_label
 _atom_site_symmetry_multiplicity
 _atom_site_fract_x
 _atom_site_fract_y
 _atom_site_fract_z
 _atom_site_occupancy
  Er  Er0  1  0.249299  0.250701  0.250701  1
  Er  Er1  1  0.749299  0.750701  0.750701  1
  Zn  Zn2  1  0.781032  0.218967  0.218967  1
  B  B3  1  0.489909  0.510089  0.510089  1
  Rh  Rh4  1  0.247865  0.752134  0.249046  1
  Rh  Rh5  1  0.750953  0.752134  0.249046  1
  Rh  Rh6  1  0.247865  0.249046  0.752134  1
  Rh  Rh7  1  0.750953  0.249046  0.752134  1
  Rh  Rh8  1  0.232821  0.767178  0.767178  1
