# generated using pymatgen
data_PaCr2(FeP)3
_symmetry_space_group_name_H-M   'P 1'
_cell_length_a   3.67761100
_cell_length_b   10.38917600
_cell_length_c   12.08853200
_cell_angle_alpha   90.00000000
_cell_angle_beta   90.00000000
_cell_angle_gamma   90.00000000
_symmetry_Int_Tables_number   1
_chemical_formula_structural   PaCr2(FeP)3
_chemical_formula_sum   'Pa4 Cr8 Fe12 P12'
_cell_volume   461.87074819
_cell_formula_units_Z   4
loop_
 _symmetry_equiv_pos_site_id
 _symmetry_equiv_pos_as_xyz
  1  'x, y, z'
loop_
 _atom_site_type_symbol
 _atom_site_label
 _atom_site_symmetry_multiplicity
 _atom_site_fract_x
 _atom_site_fract_y
 _atom_site_fract_z
 _atom_site_occupancy
  Pa  Pa0  1  0.250000  0.579501  0.710067  1
  Pa  Pa1  1  0.250000  0.920499  0.210067  1
  Pa  Pa2  1  0.750000  0.420499  0.289933  1
  Pa  Pa3  1  0.750000  0.079501  0.789933  1
  Cr  Cr4  1  0.250000  0.700702  0.994054  1
  Cr  Cr5  1  0.250000  0.799298  0.494054  1
  Cr  Cr6  1  0.750000  0.299298  0.005946  1
  Cr  Cr7  1  0.750000  0.200702  0.505946  1
  Cr  Cr8  1  0.250000  0.405509  0.485319  1
  Cr  Cr9  1  0.250000  0.094491  0.985319  1
  Cr  Cr10  1  0.750000  0.594491  0.514681  1
  Cr  Cr11  1  0.750000  0.905509  0.014681  1
  Fe  Fe12  1  0.250000  0.221691  0.171354  1
  Fe  Fe13  1  0.250000  0.278309  0.671354  1
  Fe  Fe14  1  0.750000  0.778309  0.828646  1
  Fe  Fe15  1  0.750000  0.721691  0.328646  1
  Fe  Fe16  1  0.250000  0.884455  0.699425  1
  Fe  Fe17  1  0.250000  0.615545  0.199425  1
  Fe  Fe18  1  0.750000  0.115545  0.300575  1
  Fe  Fe19  1  0.750000  0.384455  0.800575  1
  Fe  Fe20  1  0.250000  0.466662  0.933019  1
  Fe  Fe21  1  0.250000  0.033338  0.433019  1
  Fe  Fe22  1  0.750000  0.533338  0.066981  1
  Fe  Fe23  1  0.750000  0.966662  0.566981  1
  P  P24  1  0.250000  0.419932  0.108918  1
  P  P25  1  0.250000  0.080068  0.608918  1
  P  P26  1  0.750000  0.580068  0.891082  1
  P  P27  1  0.750000  0.919932  0.391082  1
  P  P28  1  0.250000  0.274830  0.860546  1
  P  P29  1  0.250000  0.225170  0.360546  1
  P  P30  1  0.750000  0.725170  0.139454  1
  P  P31  1  0.750000  0.774830  0.639454  1
  P  P32  1  0.250000  0.607247  0.386016  1
  P  P33  1  0.250000  0.892753  0.886016  1
  P  P34  1  0.750000  0.392753  0.613984  1
  P  P35  1  0.750000  0.107247  0.113984  1
