# generated using pymatgen
data_Li4Nd3TmSi8
_symmetry_space_group_name_H-M   'P 1'
_cell_length_a   3.85203300
_cell_length_b   7.69200727
_cell_length_c   10.38264295
_cell_angle_alpha   89.86230507
_cell_angle_beta   90.00000000
_cell_angle_gamma   90.00000000
_symmetry_Int_Tables_number   1
_chemical_formula_structural   Li4Nd3TmSi8
_chemical_formula_sum   'Li4 Nd3 Tm1 Si8'
_cell_volume   307.63542934
_cell_formula_units_Z   1
loop_
 _symmetry_equiv_pos_site_id
 _symmetry_equiv_pos_as_xyz
  1  'x, y, z'
loop_
 _atom_site_type_symbol
 _atom_site_label
 _atom_site_symmetry_multiplicity
 _atom_site_fract_x
 _atom_site_fract_y
 _atom_site_fract_z
 _atom_site_occupancy
  Li  Li0  1  0.250000  0.993627  0.389618  1
  Li  Li1  1  0.750000  0.004470  0.610477  1
  Li  Li2  1  0.250000  0.494449  0.106694  1
  Li  Li3  1  0.750000  0.511096  0.890811  1
  Nd  Nd4  1  0.750000  0.862807  0.135217  1
  Nd  Nd5  1  0.250000  0.637842  0.637041  1
  Nd  Nd6  1  0.750000  0.358793  0.364931  1
  Tm  Tm7  1  0.250000  0.133978  0.864517  1
  Si  Si8  1  0.750000  0.270490  0.062317  1
  Si  Si9  1  0.250000  0.735058  0.929820  1
  Si  Si10  1  0.750000  0.771642  0.430376  1
  Si  Si11  1  0.250000  0.221860  0.576358  1
  Si  Si12  1  0.750000  0.846071  0.822389  1
  Si  Si13  1  0.250000  0.163313  0.172942  1
  Si  Si14  1  0.750000  0.332578  0.684561  1
  Si  Si15  1  0.250000  0.661924  0.321929  1
