# generated using pymatgen
data_CeLu(MnAl5)4
_symmetry_space_group_name_H-M   'P 1'
_cell_length_a   6.79990167
_cell_length_b   6.79903210
_cell_length_c   9.04861100
_cell_angle_alpha   90.00000000
_cell_angle_beta   90.00000000
_cell_angle_gamma   97.37777249
_symmetry_Int_Tables_number   1
_chemical_formula_structural   CeLu(MnAl5)4
_chemical_formula_sum   'Ce1 Lu1 Mn4 Al20'
_cell_volume   414.87873534
_cell_formula_units_Z   1
loop_
 _symmetry_equiv_pos_site_id
 _symmetry_equiv_pos_as_xyz
  1  'x, y, z'
loop_
 _atom_site_type_symbol
 _atom_site_label
 _atom_site_symmetry_multiplicity
 _atom_site_fract_x
 _atom_site_fract_y
 _atom_site_fract_z
 _atom_site_occupancy
  Ce  Ce0  1  0.124493  0.875514  0.250000  1
  Lu  Lu1  1  0.873702  0.126314  0.750000  1
  Mn  Mn2  1  0.499221  0.999613  0.999277  1
  Mn  Mn3  1  0.000385  0.500778  0.999288  1
  Mn  Mn4  1  0.499221  0.999613  0.500723  1
  Mn  Mn5  1  0.000385  0.500778  0.500712  1
  Al  Al6  1  0.412349  0.130826  0.750000  1
  Al  Al7  1  0.130853  0.409072  0.250000  1
  Al  Al8  1  0.590947  0.869114  0.250000  1
  Al  Al9  1  0.869216  0.587611  0.750000  1
  Al  Al10  1  0.526438  0.781730  0.750000  1
  Al  Al11  1  0.779900  0.523904  0.250000  1
  Al  Al12  1  0.476086  0.220149  0.250000  1
  Al  Al13  1  0.218228  0.473563  0.750000  1
  Al  Al14  1  0.840569  0.159487  0.403825  1
  Al  Al15  1  0.158190  0.841758  0.597458  1
  Al  Al16  1  0.840569  0.159487  0.096175  1
  Al  Al17  1  0.158190  0.841758  0.902542  1
  Al  Al18  1  0.625511  0.374536  0.951463  1
  Al  Al19  1  0.375319  0.624633  0.048779  1
  Al  Al20  1  0.625511  0.374536  0.548537  1
  Al  Al21  1  0.375319  0.624633  0.451221  1
  Al  Al22  1  0.771638  0.771871  0.998583  1
  Al  Al23  1  0.771638  0.771871  0.501417  1
  Al  Al24  1  0.228061  0.228425  0.998563  1
  Al  Al25  1  0.228061  0.228425  0.501437  1
