# generated using pymatgen
data_Ce3Al12Si2Rh
_symmetry_space_group_name_H-M   'P 1'
_cell_length_a   9.63962100
_cell_length_b   9.63961930
_cell_length_c   4.18201300
_cell_angle_alpha   90.00000000
_cell_angle_beta   90.00000000
_cell_angle_gamma   120.00000239
_symmetry_Int_Tables_number   1
_chemical_formula_structural   Ce3Al12Si2Rh
_chemical_formula_sum   'Ce3 Al12 Si2 Rh1'
_cell_volume   336.53934229
_cell_formula_units_Z   1
loop_
 _symmetry_equiv_pos_site_id
 _symmetry_equiv_pos_as_xyz
  1  'x, y, z'
loop_
 _atom_site_type_symbol
 _atom_site_label
 _atom_site_symmetry_multiplicity
 _atom_site_fract_x
 _atom_site_fract_y
 _atom_site_fract_z
 _atom_site_occupancy
  Ce  Ce0  1  0.000000  0.408817  0.000000  1
  Ce  Ce1  1  0.591183  0.591183  0.000000  1
  Ce  Ce2  1  0.408817  0.000000  0.000000  1
  Al  Al3  1  0.000000  0.744682  0.000000  1
  Al  Al4  1  0.255318  0.255318  0.000000  1
  Al  Al5  1  0.744682  0.000000  0.000000  1
  Al  Al6  1  0.000000  0.167879  0.500000  1
  Al  Al7  1  0.832121  0.832121  0.500000  1
  Al  Al8  1  0.167879  0.000000  0.500000  1
  Al  Al9  1  0.291612  0.468765  0.500000  1
  Al  Al10  1  0.177153  0.708388  0.500000  1
  Al  Al11  1  0.531235  0.822847  0.500000  1
  Al  Al12  1  0.822847  0.531235  0.500000  1
  Al  Al13  1  0.708388  0.177153  0.500000  1
  Al  Al14  1  0.468765  0.291612  0.500000  1
  Si  Si15  1  0.666667  0.333333  0.000000  1
  Si  Si16  1  0.333333  0.666667  0.000000  1
  Rh  Rh17  1  0.000000  0.000000  0.000000  1
