# generated using pymatgen
data_ErSb3(AuCl6)4
_symmetry_space_group_name_H-M   'P 1'
_cell_length_a   8.26745506
_cell_length_b   10.09877799
_cell_length_c   14.19305500
_cell_angle_alpha   102.39780189
_cell_angle_beta   97.80930069
_cell_angle_gamma   113.12778248
_symmetry_Int_Tables_number   1
_chemical_formula_structural   ErSb3(AuCl6)4
_chemical_formula_sum   'Er1 Sb3 Au4 Cl24'
_cell_volume   1031.86271124
_cell_formula_units_Z   1
loop_
 _symmetry_equiv_pos_site_id
 _symmetry_equiv_pos_as_xyz
  1  'x, y, z'
loop_
 _atom_site_type_symbol
 _atom_site_label
 _atom_site_symmetry_multiplicity
 _atom_site_fract_x
 _atom_site_fract_y
 _atom_site_fract_z
 _atom_site_occupancy
  Er  Er0  1  0.027958  0.690787  0.132145  1
  Sb  Sb1  1  0.628553  0.941959  0.625723  1
  Sb  Sb2  1  0.384623  0.059650  0.379564  1
  Sb  Sb3  1  0.971836  0.338751  0.881700  1
  Au  Au4  1  0.286324  0.631786  0.770183  1
  Au  Au5  1  0.716058  0.371135  0.229589  1
  Au  Au6  1  0.495560  0.495591  0.497443  1
  Au  Au7  1  0.002466  0.998939  0.002672  1
  Cl  Cl8  1  0.584683  0.722088  0.761553  1
  Cl  Cl9  1  0.417489  0.280599  0.239142  1
  Cl  Cl10  1  0.273488  0.844485  0.743187  1
  Cl  Cl11  1  0.729098  0.159798  0.258376  1
  Cl  Cl12  1  0.983517  0.538914  0.780871  1
  Cl  Cl13  1  0.018528  0.470167  0.220654  1
  Cl  Cl14  1  0.290771  0.412762  0.796707  1
  Cl  Cl15  1  0.712472  0.590206  0.199603  1
  Cl  Cl16  1  0.688626  0.380818  0.507552  1
  Cl  Cl17  1  0.302914  0.610083  0.489853  1
  Cl  Cl18  1  0.743260  0.725742  0.528331  1
  Cl  Cl19  1  0.248117  0.263759  0.465424  1
  Cl  Cl20  1  0.800491  0.102726  0.977734  1
  Cl  Cl21  1  0.201928  0.891954  0.030039  1
  Cl  Cl22  1  0.789279  0.796098  0.040164  1
  Cl  Cl23  1  0.217417  0.195213  0.964319  1
  Cl  Cl24  1  0.638902  0.188025  0.738905  1
  Cl  Cl25  1  0.359708  0.809777  0.257246  1
  Cl  Cl26  1  0.942090  0.041168  0.717948  1
  Cl  Cl27  1  0.061484  0.945985  0.269903  1
  Cl  Cl28  1  0.723375  0.055936  0.493075  1
  Cl  Cl29  1  0.263589  0.938798  0.500946  1
  Cl  Cl30  1  0.777950  0.442329  0.970432  1
  Cl  Cl31  1  0.217445  0.563973  0.029018  1
