# generated using pymatgen
data_Ba3Fe2IrO9
_symmetry_space_group_name_H-M   'P 1'
_cell_length_a   5.84664000
_cell_length_b   5.84664020
_cell_length_c   14.34251300
_cell_angle_alpha   90.00000000
_cell_angle_beta   90.00000000
_cell_angle_gamma   119.99999886
_symmetry_Int_Tables_number   1
_chemical_formula_structural   Ba3Fe2IrO9
_chemical_formula_sum   'Ba6 Fe4 Ir2 O18'
_cell_volume   424.58887519
_cell_formula_units_Z   2
loop_
 _symmetry_equiv_pos_site_id
 _symmetry_equiv_pos_as_xyz
  1  'x, y, z'
loop_
 _atom_site_type_symbol
 _atom_site_label
 _atom_site_symmetry_multiplicity
 _atom_site_fract_x
 _atom_site_fract_y
 _atom_site_fract_z
 _atom_site_occupancy
  Ba  Ba0  1  0.666667  0.333333  0.588830  1
  Ba  Ba1  1  0.333333  0.666667  0.407482  1
  Ba  Ba2  1  0.333333  0.666667  0.088830  1
  Ba  Ba3  1  0.666667  0.333333  0.907482  1
  Ba  Ba4  1  0.000000  0.000000  0.751701  1
  Ba  Ba5  1  0.000000  0.000000  0.251701  1
  Fe  Fe6  1  0.000000  0.000000  0.492329  1
  Fe  Fe7  1  0.000000  0.000000  0.992329  1
  Fe  Fe8  1  0.666667  0.333333  0.353207  1
  Fe  Fe9  1  0.333333  0.666667  0.853207  1
  Ir  Ir10  1  0.333333  0.666667  0.659170  1
  Ir  Ir11  1  0.666667  0.333333  0.159170  1
  O  O12  1  0.485197  0.970394  0.745252  1
  O  O13  1  0.485197  0.514803  0.745252  1
  O  O14  1  0.029606  0.514803  0.745252  1
  O  O15  1  0.514803  0.029606  0.245252  1
  O  O16  1  0.514803  0.485197  0.245252  1
  O  O17  1  0.970394  0.485197  0.245252  1
  O  O18  1  0.171100  0.342200  0.583928  1
  O  O19  1  0.171100  0.828900  0.583928  1
  O  O20  1  0.657800  0.828900  0.583928  1
  O  O21  1  0.835148  0.670296  0.419896  1
  O  O22  1  0.835148  0.164852  0.419896  1
  O  O23  1  0.329704  0.164852  0.419896  1
  O  O24  1  0.828900  0.657800  0.083928  1
  O  O25  1  0.828900  0.171100  0.083928  1
  O  O26  1  0.342200  0.171100  0.083928  1
  O  O27  1  0.164852  0.329704  0.919896  1
  O  O28  1  0.164852  0.835148  0.919896  1
  O  O29  1  0.670296  0.835148  0.919896  1
