# generated using pymatgen
data_Cs8KEuBr12
_symmetry_space_group_name_H-M   'P 1'
_cell_length_a   9.84347238
_cell_length_b   9.84347145
_cell_length_c   9.84347300
_cell_angle_alpha   89.36403600
_cell_angle_beta   89.36403023
_cell_angle_gamma   89.36403573
_symmetry_Int_Tables_number   1
_chemical_formula_structural   Cs8KEuBr12
_chemical_formula_sum   'Cs8 K1 Eu1 Br12'
_cell_volume   953.59790893
_cell_formula_units_Z   1
loop_
 _symmetry_equiv_pos_site_id
 _symmetry_equiv_pos_as_xyz
  1  'x, y, z'
loop_
 _atom_site_type_symbol
 _atom_site_label
 _atom_site_symmetry_multiplicity
 _atom_site_fract_x
 _atom_site_fract_y
 _atom_site_fract_z
 _atom_site_occupancy
  Cs  Cs0  1  0.241194  0.241194  0.241194  1
  Cs  Cs1  1  0.758806  0.758806  0.758806  1
  Cs  Cs2  1  0.879181  0.636045  0.240879  1
  Cs  Cs3  1  0.636045  0.240879  0.879181  1
  Cs  Cs4  1  0.240879  0.879181  0.636045  1
  Cs  Cs5  1  0.120819  0.363955  0.759121  1
  Cs  Cs6  1  0.363955  0.759121  0.120819  1
  Cs  Cs7  1  0.759121  0.120819  0.363955  1
  K  K8  1  0.000000  0.000000  0.000000  1
  Eu  Eu9  1  0.500000  0.500000  0.500000  1
  Br  Br10  1  0.215632  0.552718  0.433538  1
  Br  Br11  1  0.070828  0.688885  0.916583  1
  Br  Br12  1  0.916583  0.070828  0.688885  1
  Br  Br13  1  0.784368  0.447282  0.566462  1
  Br  Br14  1  0.688885  0.916583  0.070828  1
  Br  Br15  1  0.447282  0.566462  0.784368  1
  Br  Br16  1  0.566462  0.784368  0.447282  1
  Br  Br17  1  0.552718  0.433538  0.215632  1
  Br  Br18  1  0.083417  0.929172  0.311115  1
  Br  Br19  1  0.929172  0.311115  0.083417  1
  Br  Br20  1  0.311115  0.083417  0.929172  1
  Br  Br21  1  0.433538  0.215632  0.552718  1
