# generated using pymatgen
data_Tb6Er14Bi11Te
_symmetry_space_group_name_H-M   'P 1'
_cell_length_a   8.21332299
_cell_length_b   9.48184362
_cell_length_c   11.99008200
_cell_angle_alpha   89.96652957
_cell_angle_beta   90.03987457
_cell_angle_gamma   90.00195091
_symmetry_Int_Tables_number   1
_chemical_formula_structural   Tb6Er14Bi11Te
_chemical_formula_sum   'Tb6 Er14 Bi11 Te1'
_cell_volume   933.75655603
_cell_formula_units_Z   1
loop_
 _symmetry_equiv_pos_site_id
 _symmetry_equiv_pos_as_xyz
  1  'x, y, z'
loop_
 _atom_site_type_symbol
 _atom_site_label
 _atom_site_symmetry_multiplicity
 _atom_site_fract_x
 _atom_site_fract_y
 _atom_site_fract_z
 _atom_site_occupancy
  Tb  Tb0  1  0.690203  0.934808  0.058342  1
  Tb  Tb1  1  0.192414  0.563362  0.440475  1
  Tb  Tb2  1  0.314423  0.250045  0.218588  1
  Tb  Tb3  1  0.813966  0.249970  0.281293  1
  Tb  Tb4  1  0.681620  0.749847  0.783877  1
  Tb  Tb5  1  0.187224  0.750082  0.719971  1
  Er  Er6  1  0.354280  0.749954  0.214299  1
  Er  Er7  1  0.853041  0.749937  0.283006  1
  Er  Er8  1  0.647440  0.249798  0.783166  1
  Er  Er9  1  0.147078  0.250243  0.717388  1
  Er  Er10  1  0.690454  0.567684  0.058515  1
  Er  Er11  1  0.192642  0.934187  0.440205  1
  Er  Er12  1  0.309205  0.062095  0.940879  1
  Er  Er13  1  0.807927  0.435173  0.559208  1
  Er  Er14  1  0.308299  0.438452  0.940318  1
  Er  Er15  1  0.806768  0.064364  0.559822  1
  Er  Er16  1  0.476145  0.249990  0.488637  1
  Er  Er17  1  0.976954  0.250035  0.010739  1
  Er  Er18  1  0.524851  0.749964  0.511949  1
  Er  Er19  1  0.025943  0.749912  0.987905  1
  Bi  Bi20  1  0.905889  0.750569  0.542299  1
  Bi  Bi21  1  0.593960  0.252936  0.040728  1
  Bi  Bi22  1  0.093493  0.247060  0.459237  1
  Bi  Bi23  1  0.565876  0.994548  0.326658  1
  Bi  Bi24  1  0.066221  0.505419  0.172813  1
  Bi  Bi25  1  0.433838  0.494425  0.674259  1
  Bi  Bi26  1  0.933551  0.004920  0.826007  1
  Bi  Bi27  1  0.433515  0.005486  0.673982  1
  Bi  Bi28  1  0.933310  0.495158  0.826215  1
  Bi  Bi29  1  0.566915  0.505531  0.326426  1
  Bi  Bi30  1  0.067163  0.994515  0.172999  1
  Te  Te31  1  0.405395  0.749536  0.959797  1
