# generated using pymatgen
data_Ti7Co8Si14W
_symmetry_space_group_name_H-M   'P 1'
_cell_length_a   9.14158948
_cell_length_b   9.14172956
_cell_length_c   9.14407323
_cell_angle_alpha   94.17019013
_cell_angle_beta   94.17252478
_cell_angle_gamma   148.70614425
_symmetry_Int_Tables_number   1
_chemical_formula_structural   Ti7Co8Si14W
_chemical_formula_sum   'Ti7 Co8 Si14 W1'
_cell_volume   382.22252665
_cell_formula_units_Z   1
loop_
 _symmetry_equiv_pos_site_id
 _symmetry_equiv_pos_as_xyz
  1  'x, y, z'
loop_
 _atom_site_type_symbol
 _atom_site_label
 _atom_site_symmetry_multiplicity
 _atom_site_fract_x
 _atom_site_fract_y
 _atom_site_fract_z
 _atom_site_occupancy
  Ti  Ti0  1  0.866088  0.866079  0.732184  1
  Ti  Ti1  1  0.864502  0.134742  0.999249  1
  Ti  Ti2  1  0.134741  0.864506  0.999250  1
  Ti  Ti3  1  0.501141  0.691678  0.192799  1
  Ti  Ti4  1  0.500485  0.308393  0.808866  1
  Ti  Ti5  1  0.308387  0.500484  0.808880  1
  Ti  Ti6  1  0.691685  0.501155  0.192813  1
  Co  Co7  1  0.399597  0.899590  0.799209  1
  Co  Co8  1  0.100440  0.600432  0.200849  1
  Co  Co9  1  0.100506  0.899729  0.499331  1
  Co  Co10  1  0.398802  0.599627  0.499333  1
  Co  Co11  1  0.599660  0.398839  0.499346  1
  Co  Co12  1  0.899708  0.100488  0.499341  1
  Co  Co13  1  0.899612  0.399611  0.799255  1
  Co  Co14  1  0.600476  0.100470  0.200899  1
  Si  Si15  1  0.293676  0.293642  0.587044  1
  Si  Si16  1  0.706136  0.706102  0.412529  1
  Si  Si17  1  0.705357  0.294699  0.000326  1
  Si  Si18  1  0.294964  0.705631  0.000326  1
  Si  Si19  1  0.000392  0.293438  0.293876  1
  Si  Si20  1  0.999486  0.706385  0.705887  1
  Si  Si21  1  0.706332  0.999452  0.705904  1
  Si  Si22  1  0.293566  0.000538  0.293895  1
  Si  Si23  1  0.500505  0.905518  0.405966  1
  Si  Si24  1  0.500260  0.094249  0.594491  1
  Si  Si25  1  0.094256  0.500292  0.594498  1
  Si  Si26  1  0.905426  0.500434  0.405980  1
  Si  Si27  1  0.751228  0.751213  0.001134  1
  Si  Si28  1  0.249898  0.249905  0.001114  1
  W  W29  1  0.132685  0.132679  0.265423  1
