# generated using pymatgen
data_DyY3Al17GaIr6
_symmetry_space_group_name_H-M   'P 1'
_cell_length_a   7.55223009
_cell_length_b   7.55261258
_cell_length_c   9.50584200
_cell_angle_alpha   90.00000000
_cell_angle_beta   90.00000000
_cell_angle_gamma   119.44482315
_symmetry_Int_Tables_number   1
_chemical_formula_structural   DyY3Al17GaIr6
_chemical_formula_sum   'Dy1 Y3 Al17 Ga1 Ir6'
_cell_volume   472.16756132
_cell_formula_units_Z   1
loop_
 _symmetry_equiv_pos_site_id
 _symmetry_equiv_pos_as_xyz
  1  'x, y, z'
loop_
 _atom_site_type_symbol
 _atom_site_label
 _atom_site_symmetry_multiplicity
 _atom_site_fract_x
 _atom_site_fract_y
 _atom_site_fract_z
 _atom_site_occupancy
  Dy  Dy0  1  0.328520  0.005306  0.250000  1
  Y  Y1  1  0.993882  0.673539  0.750000  1
  Y  Y2  1  0.005391  0.328640  0.250000  1
  Y  Y3  1  0.673567  0.993887  0.750000  1
  Al  Al4  1  0.870141  0.869929  0.250000  1
  Al  Al5  1  0.001235  0.335410  0.572938  1
  Al  Al6  1  0.998749  0.664504  0.426085  1
  Al  Al7  1  0.998749  0.664504  0.073915  1
  Al  Al8  1  0.335411  0.001235  0.927226  1
  Al  Al9  1  0.001235  0.335410  0.927062  1
  Al  Al10  1  0.664397  0.998703  0.073931  1
  Al  Al11  1  0.664397  0.998703  0.426069  1
  Al  Al12  1  0.335411  0.001235  0.572774  1
  Al  Al13  1  0.333462  0.333408  0.053041  1
  Al  Al14  1  0.665951  0.665955  0.949457  1
  Al  Al15  1  0.665951  0.665955  0.550543  1
  Al  Al16  1  0.333462  0.333408  0.446959  1
  Al  Al17  1  0.338459  0.548778  0.750000  1
  Al  Al18  1  0.660623  0.451637  0.250000  1
  Al  Al19  1  0.548746  0.338411  0.750000  1
  Al  Al20  1  0.451878  0.661130  0.250000  1
  Ga  Ga21  1  0.133459  0.133427  0.750000  1
  Ir  Ir22  1  0.671143  0.327722  0.500201  1
  Ir  Ir23  1  0.327785  0.671272  0.500177  1
  Ir  Ir24  1  0.327785  0.671272  0.999823  1
  Ir  Ir25  1  0.671143  0.327722  0.999799  1
  Ir  Ir26  1  0.999535  0.999447  0.497544  1
  Ir  Ir27  1  0.999535  0.999447  0.002456  1
