# generated using pymatgen
data_Sc5FeB4(Ir4Ru)2
_symmetry_space_group_name_H-M   'P 1'
_cell_length_a   3.03055900
_cell_length_b   9.53213000
_cell_length_c   9.53213000
_cell_angle_alpha   90.00000000
_cell_angle_beta   90.00000000
_cell_angle_gamma   90.00000000
_symmetry_Int_Tables_number   1
_chemical_formula_structural   Sc5FeB4(Ir4Ru)2
_chemical_formula_sum   'Sc5 Fe1 B4 Ir8 Ru2'
_cell_volume   275.36114366
_cell_formula_units_Z   1
loop_
 _symmetry_equiv_pos_site_id
 _symmetry_equiv_pos_as_xyz
  1  'x, y, z'
loop_
 _atom_site_type_symbol
 _atom_site_label
 _atom_site_symmetry_multiplicity
 _atom_site_fract_x
 _atom_site_fract_y
 _atom_site_fract_z
 _atom_site_occupancy
  Sc  Sc0  1  0.000000  0.173472  0.674065  1
  Sc  Sc1  1  0.000000  0.826528  0.325935  1
  Sc  Sc2  1  0.000000  0.325935  0.173472  1
  Sc  Sc3  1  0.000000  0.674065  0.826528  1
  Sc  Sc4  1  0.000000  0.500000  0.500000  1
  Fe  Fe5  1  0.000000  0.000000  0.000000  1
  B  B6  1  0.000000  0.624242  0.118861  1
  B  B7  1  0.000000  0.375758  0.881139  1
  B  B8  1  0.000000  0.881139  0.624242  1
  B  B9  1  0.000000  0.118861  0.375758  1
  Ir  Ir10  1  0.500000  0.067693  0.213612  1
  Ir  Ir11  1  0.500000  0.932307  0.786388  1
  Ir  Ir12  1  0.500000  0.786388  0.067693  1
  Ir  Ir13  1  0.500000  0.424645  0.722371  1
  Ir  Ir14  1  0.500000  0.213612  0.932307  1
  Ir  Ir15  1  0.500000  0.575355  0.277629  1
  Ir  Ir16  1  0.500000  0.722371  0.575355  1
  Ir  Ir17  1  0.500000  0.277629  0.424645  1
  Ru  Ru18  1  0.500000  0.000000  0.500000  1
  Ru  Ru19  1  0.500000  0.500000  0.000000  1
