# generated using pymatgen
data_SmHo7(SiPt)8
_symmetry_space_group_name_H-M   'P 1'
_cell_length_a   4.28237400
_cell_length_b   7.45125800
_cell_length_c   14.03489000
_cell_angle_alpha   90.00000000
_cell_angle_beta   90.00000000
_cell_angle_gamma   90.00000000
_symmetry_Int_Tables_number   1
_chemical_formula_structural   SmHo7(SiPt)8
_chemical_formula_sum   'Sm1 Ho7 Si8 Pt8'
_cell_volume   447.84033695
_cell_formula_units_Z   1
loop_
 _symmetry_equiv_pos_site_id
 _symmetry_equiv_pos_as_xyz
  1  'x, y, z'
loop_
 _atom_site_type_symbol
 _atom_site_label
 _atom_site_symmetry_multiplicity
 _atom_site_fract_x
 _atom_site_fract_y
 _atom_site_fract_z
 _atom_site_occupancy
  Sm  Sm0  1  0.000000  0.302344  0.000000  1
  Ho  Ho1  1  0.500000  0.795351  0.748337  1
  Ho  Ho2  1  0.000000  0.204111  0.750277  1
  Ho  Ho3  1  0.500000  0.795351  0.251663  1
  Ho  Ho4  1  0.000000  0.204111  0.249723  1
  Ho  Ho5  1  0.500000  0.706879  0.000000  1
  Ho  Ho6  1  0.000000  0.294264  0.500000  1
  Ho  Ho7  1  0.500000  0.699284  0.500000  1
  Si  Si8  1  0.500000  0.407187  0.648277  1
  Si  Si9  1  0.000000  0.593878  0.849881  1
  Si  Si10  1  0.500000  0.407187  0.351723  1
  Si  Si11  1  0.000000  0.593878  0.150119  1
  Si  Si12  1  0.500000  0.089945  0.093315  1
  Si  Si13  1  0.000000  0.907719  0.408031  1
  Si  Si14  1  0.500000  0.089945  0.906685  1
  Si  Si15  1  0.000000  0.907719  0.591969  1
  Pt  Pt16  1  0.500000  0.076616  0.608263  1
  Pt  Pt17  1  0.000000  0.921745  0.890964  1
  Pt  Pt18  1  0.500000  0.076616  0.391737  1
  Pt  Pt19  1  0.000000  0.921745  0.109036  1
  Pt  Pt20  1  0.500000  0.421300  0.156440  1
  Pt  Pt21  1  0.000000  0.580762  0.346994  1
  Pt  Pt22  1  0.500000  0.421300  0.843560  1
  Pt  Pt23  1  0.000000  0.580762  0.653006  1
