# generated using pymatgen
data_Y2Ho3Bi2Os
_symmetry_space_group_name_H-M   'P 1'
_cell_length_a   7.97267500
_cell_length_b   9.03022200
_cell_length_c   12.50251300
_cell_angle_alpha   90.00000000
_cell_angle_beta   90.00000000
_cell_angle_gamma   90.00000000
_symmetry_Int_Tables_number   1
_chemical_formula_structural   Y2Ho3Bi2Os
_chemical_formula_sum   'Y8 Ho12 Bi8 Os4'
_cell_volume   900.11873830
_cell_formula_units_Z   4
loop_
 _symmetry_equiv_pos_site_id
 _symmetry_equiv_pos_as_xyz
  1  'x, y, z'
loop_
 _atom_site_type_symbol
 _atom_site_label
 _atom_site_symmetry_multiplicity
 _atom_site_fract_x
 _atom_site_fract_y
 _atom_site_fract_z
 _atom_site_occupancy
  Y  Y0  1  0.839344  0.750000  0.791859  1
  Y  Y1  1  0.160656  0.250000  0.208141  1
  Y  Y2  1  0.339344  0.250000  0.708141  1
  Y  Y3  1  0.660656  0.750000  0.291859  1
  Y  Y4  1  0.374603  0.750000  0.690929  1
  Y  Y5  1  0.625397  0.250000  0.309071  1
  Y  Y6  1  0.874603  0.250000  0.809071  1
  Y  Y7  1  0.125397  0.750000  0.190929  1
  Ho  Ho8  1  0.942660  0.750000  0.504448  1
  Ho  Ho9  1  0.057340  0.250000  0.495552  1
  Ho  Ho10  1  0.442660  0.250000  0.995552  1
  Ho  Ho11  1  0.557340  0.750000  0.004448  1
  Ho  Ho12  1  0.673501  0.041876  0.564511  1
  Ho  Ho13  1  0.326499  0.958124  0.435489  1
  Ho  Ho14  1  0.173501  0.958124  0.935489  1
  Ho  Ho15  1  0.326499  0.541876  0.435489  1
  Ho  Ho16  1  0.826499  0.041876  0.064511  1
  Ho  Ho17  1  0.673501  0.458124  0.564511  1
  Ho  Ho18  1  0.826499  0.458124  0.064511  1
  Ho  Ho19  1  0.173501  0.541876  0.935489  1
  Bi  Bi20  1  0.566253  0.493325  0.828249  1
  Bi  Bi21  1  0.433747  0.506675  0.171751  1
  Bi  Bi22  1  0.066253  0.506675  0.671751  1
  Bi  Bi23  1  0.433747  0.993325  0.171751  1
  Bi  Bi24  1  0.933747  0.493325  0.328249  1
  Bi  Bi25  1  0.566253  0.006675  0.828249  1
  Bi  Bi26  1  0.933747  0.006675  0.328249  1
  Bi  Bi27  1  0.066253  0.993325  0.671751  1
  Os  Os28  1  0.575913  0.750000  0.509840  1
  Os  Os29  1  0.424087  0.250000  0.490160  1
  Os  Os30  1  0.075913  0.250000  0.990160  1
  Os  Os31  1  0.924087  0.750000  0.009840  1
