# generated using pymatgen
data_Zr10Tl2ZnSiPb4
_symmetry_space_group_name_H-M   'P 1'
_cell_length_a   8.81984562
_cell_length_b   8.82779051
_cell_length_c   5.96260616
_cell_angle_alpha   90.07150492
_cell_angle_beta   89.96421370
_cell_angle_gamma   120.02980760
_symmetry_Int_Tables_number   1
_chemical_formula_structural   Zr10Tl2ZnSiPb4
_chemical_formula_sum   'Zr10 Tl2 Zn1 Si1 Pb4'
_cell_volume   401.92858701
_cell_formula_units_Z   1
loop_
 _symmetry_equiv_pos_site_id
 _symmetry_equiv_pos_as_xyz
  1  'x, y, z'
loop_
 _atom_site_type_symbol
 _atom_site_label
 _atom_site_symmetry_multiplicity
 _atom_site_fract_x
 _atom_site_fract_y
 _atom_site_fract_z
 _atom_site_occupancy
  Zr  Zr0  1  0.666113  0.332765  0.498757  1
  Zr  Zr1  1  0.333887  0.666653  0.498757  1
  Zr  Zr2  1  0.334112  0.666893  0.001157  1
  Zr  Zr3  1  0.665888  0.332780  0.001157  1
  Zr  Zr4  1  0.742105  0.742639  0.242512  1
  Zr  Zr5  1  0.257895  0.000534  0.242512  1
  Zr  Zr6  1  0.000000  0.257954  0.242903  1
  Zr  Zr7  1  0.257952  0.258301  0.757999  1
  Zr  Zr8  1  0.742048  0.000349  0.757999  1
  Zr  Zr9  1  0.000000  0.741944  0.756985  1
  Tl  Tl10  1  0.387971  0.387737  0.253230  1
  Tl  Tl11  1  0.612029  0.999766  0.253230  1
  Zn  Zn12  1  0.000000  0.000615  0.499288  1
  Si  Si13  1  0.000000  0.000385  0.000127  1
  Pb  Pb14  1  0.000000  0.611530  0.253274  1
  Pb  Pb15  1  0.611008  0.611091  0.746455  1
  Pb  Pb16  1  0.388992  0.000083  0.746455  1
  Pb  Pb17  1  0.000000  0.387980  0.747204  1
