# generated using pymatgen
data_Ti5Nb(Se3S)2
_symmetry_space_group_name_H-M   'P 1'
_cell_length_a   9.88041998
_cell_length_b   9.83176679
_cell_length_c   3.46188400
_cell_angle_alpha   90.00000000
_cell_angle_beta   90.00000000
_cell_angle_gamma   119.37106749
_symmetry_Int_Tables_number   1
_chemical_formula_structural   Ti5Nb(Se3S)2
_chemical_formula_sum   'Ti5 Nb1 Se6 S2'
_cell_volume   293.06755146
_cell_formula_units_Z   1
loop_
 _symmetry_equiv_pos_site_id
 _symmetry_equiv_pos_as_xyz
  1  'x, y, z'
loop_
 _atom_site_type_symbol
 _atom_site_label
 _atom_site_symmetry_multiplicity
 _atom_site_fract_x
 _atom_site_fract_y
 _atom_site_fract_z
 _atom_site_occupancy
  Ti  Ti0  1  0.503315  0.870056  0.750000  1
  Ti  Ti1  1  0.641085  0.503075  0.250000  1
  Ti  Ti2  1  0.863471  0.356770  0.250000  1
  Ti  Ti3  1  0.135605  0.639232  0.750000  1
  Ti  Ti4  1  0.358610  0.498297  0.750000  1
  Nb  Nb5  1  0.497129  0.133688  0.250000  1
  Se  Se6  1  0.647034  0.697919  0.750000  1
  Se  Se7  1  0.949748  0.648298  0.250000  1
  Se  Se8  1  0.705162  0.044374  0.250000  1
  Se  Se9  1  0.292336  0.948712  0.750000  1
  Se  Se10  1  0.050408  0.348733  0.750000  1
  Se  Se11  1  0.350132  0.303883  0.250000  1
  S  S12  1  0.333061  0.669431  0.250000  1
  S  S13  1  0.672904  0.337532  0.750000  1
