# generated using pymatgen
data_SrTb(Al5Os)4
_symmetry_space_group_name_H-M   'P 1'
_cell_length_a   6.89856307
_cell_length_b   6.89856346
_cell_length_c   9.20103100
_cell_angle_alpha   90.00000000
_cell_angle_beta   90.00000000
_cell_angle_gamma   96.38559399
_symmetry_Int_Tables_number   1
_chemical_formula_structural   SrTb(Al5Os)4
_chemical_formula_sum   'Sr1 Tb1 Al20 Os4'
_cell_volume   435.16204031
_cell_formula_units_Z   1
loop_
 _symmetry_equiv_pos_site_id
 _symmetry_equiv_pos_as_xyz
  1  'x, y, z'
loop_
 _atom_site_type_symbol
 _atom_site_label
 _atom_site_symmetry_multiplicity
 _atom_site_fract_x
 _atom_site_fract_y
 _atom_site_fract_z
 _atom_site_occupancy
  Sr  Sr0  1  0.876318  0.123682  0.750000  1
  Tb  Tb1  1  0.126697  0.873303  0.250000  1
  Al  Al2  1  0.519711  0.782046  0.750000  1
  Al  Al3  1  0.782183  0.518637  0.250000  1
  Al  Al4  1  0.481363  0.217817  0.250000  1
  Al  Al5  1  0.217954  0.480289  0.750000  1
  Al  Al6  1  0.622777  0.377223  0.961775  1
  Al  Al7  1  0.376313  0.623687  0.053886  1
  Al  Al8  1  0.622777  0.377223  0.538225  1
  Al  Al9  1  0.376313  0.623687  0.446114  1
  Al  Al10  1  0.408986  0.143199  0.750000  1
  Al  Al11  1  0.144046  0.418516  0.250000  1
  Al  Al12  1  0.581484  0.855954  0.250000  1
  Al  Al13  1  0.856801  0.591014  0.750000  1
  Al  Al14  1  0.844911  0.155089  0.397407  1
  Al  Al15  1  0.163042  0.836958  0.600961  1
  Al  Al16  1  0.844911  0.155089  0.102593  1
  Al  Al17  1  0.163042  0.836958  0.899039  1
  Al  Al18  1  0.774098  0.775309  0.003617  1
  Al  Al19  1  0.774098  0.775309  0.496383  1
  Al  Al20  1  0.224691  0.225902  0.003617  1
  Al  Al21  1  0.224691  0.225902  0.496383  1
  Os  Os22  1  0.497094  0.000699  0.001171  1
  Os  Os23  1  0.999301  0.502906  0.001171  1
  Os  Os24  1  0.497094  0.000699  0.498829  1
  Os  Os25  1  0.999301  0.502906  0.498829  1
