# generated using pymatgen
data_Ho8Er4InCo4Ni
_symmetry_space_group_name_H-M   'P 1'
_cell_length_a   8.23247276
_cell_length_b   8.23524481
_cell_length_c   8.23247444
_cell_angle_alpha   110.77457843
_cell_angle_beta   110.76344389
_cell_angle_gamma   106.89268106
_symmetry_Int_Tables_number   1
_chemical_formula_structural   Ho8Er4InCo4Ni
_chemical_formula_sum   'Ho8 Er4 In1 Co4 Ni1'
_cell_volume   429.07379613
_cell_formula_units_Z   1
loop_
 _symmetry_equiv_pos_site_id
 _symmetry_equiv_pos_as_xyz
  1  'x, y, z'
loop_
 _atom_site_type_symbol
 _atom_site_label
 _atom_site_symmetry_multiplicity
 _atom_site_fract_x
 _atom_site_fract_y
 _atom_site_fract_z
 _atom_site_occupancy
  Ho  Ho0  1  0.186028  0.291039  0.477075  1
  Ho  Ho1  1  0.813972  0.708961  0.522925  1
  Ho  Ho2  1  0.186036  0.708961  0.894989  1
  Ho  Ho3  1  0.813964  0.291039  0.105011  1
  Ho  Ho4  1  0.408317  0.213004  0.195321  1
  Ho  Ho5  1  0.591683  0.786996  0.804679  1
  Ho  Ho6  1  0.017684  0.213004  0.804687  1
  Ho  Ho7  1  0.982316  0.786996  0.195313  1
  Er  Er8  1  0.315715  0.620792  0.305077  1
  Er  Er9  1  0.684285  0.379208  0.694923  1
  Er  Er10  1  0.315736  0.010579  0.694845  1
  Er  Er11  1  0.684264  0.989421  0.305155  1
  In  In12  1  0.500000  0.500000  0.000000  1
  Co  Co13  1  0.112860  0.612853  0.499993  1
  Co  Co14  1  0.887140  0.387147  0.500007  1
  Co  Co15  1  0.377588  0.000000  0.377588  1
  Co  Co16  1  0.622412  0.000000  0.622412  1
  Ni  Ni17  1  0.000000  0.000000  0.000000  1
