# generated using pymatgen
data_Sm8HoLu11Pb16
_symmetry_space_group_name_H-M   'P 1'
_cell_length_a   8.17316927
_cell_length_b   8.26918522
_cell_length_c   15.55700847
_cell_angle_alpha   89.98314867
_cell_angle_beta   89.97728486
_cell_angle_gamma   89.90012758
_symmetry_Int_Tables_number   1
_chemical_formula_structural   Sm8HoLu11Pb16
_chemical_formula_sum   'Sm8 Ho1 Lu11 Pb16'
_cell_volume   1051.42570188
_cell_formula_units_Z   1
loop_
 _symmetry_equiv_pos_site_id
 _symmetry_equiv_pos_as_xyz
  1  'x, y, z'
loop_
 _atom_site_type_symbol
 _atom_site_label
 _atom_site_symmetry_multiplicity
 _atom_site_fract_x
 _atom_site_fract_y
 _atom_site_fract_z
 _atom_site_occupancy
  Sm  Sm0  1  0.470702  0.677374  0.597659  1
  Sm  Sm1  1  0.971117  0.821576  0.902719  1
  Sm  Sm2  1  0.529489  0.322136  0.097837  1
  Sm  Sm3  1  0.028546  0.177611  0.402561  1
  Sm  Sm4  1  0.529807  0.322945  0.401456  1
  Sm  Sm5  1  0.029555  0.177960  0.097313  1
  Sm  Sm6  1  0.470525  0.677726  0.902712  1
  Sm  Sm7  1  0.970698  0.821632  0.597171  1
  Ho  Ho8  1  0.630785  0.158593  0.622326  1
  Lu  Lu9  1  0.131331  0.342833  0.877516  1
  Lu  Lu10  1  0.368494  0.842314  0.123074  1
  Lu  Lu11  1  0.868594  0.657447  0.376397  1
  Lu  Lu12  1  0.368334  0.842752  0.377141  1
  Lu  Lu13  1  0.867973  0.657315  0.122922  1
  Lu  Lu14  1  0.631773  0.157173  0.876965  1
  Lu  Lu15  1  0.132293  0.342113  0.623058  1
  Lu  Lu16  1  0.799313  0.494209  0.750460  1
  Lu  Lu17  1  0.298566  0.006322  0.750432  1
  Lu  Lu18  1  0.201259  0.506458  0.250082  1
  Lu  Lu19  1  0.701090  0.993485  0.249700  1
  Pb  Pb20  1  0.708674  0.959325  0.455535  1
  Pb  Pb21  1  0.208938  0.539568  0.043712  1
  Pb  Pb22  1  0.291606  0.039371  0.956811  1
  Pb  Pb23  1  0.792501  0.462231  0.542863  1
  Pb  Pb24  1  0.289139  0.038528  0.543225  1
  Pb  Pb25  1  0.790698  0.460039  0.956964  1
  Pb  Pb26  1  0.708904  0.960792  0.043510  1
  Pb  Pb27  1  0.208897  0.539618  0.456630  1
  Pb  Pb28  1  0.436506  0.372466  0.750913  1
  Pb  Pb29  1  0.937756  0.128763  0.750344  1
  Pb  Pb30  1  0.562696  0.627313  0.250205  1
  Pb  Pb31  1  0.062931  0.872513  0.249753  1
  Pb  Pb32  1  0.660344  0.846279  0.750226  1
  Pb  Pb33  1  0.160436  0.653661  0.749911  1
  Pb  Pb34  1  0.339168  0.153484  0.250079  1
  Pb  Pb35  1  0.840561  0.346074  0.249817  1
