# generated using pymatgen
data_Yb2Si7Ir12
_symmetry_space_group_name_H-M   'P 1'
_cell_length_a   9.75459300
_cell_length_b   9.75459195
_cell_length_c   3.88708800
_cell_angle_alpha   90.00000000
_cell_angle_beta   90.00000000
_cell_angle_gamma   119.99999925
_symmetry_Int_Tables_number   1
_chemical_formula_structural   Yb2Si7Ir12
_chemical_formula_sum   'Yb2 Si7 Ir12'
_cell_volume   320.31204374
_cell_formula_units_Z   1
loop_
 _symmetry_equiv_pos_site_id
 _symmetry_equiv_pos_as_xyz
  1  'x, y, z'
loop_
 _atom_site_type_symbol
 _atom_site_label
 _atom_site_symmetry_multiplicity
 _atom_site_fract_x
 _atom_site_fract_y
 _atom_site_fract_z
 _atom_site_occupancy
  Yb  Yb0  1  0.333333  0.666667  0.250413  1
  Yb  Yb1  1  0.666667  0.333333  0.749587  1
  Si  Si2  1  0.000000  0.000000  0.500000  1
  Si  Si3  1  0.405641  0.115713  0.249218  1
  Si  Si4  1  0.710074  0.594359  0.249218  1
  Si  Si5  1  0.884287  0.289926  0.249218  1
  Si  Si6  1  0.594359  0.884287  0.750782  1
  Si  Si7  1  0.289926  0.405641  0.750782  1
  Si  Si8  1  0.115713  0.710074  0.750782  1
  Ir  Ir9  1  0.441787  0.381569  0.249079  1
  Ir  Ir10  1  0.939780  0.558213  0.249079  1
  Ir  Ir11  1  0.618431  0.060220  0.249079  1
  Ir  Ir12  1  0.558213  0.618431  0.750921  1
  Ir  Ir13  1  0.060220  0.441787  0.750921  1
  Ir  Ir14  1  0.381569  0.939780  0.750921  1
  Ir  Ir15  1  0.144455  0.884823  0.252827  1
  Ir  Ir16  1  0.740368  0.855545  0.252827  1
  Ir  Ir17  1  0.115177  0.259632  0.252827  1
  Ir  Ir18  1  0.855545  0.115177  0.747173  1
  Ir  Ir19  1  0.259632  0.144455  0.747173  1
  Ir  Ir20  1  0.884823  0.740368  0.747173  1
