# generated using pymatgen
data_Y11Th5(CdRu)4
_symmetry_space_group_name_H-M   'P 1'
_cell_length_a   9.68380774
_cell_length_b   9.78068621
_cell_length_c   9.78068636
_cell_angle_alpha   59.76475678
_cell_angle_beta   60.32712506
_cell_angle_gamma   60.32712149
_symmetry_Int_Tables_number   1
_chemical_formula_structural   Y11Th5(CdRu)4
_chemical_formula_sum   'Y11 Th5 Cd4 Ru4'
_cell_volume   657.07358266
_cell_formula_units_Z   1
loop_
 _symmetry_equiv_pos_site_id
 _symmetry_equiv_pos_as_xyz
  1  'x, y, z'
loop_
 _atom_site_type_symbol
 _atom_site_label
 _atom_site_symmetry_multiplicity
 _atom_site_fract_x
 _atom_site_fract_y
 _atom_site_fract_z
 _atom_site_occupancy
  Y  Y0  1  0.187899  0.812101  0.812101  1
  Y  Y1  1  0.193078  0.807958  0.186860  1
  Y  Y2  1  0.812104  0.186860  0.807958  1
  Y  Y3  1  0.193078  0.186860  0.807958  1
  Y  Y4  1  0.812104  0.807958  0.186860  1
  Y  Y5  1  0.933990  0.566010  0.566010  1
  Y  Y6  1  0.564017  0.935983  0.935983  1
  Y  Y7  1  0.562305  0.937012  0.562871  1
  Y  Y8  1  0.937812  0.562871  0.937012  1
  Y  Y9  1  0.562305  0.562871  0.937012  1
  Y  Y10  1  0.937812  0.937012  0.562871  1
  Th  Th11  1  0.342864  0.349556  0.349556  1
  Th  Th12  1  0.347054  0.347972  0.957919  1
  Th  Th13  1  0.347054  0.957919  0.347972  1
  Th  Th14  1  0.958022  0.349556  0.349556  1
  Th  Th15  1  0.814789  0.185211  0.185211  1
  Cd  Cd16  1  0.582141  0.581221  0.581221  1
  Cd  Cd17  1  0.580749  0.583865  0.254638  1
  Cd  Cd18  1  0.580749  0.254638  0.583865  1
  Cd  Cd19  1  0.255420  0.581221  0.581221  1
  Ru  Ru20  1  0.127586  0.148344  0.148344  1
  Ru  Ru21  1  0.145670  0.142579  0.566080  1
  Ru  Ru22  1  0.145670  0.566080  0.142579  1
  Ru  Ru23  1  0.575725  0.148344  0.148344  1
