# generated using pymatgen
data_HfTa6Nb5Tc12
_symmetry_space_group_name_H-M   'P 1'
_cell_length_a   4.50035900
_cell_length_b   6.39102300
_cell_length_c   13.63043200
_cell_angle_alpha   90.00000000
_cell_angle_beta   90.00002114
_cell_angle_gamma   90.00000000
_symmetry_Int_Tables_number   1
_chemical_formula_structural   HfTa6Nb5Tc12
_chemical_formula_sum   'Hf1 Ta6 Nb5 Tc12'
_cell_volume   392.03709321
_cell_formula_units_Z   1
loop_
 _symmetry_equiv_pos_site_id
 _symmetry_equiv_pos_as_xyz
  1  'x, y, z'
loop_
 _atom_site_type_symbol
 _atom_site_label
 _atom_site_symmetry_multiplicity
 _atom_site_fract_x
 _atom_site_fract_y
 _atom_site_fract_z
 _atom_site_occupancy
  Hf  Hf0  1  0.500101  0.500000  0.833332  1
  Ta  Ta1  1  0.000002  0.500000  0.000136  1
  Ta  Ta2  1  0.499902  0.000000  0.166176  1
  Ta  Ta3  1  0.999916  0.500000  0.333334  1
  Ta  Ta4  1  0.500001  0.000000  0.500491  1
  Ta  Ta5  1  0.000092  0.500000  0.666528  1
  Ta  Ta6  1  0.500099  0.000000  0.833334  1
  Nb  Nb7  1  0.000000  0.000000  0.999645  1
  Nb  Nb8  1  0.499903  0.500000  0.166712  1
  Nb  Nb9  1  0.999901  0.000000  0.333333  1
  Nb  Nb10  1  0.500004  0.500000  0.499957  1
  Nb  Nb11  1  0.000105  0.000000  0.667022  1
  Tc  Tc12  1  0.499999  0.248576  0.001810  1
  Tc  Tc13  1  0.499999  0.751425  0.001810  1
  Tc  Tc14  1  0.999908  0.249987  0.167130  1
  Tc  Tc15  1  0.999908  0.750014  0.167130  1
  Tc  Tc16  1  0.499910  0.250025  0.333333  1
  Tc  Tc17  1  0.499910  0.749974  0.333333  1
  Tc  Tc18  1  0.000001  0.249986  0.499537  1
  Tc  Tc19  1  0.000001  0.750014  0.499537  1
  Tc  Tc20  1  0.500085  0.248571  0.664857  1
  Tc  Tc21  1  0.500085  0.751428  0.664857  1
  Tc  Tc22  1  0.000088  0.247023  0.833334  1
  Tc  Tc23  1  0.000088  0.752978  0.833334  1
