# generated using pymatgen
data_Re5TcPd8
_symmetry_space_group_name_H-M   'P 1'
_cell_length_a   7.43312188
_cell_length_b   7.42387691
_cell_length_c   4.41460600
_cell_angle_alpha   90.00000000
_cell_angle_beta   90.00000000
_cell_angle_gamma   60.07409085
_symmetry_Int_Tables_number   1
_chemical_formula_structural   Re5TcPd8
_chemical_formula_sum   'Re5 Tc1 Pd8'
_cell_volume   211.12922461
_cell_formula_units_Z   1
loop_
 _symmetry_equiv_pos_site_id
 _symmetry_equiv_pos_as_xyz
  1  'x, y, z'
loop_
 _atom_site_type_symbol
 _atom_site_label
 _atom_site_symmetry_multiplicity
 _atom_site_fract_x
 _atom_site_fract_y
 _atom_site_fract_z
 _atom_site_occupancy
  Re  Re0  1  0.702988  0.442572  0.000000  1
  Re  Re1  1  0.299141  0.569302  0.000000  1
  Re  Re2  1  0.425273  0.845910  0.000000  1
  Re  Re3  1  0.526388  0.391820  0.500000  1
  Re  Re4  1  0.653164  0.669589  0.500000  1
  Tc  Tc5  1  0.249596  0.795686  0.500000  1
  Pd  Pd6  1  0.570428  0.147324  0.000000  1
  Pd  Pd7  1  0.142825  0.285250  0.000000  1
  Pd  Pd8  1  0.854083  0.713579  0.000000  1
  Pd  Pd9  1  0.005582  0.995225  0.000000  1
  Pd  Pd10  1  0.381836  0.090064  0.500000  1
  Pd  Pd11  1  0.947222  0.242496  0.500000  1
  Pd  Pd12  1  0.099706  0.524480  0.500000  1
  Pd  Pd13  1  0.808329  0.953265  0.500000  1
