# generated using pymatgen
data_Ho3ErGa12Fe
_symmetry_space_group_name_H-M   'P 1'
_cell_length_a   7.40989982
_cell_length_b   7.40989993
_cell_length_c   7.41272300
_cell_angle_alpha   109.47893304
_cell_angle_beta   109.47893333
_cell_angle_gamma   109.46350656
_symmetry_Int_Tables_number   1
_chemical_formula_structural   Ho3ErGa12Fe
_chemical_formula_sum   'Ho3 Er1 Ga12 Fe1'
_cell_volume   313.28472197
_cell_formula_units_Z   1
loop_
 _symmetry_equiv_pos_site_id
 _symmetry_equiv_pos_as_xyz
  1  'x, y, z'
loop_
 _atom_site_type_symbol
 _atom_site_label
 _atom_site_symmetry_multiplicity
 _atom_site_fract_x
 _atom_site_fract_y
 _atom_site_fract_z
 _atom_site_occupancy
  Ho  Ho0  1  0.000000  0.500000  0.000000  1
  Ho  Ho1  1  0.500000  0.000000  0.000000  1
  Ho  Ho2  1  0.500000  0.500000  0.500000  1
  Er  Er3  1  0.000000  0.000000  0.500000  1
  Ga  Ga4  1  0.750208  0.249792  0.500000  1
  Ga  Ga5  1  0.750208  0.500416  0.250208  1
  Ga  Ga6  1  0.499584  0.249792  0.749792  1
  Ga  Ga7  1  0.249792  0.499584  0.749792  1
  Ga  Ga8  1  0.249792  0.750208  0.500000  1
  Ga  Ga9  1  0.500416  0.750208  0.250208  1
  Ga  Ga10  1  0.716142  0.716142  0.000423  1
  Ga  Ga11  1  0.283858  0.000000  0.284280  1
  Ga  Ga12  1  0.000000  0.283858  0.284280  1
  Ga  Ga13  1  0.283858  0.283858  0.999577  1
  Ga  Ga14  1  0.716142  0.000000  0.715720  1
  Ga  Ga15  1  0.000000  0.716142  0.715720  1
  Fe  Fe16  1  0.000000  0.000000  0.000000  1
