# generated using pymatgen
data_Tb9PrDy2Fe2I17
_symmetry_space_group_name_H-M   'P 1'
_cell_length_a   9.78189029
_cell_length_b   11.78616523
_cell_length_c   11.76433762
_cell_angle_alpha   93.52022456
_cell_angle_beta   104.72718688
_cell_angle_gamma   114.32870052
_symmetry_Int_Tables_number   1
_chemical_formula_structural   Tb9PrDy2Fe2I17
_chemical_formula_sum   'Tb9 Pr1 Dy2 Fe2 I17'
_cell_volume   1173.84373487
_cell_formula_units_Z   1
loop_
 _symmetry_equiv_pos_site_id
 _symmetry_equiv_pos_as_xyz
  1  'x, y, z'
loop_
 _atom_site_type_symbol
 _atom_site_label
 _atom_site_symmetry_multiplicity
 _atom_site_fract_x
 _atom_site_fract_y
 _atom_site_fract_z
 _atom_site_occupancy
  Tb  Tb0  1  0.051289  0.500156  0.319986  1
  Tb  Tb1  1  0.990727  0.809855  0.584490  1
  Tb  Tb2  1  0.654272  0.241665  0.281501  1
  Tb  Tb3  1  0.007877  0.192785  0.409793  1
  Tb  Tb4  1  0.219791  0.670752  0.985629  1
  Tb  Tb5  1  0.256946  0.980814  0.889323  1
  Tb  Tb6  1  0.337836  0.757757  0.720481  1
  Tb  Tb7  1  0.946193  0.493300  0.678278  1
  Tb  Tb8  1  0.748182  0.025307  0.112356  1
  Pr  Pr9  1  0.853952  0.712879  0.846393  1
  Dy  Dy10  1  0.143664  0.287980  0.154719  1
  Dy  Dy11  1  0.783633  0.326916  0.020284  1
  Fe  Fe12  1  0.101041  0.737526  0.785695  1
  Fe  Fe13  1  0.896906  0.262309  0.214623  1
  I  I14  1  0.783933  0.528533  0.418685  1
  I  I15  1  0.644476  0.410598  0.759808  1
  I  I16  1  0.845478  0.897358  0.326165  1
  I  I17  1  0.328164  0.214251  0.368444  1
  I  I18  1  0.156457  0.102880  0.673285  1
  I  I19  1  0.584695  0.050680  0.842974  1
  I  I20  1  0.758979  0.187857  0.538829  1
  I  I21  1  0.546096  0.711831  0.954141  1
  I  I22  1  0.356215  0.581048  0.238196  1
  I  I23  1  0.216827  0.473013  0.584076  1
  I  I24  1  0.058382  0.369411  0.897191  1
  I  I25  1  0.449976  0.289261  0.045402  1
  I  I26  1  0.004482  0.004442  0.001230  1
  I  I27  1  0.241829  0.811381  0.463194  1
  I  I28  1  0.412549  0.946461  0.155624  1
  I  I29  1  0.671917  0.789952  0.622910  1
  I  I30  1  0.947231  0.631044  0.106294  1
