# generated using pymatgen
data_Er2Pa(Fe3P2)3
_symmetry_space_group_name_H-M   'P 1'
_cell_length_a   3.68759600
_cell_length_b   10.52261100
_cell_length_c   12.15246400
_cell_angle_alpha   90.00000000
_cell_angle_beta   90.00000000
_cell_angle_gamma   90.00000000
_symmetry_Int_Tables_number   1
_chemical_formula_structural   Er2Pa(Fe3P2)3
_chemical_formula_sum   'Er4 Pa2 Fe18 P12'
_cell_volume   471.55374047
_cell_formula_units_Z   2
loop_
 _symmetry_equiv_pos_site_id
 _symmetry_equiv_pos_as_xyz
  1  'x, y, z'
loop_
 _atom_site_type_symbol
 _atom_site_label
 _atom_site_symmetry_multiplicity
 _atom_site_fract_x
 _atom_site_fract_y
 _atom_site_fract_z
 _atom_site_occupancy
  Er  Er0  1  0.500000  0.818340  0.206410  1
  Er  Er1  1  0.500000  0.181660  0.206410  1
  Er  Er2  1  0.000000  0.681660  0.793590  1
  Er  Er3  1  0.000000  0.318340  0.793590  1
  Pa  Pa4  1  0.000000  0.500000  0.530260  1
  Pa  Pa5  1  0.500000  0.000000  0.469740  1
  Fe  Fe6  1  0.500000  0.500000  0.152125  1
  Fe  Fe7  1  0.000000  0.000000  0.847875  1
  Fe  Fe8  1  0.500000  0.500000  0.692653  1
  Fe  Fe9  1  0.000000  0.000000  0.307347  1
  Fe  Fe10  1  0.000000  0.500000  0.987607  1
  Fe  Fe11  1  0.500000  0.000000  0.012393  1
  Fe  Fe12  1  0.500000  0.327983  0.996349  1
  Fe  Fe13  1  0.500000  0.672017  0.996349  1
  Fe  Fe14  1  0.000000  0.172017  0.003651  1
  Fe  Fe15  1  0.000000  0.827983  0.003651  1
  Fe  Fe16  1  0.500000  0.304052  0.430400  1
  Fe  Fe17  1  0.500000  0.695948  0.430400  1
  Fe  Fe18  1  0.000000  0.195948  0.569600  1
  Fe  Fe19  1  0.000000  0.804052  0.569600  1
  Fe  Fe20  1  0.500000  0.883860  0.710007  1
  Fe  Fe21  1  0.500000  0.116140  0.710007  1
  Fe  Fe22  1  0.000000  0.616140  0.289993  1
  Fe  Fe23  1  0.000000  0.383860  0.289993  1
  P  P24  1  0.500000  0.500000  0.881775  1
  P  P25  1  0.000000  0.000000  0.118225  1
  P  P26  1  0.500000  0.500000  0.340298  1
  P  P27  1  0.000000  0.000000  0.659702  1
  P  P28  1  0.500000  0.301968  0.615552  1
  P  P29  1  0.500000  0.698032  0.615552  1
  P  P30  1  0.000000  0.198032  0.384448  1
  P  P31  1  0.000000  0.801968  0.384448  1
  P  P32  1  0.500000  0.850961  0.888886  1
  P  P33  1  0.500000  0.149039  0.888886  1
  P  P34  1  0.000000  0.649039  0.111114  1
  P  P35  1  0.000000  0.350961  0.111114  1
