# generated using pymatgen
data_Er7LuC10
_symmetry_space_group_name_H-M   'P 1'
_cell_length_a   3.62049700
_cell_length_b   6.49811760
_cell_length_c   11.77760842
_cell_angle_alpha   90.14240520
_cell_angle_beta   90.00000000
_cell_angle_gamma   90.00000000
_symmetry_Int_Tables_number   1
_chemical_formula_structural   Er7LuC10
_chemical_formula_sum   'Er7 Lu1 C10'
_cell_volume   277.08405097
_cell_formula_units_Z   1
loop_
 _symmetry_equiv_pos_site_id
 _symmetry_equiv_pos_as_xyz
  1  'x, y, z'
loop_
 _atom_site_type_symbol
 _atom_site_label
 _atom_site_symmetry_multiplicity
 _atom_site_fract_x
 _atom_site_fract_y
 _atom_site_fract_z
 _atom_site_occupancy
  Er  Er0  1  0.500000  0.391839  0.303040  1
  Er  Er1  1  0.500000  0.606249  0.697032  1
  Er  Er2  1  0.500000  0.108544  0.804644  1
  Er  Er3  1  0.500000  0.895043  0.197228  1
  Er  Er4  1  0.000000  0.750021  0.957002  1
  Er  Er5  1  0.000000  0.263362  0.542003  1
  Er  Er6  1  0.000000  0.750754  0.455469  1
  Lu  Lu7  1  0.000000  0.234596  0.041843  1
  C  C8  1  0.500000  0.990870  0.001534  1
  C  C9  1  0.500000  0.512208  0.500648  1
  C  C10  1  0.000000  0.137122  0.232439  1
  C  C11  1  0.000000  0.855508  0.762909  1
  C  C12  1  0.000000  0.364923  0.736874  1
  C  C13  1  0.000000  0.643019  0.260544  1
  C  C14  1  0.000000  0.113911  0.345570  1
  C  C15  1  0.000000  0.926440  0.656683  1
  C  C16  1  0.000000  0.385046  0.850220  1
  C  C17  1  0.000000  0.570545  0.154319  1
