# generated using pymatgen
data_Ta4V3Zn3Ga2
_symmetry_space_group_name_H-M   'P 1'
_cell_length_a   5.00451700
_cell_length_b   5.00451874
_cell_length_c   8.41878700
_cell_angle_alpha   90.00000000
_cell_angle_beta   90.00000000
_cell_angle_gamma   120.00000832
_symmetry_Int_Tables_number   1
_chemical_formula_structural   Ta4V3Zn3Ga2
_chemical_formula_sum   'Ta4 V3 Zn3 Ga2'
_cell_volume   182.60161145
_cell_formula_units_Z   1
loop_
 _symmetry_equiv_pos_site_id
 _symmetry_equiv_pos_as_xyz
  1  'x, y, z'
loop_
 _atom_site_type_symbol
 _atom_site_label
 _atom_site_symmetry_multiplicity
 _atom_site_fract_x
 _atom_site_fract_y
 _atom_site_fract_z
 _atom_site_occupancy
  Ta  Ta0  1  0.333333  0.666667  0.433770  1
  Ta  Ta1  1  0.666667  0.333333  0.551968  1
  Ta  Ta2  1  0.666667  0.333333  0.948032  1
  Ta  Ta3  1  0.333333  0.666667  0.066230  1
  V  V4  1  0.826221  0.173779  0.250000  1
  V  V5  1  0.826221  0.652445  0.250000  1
  V  V6  1  0.347555  0.173779  0.250000  1
  Zn  Zn7  1  0.172081  0.827919  0.750000  1
  Zn  Zn8  1  0.172081  0.344160  0.750000  1
  Zn  Zn9  1  0.655840  0.827919  0.750000  1
  Ga  Ga10  1  0.000000  0.000000  0.500743  1
  Ga  Ga11  1  0.000000  0.000000  0.999257  1
