# generated using pymatgen
data_Ac7Yb(Si3Pt)4
_symmetry_space_group_name_H-M   'P 1'
_cell_length_a   8.45440000
_cell_length_b   8.45439998
_cell_length_c   8.86243500
_cell_angle_alpha   90.00000000
_cell_angle_beta   90.00000000
_cell_angle_gamma   119.82685630
_symmetry_Int_Tables_number   1
_chemical_formula_structural   Ac7Yb(Si3Pt)4
_chemical_formula_sum   'Ac7 Yb1 Si12 Pt4'
_cell_volume   549.54638356
_cell_formula_units_Z   1
loop_
 _symmetry_equiv_pos_site_id
 _symmetry_equiv_pos_as_xyz
  1  'x, y, z'
loop_
 _atom_site_type_symbol
 _atom_site_label
 _atom_site_symmetry_multiplicity
 _atom_site_fract_x
 _atom_site_fract_y
 _atom_site_fract_z
 _atom_site_occupancy
  Ac  Ac0  1  0.500223  0.499777  0.250000  1
  Ac  Ac1  1  0.000497  0.500208  0.750000  1
  Ac  Ac2  1  0.999509  0.499759  0.250000  1
  Ac  Ac3  1  0.499792  0.999503  0.750000  1
  Ac  Ac4  1  0.500241  0.000491  0.250000  1
  Ac  Ac5  1  0.999962  0.000038  0.750000  1
  Ac  Ac6  1  0.000043  0.999957  0.250000  1
  Yb  Yb7  1  0.499817  0.500183  0.750000  1
  Si  Si8  1  0.834720  0.165280  0.000502  1
  Si  Si9  1  0.165242  0.834758  0.999666  1
  Si  Si10  1  0.332400  0.167896  0.998546  1
  Si  Si11  1  0.165242  0.834758  0.500334  1
  Si  Si12  1  0.667559  0.831976  0.997353  1
  Si  Si13  1  0.834720  0.165280  0.499498  1
  Si  Si14  1  0.832104  0.667600  0.998546  1
  Si  Si15  1  0.667559  0.831976  0.502647  1
  Si  Si16  1  0.168024  0.332441  0.997353  1
  Si  Si17  1  0.332400  0.167896  0.501454  1
  Si  Si18  1  0.168024  0.332441  0.502647  1
  Si  Si19  1  0.832104  0.667600  0.501454  1
  Pt  Pt20  1  0.665277  0.334723  0.994594  1
  Pt  Pt21  1  0.334632  0.665368  0.996988  1
  Pt  Pt22  1  0.334632  0.665368  0.503012  1
  Pt  Pt23  1  0.665277  0.334723  0.505406  1
