# generated using pymatgen
data_Sr4PrNd(SbO6)2
_symmetry_space_group_name_H-M   'P 1'
_cell_length_a   5.94498716
_cell_length_b   6.08643117
_cell_length_c   8.49190200
_cell_angle_alpha   89.98960729
_cell_angle_beta   90.38492150
_cell_angle_gamma   90.00877729
_symmetry_Int_Tables_number   1
_chemical_formula_structural   Sr4PrNd(SbO6)2
_chemical_formula_sum   'Sr4 Pr1 Nd1 Sb2 O12'
_cell_volume   307.26196008
_cell_formula_units_Z   1
loop_
 _symmetry_equiv_pos_site_id
 _symmetry_equiv_pos_as_xyz
  1  'x, y, z'
loop_
 _atom_site_type_symbol
 _atom_site_label
 _atom_site_symmetry_multiplicity
 _atom_site_fract_x
 _atom_site_fract_y
 _atom_site_fract_z
 _atom_site_occupancy
  Sr  Sr0  1  0.487954  0.542965  0.248232  1
  Sr  Sr1  1  0.012128  0.042253  0.249329  1
  Sr  Sr2  1  0.987873  0.957747  0.750672  1
  Sr  Sr3  1  0.512046  0.457034  0.751768  1
  Pr  Pr4  1  0.000000  0.500001  0.500000  1
  Nd  Nd5  1  0.500000  0.000000  0.000000  1
  Sb  Sb6  1  0.000000  0.500001  0.000000  1
  Sb  Sb7  1  0.500000  0.000000  0.500000  1
  O  O8  1  0.271818  0.308208  0.044672  1
  O  O9  1  0.187307  0.771340  0.052430  1
  O  O10  1  0.908694  0.466125  0.228303  1
  O  O11  1  0.590976  0.965836  0.270407  1
  O  O12  1  0.315889  0.272244  0.446855  1
  O  O13  1  0.227232  0.811164  0.454556  1
  O  O14  1  0.772768  0.188836  0.545444  1
  O  O15  1  0.684112  0.727757  0.553144  1
  O  O16  1  0.409023  0.034164  0.729593  1
  O  O17  1  0.091306  0.533874  0.771697  1
  O  O18  1  0.812693  0.228660  0.947570  1
  O  O19  1  0.728183  0.691792  0.955327  1
