# generated using pymatgen
data_Tb4Y11Tm5Bi12
_symmetry_space_group_name_H-M   'P 1'
_cell_length_a   8.25328705
_cell_length_b   9.50281345
_cell_length_c   12.06510612
_cell_angle_alpha   89.99133343
_cell_angle_beta   90.04055620
_cell_angle_gamma   90.00882673
_symmetry_Int_Tables_number   1
_chemical_formula_structural   Tb4Y11Tm5Bi12
_chemical_formula_sum   'Tb4 Y11 Tm5 Bi12'
_cell_volume   946.25934415
_cell_formula_units_Z   1
loop_
 _symmetry_equiv_pos_site_id
 _symmetry_equiv_pos_as_xyz
  1  'x, y, z'
loop_
 _atom_site_type_symbol
 _atom_site_label
 _atom_site_symmetry_multiplicity
 _atom_site_fract_x
 _atom_site_fract_y
 _atom_site_fract_z
 _atom_site_occupancy
  Tb  Tb0  1  0.186461  0.749944  0.719147  1
  Tb  Tb1  1  0.686571  0.749927  0.780959  1
  Tb  Tb2  1  0.813604  0.250066  0.280713  1
  Tb  Tb3  1  0.313466  0.250441  0.218825  1
  Y  Y4  1  0.806248  0.062786  0.559827  1
  Y  Y5  1  0.693394  0.937280  0.059542  1
  Y  Y6  1  0.193883  0.562606  0.440212  1
  Y  Y7  1  0.693829  0.562565  0.059720  1
  Y  Y8  1  0.193827  0.937354  0.440157  1
  Y  Y9  1  0.306239  0.063042  0.940397  1
  Y  Y10  1  0.806218  0.437259  0.559793  1
  Y  Y11  1  0.354816  0.750225  0.215489  1
  Y  Y12  1  0.854585  0.750042  0.284554  1
  Y  Y13  1  0.644827  0.250673  0.784831  1
  Y  Y14  1  0.146211  0.250847  0.715748  1
  Tm  Tm15  1  0.026281  0.749897  0.988573  1
  Tm  Tm16  1  0.525831  0.750127  0.511534  1
  Tm  Tm17  1  0.974870  0.250589  0.011422  1
  Tm  Tm18  1  0.474034  0.250063  0.488575  1
  Tm  Tm19  1  0.305974  0.434736  0.940237  1
  Bi  Bi20  1  0.433805  0.004088  0.672545  1
  Bi  Bi21  1  0.934316  0.496197  0.827755  1
  Bi  Bi22  1  0.565980  0.504043  0.327390  1
  Bi  Bi23  1  0.066135  0.996119  0.172407  1
  Bi  Bi24  1  0.566101  0.996176  0.327466  1
  Bi  Bi25  1  0.066095  0.504250  0.172203  1
  Bi  Bi26  1  0.433586  0.496201  0.672706  1
  Bi  Bi27  1  0.933894  0.004274  0.827706  1
  Bi  Bi28  1  0.407179  0.747812  0.957851  1
  Bi  Bi29  1  0.908162  0.749990  0.541737  1
  Bi  Bi30  1  0.591738  0.250432  0.041544  1
  Bi  Bi31  1  0.091842  0.249952  0.458434  1
