# generated using pymatgen
data_V2SnPbO8
_symmetry_space_group_name_H-M   'P 1'
_cell_length_a   5.29644812
_cell_length_b   5.29644823
_cell_length_c   7.43746385
_cell_angle_alpha   90.46731883
_cell_angle_beta   90.46731597
_cell_angle_gamma   66.75637580
_symmetry_Int_Tables_number   1
_chemical_formula_structural   V2SnPbO8
_chemical_formula_sum   'V2 Sn1 Pb1 O8'
_cell_volume   191.69518237
_cell_formula_units_Z   1
loop_
 _symmetry_equiv_pos_site_id
 _symmetry_equiv_pos_as_xyz
  1  'x, y, z'
loop_
 _atom_site_type_symbol
 _atom_site_label
 _atom_site_symmetry_multiplicity
 _atom_site_fract_x
 _atom_site_fract_y
 _atom_site_fract_z
 _atom_site_occupancy
  V  V0  1  0.636947  0.636947  0.280696  1
  V  V1  1  0.363052  0.363052  0.719304  1
  Sn  Sn2  1  0.000000  0.000000  0.500000  1
  Pb  Pb3  1  0.000000  0.000000  0.000000  1
  O  O4  1  0.717954  0.717954  0.077636  1
  O  O5  1  0.782517  0.267636  0.295153  1
  O  O6  1  0.267636  0.782517  0.295153  1
  O  O7  1  0.769447  0.769447  0.451792  1
  O  O8  1  0.230553  0.230553  0.548208  1
  O  O9  1  0.732363  0.217482  0.704847  1
  O  O10  1  0.217482  0.732363  0.704847  1
  O  O11  1  0.282045  0.282045  0.922364  1
