# generated using pymatgen
data_MnInCl3
_symmetry_space_group_name_H-M   'P 1'
_cell_length_a   3.82296000
_cell_length_b   9.07536600
_cell_length_c   14.88650500
_cell_angle_alpha   90.00000000
_cell_angle_beta   90.00000000
_cell_angle_gamma   90.00000000
_symmetry_Int_Tables_number   1
_chemical_formula_structural   MnInCl3
_chemical_formula_sum   'Mn4 In4 Cl12'
_cell_volume   516.48373613
_cell_formula_units_Z   4
loop_
 _symmetry_equiv_pos_site_id
 _symmetry_equiv_pos_as_xyz
  1  'x, y, z'
loop_
 _atom_site_type_symbol
 _atom_site_label
 _atom_site_symmetry_multiplicity
 _atom_site_fract_x
 _atom_site_fract_y
 _atom_site_fract_z
 _atom_site_occupancy
  Mn  Mn0  1  0.250000  0.163883  0.944869  1
  Mn  Mn1  1  0.250000  0.663883  0.555131  1
  Mn  Mn2  1  0.750000  0.336117  0.444869  1
  Mn  Mn3  1  0.750000  0.836117  0.055131  1
  In  In4  1  0.750000  0.561790  0.824136  1
  In  In5  1  0.250000  0.938210  0.324136  1
  In  In6  1  0.250000  0.438210  0.175864  1
  In  In7  1  0.750000  0.061790  0.675864  1
  Cl  Cl8  1  0.250000  0.519273  0.402494  1
  Cl  Cl9  1  0.250000  0.677728  0.998023  1
  Cl  Cl10  1  0.750000  0.480727  0.597506  1
  Cl  Cl11  1  0.750000  0.722919  0.204769  1
  Cl  Cl12  1  0.250000  0.277081  0.795231  1
  Cl  Cl13  1  0.750000  0.980727  0.902494  1
  Cl  Cl14  1  0.250000  0.019273  0.097506  1
  Cl  Cl15  1  0.750000  0.222919  0.295231  1
  Cl  Cl16  1  0.750000  0.322272  0.001977  1
  Cl  Cl17  1  0.250000  0.777081  0.704769  1
  Cl  Cl18  1  0.750000  0.822272  0.498023  1
  Cl  Cl19  1  0.250000  0.177728  0.501977  1
