# generated using pymatgen
data_Er7LuTi7Si16Mo5
_symmetry_space_group_name_H-M   'P 1'
_cell_length_a   6.75757303
_cell_length_b   6.94876585
_cell_length_c   13.14731803
_cell_angle_alpha   90.02960881
_cell_angle_beta   89.94769452
_cell_angle_gamma   89.96648786
_symmetry_Int_Tables_number   1
_chemical_formula_structural   Er7LuTi7Si16Mo5
_chemical_formula_sum   'Er7 Lu1 Ti7 Si16 Mo5'
_cell_volume   617.35544172
_cell_formula_units_Z   1
loop_
 _symmetry_equiv_pos_site_id
 _symmetry_equiv_pos_as_xyz
  1  'x, y, z'
loop_
 _atom_site_type_symbol
 _atom_site_label
 _atom_site_symmetry_multiplicity
 _atom_site_fract_x
 _atom_site_fract_y
 _atom_site_fract_z
 _atom_site_occupancy
  Er  Er0  1  0.502692  0.328912  0.096536  1
  Er  Er1  1  0.001606  0.171378  0.403798  1
  Er  Er2  1  0.497659  0.672403  0.595760  1
  Er  Er3  1  0.997824  0.829516  0.903927  1
  Er  Er4  1  0.496476  0.670687  0.902553  1
  Er  Er5  1  0.999455  0.830040  0.595464  1
  Er  Er6  1  0.502049  0.328177  0.405191  1
  Lu  Lu7  1  0.002349  0.172006  0.097195  1
  Ti  Ti8  1  0.835747  0.327551  0.626543  1
  Ti  Ti9  1  0.331565  0.172215  0.872875  1
  Ti  Ti10  1  0.166995  0.671686  0.126771  1
  Ti  Ti11  1  0.666934  0.829492  0.373675  1
  Ti  Ti12  1  0.166755  0.672305  0.374248  1
  Ti  Ti13  1  0.668169  0.828557  0.126748  1
  Ti  Ti14  1  0.832293  0.326716  0.871676  1
  Si  Si15  1  0.658072  0.039496  0.544058  1
  Si  Si16  1  0.159718  0.458848  0.957183  1
  Si  Si17  1  0.338444  0.960559  0.043394  1
  Si  Si18  1  0.839347  0.539073  0.457030  1
  Si  Si19  1  0.337181  0.959050  0.458252  1
  Si  Si20  1  0.840918  0.538777  0.043751  1
  Si  Si21  1  0.659252  0.039932  0.956964  1
  Si  Si22  1  0.163272  0.458842  0.543493  1
  Si  Si23  1  0.534002  0.373374  0.748322  1
  Si  Si24  1  0.037302  0.124532  0.749831  1
  Si  Si25  1  0.464006  0.625913  0.250378  1
  Si  Si26  1  0.964805  0.875556  0.249933  1
  Si  Si27  1  0.797415  0.627252  0.748990  1
  Si  Si28  1  0.299198  0.873950  0.749900  1
  Si  Si29  1  0.203184  0.371980  0.250203  1
  Si  Si30  1  0.703069  0.127789  0.249719  1
  Mo  Mo31  1  0.331594  0.170570  0.626212  1
  Mo  Mo32  1  0.662926  0.009992  0.749752  1
  Mo  Mo33  1  0.160189  0.490586  0.749670  1
  Mo  Mo34  1  0.338045  0.992770  0.249970  1
  Mo  Mo35  1  0.839491  0.509519  0.250032  1
