# generated using pymatgen
data_La13Nd3Cd4IrPt3
_symmetry_space_group_name_H-M   'P 1'
_cell_length_a   10.17036351
_cell_length_b   10.13833961
_cell_length_c   10.13447761
_cell_angle_alpha   60.04940341
_cell_angle_beta   60.33274415
_cell_angle_gamma   60.28428645
_symmetry_Int_Tables_number   1
_chemical_formula_structural   La13Nd3Cd4IrPt3
_chemical_formula_sum   'La13 Nd3 Cd4 Ir1 Pt3'
_cell_volume   742.61283679
_cell_formula_units_Z   1
loop_
 _symmetry_equiv_pos_site_id
 _symmetry_equiv_pos_as_xyz
  1  'x, y, z'
loop_
 _atom_site_type_symbol
 _atom_site_label
 _atom_site_symmetry_multiplicity
 _atom_site_fract_x
 _atom_site_fract_y
 _atom_site_fract_z
 _atom_site_occupancy
  La  La0  1  0.351206  0.347224  0.346329  1
  La  La1  1  0.351761  0.348269  0.952536  1
  La  La2  1  0.351529  0.952913  0.347839  1
  La  La3  1  0.947411  0.350982  0.350547  1
  La  La4  1  0.806070  0.191220  0.190588  1
  La  La5  1  0.193143  0.806553  0.807298  1
  La  La6  1  0.192834  0.808761  0.191416  1
  La  La7  1  0.804762  0.191019  0.812727  1
  La  La8  1  0.192340  0.192119  0.809015  1
  La  La9  1  0.805318  0.812386  0.190762  1
  La  La10  1  0.937792  0.564465  0.565091  1
  La  La11  1  0.565611  0.935013  0.935985  1
  La  La12  1  0.565746  0.937184  0.561833  1
  Nd  Nd13  1  0.936755  0.562723  0.935234  1
  Nd  Nd14  1  0.565532  0.561127  0.938879  1
  Nd  Nd15  1  0.938766  0.935488  0.562145  1
  Cd  Cd16  1  0.579442  0.579811  0.580466  1
  Cd  Cd17  1  0.580323  0.580134  0.258893  1
  Cd  Cd18  1  0.580171  0.259839  0.580081  1
  Cd  Cd19  1  0.259740  0.580339  0.580439  1
  Ir  Ir20  1  0.572800  0.142531  0.142206  1
  Pt  Pt21  1  0.140326  0.143528  0.143266  1
  Pt  Pt22  1  0.140320  0.143029  0.573411  1
  Pt  Pt23  1  0.140307  0.573342  0.143012  1
