# generated using pymatgen
data_Ba2Yb3Au4
_symmetry_space_group_name_H-M   'P 1'
_cell_length_a   8.08157300
_cell_length_b   8.50623900
_cell_length_c   15.33345600
_cell_angle_alpha   90.00000000
_cell_angle_beta   90.00000000
_cell_angle_gamma   90.00000000
_symmetry_Int_Tables_number   1
_chemical_formula_structural   Ba2Yb3Au4
_chemical_formula_sum   'Ba8 Yb12 Au16'
_cell_volume   1054.07990123
_cell_formula_units_Z   4
loop_
 _symmetry_equiv_pos_site_id
 _symmetry_equiv_pos_as_xyz
  1  'x, y, z'
loop_
 _atom_site_type_symbol
 _atom_site_label
 _atom_site_symmetry_multiplicity
 _atom_site_fract_x
 _atom_site_fract_y
 _atom_site_fract_z
 _atom_site_occupancy
  Ba  Ba0  1  0.500270  0.327370  0.901671  1
  Ba  Ba1  1  0.000270  0.172630  0.598329  1
  Ba  Ba2  1  0.499730  0.672630  0.401671  1
  Ba  Ba3  1  0.999730  0.827370  0.098329  1
  Ba  Ba4  1  0.499730  0.672630  0.098329  1
  Ba  Ba5  1  0.999730  0.827370  0.401671  1
  Ba  Ba6  1  0.500270  0.327370  0.598329  1
  Ba  Ba7  1  0.000270  0.172630  0.901671  1
  Yb  Yb8  1  0.332073  0.834711  0.876913  1
  Yb  Yb9  1  0.832073  0.665289  0.623087  1
  Yb  Yb10  1  0.667927  0.165289  0.376914  1
  Yb  Yb11  1  0.167927  0.334711  0.123086  1
  Yb  Yb12  1  0.667927  0.165289  0.123086  1
  Yb  Yb13  1  0.167927  0.334711  0.376914  1
  Yb  Yb14  1  0.332073  0.834711  0.623087  1
  Yb  Yb15  1  0.832073  0.665289  0.876913  1
  Yb  Yb16  1  0.170271  0.511216  0.750000  1
  Yb  Yb17  1  0.670271  0.988784  0.750000  1
  Yb  Yb18  1  0.829729  0.488784  0.250000  1
  Yb  Yb19  1  0.329729  0.011216  0.250000  1
  Au  Au20  1  0.337723  0.045287  0.046187  1
  Au  Au21  1  0.837723  0.454713  0.453813  1
  Au  Au22  1  0.662277  0.954713  0.546187  1
  Au  Au23  1  0.162277  0.545287  0.953813  1
  Au  Au24  1  0.662277  0.954713  0.953813  1
  Au  Au25  1  0.162277  0.545287  0.546187  1
  Au  Au26  1  0.337723  0.045287  0.453813  1
  Au  Au27  1  0.837723  0.454713  0.046187  1
  Au  Au28  1  0.535863  0.643610  0.750000  1
  Au  Au29  1  0.035863  0.856390  0.750000  1
  Au  Au30  1  0.464137  0.356390  0.250000  1
  Au  Au31  1  0.964137  0.143610  0.250000  1
  Au  Au32  1  0.303151  0.112682  0.750000  1
  Au  Au33  1  0.803151  0.387318  0.750000  1
  Au  Au34  1  0.696849  0.887318  0.250000  1
  Au  Au35  1  0.196849  0.612682  0.250000  1
