# generated using pymatgen
data_HfHg3(TeCl3)2
_symmetry_space_group_name_H-M   'P 1'
_cell_length_a   7.98115400
_cell_length_b   6.87247640
_cell_length_c   13.89786954
_cell_angle_alpha   87.95961610
_cell_angle_beta   90.00000000
_cell_angle_gamma   90.00000000
_symmetry_Int_Tables_number   1
_chemical_formula_structural   HfHg3(TeCl3)2
_chemical_formula_sum   'Hf2 Hg6 Te4 Cl12'
_cell_volume   761.81889470
_cell_formula_units_Z   2
loop_
 _symmetry_equiv_pos_site_id
 _symmetry_equiv_pos_as_xyz
  1  'x, y, z'
loop_
 _atom_site_type_symbol
 _atom_site_label
 _atom_site_symmetry_multiplicity
 _atom_site_fract_x
 _atom_site_fract_y
 _atom_site_fract_z
 _atom_site_occupancy
  Hf  Hf0  1  0.000000  0.500000  0.000000  1
  Hf  Hf1  1  0.500000  0.500000  0.500000  1
  Hg  Hg2  1  0.294787  0.006456  0.738407  1
  Hg  Hg3  1  0.000000  0.000000  0.500000  1
  Hg  Hg4  1  0.794787  0.993544  0.761593  1
  Hg  Hg5  1  0.705213  0.993544  0.261593  1
  Hg  Hg6  1  0.205213  0.006456  0.238407  1
  Hg  Hg7  1  0.500000  0.000000  0.000000  1
  Te  Te8  1  0.963263  0.206606  0.330487  1
  Te  Te9  1  0.036737  0.793394  0.669513  1
  Te  Te10  1  0.536737  0.206606  0.830487  1
  Te  Te11  1  0.463263  0.793394  0.169513  1
  Cl  Cl12  1  0.146842  0.797727  0.943174  1
  Cl  Cl13  1  0.646842  0.202273  0.556826  1
  Cl  Cl14  1  0.265984  0.363928  0.063637  1
  Cl  Cl15  1  0.234016  0.363928  0.563637  1
  Cl  Cl16  1  0.549271  0.646430  0.657235  1
  Cl  Cl17  1  0.950729  0.646430  0.157235  1
  Cl  Cl18  1  0.450729  0.353570  0.342765  1
  Cl  Cl19  1  0.734016  0.636072  0.936363  1
  Cl  Cl20  1  0.353158  0.797727  0.443174  1
  Cl  Cl21  1  0.049271  0.353570  0.842765  1
  Cl  Cl22  1  0.853158  0.202273  0.056826  1
  Cl  Cl23  1  0.765984  0.636072  0.436363  1
