# generated using pymatgen
data_Tb10Nd7Er3Si16
_symmetry_space_group_name_H-M   'P 1'
_cell_length_a   7.76581669
_cell_length_b   7.77001632
_cell_length_c   14.40438399
_cell_angle_alpha   89.99004282
_cell_angle_beta   89.94077471
_cell_angle_gamma   90.07483732
_symmetry_Int_Tables_number   1
_chemical_formula_structural   Tb10Nd7Er3Si16
_chemical_formula_sum   'Tb10 Nd7 Er3 Si16'
_cell_volume   869.16683643
_cell_formula_units_Z   1
loop_
 _symmetry_equiv_pos_site_id
 _symmetry_equiv_pos_as_xyz
  1  'x, y, z'
loop_
 _atom_site_type_symbol
 _atom_site_label
 _atom_site_symmetry_multiplicity
 _atom_site_fract_x
 _atom_site_fract_y
 _atom_site_fract_z
 _atom_site_occupancy
  Tb  Tb0  1  0.490629  0.362318  0.124741  1
  Tb  Tb1  1  0.991232  0.135720  0.624560  1
  Tb  Tb2  1  0.863254  0.008963  0.874962  1
  Tb  Tb3  1  0.136136  0.992351  0.375075  1
  Tb  Tb4  1  0.511599  0.638163  0.623769  1
  Tb  Tb5  1  0.362443  0.490673  0.875373  1
  Tb  Tb6  1  0.637986  0.510429  0.375597  1
  Tb  Tb7  1  0.007953  0.862527  0.126087  1
  Tb  Tb8  1  0.636672  0.995431  0.455738  1
  Tb  Tb9  1  0.316661  0.316784  0.499836  1
  Nd  Nd10  1  0.359732  0.006943  0.957054  1
  Nd  Nd11  1  0.992560  0.641168  0.541743  1
  Nd  Nd12  1  0.491141  0.859752  0.208070  1
  Nd  Nd13  1  0.509183  0.138479  0.706740  1
  Nd  Nd14  1  0.860973  0.491277  0.792902  1
  Nd  Nd15  1  0.138468  0.508691  0.293281  1
  Nd  Nd16  1  0.007126  0.359632  0.043444  1
  Er  Er17  1  0.184786  0.815210  0.749409  1
  Er  Er18  1  0.814443  0.183673  0.250392  1
  Er  Er19  1  0.683353  0.682685  0.000310  1
  Si  Si20  1  0.293647  0.935518  0.560919  1
  Si  Si21  1  0.708262  0.064183  0.062004  1
  Si  Si22  1  0.932089  0.289486  0.437996  1
  Si  Si23  1  0.436958  0.207961  0.311226  1
  Si  Si24  1  0.565515  0.790004  0.811924  1
  Si  Si25  1  0.209387  0.435934  0.688990  1
  Si  Si26  1  0.790102  0.565440  0.188556  1
  Si  Si27  1  0.065055  0.708905  0.938535  1
  Si  Si28  1  0.799377  0.843249  0.691467  1
  Si  Si29  1  0.202622  0.154845  0.190747  1
  Si  Si30  1  0.842490  0.800516  0.311737  1
  Si  Si31  1  0.348082  0.706861  0.439027  1
  Si  Si32  1  0.655065  0.296618  0.940841  1
  Si  Si33  1  0.702655  0.342420  0.558610  1
  Si  Si34  1  0.296590  0.655116  0.059586  1
  Si  Si35  1  0.155771  0.202076  0.808749  1
