# generated using pymatgen
data_La3Co2Cu5(Ni3B)2
_symmetry_space_group_name_H-M   'P 1'
_cell_length_a   5.15975026
_cell_length_b   5.12694786
_cell_length_c   10.95374712
_cell_angle_alpha   89.98327598
_cell_angle_beta   90.02442598
_cell_angle_gamma   120.19613332
_symmetry_Int_Tables_number   1
_chemical_formula_structural   La3Co2Cu5(Ni3B)2
_chemical_formula_sum   'La3 Co2 Cu5 Ni6 B2'
_cell_volume   250.44891794
_cell_formula_units_Z   1
loop_
 _symmetry_equiv_pos_site_id
 _symmetry_equiv_pos_as_xyz
  1  'x, y, z'
loop_
 _atom_site_type_symbol
 _atom_site_label
 _atom_site_symmetry_multiplicity
 _atom_site_fract_x
 _atom_site_fract_y
 _atom_site_fract_z
 _atom_site_occupancy
  La  La0  1  0.999906  0.999960  0.001904  1
  La  La1  1  0.000054  0.000003  0.317879  1
  La  La2  1  0.999994  0.999976  0.673453  1
  Co  Co3  1  0.499994  0.500077  0.126959  1
  Co  Co4  1  0.000120  0.500120  0.127051  1
  Cu  Cu5  1  0.500295  0.000055  0.499834  1
  Cu  Cu6  1  0.329920  0.659375  0.315811  1
  Cu  Cu7  1  0.670238  0.340621  0.315881  1
  Cu  Cu8  1  0.668510  0.337085  0.684741  1
  Cu  Cu9  1  0.331487  0.662816  0.684700  1
  Ni  Ni10  1  0.500084  0.500209  0.500192  1
  Ni  Ni11  1  0.999727  0.499792  0.500342  1
  Ni  Ni12  1  0.500034  0.000120  0.130274  1
  Ni  Ni13  1  0.500074  0.000214  0.871742  1
  Ni  Ni14  1  0.499827  0.499545  0.871798  1
  Ni  Ni15  1  0.999722  0.499958  0.871784  1
  B  B16  1  0.331079  0.662717  0.002805  1
  B  B17  1  0.668838  0.337356  0.002844  1
