# generated using pymatgen
data_Hf3TcMo2P3
_symmetry_space_group_name_H-M   'P 1'
_cell_length_a   6.87509700
_cell_length_b   6.90651128
_cell_length_c   3.41118700
_cell_angle_alpha   90.00000000
_cell_angle_beta   90.00000000
_cell_angle_gamma   119.84965526
_symmetry_Int_Tables_number   1
_chemical_formula_structural   Hf3TcMo2P3
_chemical_formula_sum   'Hf3 Tc1 Mo2 P3'
_cell_volume   140.48490697
_cell_formula_units_Z   1
loop_
 _symmetry_equiv_pos_site_id
 _symmetry_equiv_pos_as_xyz
  1  'x, y, z'
loop_
 _atom_site_type_symbol
 _atom_site_label
 _atom_site_symmetry_multiplicity
 _atom_site_fract_x
 _atom_site_fract_y
 _atom_site_fract_z
 _atom_site_occupancy
  Hf  Hf0  1  0.998734  0.595345  0.500000  1
  Hf  Hf1  1  0.403389  0.404655  0.500000  1
  Hf  Hf2  1  0.596152  0.000000  0.500000  1
  Tc  Tc3  1  0.253035  0.000000  0.000000  1
  Mo  Mo4  1  0.748730  0.747764  0.000000  1
  Mo  Mo5  1  0.000967  0.252236  0.000000  1
  P  P6  1  0.666200  0.333041  0.000000  1
  P  P7  1  0.333158  0.666959  0.000000  1
  P  P8  1  0.999635  0.000000  0.500000  1
