# generated using pymatgen
data_AcLa(TcO4)6
_symmetry_space_group_name_H-M   'P 1'
_cell_length_a   9.89822600
_cell_length_b   9.89822809
_cell_length_c   6.29544000
_cell_angle_alpha   90.00000000
_cell_angle_beta   90.00000000
_cell_angle_gamma   119.99999971
_symmetry_Int_Tables_number   1
_chemical_formula_structural   AcLa(TcO4)6
_chemical_formula_sum   'Ac1 La1 Tc6 O24'
_cell_volume   534.16022329
_cell_formula_units_Z   1
loop_
 _symmetry_equiv_pos_site_id
 _symmetry_equiv_pos_as_xyz
  1  'x, y, z'
loop_
 _atom_site_type_symbol
 _atom_site_label
 _atom_site_symmetry_multiplicity
 _atom_site_fract_x
 _atom_site_fract_y
 _atom_site_fract_z
 _atom_site_occupancy
  Ac  Ac0  1  0.666667  0.333333  0.750000  1
  La  La1  1  0.333333  0.666667  0.250000  1
  Tc  Tc2  1  0.614179  0.713972  0.750000  1
  Tc  Tc3  1  0.377315  0.285649  0.250000  1
  Tc  Tc4  1  0.099793  0.385821  0.750000  1
  Tc  Tc5  1  0.908334  0.622685  0.250000  1
  Tc  Tc6  1  0.286028  0.900207  0.750000  1
  Tc  Tc7  1  0.714351  0.091666  0.250000  1
  O  O8  1  0.970527  0.457162  0.750000  1
  O  O9  1  0.036388  0.549334  0.250000  1
  O  O10  1  0.486637  0.029473  0.750000  1
  O  O11  1  0.512945  0.963612  0.250000  1
  O  O12  1  0.542838  0.513363  0.750000  1
  O  O13  1  0.450666  0.487055  0.250000  1
  O  O14  1  0.812913  0.816237  0.750000  1
  O  O15  1  0.178630  0.184475  0.250000  1
  O  O16  1  0.003325  0.187087  0.750000  1
  O  O17  1  0.005844  0.821370  0.250000  1
  O  O18  1  0.183763  0.996675  0.750000  1
  O  O19  1  0.815525  0.994156  0.250000  1
  O  O20  1  0.543114  0.762029  0.975519  1
  O  O21  1  0.447389  0.235119  0.025973  1
  O  O22  1  0.218916  0.456886  0.975519  1
  O  O23  1  0.447389  0.235119  0.474027  1
  O  O24  1  0.787731  0.552611  0.025973  1
  O  O25  1  0.543114  0.762029  0.524481  1
  O  O26  1  0.237971  0.781084  0.975519  1
  O  O27  1  0.787731  0.552611  0.474027  1
  O  O28  1  0.764881  0.212269  0.025973  1
  O  O29  1  0.218916  0.456886  0.524481  1
  O  O30  1  0.764881  0.212269  0.474027  1
  O  O31  1  0.237971  0.781084  0.524481  1
