# generated using pymatgen
data_Lu4Ga2(TcRu)3
_symmetry_space_group_name_H-M   'P 1'
_cell_length_a   5.26802944
_cell_length_b   5.26802985
_cell_length_c   8.88007700
_cell_angle_alpha   90.00000000
_cell_angle_beta   90.00000000
_cell_angle_gamma   120.18313231
_symmetry_Int_Tables_number   1
_chemical_formula_structural   Lu4Ga2(TcRu)3
_chemical_formula_sum   'Lu4 Ga2 Tc3 Ru3'
_cell_volume   213.02932503
_cell_formula_units_Z   1
loop_
 _symmetry_equiv_pos_site_id
 _symmetry_equiv_pos_as_xyz
  1  'x, y, z'
loop_
 _atom_site_type_symbol
 _atom_site_label
 _atom_site_symmetry_multiplicity
 _atom_site_fract_x
 _atom_site_fract_y
 _atom_site_fract_z
 _atom_site_occupancy
  Lu  Lu0  1  0.329800  0.670200  0.441582  1
  Lu  Lu1  1  0.666610  0.333390  0.565060  1
  Lu  Lu2  1  0.666610  0.333390  0.934940  1
  Lu  Lu3  1  0.329800  0.670200  0.058418  1
  Ga  Ga4  1  0.339412  0.164012  0.250000  1
  Ga  Ga5  1  0.835988  0.660588  0.250000  1
  Tc  Tc6  1  0.170104  0.337049  0.750000  1
  Tc  Tc7  1  0.175292  0.824708  0.750000  1
  Tc  Tc8  1  0.662951  0.829896  0.750000  1
  Ru  Ru9  1  0.996464  0.003536  0.003980  1
  Ru  Ru10  1  0.830508  0.169492  0.250000  1
  Ru  Ru11  1  0.996464  0.003536  0.496020  1
