# generated using pymatgen
data_Er3Sn3GeIrRh
_symmetry_space_group_name_H-M   'P 1'
_cell_length_a   7.37369500
_cell_length_b   7.37369532
_cell_length_c   4.13743700
_cell_angle_alpha   90.00000000
_cell_angle_beta   90.00000000
_cell_angle_gamma   119.99997614
_symmetry_Int_Tables_number   1
_chemical_formula_structural   Er3Sn3GeIrRh
_chemical_formula_sum   'Er3 Sn3 Ge1 Ir1 Rh1'
_cell_volume   194.81952868
_cell_formula_units_Z   1
loop_
 _symmetry_equiv_pos_site_id
 _symmetry_equiv_pos_as_xyz
  1  'x, y, z'
loop_
 _atom_site_type_symbol
 _atom_site_label
 _atom_site_symmetry_multiplicity
 _atom_site_fract_x
 _atom_site_fract_y
 _atom_site_fract_z
 _atom_site_occupancy
  Er  Er0  1  0.400847  0.414468  0.000000  1
  Er  Er1  1  0.013620  0.599153  0.000000  1
  Er  Er2  1  0.585532  0.986380  0.000000  1
  Sn  Sn3  1  0.742014  0.753635  0.500000  1
  Sn  Sn4  1  0.011621  0.257986  0.500000  1
  Sn  Sn5  1  0.246365  0.988379  0.500000  1
  Ge  Ge6  1  0.666667  0.333333  0.500000  1
  Ir  Ir7  1  0.333333  0.666667  0.500000  1
  Rh  Rh8  1  0.000000  0.000000  0.000000  1
