# generated using pymatgen
data_Tm2Fe3P6Ir3Ru4
_symmetry_space_group_name_H-M   'P 1'
_cell_length_a   3.84684500
_cell_length_b   10.56150600
_cell_length_c   12.28070800
_cell_angle_alpha   90.00000000
_cell_angle_beta   90.00000000
_cell_angle_gamma   90.00000000
_symmetry_Int_Tables_number   1
_chemical_formula_structural   Tm2Fe3P6Ir3Ru4
_chemical_formula_sum   'Tm4 Fe6 P12 Ir6 Ru8'
_cell_volume   498.94645698
_cell_formula_units_Z   2
loop_
 _symmetry_equiv_pos_site_id
 _symmetry_equiv_pos_as_xyz
  1  'x, y, z'
loop_
 _atom_site_type_symbol
 _atom_site_label
 _atom_site_symmetry_multiplicity
 _atom_site_fract_x
 _atom_site_fract_y
 _atom_site_fract_z
 _atom_site_occupancy
  Tm  Tm0  1  0.250000  0.579733  0.710379  1
  Tm  Tm1  1  0.250000  0.920267  0.210379  1
  Tm  Tm2  1  0.750000  0.417091  0.292473  1
  Tm  Tm3  1  0.750000  0.082909  0.792473  1
  Fe  Fe4  1  0.750000  0.120061  0.301906  1
  Fe  Fe5  1  0.750000  0.379939  0.801906  1
  Fe  Fe6  1  0.250000  0.460152  0.934797  1
  Fe  Fe7  1  0.250000  0.039848  0.434797  1
  Fe  Fe8  1  0.750000  0.538762  0.061901  1
  Fe  Fe9  1  0.750000  0.961238  0.561901  1
  P  P10  1  0.250000  0.427448  0.106206  1
  P  P11  1  0.250000  0.072552  0.606206  1
  P  P12  1  0.750000  0.564977  0.885979  1
  P  P13  1  0.750000  0.935023  0.385979  1
  P  P14  1  0.250000  0.273544  0.865689  1
  P  P15  1  0.250000  0.226456  0.365689  1
  P  P16  1  0.750000  0.733581  0.130861  1
  P  P17  1  0.750000  0.766419  0.630861  1
  P  P18  1  0.250000  0.603484  0.392613  1
  P  P19  1  0.250000  0.896516  0.892613  1
  P  P20  1  0.750000  0.401781  0.617609  1
  P  P21  1  0.750000  0.098219  0.117609  1
  Ir  Ir22  1  0.250000  0.403755  0.478934  1
  Ir  Ir23  1  0.250000  0.096245  0.978934  1
  Ir  Ir24  1  0.250000  0.228585  0.177910  1
  Ir  Ir25  1  0.250000  0.271415  0.677910  1
  Ir  Ir26  1  0.250000  0.886977  0.702001  1
  Ir  Ir27  1  0.250000  0.613023  0.202001  1
  Ru  Ru28  1  0.250000  0.706189  0.987104  1
  Ru  Ru29  1  0.250000  0.793811  0.487104  1
  Ru  Ru30  1  0.750000  0.291819  0.013490  1
  Ru  Ru31  1  0.750000  0.208181  0.513490  1
  Ru  Ru32  1  0.750000  0.592115  0.516659  1
  Ru  Ru33  1  0.750000  0.907885  0.016659  1
  Ru  Ru34  1  0.750000  0.767149  0.823489  1
  Ru  Ru35  1  0.750000  0.732851  0.323489  1
