# generated using pymatgen
data_Nd8Ho12Ga3Si13
_symmetry_space_group_name_H-M   'P 1'
_cell_length_a   7.51207904
_cell_length_b   7.81577962
_cell_length_c   14.86979912
_cell_angle_alpha   90.01808418
_cell_angle_beta   89.87395254
_cell_angle_gamma   89.90759259
_symmetry_Int_Tables_number   1
_chemical_formula_structural   Nd8Ho12Ga3Si13
_chemical_formula_sum   'Nd8 Ho12 Ga3 Si13'
_cell_volume   873.04356899
_cell_formula_units_Z   1
loop_
 _symmetry_equiv_pos_site_id
 _symmetry_equiv_pos_as_xyz
  1  'x, y, z'
loop_
 _atom_site_type_symbol
 _atom_site_label
 _atom_site_symmetry_multiplicity
 _atom_site_fract_x
 _atom_site_fract_y
 _atom_site_fract_z
 _atom_site_occupancy
  Nd  Nd0  1  0.979446  0.819069  0.100543  1
  Nd  Nd1  1  0.476525  0.678919  0.400823  1
  Nd  Nd2  1  0.520564  0.319675  0.900133  1
  Nd  Nd3  1  0.022634  0.182420  0.598839  1
  Nd  Nd4  1  0.024151  0.178140  0.899371  1
  Nd  Nd5  1  0.526121  0.320338  0.599334  1
  Nd  Nd6  1  0.475650  0.678079  0.100949  1
  Nd  Nd7  1  0.975744  0.819599  0.400104  1
  Ho  Ho8  1  0.650968  0.991495  0.252206  1
  Ho  Ho9  1  0.151393  0.508727  0.249451  1
  Ho  Ho10  1  0.848289  0.491374  0.748549  1
  Ho  Ho11  1  0.347746  0.009336  0.751373  1
  Ho  Ho12  1  0.679154  0.824057  0.874971  1
  Ho  Ho13  1  0.179846  0.675761  0.623789  1
  Ho  Ho14  1  0.821016  0.324613  0.125372  1
  Ho  Ho15  1  0.318446  0.178542  0.376529  1
  Ho  Ho16  1  0.320050  0.175993  0.123662  1
  Ho  Ho17  1  0.820334  0.323057  0.376442  1
  Ho  Ho18  1  0.180264  0.675688  0.876838  1
  Ho  Ho19  1  0.681877  0.823856  0.622378  1
  Ga  Ga20  1  0.847834  0.534425  0.960402  1
  Ga  Ga21  1  0.348293  0.964982  0.538964  1
  Ga  Ga22  1  0.652673  0.034953  0.039823  1
  Si  Si23  1  0.769682  0.622729  0.250645  1
  Si  Si24  1  0.270987  0.877573  0.250965  1
  Si  Si25  1  0.730412  0.122106  0.749593  1
  Si  Si26  1  0.230432  0.378382  0.748819  1
  Si  Si27  1  0.024388  0.112013  0.250193  1
  Si  Si28  1  0.523423  0.386483  0.251456  1
  Si  Si29  1  0.476202  0.612660  0.750002  1
  Si  Si30  1  0.975947  0.887336  0.748639  1
  Si  Si31  1  0.145636  0.468536  0.460270  1
  Si  Si32  1  0.148671  0.466375  0.040122  1
  Si  Si33  1  0.648632  0.033623  0.459739  1
  Si  Si34  1  0.351548  0.966028  0.960444  1
  Si  Si35  1  0.855021  0.533059  0.538267  1
