# generated using pymatgen
data_PrNd11(GeBr3)4
_symmetry_space_group_name_H-M   'P 1'
_cell_length_a   10.47692971
_cell_length_b   10.47760989
_cell_length_c   10.47727906
_cell_angle_alpha   109.46667207
_cell_angle_beta   109.46401859
_cell_angle_gamma   109.48298536
_symmetry_Int_Tables_number   1
_chemical_formula_structural   PrNd11(GeBr3)4
_chemical_formula_sum   'Pr1 Nd11 Ge4 Br12'
_cell_volume   885.36589556
_cell_formula_units_Z   1
loop_
 _symmetry_equiv_pos_site_id
 _symmetry_equiv_pos_as_xyz
  1  'x, y, z'
loop_
 _atom_site_type_symbol
 _atom_site_label
 _atom_site_symmetry_multiplicity
 _atom_site_fract_x
 _atom_site_fract_y
 _atom_site_fract_z
 _atom_site_occupancy
  Pr  Pr0  1  0.260435  0.010435  0.020870  1
  Nd  Nd1  1  0.021709  0.260879  0.010884  1
  Nd  Nd2  1  0.489176  0.750006  0.010884  1
  Nd  Nd3  1  0.750004  0.239161  0.260865  1
  Nd  Nd4  1  0.010861  0.021705  0.260866  1
  Nd  Nd5  1  0.010865  0.489152  0.750011  1
  Nd  Nd6  1  0.239147  0.260860  0.750012  1
  Nd  Nd7  1  0.260870  0.749997  0.239172  1
  Nd  Nd8  1  0.239163  0.478388  0.489225  1
  Nd  Nd9  1  0.478301  0.489175  0.239173  1
  Nd  Nd10  1  0.750062  0.010836  0.489225  1
  Nd  Nd11  1  0.489193  0.239193  0.478384  1
  Ge  Ge12  1  0.000009  0.250009  0.500017  1
  Ge  Ge13  1  0.249998  0.499998  0.999996  1
  Ge  Ge14  1  0.500515  0.999992  0.250523  1
  Ge  Ge15  1  0.250008  0.250531  0.250522  1
  Br  Br16  1  0.753669  0.746350  0.250008  1
  Br  Br17  1  0.504123  0.250466  0.996363  1
  Br  Br18  1  0.249993  0.996341  0.503676  1
  Br  Br19  1  0.507317  0.503664  0.753665  1
  Br  Br20  1  0.995947  0.992686  0.745967  1
  Br  Br21  1  0.746341  0.996340  0.992685  1
  Br  Br22  1  0.503664  0.753664  0.507327  1
  Br  Br23  1  0.753682  0.507334  0.503676  1
  Br  Br24  1  0.996339  0.503658  0.250008  1
  Br  Br25  1  0.992241  0.745898  0.996364  1
  Br  Br26  1  0.250019  0.753281  0.745966  1
  Br  Br27  1  0.746347  0.250001  0.753665  1
