# generated using pymatgen
data_Nd7Dy13Sn16
_symmetry_space_group_name_H-M   'P 1'
_cell_length_a   8.11940220
_cell_length_b   8.28309886
_cell_length_c   15.65002369
_cell_angle_alpha   89.97780722
_cell_angle_beta   90.22615054
_cell_angle_gamma   89.69782758
_symmetry_Int_Tables_number   1
_chemical_formula_structural   Nd7Dy13Sn16
_chemical_formula_sum   'Nd7 Dy13 Sn16'
_cell_volume   1052.50081325
_cell_formula_units_Z   1
loop_
 _symmetry_equiv_pos_site_id
 _symmetry_equiv_pos_as_xyz
  1  'x, y, z'
loop_
 _atom_site_type_symbol
 _atom_site_label
 _atom_site_symmetry_multiplicity
 _atom_site_fract_x
 _atom_site_fract_y
 _atom_site_fract_z
 _atom_site_occupancy
  Nd  Nd0  1  0.015788  0.179817  0.096004  1
  Nd  Nd1  1  0.982388  0.817835  0.901780  1
  Nd  Nd2  1  0.634184  0.164240  0.878919  1
  Nd  Nd3  1  0.518191  0.320729  0.098162  1
  Nd  Nd4  1  0.367669  0.835466  0.380754  1
  Nd  Nd5  1  0.982672  0.819598  0.597730  1
  Nd  Nd6  1  0.518447  0.320513  0.402869  1
  Dy  Dy7  1  0.020522  0.180494  0.402156  1
  Dy  Dy8  1  0.365517  0.837299  0.121706  1
  Dy  Dy9  1  0.132105  0.338038  0.622678  1
  Dy  Dy10  1  0.480217  0.678586  0.901695  1
  Dy  Dy11  1  0.867551  0.661762  0.123116  1
  Dy  Dy12  1  0.135929  0.337471  0.877001  1
  Dy  Dy13  1  0.198602  0.503035  0.249843  1
  Dy  Dy14  1  0.699305  0.997352  0.251186  1
  Dy  Dy15  1  0.479644  0.677944  0.598715  1
  Dy  Dy16  1  0.301354  0.002850  0.750070  1
  Dy  Dy17  1  0.633441  0.161788  0.621897  1
  Dy  Dy18  1  0.801029  0.497889  0.748951  1
  Dy  Dy19  1  0.865604  0.663252  0.377780  1
  Sn  Sn20  1  0.793393  0.463065  0.542622  1
  Sn  Sn21  1  0.713671  0.966145  0.457686  1
  Sn  Sn22  1  0.668315  0.851214  0.748817  1
  Sn  Sn23  1  0.200094  0.534130  0.459360  1
  Sn  Sn24  1  0.292977  0.035537  0.957828  1
  Sn  Sn25  1  0.829384  0.354841  0.251665  1
  Sn  Sn26  1  0.797722  0.468127  0.957281  1
  Sn  Sn27  1  0.566589  0.619730  0.248742  1
  Sn  Sn28  1  0.205487  0.541750  0.039922  1
  Sn  Sn29  1  0.434426  0.382061  0.748271  1
  Sn  Sn30  1  0.177226  0.643749  0.749632  1
  Sn  Sn31  1  0.936502  0.122247  0.748270  1
  Sn  Sn32  1  0.295171  0.041979  0.543966  1
  Sn  Sn33  1  0.701463  0.956620  0.044283  1
  Sn  Sn34  1  0.323562  0.144521  0.249769  1
  Sn  Sn35  1  0.063860  0.878324  0.248872  1
