# generated using pymatgen
data_NdHo6Sn23Rh6
_symmetry_space_group_name_H-M   'P 1'
_cell_length_a   9.86115000
_cell_length_b   9.86114864
_cell_length_c   10.11124900
_cell_angle_alpha   90.00000000
_cell_angle_beta   90.00000000
_cell_angle_gamma   119.99999113
_symmetry_Int_Tables_number   1
_chemical_formula_structural   NdHo6Sn23Rh6
_chemical_formula_sum   'Nd1 Ho6 Sn23 Rh6'
_cell_volume   851.51155612
_cell_formula_units_Z   1
loop_
 _symmetry_equiv_pos_site_id
 _symmetry_equiv_pos_as_xyz
  1  'x, y, z'
loop_
 _atom_site_type_symbol
 _atom_site_label
 _atom_site_symmetry_multiplicity
 _atom_site_fract_x
 _atom_site_fract_y
 _atom_site_fract_z
 _atom_site_occupancy
  Nd  Nd0  1  0.000000  0.000000  0.000000  1
  Ho  Ho1  1  0.520398  0.479602  0.692219  1
  Ho  Ho2  1  0.520398  0.040796  0.692219  1
  Ho  Ho3  1  0.959204  0.479602  0.692219  1
  Ho  Ho4  1  0.040796  0.520398  0.307781  1
  Ho  Ho5  1  0.479602  0.959204  0.307781  1
  Ho  Ho6  1  0.479602  0.520398  0.307781  1
  Sn  Sn7  1  0.666667  0.333333  0.179280  1
  Sn  Sn8  1  0.666667  0.333333  0.877002  1
  Sn  Sn9  1  0.333333  0.666667  0.122998  1
  Sn  Sn10  1  0.351767  0.351767  0.000000  1
  Sn  Sn11  1  0.000000  0.648233  0.000000  1
  Sn  Sn12  1  0.648233  0.000000  0.000000  1
  Sn  Sn13  1  0.648233  0.648233  0.000000  1
  Sn  Sn14  1  0.333333  0.666667  0.820720  1
  Sn  Sn15  1  0.444448  0.222225  0.455618  1
  Sn  Sn16  1  0.222225  0.777775  0.544382  1
  Sn  Sn17  1  0.222225  0.444448  0.544382  1
  Sn  Sn18  1  0.555552  0.777775  0.544382  1
  Sn  Sn19  1  0.119915  0.880085  0.282133  1
  Sn  Sn20  1  0.777775  0.555552  0.455618  1
  Sn  Sn21  1  0.777775  0.222225  0.455618  1
  Sn  Sn22  1  0.351767  0.000000  0.000000  1
  Sn  Sn23  1  0.119915  0.239829  0.282133  1
  Sn  Sn24  1  0.760171  0.880085  0.282133  1
  Sn  Sn25  1  0.239829  0.119915  0.717867  1
  Sn  Sn26  1  0.880085  0.760171  0.717867  1
  Sn  Sn27  1  0.880085  0.119915  0.717867  1
  Sn  Sn28  1  0.000000  0.000000  0.500000  1
  Sn  Sn29  1  0.000000  0.351767  0.000000  1
  Rh  Rh30  1  0.168999  0.831001  0.801179  1
  Rh  Rh31  1  0.168999  0.337997  0.801179  1
  Rh  Rh32  1  0.662003  0.831001  0.801179  1
  Rh  Rh33  1  0.337997  0.168999  0.198821  1
  Rh  Rh34  1  0.831001  0.662003  0.198821  1
  Rh  Rh35  1  0.831001  0.168999  0.198821  1
