# generated using pymatgen
data_Ho8Lu4Ni4SnRu
_symmetry_space_group_name_H-M   'P 1'
_cell_length_a   8.21710529
_cell_length_b   8.21710505
_cell_length_c   8.21710568
_cell_angle_alpha   111.57031666
_cell_angle_beta   110.26296598
_cell_angle_gamma   106.62030444
_symmetry_Int_Tables_number   1
_chemical_formula_structural   Ho8Lu4Ni4SnRu
_chemical_formula_sum   'Ho8 Lu4 Ni4 Sn1 Ru1'
_cell_volume   426.25833334
_cell_formula_units_Z   1
loop_
 _symmetry_equiv_pos_site_id
 _symmetry_equiv_pos_as_xyz
  1  'x, y, z'
loop_
 _atom_site_type_symbol
 _atom_site_label
 _atom_site_symmetry_multiplicity
 _atom_site_fract_x
 _atom_site_fract_y
 _atom_site_fract_z
 _atom_site_occupancy
  Ho  Ho0  1  0.182192  0.287758  0.469950  1
  Ho  Ho1  1  0.817808  0.712242  0.530050  1
  Ho  Ho2  1  0.182192  0.712242  0.894434  1
  Ho  Ho3  1  0.817808  0.287758  0.105566  1
  Ho  Ho4  1  0.319504  0.625111  0.305607  1
  Ho  Ho5  1  0.680496  0.374889  0.694393  1
  Ho  Ho6  1  0.319504  0.013897  0.694393  1
  Ho  Ho7  1  0.680496  0.986103  0.305607  1
  Lu  Lu8  1  0.405584  0.216293  0.189290  1
  Lu  Lu9  1  0.594416  0.783707  0.810710  1
  Lu  Lu10  1  0.027002  0.216293  0.810710  1
  Lu  Lu11  1  0.972998  0.783707  0.189290  1
  Ni  Ni12  1  0.359281  0.000000  0.359281  1
  Ni  Ni13  1  0.640719  0.000000  0.640719  1
  Ni  Ni14  1  0.123295  0.623295  0.500000  1
  Ni  Ni15  1  0.876705  0.376705  0.500000  1
  Sn  Sn16  1  0.500000  0.500000  0.000000  1
  Ru  Ru17  1  0.000000  0.000000  0.000000  1
