# generated using pymatgen
data_TbTm3Th6(Ge3C)2
_symmetry_space_group_name_H-M   'P 1'
_cell_length_a   8.79281400
_cell_length_b   8.79279508
_cell_length_c   6.39866700
_cell_angle_alpha   90.00004386
_cell_angle_beta   90.00004233
_cell_angle_gamma   119.99900186
_symmetry_Int_Tables_number   1
_chemical_formula_structural   TbTm3Th6(Ge3C)2
_chemical_formula_sum   'Tb1 Tm3 Th6 Ge6 C2'
_cell_volume   428.42948044
_cell_formula_units_Z   1
loop_
 _symmetry_equiv_pos_site_id
 _symmetry_equiv_pos_as_xyz
  1  'x, y, z'
loop_
 _atom_site_type_symbol
 _atom_site_label
 _atom_site_symmetry_multiplicity
 _atom_site_fract_x
 _atom_site_fract_y
 _atom_site_fract_z
 _atom_site_occupancy
  Tb  Tb0  1  0.666665  0.333322  0.499999  1
  Tm  Tm1  1  0.333326  0.666683  0.499998  1
  Tm  Tm2  1  0.333317  0.666677  0.999999  1
  Tm  Tm3  1  0.666682  0.333320  0.999998  1
  Th  Th4  1  0.768136  0.768274  0.249772  1
  Th  Th5  1  0.231745  0.999828  0.249774  1
  Th  Th6  1  0.000094  0.231901  0.249778  1
  Th  Th7  1  0.231751  0.231890  0.750226  1
  Th  Th8  1  0.768118  0.999915  0.750227  1
  Th  Th9  1  0.000183  0.768270  0.750223  1
  Ge  Ge10  1  0.402718  0.404526  0.248375  1
  Ge  Ge11  1  0.595454  0.998178  0.248364  1
  Ge  Ge12  1  0.001812  0.597258  0.248395  1
  Ge  Ge13  1  0.595470  0.597273  0.751621  1
  Ge  Ge14  1  0.402726  0.998166  0.751634  1
  Ge  Ge15  1  0.001803  0.404535  0.751620  1
  C  C16  1  0.999997  0.999987  0.499997  1
  C  C17  1  0.000001  0.999993  0.999998  1
