# generated using pymatgen
data_Tb2Ce(CdAu)3
_symmetry_space_group_name_H-M   'P 1'
_cell_length_a   7.88831000
_cell_length_b   7.96382353
_cell_length_c   3.88745200
_cell_angle_alpha   90.00000000
_cell_angle_beta   90.00000000
_cell_angle_gamma   119.68682824
_symmetry_Int_Tables_number   1
_chemical_formula_structural   Tb2Ce(CdAu)3
_chemical_formula_sum   'Tb2 Ce1 Cd3 Au3'
_cell_volume   212.15982643
_cell_formula_units_Z   1
loop_
 _symmetry_equiv_pos_site_id
 _symmetry_equiv_pos_as_xyz
  1  'x, y, z'
loop_
 _atom_site_type_symbol
 _atom_site_label
 _atom_site_symmetry_multiplicity
 _atom_site_fract_x
 _atom_site_fract_y
 _atom_site_fract_z
 _atom_site_occupancy
  Tb  Tb0  1  0.000804  0.596966  0.000000  1
  Tb  Tb1  1  0.403839  0.403034  0.000000  1
  Ce  Ce2  1  0.596068  0.000000  0.000000  1
  Cd  Cd3  1  0.262396  0.000000  0.500000  1
  Cd  Cd4  1  0.001801  0.266059  0.500000  1
  Cd  Cd5  1  0.735742  0.733941  0.500000  1
  Au  Au6  1  0.331539  0.664703  0.500000  1
  Au  Au7  1  0.666838  0.335297  0.500000  1
  Au  Au8  1  0.000972  0.000000  0.000000  1
