# generated using pymatgen
data_Sc3Pa3TiPt21
_symmetry_space_group_name_H-M   'P 1'
_cell_length_a   5.76214700
_cell_length_b   5.76214616
_cell_length_c   16.57602400
_cell_angle_alpha   90.00000000
_cell_angle_beta   90.00000000
_cell_angle_gamma   119.99999909
_symmetry_Int_Tables_number   1
_chemical_formula_structural   Sc3Pa3TiPt21
_chemical_formula_sum   'Sc3 Pa3 Ti1 Pt21'
_cell_volume   476.62805967
_cell_formula_units_Z   1
loop_
 _symmetry_equiv_pos_site_id
 _symmetry_equiv_pos_as_xyz
  1  'x, y, z'
loop_
 _atom_site_type_symbol
 _atom_site_label
 _atom_site_symmetry_multiplicity
 _atom_site_fract_x
 _atom_site_fract_y
 _atom_site_fract_z
 _atom_site_occupancy
  Sc  Sc0  1  0.000000  0.000000  0.719253  1
  Sc  Sc1  1  0.666667  0.333333  0.853163  1
  Sc  Sc2  1  0.333333  0.666667  0.139930  1
  Pa  Pa3  1  0.000000  0.000000  0.282719  1
  Pa  Pa4  1  0.666667  0.333333  0.435272  1
  Pa  Pa5  1  0.000000  0.000000  0.993796  1
  Ti  Ti6  1  0.333333  0.666667  0.582544  1
  Pt  Pt7  1  0.834410  0.668821  0.573703  1
  Pt  Pt8  1  0.331179  0.165590  0.573703  1
  Pt  Pt9  1  0.171222  0.342445  0.853552  1
  Pt  Pt10  1  0.167377  0.334754  0.432706  1
  Pt  Pt11  1  0.167377  0.832623  0.432706  1
  Pt  Pt12  1  0.498643  0.997285  0.710274  1
  Pt  Pt13  1  0.665246  0.832623  0.432706  1
  Pt  Pt14  1  0.171222  0.828778  0.853552  1
  Pt  Pt15  1  0.657555  0.828778  0.853552  1
  Pt  Pt16  1  0.830005  0.169995  0.141714  1
  Pt  Pt17  1  0.834410  0.165590  0.573703  1
  Pt  Pt18  1  0.498643  0.501357  0.710274  1
  Pt  Pt19  1  0.339990  0.169995  0.141714  1
  Pt  Pt20  1  0.830005  0.660010  0.141714  1
  Pt  Pt21  1  0.499819  0.500181  0.287395  1
  Pt  Pt22  1  0.499819  0.999640  0.287395  1
  Pt  Pt23  1  0.499730  0.999460  0.998430  1
  Pt  Pt24  1  0.000360  0.500181  0.287395  1
  Pt  Pt25  1  0.002715  0.501357  0.710274  1
  Pt  Pt26  1  0.499730  0.500270  0.998430  1
  Pt  Pt27  1  0.000540  0.500270  0.998430  1
