# generated using pymatgen
data_Y7CuI12
_symmetry_space_group_name_H-M   'P 1'
_cell_length_a   9.72029780
_cell_length_b   9.72029769
_cell_length_c   9.72029733
_cell_angle_alpha   107.67897825
_cell_angle_beta   107.67898090
_cell_angle_gamma   107.67897824
_symmetry_Int_Tables_number   1
_chemical_formula_structural   Y7CuI12
_chemical_formula_sum   'Y7 Cu1 I12'
_cell_volume   750.24694284
_cell_formula_units_Z   1
loop_
 _symmetry_equiv_pos_site_id
 _symmetry_equiv_pos_as_xyz
  1  'x, y, z'
loop_
 _atom_site_type_symbol
 _atom_site_label
 _atom_site_symmetry_multiplicity
 _atom_site_fract_x
 _atom_site_fract_y
 _atom_site_fract_z
 _atom_site_occupancy
  Y  Y0  1  0.693239  0.964192  0.895028  1
  Y  Y1  1  0.964192  0.895028  0.693239  1
  Y  Y2  1  0.500000  0.500000  0.500000  1
  Y  Y3  1  0.104972  0.306761  0.035808  1
  Y  Y4  1  0.306761  0.035808  0.104972  1
  Y  Y5  1  0.895028  0.693239  0.964192  1
  Y  Y6  1  0.035808  0.104972  0.306761  1
  Cu  Cu7  1  0.000000  0.000000  0.000000  1
  I  I8  1  0.075487  0.225640  0.681628  1
  I  I9  1  0.392237  0.155967  0.472242  1
  I  I10  1  0.607763  0.844033  0.527758  1
  I  I11  1  0.225640  0.681628  0.075487  1
  I  I12  1  0.774360  0.318372  0.924513  1
  I  I13  1  0.681628  0.075487  0.225640  1
  I  I14  1  0.527758  0.607763  0.844033  1
  I  I15  1  0.844033  0.527758  0.607763  1
  I  I16  1  0.924513  0.774360  0.318372  1
  I  I17  1  0.318372  0.924513  0.774360  1
  I  I18  1  0.472242  0.392237  0.155967  1
  I  I19  1  0.155967  0.472242  0.392237  1
