# generated using pymatgen
data_CsRb3Se24
_symmetry_space_group_name_H-M   'P 1'
_cell_length_a   11.46083818
_cell_length_b   11.46083912
_cell_length_c   11.55719328
_cell_angle_alpha   126.96228573
_cell_angle_beta   121.49240940
_cell_angle_gamma   82.34996006
_symmetry_Int_Tables_number   1
_chemical_formula_structural   CsRb3Se24
_chemical_formula_sum   'Cs1 Rb3 Se24'
_cell_volume   997.15186428
_cell_formula_units_Z   1
loop_
 _symmetry_equiv_pos_site_id
 _symmetry_equiv_pos_as_xyz
  1  'x, y, z'
loop_
 _atom_site_type_symbol
 _atom_site_label
 _atom_site_symmetry_multiplicity
 _atom_site_fract_x
 _atom_site_fract_y
 _atom_site_fract_z
 _atom_site_occupancy
  Cs  Cs0  1  0.500000  0.500000  0.000000  1
  Rb  Rb1  1  0.000000  0.000000  0.000000  1
  Rb  Rb2  1  0.748811  0.248811  0.500000  1
  Rb  Rb3  1  0.251189  0.751189  0.500000  1
  Se  Se4  1  0.646111  0.750555  0.897198  1
  Se  Se5  1  0.853357  0.748913  0.102802  1
  Se  Se6  1  0.353889  0.249445  0.102802  1
  Se  Se7  1  0.146643  0.251087  0.897198  1
  Se  Se8  1  0.237092  0.137909  0.680818  1
  Se  Se9  1  0.259435  0.945564  0.903145  1
  Se  Se10  1  0.042418  0.356290  0.096855  1
  Se  Se11  1  0.457090  0.556274  0.319182  1
  Se  Se12  1  0.762908  0.862091  0.319182  1
  Se  Se13  1  0.740565  0.054436  0.096855  1
  Se  Se14  1  0.957582  0.643710  0.903145  1
  Se  Se15  1  0.542910  0.443726  0.680818  1
  Se  Se16  1  0.920971  0.820569  0.518665  1
  Se  Se17  1  0.579931  0.100428  0.902093  1
  Se  Se18  1  0.198336  0.677838  0.097907  1
  Se  Se19  1  0.301903  0.402305  0.481335  1
  Se  Se20  1  0.079029  0.179431  0.481335  1
  Se  Se21  1  0.420069  0.899572  0.097907  1
  Se  Se22  1  0.801665  0.322162  0.902093  1
  Se  Se23  1  0.698097  0.597695  0.518665  1
  Se  Se24  1  0.672253  0.073795  0.746047  1
  Se  Se25  1  0.831243  0.572816  0.404059  1
  Se  Se26  1  0.168757  0.427184  0.595941  1
  Se  Se27  1  0.327747  0.926205  0.253953  1
