# generated using pymatgen
data_TbNd2Cu5(Ni4B)2
_symmetry_space_group_name_H-M   'P 1'
_cell_length_a   5.07110001
_cell_length_b   5.07110127
_cell_length_c   10.91126300
_cell_angle_alpha   90.00000000
_cell_angle_beta   90.00000000
_cell_angle_gamma   119.88242490
_symmetry_Int_Tables_number   1
_chemical_formula_structural   TbNd2Cu5(Ni4B)2
_chemical_formula_sum   'Tb1 Nd2 Cu5 Ni8 B2'
_cell_volume   243.28953764
_cell_formula_units_Z   1
loop_
 _symmetry_equiv_pos_site_id
 _symmetry_equiv_pos_as_xyz
  1  'x, y, z'
loop_
 _atom_site_type_symbol
 _atom_site_label
 _atom_site_symmetry_multiplicity
 _atom_site_fract_x
 _atom_site_fract_y
 _atom_site_fract_z
 _atom_site_occupancy
  Tb  Tb0  1  0.000000  0.000000  0.000000  1
  Nd  Nd1  1  0.000000  0.000000  0.673411  1
  Nd  Nd2  1  0.000000  0.000000  0.326589  1
  Cu  Cu3  1  0.500000  0.500000  0.500000  1
  Cu  Cu4  1  0.331775  0.668225  0.316007  1
  Cu  Cu5  1  0.668225  0.331775  0.316007  1
  Cu  Cu6  1  0.668225  0.331775  0.683993  1
  Cu  Cu7  1  0.331775  0.668225  0.683993  1
  Ni  Ni8  1  0.000000  0.500000  0.871782  1
  Ni  Ni9  1  0.500000  0.000000  0.500000  1
  Ni  Ni10  1  0.000000  0.500000  0.500000  1
  Ni  Ni11  1  0.500000  0.000000  0.128218  1
  Ni  Ni12  1  0.500000  0.500000  0.128420  1
  Ni  Ni13  1  0.000000  0.500000  0.128218  1
  Ni  Ni14  1  0.500000  0.000000  0.871782  1
  Ni  Ni15  1  0.500000  0.500000  0.871580  1
  B  B16  1  0.666359  0.333641  0.000000  1
  B  B17  1  0.333641  0.666359  0.000000  1
