# generated using pymatgen
data_Rb3BaZr6GaI18
_symmetry_space_group_name_H-M   'P 1'
_cell_length_a   11.48359988
_cell_length_b   11.48858267
_cell_length_c   11.25742200
_cell_angle_alpha   77.28914792
_cell_angle_beta   77.63269547
_cell_angle_gamma   117.45067288
_symmetry_Int_Tables_number   1
_chemical_formula_structural   Rb3BaZr6GaI18
_chemical_formula_sum   'Rb3 Ba1 Zr6 Ga1 I18'
_cell_volume   1197.18009404
_cell_formula_units_Z   1
loop_
 _symmetry_equiv_pos_site_id
 _symmetry_equiv_pos_as_xyz
  1  'x, y, z'
loop_
 _atom_site_type_symbol
 _atom_site_label
 _atom_site_symmetry_multiplicity
 _atom_site_fract_x
 _atom_site_fract_y
 _atom_site_fract_z
 _atom_site_occupancy
  Rb  Rb0  1  0.560775  0.234951  0.314603  1
  Rb  Rb1  1  0.239616  0.564551  0.308870  1
  Rb  Rb2  1  0.441382  0.763673  0.682810  1
  Ba  Ba3  1  0.760684  0.428294  0.690913  1
  Zr  Zr4  1  0.126515  0.129754  0.140449  1
  Zr  Zr5  1  0.877361  0.872091  0.859935  1
  Zr  Zr6  1  0.951112  0.764890  0.152324  1
  Zr  Zr7  1  0.237558  0.053540  0.850928  1
  Zr  Zr8  1  0.047755  0.235900  0.848000  1
  Zr  Zr9  1  0.759603  0.947134  0.148942  1
  Ga  Ga10  1  0.999477  0.000986  0.001448  1
  I  I11  1  0.806997  0.589070  0.012552  1
  I  I12  1  0.414336  0.206522  0.986133  1
  I  I13  1  0.193693  0.410747  0.986930  1
  I  I14  1  0.592409  0.799144  0.006054  1
  I  I15  1  0.212854  0.793168  0.002654  1
  I  I16  1  0.784644  0.208843  0.994655  1
  I  I17  1  0.323747  0.327896  0.664597  1
  I  I18  1  0.674970  0.674741  0.332765  1
  I  I19  1  0.884183  0.481605  0.352153  1
  I  I20  1  0.524791  0.116930  0.670566  1
  I  I21  1  0.097774  0.518275  0.666133  1
  I  I22  1  0.480994  0.888185  0.331877  1
  I  I23  1  0.272738  0.274481  0.305174  1
  I  I24  1  0.728538  0.710441  0.694648  1
  I  I25  1  0.087867  0.880080  0.323123  1
  I  I26  1  0.129939  0.918165  0.676267  1
  I  I27  1  0.914746  0.120492  0.673803  1
  I  I28  1  0.872945  0.085454  0.320694  1
