# generated using pymatgen
data_Y12Co6Sn
_symmetry_space_group_name_H-M   'P 1'
_cell_length_a   8.40507223
_cell_length_b   8.40507298
_cell_length_c   8.40507300
_cell_angle_alpha   109.47122069
_cell_angle_beta   109.47122250
_cell_angle_gamma   109.47122378
_symmetry_Int_Tables_number   1
_chemical_formula_structural   Y12Co6Sn
_chemical_formula_sum   'Y12 Co6 Sn1'
_cell_volume   457.09083171
_cell_formula_units_Z   1
loop_
 _symmetry_equiv_pos_site_id
 _symmetry_equiv_pos_as_xyz
  1  'x, y, z'
loop_
 _atom_site_type_symbol
 _atom_site_label
 _atom_site_symmetry_multiplicity
 _atom_site_fract_x
 _atom_site_fract_y
 _atom_site_fract_z
 _atom_site_occupancy
  Y  Y0  1  0.806117  0.303193  0.109309  1
  Y  Y1  1  0.303193  0.497077  0.193884  1
  Y  Y2  1  0.696807  0.890691  0.193884  1
  Y  Y3  1  0.497077  0.193884  0.303193  1
  Y  Y4  1  0.109309  0.806117  0.303193  1
  Y  Y5  1  0.193884  0.303193  0.497077  1
  Y  Y6  1  0.806117  0.696807  0.502923  1
  Y  Y7  1  0.890691  0.193884  0.696807  1
  Y  Y8  1  0.502923  0.806117  0.696807  1
  Y  Y9  1  0.303193  0.109309  0.806117  1
  Y  Y10  1  0.696807  0.502923  0.806117  1
  Y  Y11  1  0.193884  0.696807  0.890691  1
  Co  Co12  1  0.612359  0.500000  0.112359  1
  Co  Co13  1  0.500000  0.887642  0.387642  1
  Co  Co14  1  0.887642  0.387642  0.500000  1
  Co  Co15  1  0.112359  0.612359  0.500000  1
  Co  Co16  1  0.500000  0.112359  0.612359  1
  Co  Co17  1  0.387642  0.500000  0.887642  1
  Sn  Sn18  1  0.000000  0.000000  0.000000  1
