# generated using pymatgen
data_Tm5Tc2
_symmetry_space_group_name_H-M   'P 1'
_cell_length_a   6.04239730
_cell_length_b   7.48264585
_cell_length_c   8.34661091
_cell_angle_alpha   97.12183311
_cell_angle_beta   111.22105787
_cell_angle_gamma   90.00000282
_symmetry_Int_Tables_number   1
_chemical_formula_structural   Tm5Tc2
_chemical_formula_sum   'Tm10 Tc4'
_cell_volume   348.66156773
_cell_formula_units_Z   2
loop_
 _symmetry_equiv_pos_site_id
 _symmetry_equiv_pos_as_xyz
  1  'x, y, z'
loop_
 _atom_site_type_symbol
 _atom_site_label
 _atom_site_symmetry_multiplicity
 _atom_site_fract_x
 _atom_site_fract_y
 _atom_site_fract_z
 _atom_site_occupancy
  Tm  Tm0  1  0.786794  0.081719  0.818566  1
  Tm  Tm1  1  0.968228  0.418281  0.181434  1
  Tm  Tm2  1  0.213206  0.918281  0.181434  1
  Tm  Tm3  1  0.031772  0.581719  0.818566  1
  Tm  Tm4  1  0.193422  0.180693  0.566459  1
  Tm  Tm5  1  0.626963  0.319307  0.433541  1
  Tm  Tm6  1  0.806578  0.819307  0.433541  1
  Tm  Tm7  1  0.373037  0.680693  0.566459  1
  Tm  Tm8  1  0.400693  0.250000  0.000000  1
  Tm  Tm9  1  0.599307  0.750000  0.000000  1
  Tc  Tc10  1  0.590350  0.421926  0.781666  1
  Tc  Tc11  1  0.808683  0.078074  0.218334  1
  Tc  Tc12  1  0.409650  0.578074  0.218334  1
  Tc  Tc13  1  0.191317  0.921926  0.781666  1
