# generated using pymatgen
data_Er2Ir3W
_symmetry_space_group_name_H-M   'P 1'
_cell_length_a   5.21943960
_cell_length_b   5.56671791
_cell_length_c   5.56671800
_cell_angle_alpha   59.99999946
_cell_angle_beta   57.77348701
_cell_angle_gamma   57.77348641
_symmetry_Int_Tables_number   1
_chemical_formula_structural   Er2Ir3W
_chemical_formula_sum   'Er2 Ir3 W1'
_cell_volume   110.36736449
_cell_formula_units_Z   1
loop_
 _symmetry_equiv_pos_site_id
 _symmetry_equiv_pos_as_xyz
  1  'x, y, z'
loop_
 _atom_site_type_symbol
 _atom_site_label
 _atom_site_symmetry_multiplicity
 _atom_site_fract_x
 _atom_site_fract_y
 _atom_site_fract_z
 _atom_site_occupancy
  Er  Er0  1  0.244696  0.251768  0.251768  1
  Er  Er1  1  0.005304  0.998232  0.998232  1
  Ir  Ir2  1  0.625000  0.125000  0.625000  1
  Ir  Ir3  1  0.625000  0.625000  0.125000  1
  Ir  Ir4  1  0.625000  0.625000  0.625000  1
  W  W5  1  0.125000  0.625000  0.625000  1
