# generated using pymatgen
data_Dy13Tm3Zn3InRh4
_symmetry_space_group_name_H-M   'P 1'
_cell_length_a   9.50472625
_cell_length_b   9.50472575
_cell_length_c   9.50024204
_cell_angle_alpha   59.92951235
_cell_angle_beta   59.92951524
_cell_angle_gamma   59.97695521
_symmetry_Int_Tables_number   1
_chemical_formula_structural   Dy13Tm3Zn3InRh4
_chemical_formula_sum   'Dy13 Tm3 Zn3 In1 Rh4'
_cell_volume   606.12168733
_cell_formula_units_Z   1
loop_
 _symmetry_equiv_pos_site_id
 _symmetry_equiv_pos_as_xyz
  1  'x, y, z'
loop_
 _atom_site_type_symbol
 _atom_site_label
 _atom_site_symmetry_multiplicity
 _atom_site_fract_x
 _atom_site_fract_y
 _atom_site_fract_z
 _atom_site_occupancy
  Dy  Dy0  1  0.934991  0.934991  0.558118  1
  Dy  Dy1  1  0.147183  0.147183  0.556968  1
  Dy  Dy2  1  0.563861  0.936399  0.561857  1
  Dy  Dy3  1  0.146932  0.146932  0.148713  1
  Dy  Dy4  1  0.309846  0.309846  0.691239  1
  Dy  Dy5  1  0.936399  0.563861  0.561857  1
  Dy  Dy6  1  0.562231  0.562231  0.938174  1
  Dy  Dy7  1  0.558317  0.934294  0.936142  1
  Dy  Dy8  1  0.934294  0.558317  0.936142  1
  Dy  Dy9  1  0.145398  0.559950  0.147630  1
  Dy  Dy10  1  0.310809  0.690224  0.689603  1
  Dy  Dy11  1  0.690224  0.310809  0.689603  1
  Dy  Dy12  1  0.559950  0.145398  0.147630  1
  Tm  Tm13  1  0.690684  0.311064  0.309424  1
  Tm  Tm14  1  0.689542  0.689542  0.309395  1
  Tm  Tm15  1  0.311064  0.690684  0.309424  1
  Zn  Zn16  1  0.921327  0.921327  0.242733  1
  Zn  Zn17  1  0.242415  0.921591  0.921392  1
  Zn  Zn18  1  0.921591  0.242415  0.921392  1
  In  In19  1  0.922718  0.922718  0.922546  1
  Rh  Rh20  1  0.358402  0.358402  0.356521  1
  Rh  Rh21  1  0.928394  0.357683  0.355768  1
  Rh  Rh22  1  0.355747  0.355747  0.931959  1
  Rh  Rh23  1  0.357683  0.928394  0.355768  1
