# generated using pymatgen
data_Tb2DyTm2Pb3
_symmetry_space_group_name_H-M   'P 1'
_cell_length_a   6.57896500
_cell_length_b   9.05744934
_cell_length_c   9.06100104
_cell_angle_alpha   119.98702974
_cell_angle_beta   90.00013922
_cell_angle_gamma   89.99973427
_symmetry_Int_Tables_number   1
_chemical_formula_structural   Tb2DyTm2Pb3
_chemical_formula_sum   'Tb4 Dy2 Tm4 Pb6'
_cell_volume   467.65657810
_cell_formula_units_Z   2
loop_
 _symmetry_equiv_pos_site_id
 _symmetry_equiv_pos_as_xyz
  1  'x, y, z'
loop_
 _atom_site_type_symbol
 _atom_site_label
 _atom_site_symmetry_multiplicity
 _atom_site_fract_x
 _atom_site_fract_y
 _atom_site_fract_z
 _atom_site_occupancy
  Tb  Tb0  1  0.750005  0.238659  0.000000  1
  Tb  Tb1  1  0.749997  0.761203  0.761185  1
  Tb  Tb2  1  0.749997  0.000018  0.238815  1
  Tb  Tb3  1  0.250002  0.761364  0.000000  1
  Dy  Dy4  1  0.250000  0.238802  0.238704  1
  Dy  Dy5  1  0.250000  0.000098  0.761296  1
  Tm  Tm6  1  0.499954  0.333305  0.666690  1
  Tm  Tm7  1  0.499954  0.666615  0.333310  1
  Tm  Tm8  1  0.000043  0.666655  0.333307  1
  Tm  Tm9  1  0.000043  0.333348  0.666693  1
  Pb  Pb10  1  0.749993  0.604838  0.000000  1
  Pb  Pb11  1  0.750004  0.395125  0.395090  1
  Pb  Pb12  1  0.750004  0.000035  0.604910  1
  Pb  Pb13  1  0.249998  0.394815  0.000000  1
  Pb  Pb14  1  0.250003  0.605002  0.604884  1
  Pb  Pb15  1  0.250003  0.000118  0.395116  1
