# generated using pymatgen
data_Zr4Ta5TiSi8
_symmetry_space_group_name_H-M   'P 1'
_cell_length_a   6.87402708
_cell_length_b   6.86949439
_cell_length_c   12.72054400
_cell_angle_alpha   90.00000000
_cell_angle_beta   90.00000000
_cell_angle_gamma   89.97186467
_symmetry_Int_Tables_number   1
_chemical_formula_structural   Zr4Ta5TiSi8
_chemical_formula_sum   'Zr8 Ta10 Ti2 Si16'
_cell_volume   600.67788649
_cell_formula_units_Z   2
loop_
 _symmetry_equiv_pos_site_id
 _symmetry_equiv_pos_as_xyz
  1  'x, y, z'
loop_
 _atom_site_type_symbol
 _atom_site_label
 _atom_site_symmetry_multiplicity
 _atom_site_fract_x
 _atom_site_fract_y
 _atom_site_fract_z
 _atom_site_occupancy
  Zr  Zr0  1  0.342271  0.000217  0.468867  1
  Zr  Zr1  1  0.501042  0.841620  0.718993  1
  Zr  Zr2  1  0.498958  0.158380  0.218993  1
  Zr  Zr3  1  0.843111  0.501748  0.280973  1
  Zr  Zr4  1  0.156889  0.498252  0.780973  1
  Zr  Zr5  1  0.657729  0.999784  0.968867  1
  Zr  Zr6  1  0.999852  0.341545  0.530074  1
  Zr  Zr7  1  0.000149  0.658455  0.030074  1
  Ta  Ta8  1  0.330115  0.330248  0.999682  1
  Ta  Ta9  1  0.168856  0.829114  0.250196  1
  Ta  Ta10  1  0.831144  0.170886  0.750196  1
  Ta  Ta11  1  0.669885  0.669752  0.499682  1
  Ta  Ta12  1  0.152163  0.005638  0.873727  1
  Ta  Ta13  1  0.495703  0.652384  0.123883  1
  Ta  Ta14  1  0.504297  0.347616  0.623883  1
  Ta  Ta15  1  0.651807  0.495944  0.876540  1
  Ta  Ta16  1  0.348193  0.504056  0.376540  1
  Ta  Ta17  1  0.847837  0.994362  0.373727  1
  Ti  Ti18  1  0.004830  0.152106  0.126124  1
  Ti  Ti19  1  0.995170  0.847894  0.626124  1
  Si  Si20  1  0.205854  0.132641  0.676413  1
  Si  Si21  1  0.363636  0.708266  0.927907  1
  Si  Si22  1  0.636364  0.291734  0.427907  1
  Si  Si23  1  0.709354  0.361989  0.073797  1
  Si  Si24  1  0.290646  0.638011  0.573797  1
  Si  Si25  1  0.794146  0.867359  0.176413  1
  Si  Si26  1  0.135112  0.206564  0.321136  1
  Si  Si27  1  0.864888  0.793436  0.821136  1
  Si  Si28  1  0.294324  0.956274  0.064425  1
  Si  Si29  1  0.544978  0.798230  0.313131  1
  Si  Si30  1  0.455022  0.201770  0.813131  1
  Si  Si31  1  0.799528  0.547167  0.685475  1
  Si  Si32  1  0.200472  0.452833  0.185475  1
  Si  Si33  1  0.705676  0.043726  0.564425  1
  Si  Si34  1  0.954730  0.296714  0.938654  1
  Si  Si35  1  0.045270  0.703286  0.438654  1
