# generated using pymatgen
data_Nd6Zn4Pd8Pt5
_symmetry_space_group_name_H-M   'P 1'
_cell_length_a   8.39107535
_cell_length_b   8.39996484
_cell_length_c   8.39996534
_cell_angle_alpha   109.64720394
_cell_angle_beta   109.50629869
_cell_angle_gamma   109.50630306
_symmetry_Int_Tables_number   1
_chemical_formula_structural   Nd6Zn4Pd8Pt5
_chemical_formula_sum   'Nd6 Zn4 Pd8 Pt5'
_cell_volume   454.38471339
_cell_formula_units_Z   1
loop_
 _symmetry_equiv_pos_site_id
 _symmetry_equiv_pos_as_xyz
  1  'x, y, z'
loop_
 _atom_site_type_symbol
 _atom_site_label
 _atom_site_symmetry_multiplicity
 _atom_site_fract_x
 _atom_site_fract_y
 _atom_site_fract_z
 _atom_site_occupancy
  Nd  Nd0  1  0.698803  0.698802  0.998783  1
  Nd  Nd1  1  0.301722  0.001125  0.300974  1
  Nd  Nd2  1  0.000047  0.301328  0.301328  1
  Nd  Nd3  1  0.301722  0.300974  0.001125  1
  Nd  Nd4  1  0.698803  0.998783  0.698802  1
  Nd  Nd5  1  0.998817  0.698500  0.698500  1
  Zn  Zn6  1  0.999847  0.999879  0.499994  1
  Zn  Zn7  1  0.999847  0.499994  0.999879  1
  Zn  Zn8  1  0.500141  0.000121  0.000121  1
  Zn  Zn9  1  0.499920  0.500373  0.500373  1
  Pd  Pd10  1  0.329941  0.329836  0.661406  1
  Pd  Pd11  1  0.669317  0.999676  0.330727  1
  Pd  Pd12  1  0.000348  0.669479  0.330468  1
  Pd  Pd13  1  0.669317  0.330727  0.999676  1
  Pd  Pd14  1  0.329941  0.661406  0.329836  1
  Pd  Pd15  1  0.000348  0.330468  0.669479  1
  Pd  Pd16  1  0.330456  0.669034  0.000176  1
  Pd  Pd17  1  0.330456  0.000176  0.669034  1
  Pt  Pt18  1  0.660545  0.329607  0.329607  1
  Pt  Pt19  1  0.669960  0.670249  0.338845  1
  Pt  Pt20  1  0.669960  0.338845  0.670249  1
  Pt  Pt21  1  0.339374  0.670103  0.670103  1
  Pt  Pt22  1  0.000369  0.000515  0.000515  1
