# generated using pymatgen
data_Ca6Pr2Be3Si12Pd
_symmetry_space_group_name_H-M   'P 1'
_cell_length_a   8.00756100
_cell_length_b   8.00756053
_cell_length_c   8.68550900
_cell_angle_alpha   90.00000000
_cell_angle_beta   90.00000000
_cell_angle_gamma   119.99999779
_symmetry_Int_Tables_number   1
_chemical_formula_structural   Ca6Pr2Be3Si12Pd
_chemical_formula_sum   'Ca6 Pr2 Be3 Si12 Pd1'
_cell_volume   482.31015075
_cell_formula_units_Z   1
loop_
 _symmetry_equiv_pos_site_id
 _symmetry_equiv_pos_as_xyz
  1  'x, y, z'
loop_
 _atom_site_type_symbol
 _atom_site_label
 _atom_site_symmetry_multiplicity
 _atom_site_fract_x
 _atom_site_fract_y
 _atom_site_fract_z
 _atom_site_occupancy
  Ca  Ca0  1  0.499987  0.500013  0.748224  1
  Ca  Ca1  1  0.500121  0.499879  0.251785  1
  Ca  Ca2  1  0.000026  0.500013  0.748224  1
  Ca  Ca3  1  0.999759  0.499879  0.251785  1
  Ca  Ca4  1  0.499987  0.999974  0.748224  1
  Ca  Ca5  1  0.500121  0.000241  0.251785  1
  Pr  Pr6  1  0.000000  0.000000  0.748273  1
  Pr  Pr7  1  0.000000  0.000000  0.251779  1
  Be  Be8  1  0.666667  0.333333  0.999271  1
  Be  Be9  1  0.333333  0.666667  0.000773  1
  Be  Be10  1  0.333333  0.666667  0.499599  1
  Si  Si11  1  0.827591  0.172409  0.000047  1
  Si  Si12  1  0.172017  0.827983  0.000041  1
  Si  Si13  1  0.344817  0.172409  0.000047  1
  Si  Si14  1  0.170291  0.829709  0.499951  1
  Si  Si15  1  0.655967  0.827983  0.000041  1
  Si  Si16  1  0.833301  0.166699  0.500050  1
  Si  Si17  1  0.827591  0.655183  0.000047  1
  Si  Si18  1  0.659417  0.829709  0.499951  1
  Si  Si19  1  0.172017  0.344033  0.000041  1
  Si  Si20  1  0.333398  0.166699  0.500050  1
  Si  Si21  1  0.170291  0.340583  0.499951  1
  Si  Si22  1  0.833301  0.666602  0.500050  1
  Pd  Pd23  1  0.666667  0.333333  0.500013  1
