# generated using pymatgen
data_Th2Si3Ge(PtAu)2
_symmetry_space_group_name_H-M   'P 1'
_cell_length_a   4.36218100
_cell_length_b   4.36218100
_cell_length_c   10.04231200
_cell_angle_alpha   90.00000000
_cell_angle_beta   90.00000000
_cell_angle_gamma   90.00000000
_symmetry_Int_Tables_number   1
_chemical_formula_structural   Th2Si3Ge(PtAu)2
_chemical_formula_sum   'Th2 Si3 Ge1 Pt2 Au2'
_cell_volume   191.09136987
_cell_formula_units_Z   1
loop_
 _symmetry_equiv_pos_site_id
 _symmetry_equiv_pos_as_xyz
  1  'x, y, z'
loop_
 _atom_site_type_symbol
 _atom_site_label
 _atom_site_symmetry_multiplicity
 _atom_site_fract_x
 _atom_site_fract_y
 _atom_site_fract_z
 _atom_site_occupancy
  Th  Th0  1  0.000000  0.500000  0.260342  1
  Th  Th1  1  0.500000  0.000000  0.737791  1
  Si  Si2  1  0.000000  0.000000  0.497522  1
  Si  Si3  1  0.500000  0.500000  0.497522  1
  Si  Si4  1  0.500000  0.000000  0.143273  1
  Ge  Ge5  1  0.000000  0.500000  0.854544  1
  Pt  Pt6  1  0.000000  0.500000  0.606441  1
  Pt  Pt7  1  0.500000  0.000000  0.384420  1
  Au  Au8  1  0.000000  0.000000  0.009072  1
  Au  Au9  1  0.500000  0.500000  0.009072  1
