# generated using pymatgen
data_SmDy2RuBr3
_symmetry_space_group_name_H-M   'P 1'
_cell_length_a   4.19399600
_cell_length_b   8.52613869
_cell_length_c   11.88667791
_cell_angle_alpha   85.92837244
_cell_angle_beta   90.00000000
_cell_angle_gamma   90.00000000
_symmetry_Int_Tables_number   1
_chemical_formula_structural   SmDy2RuBr3
_chemical_formula_sum   'Sm2 Dy4 Ru2 Br6'
_cell_volume   423.97806011
_cell_formula_units_Z   2
loop_
 _symmetry_equiv_pos_site_id
 _symmetry_equiv_pos_as_xyz
  1  'x, y, z'
loop_
 _atom_site_type_symbol
 _atom_site_label
 _atom_site_symmetry_multiplicity
 _atom_site_fract_x
 _atom_site_fract_y
 _atom_site_fract_z
 _atom_site_occupancy
  Sm  Sm0  1  0.250000  0.883371  0.825747  1
  Sm  Sm1  1  0.750000  0.116629  0.174253  1
  Dy  Dy2  1  0.250000  0.272672  0.399084  1
  Dy  Dy3  1  0.750000  0.727328  0.600916  1
  Dy  Dy4  1  0.250000  0.863291  0.368095  1
  Dy  Dy5  1  0.750000  0.136709  0.631905  1
  Ru  Ru6  1  0.250000  0.940961  0.592923  1
  Ru  Ru7  1  0.750000  0.059039  0.407077  1
  Br  Br8  1  0.250000  0.422460  0.629546  1
  Br  Br9  1  0.750000  0.577540  0.370454  1
  Br  Br10  1  0.250000  0.879689  0.107212  1
  Br  Br11  1  0.750000  0.120311  0.892788  1
  Br  Br12  1  0.250000  0.361343  0.143630  1
  Br  Br13  1  0.750000  0.638657  0.856370  1
