# generated using pymatgen
data_LaPr7SnPd24
_symmetry_space_group_name_H-M   'P 1'
_cell_length_a   8.58745803
_cell_length_b   8.58745803
_cell_length_c   8.58745803
_cell_angle_alpha   89.99326105
_cell_angle_beta   90.00673895
_cell_angle_gamma   90.00673895
_symmetry_Int_Tables_number   1
_chemical_formula_structural   LaPr7SnPd24
_chemical_formula_sum   'La1 Pr7 Sn1 Pd24'
_cell_volume   633.27723088
_cell_formula_units_Z   1
loop_
 _symmetry_equiv_pos_site_id
 _symmetry_equiv_pos_as_xyz
  1  'x, y, z'
loop_
 _atom_site_type_symbol
 _atom_site_label
 _atom_site_symmetry_multiplicity
 _atom_site_fract_x
 _atom_site_fract_y
 _atom_site_fract_z
 _atom_site_occupancy
  La  La0  1  0.747657  0.252343  0.252343  1
  Pr  Pr1  1  0.251972  0.252002  0.252002  1
  Pr  Pr2  1  0.747968  0.747973  0.747973  1
  Pr  Pr3  1  0.747998  0.748028  0.252002  1
  Pr  Pr4  1  0.747998  0.252002  0.748028  1
  Pr  Pr5  1  0.252027  0.252032  0.747973  1
  Pr  Pr6  1  0.252027  0.747973  0.252032  1
  Pr  Pr7  1  0.252043  0.747957  0.747957  1
  Sn  Sn8  1  0.000099  0.999901  0.999901  1
  Pd  Pd9  1  0.267381  0.500021  0.999975  1
  Pd  Pd10  1  0.732639  0.500011  0.999988  1
  Pd  Pd11  1  0.000012  0.267361  0.500011  1
  Pd  Pd12  1  0.499989  0.267361  0.999988  1
  Pd  Pd13  1  0.000025  0.732619  0.500021  1
  Pd  Pd14  1  0.499979  0.732619  0.999975  1
  Pd  Pd15  1  0.499989  0.999988  0.267361  1
  Pd  Pd16  1  0.267381  0.999975  0.500021  1
  Pd  Pd17  1  0.499979  0.999975  0.732619  1
  Pd  Pd18  1  0.732639  0.999988  0.500011  1
  Pd  Pd19  1  0.000012  0.500011  0.267361  1
  Pd  Pd20  1  0.000025  0.500021  0.732619  1
  Pd  Pd21  1  0.255672  0.500009  0.500009  1
  Pd  Pd22  1  0.744322  0.500022  0.500022  1
  Pd  Pd23  1  0.499978  0.255678  0.500022  1
  Pd  Pd24  1  0.499991  0.744328  0.500009  1
  Pd  Pd25  1  0.499978  0.500022  0.255678  1
  Pd  Pd26  1  0.499991  0.500009  0.744328  1
  Pd  Pd27  1  0.313848  0.000003  0.000003  1
  Pd  Pd28  1  0.686144  0.999879  0.999879  1
  Pd  Pd29  1  0.000121  0.313856  0.999879  1
  Pd  Pd30  1  0.999997  0.686152  0.000003  1
  Pd  Pd31  1  0.000121  0.999879  0.313856  1
  Pd  Pd32  1  0.999997  0.000003  0.686152  1
