# generated using pymatgen
data_NbBr11
_symmetry_space_group_name_H-M   'P 1'
_cell_length_a   7.88300005
_cell_length_b   8.39953917
_cell_length_c   8.83676921
_cell_angle_alpha   90.97591501
_cell_angle_beta   92.18125672
_cell_angle_gamma   114.06581783
_symmetry_Int_Tables_number   1
_chemical_formula_structural   NbBr11
_chemical_formula_sum   'Nb1 Br11'
_cell_volume   533.52751904
_cell_formula_units_Z   1
loop_
 _symmetry_equiv_pos_site_id
 _symmetry_equiv_pos_as_xyz
  1  'x, y, z'
loop_
 _atom_site_type_symbol
 _atom_site_label
 _atom_site_symmetry_multiplicity
 _atom_site_fract_x
 _atom_site_fract_y
 _atom_site_fract_z
 _atom_site_occupancy
  Nb  Nb0  1  0.000000  0.500000  0.500000  1
  Br  Br1  1  0.000000  0.000000  0.000000  1
  Br  Br2  1  0.671674  0.773713  0.039886  1
  Br  Br3  1  0.526193  0.211717  0.185805  1
  Br  Br4  1  0.097702  0.557002  0.233179  1
  Br  Br5  1  0.732591  0.191352  0.414177  1
  Br  Br6  1  0.784419  0.647768  0.456527  1
  Br  Br7  1  0.215581  0.352232  0.543474  1
  Br  Br8  1  0.267409  0.808648  0.585823  1
  Br  Br9  1  0.902299  0.442998  0.766821  1
  Br  Br10  1  0.473806  0.788283  0.814195  1
  Br  Br11  1  0.328327  0.226287  0.960115  1
