# generated using pymatgen
data_K5Tb(CrH9)3
_symmetry_space_group_name_H-M   'P 1'
_cell_length_a   8.76277500
_cell_length_b   8.63066966
_cell_length_c   5.07904300
_cell_angle_alpha   90.00000000
_cell_angle_beta   90.00000000
_cell_angle_gamma   119.50255463
_symmetry_Int_Tables_number   1
_chemical_formula_structural   K5Tb(CrH9)3
_chemical_formula_sum   'K5 Tb1 Cr3 H27'
_cell_volume   334.31346147
_cell_formula_units_Z   1
loop_
 _symmetry_equiv_pos_site_id
 _symmetry_equiv_pos_as_xyz
  1  'x, y, z'
loop_
 _atom_site_type_symbol
 _atom_site_label
 _atom_site_symmetry_multiplicity
 _atom_site_fract_x
 _atom_site_fract_y
 _atom_site_fract_z
 _atom_site_occupancy
  K  K0  1  0.726939  0.741621  0.500000  1
  K  K1  1  0.273061  0.014683  0.500000  1
  K  K2  1  0.000000  0.615795  0.000000  1
  K  K3  1  0.425551  0.398232  0.000000  1
  K  K4  1  0.574449  0.972681  0.000000  1
  Tb  Tb5  1  0.000000  0.253705  0.500000  1
  Cr  Cr6  1  0.705521  0.328468  0.500000  1
  Cr  Cr7  1  0.294479  0.622949  0.500000  1
  Cr  Cr8  1  0.000000  0.031833  0.000000  1
  H  H9  1  0.822774  0.318933  0.742007  1
  H  H10  1  0.720640  0.469432  0.715934  1
  H  H11  1  0.557872  0.209598  0.712288  1
  H  H12  1  0.177226  0.496160  0.257993  1
  H  H13  1  0.557872  0.209598  0.287712  1
  H  H14  1  0.822774  0.318933  0.257993  1
  H  H15  1  0.720640  0.469432  0.284066  1
  H  H16  1  0.279360  0.748794  0.715934  1
  H  H17  1  0.442128  0.651728  0.712288  1
  H  H18  1  0.173807  0.017017  0.000000  1
  H  H19  1  0.826193  0.843210  0.000000  1
  H  H20  1  0.000000  0.221178  0.000000  1
  H  H21  1  0.862630  0.022723  0.222820  1
  H  H22  1  0.137370  0.160093  0.777180  1
  H  H23  1  0.000000  0.898550  0.783788  1
  H  H24  1  0.000000  0.898550  0.216212  1
  H  H25  1  0.137370  0.160093  0.222820  1
  H  H26  1  0.862630  0.022723  0.777180  1
  H  H27  1  0.135536  0.668167  0.500000  1
  H  H28  1  0.441590  0.826423  0.500000  1
  H  H29  1  0.310063  0.442306  0.500000  1
  H  H30  1  0.558410  0.384833  0.500000  1
  H  H31  1  0.864464  0.532631  0.500000  1
  H  H32  1  0.689937  0.132243  0.500000  1
  H  H33  1  0.177226  0.496160  0.742007  1
  H  H34  1  0.279360  0.748794  0.284066  1
  H  H35  1  0.442128  0.651728  0.287712  1
