# generated using pymatgen
data_PrEr2V(Co4P3)2
_symmetry_space_group_name_H-M   'P 1'
_cell_length_a   3.70853400
_cell_length_b   10.59353900
_cell_length_c   12.28781300
_cell_angle_alpha   90.00000000
_cell_angle_beta   90.00000000
_cell_angle_gamma   90.00000000
_symmetry_Int_Tables_number   1
_chemical_formula_structural   PrEr2V(Co4P3)2
_chemical_formula_sum   'Pr2 Er4 V2 Co16 P12'
_cell_volume   482.74516004
_cell_formula_units_Z   2
loop_
 _symmetry_equiv_pos_site_id
 _symmetry_equiv_pos_as_xyz
  1  'x, y, z'
loop_
 _atom_site_type_symbol
 _atom_site_label
 _atom_site_symmetry_multiplicity
 _atom_site_fract_x
 _atom_site_fract_y
 _atom_site_fract_z
 _atom_site_occupancy
  Pr  Pr0  1  0.750000  0.250000  0.475974  1
  Pr  Pr1  1  0.250000  0.750000  0.524026  1
  Er  Er2  1  0.250000  0.931037  0.797103  1
  Er  Er3  1  0.250000  0.568963  0.797103  1
  Er  Er4  1  0.750000  0.068963  0.202897  1
  Er  Er5  1  0.750000  0.431037  0.202897  1
  V  V6  1  0.250000  0.250000  0.848891  1
  V  V7  1  0.750000  0.750000  0.151109  1
  Co  Co8  1  0.250000  0.250000  0.293618  1
  Co  Co9  1  0.750000  0.750000  0.706382  1
  Co  Co10  1  0.750000  0.250000  0.013398  1
  Co  Co11  1  0.250000  0.750000  0.986602  1
  Co  Co12  1  0.250000  0.417749  0.007059  1
  Co  Co13  1  0.250000  0.082251  0.007059  1
  Co  Co14  1  0.750000  0.582251  0.992941  1
  Co  Co15  1  0.750000  0.917749  0.992941  1
  Co  Co16  1  0.250000  0.454862  0.570773  1
  Co  Co17  1  0.250000  0.045138  0.570773  1
  Co  Co18  1  0.750000  0.545138  0.429227  1
  Co  Co19  1  0.750000  0.954862  0.429227  1
  Co  Co20  1  0.250000  0.871156  0.288656  1
  Co  Co21  1  0.250000  0.628844  0.288656  1
  Co  Co22  1  0.750000  0.128844  0.711344  1
  Co  Co23  1  0.750000  0.371156  0.711344  1
  P  P24  1  0.250000  0.250000  0.116843  1
  P  P25  1  0.750000  0.750000  0.883157  1
  P  P26  1  0.250000  0.250000  0.658526  1
  P  P27  1  0.750000  0.750000  0.341474  1
  P  P28  1  0.250000  0.442332  0.381329  1
  P  P29  1  0.250000  0.057668  0.381329  1
  P  P30  1  0.750000  0.557668  0.618671  1
  P  P31  1  0.750000  0.942332  0.618671  1
  P  P32  1  0.250000  0.904680  0.107049  1
  P  P33  1  0.250000  0.595320  0.107049  1
  P  P34  1  0.750000  0.095320  0.892951  1
  P  P35  1  0.750000  0.404680  0.892951  1
