# generated using pymatgen
data_Tm8Nb11Si16Au
_symmetry_space_group_name_H-M   'P 1'
_cell_length_a   6.80747119
_cell_length_b   7.05614022
_cell_length_c   13.38505600
_cell_angle_alpha   90.00000000
_cell_angle_beta   90.00000000
_cell_angle_gamma   90.55775275
_symmetry_Int_Tables_number   1
_chemical_formula_structural   Tm8Nb11Si16Au
_chemical_formula_sum   'Tm8 Nb11 Si16 Au1'
_cell_volume   642.91362492
_cell_formula_units_Z   1
loop_
 _symmetry_equiv_pos_site_id
 _symmetry_equiv_pos_as_xyz
  1  'x, y, z'
loop_
 _atom_site_type_symbol
 _atom_site_label
 _atom_site_symmetry_multiplicity
 _atom_site_fract_x
 _atom_site_fract_y
 _atom_site_fract_z
 _atom_site_occupancy
  Tm  Tm0  1  0.005681  0.171678  0.095820  1
  Tm  Tm1  1  0.996925  0.827902  0.906447  1
  Tm  Tm2  1  0.495574  0.673135  0.905587  1
  Tm  Tm3  1  0.996925  0.827902  0.593553  1
  Tm  Tm4  1  0.501758  0.329386  0.098388  1
  Tm  Tm5  1  0.005681  0.171678  0.404180  1
  Tm  Tm6  1  0.501758  0.329386  0.401612  1
  Tm  Tm7  1  0.495574  0.673135  0.594413  1
  Nb  Nb8  1  0.161136  0.499453  0.750000  1
  Nb  Nb9  1  0.838701  0.506312  0.250000  1
  Nb  Nb10  1  0.339220  0.991723  0.250000  1
  Nb  Nb11  1  0.342144  0.176304  0.625982  1
  Nb  Nb12  1  0.664537  0.825375  0.375415  1
  Nb  Nb13  1  0.163574  0.673396  0.374316  1
  Nb  Nb14  1  0.664537  0.825375  0.124585  1
  Nb  Nb15  1  0.829752  0.325366  0.626228  1
  Nb  Nb16  1  0.342144  0.176304  0.874018  1
  Nb  Nb17  1  0.829752  0.325366  0.873772  1
  Nb  Nb18  1  0.163574  0.673396  0.125684  1
  Si  Si19  1  0.042137  0.129093  0.750000  1
  Si  Si20  1  0.961820  0.879429  0.250000  1
  Si  Si21  1  0.460533  0.621062  0.250000  1
  Si  Si22  1  0.535509  0.386582  0.750000  1
  Si  Si23  1  0.284767  0.875143  0.750000  1
  Si  Si24  1  0.707942  0.129168  0.250000  1
  Si  Si25  1  0.204540  0.369592  0.250000  1
  Si  Si26  1  0.797322  0.620545  0.750000  1
  Si  Si27  1  0.161536  0.463231  0.541457  1
  Si  Si28  1  0.835576  0.535650  0.459421  1
  Si  Si29  1  0.336177  0.962967  0.459999  1
  Si  Si30  1  0.835576  0.535650  0.040579  1
  Si  Si31  1  0.664391  0.043496  0.531656  1
  Si  Si32  1  0.161536  0.463231  0.958543  1
  Si  Si33  1  0.664391  0.043496  0.968344  1
  Si  Si34  1  0.336177  0.962967  0.040001  1
  Au  Au35  1  0.671125  0.976126  0.750000  1
