# generated using pymatgen
data_CePr3Al18(Ir2Pt)2
_symmetry_space_group_name_H-M   'P 1'
_cell_length_a   7.65202063
_cell_length_b   7.66765854
_cell_length_c   9.58561031
_cell_angle_alpha   89.98004263
_cell_angle_beta   89.95835428
_cell_angle_gamma   119.63922612
_symmetry_Int_Tables_number   1
_chemical_formula_structural   CePr3Al18(Ir2Pt)2
_chemical_formula_sum   'Ce1 Pr3 Al18 Ir4 Pt2'
_cell_volume   488.82838899
_cell_formula_units_Z   1
loop_
 _symmetry_equiv_pos_site_id
 _symmetry_equiv_pos_as_xyz
  1  'x, y, z'
loop_
 _atom_site_type_symbol
 _atom_site_label
 _atom_site_symmetry_multiplicity
 _atom_site_fract_x
 _atom_site_fract_y
 _atom_site_fract_z
 _atom_site_occupancy
  Ce  Ce0  1  0.330164  0.004532  0.748213  1
  Pr  Pr1  1  0.995688  0.668514  0.249995  1
  Pr  Pr2  1  0.004475  0.331014  0.749939  1
  Pr  Pr3  1  0.668209  0.994241  0.250155  1
  Al  Al4  1  0.128407  0.127885  0.251053  1
  Al  Al5  1  0.871505  0.870405  0.749336  1
  Al  Al6  1  0.003735  0.330359  0.075129  1
  Al  Al7  1  0.997664  0.669623  0.923321  1
  Al  Al8  1  0.998671  0.665241  0.573032  1
  Al  Al9  1  0.334393  0.001284  0.429362  1
  Al  Al10  1  0.000743  0.333989  0.428453  1
  Al  Al11  1  0.665378  0.999022  0.572687  1
  Al  Al12  1  0.668034  0.997163  0.923698  1
  Al  Al13  1  0.331434  0.003528  0.072781  1
  Al  Al14  1  0.333300  0.334097  0.546541  1
  Al  Al15  1  0.667362  0.667038  0.454341  1
  Al  Al16  1  0.667911  0.667473  0.053737  1
  Al  Al17  1  0.333183  0.332870  0.944447  1
  Al  Al18  1  0.340561  0.543947  0.254076  1
  Al  Al19  1  0.656446  0.454415  0.747049  1
  Al  Al20  1  0.545459  0.339809  0.254059  1
  Al  Al21  1  0.455474  0.662099  0.746866  1
  Ir  Ir22  1  0.329164  0.671777  0.501565  1
  Ir  Ir23  1  0.669674  0.328338  0.502105  1
  Ir  Ir24  1  0.001464  0.000581  0.998118  1
  Ir  Ir25  1  0.001495  0.000504  0.502175  1
  Pt  Pt26  1  0.671256  0.328725  0.998836  1
  Pt  Pt27  1  0.328750  0.671527  0.998932  1
