# generated using pymatgen
data_Tm2Mo3P7Rh9
_symmetry_space_group_name_H-M   'P 1'
_cell_length_a   3.92366065
_cell_length_b   9.51506276
_cell_length_c   9.51438391
_cell_angle_alpha   120.00027067
_cell_angle_beta   89.99809482
_cell_angle_gamma   90.00231065
_symmetry_Int_Tables_number   1
_chemical_formula_structural   Tm2Mo3P7Rh9
_chemical_formula_sum   'Tm2 Mo3 P7 Rh9'
_cell_volume   307.61904173
_cell_formula_units_Z   1
loop_
 _symmetry_equiv_pos_site_id
 _symmetry_equiv_pos_as_xyz
  1  'x, y, z'
loop_
 _atom_site_type_symbol
 _atom_site_label
 _atom_site_symmetry_multiplicity
 _atom_site_fract_x
 _atom_site_fract_y
 _atom_site_fract_z
 _atom_site_occupancy
  Tm  Tm0  1  0.261405  0.666640  0.333284  1
  Tm  Tm1  1  0.762062  0.333346  0.666683  1
  Mo  Mo2  1  0.761832  0.091736  0.870386  1
  Mo  Mo3  1  0.761885  0.129683  0.221466  1
  Mo  Mo4  1  0.761848  0.778564  0.908204  1
  P  P5  1  0.262127  0.000014  0.999974  1
  P  P6  1  0.761765  0.880478  0.592660  1
  P  P7  1  0.761776  0.407332  0.287808  1
  P  P8  1  0.761755  0.712168  0.119487  1
  P  P9  1  0.261979  0.118930  0.412749  1
  P  P10  1  0.262005  0.587290  0.706216  1
  P  P11  1  0.261978  0.293830  0.881098  1
  Rh  Rh12  1  0.261943  0.884069  0.160528  1
  Rh  Rh13  1  0.261910  0.839439  0.723467  1
  Rh  Rh14  1  0.261925  0.276500  0.115987  1
  Rh  Rh15  1  0.762009  0.612316  0.556545  1
  Rh  Rh16  1  0.761964  0.443377  0.055671  1
  Rh  Rh17  1  0.762006  0.944230  0.387675  1
  Rh  Rh18  1  0.261970  0.371058  0.440864  1
  Rh  Rh19  1  0.261908  0.559206  0.930249  1
  Rh  Rh20  1  0.261949  0.069791  0.628996  1
