# generated using pymatgen
data_GdNp3Ga12Pt
_symmetry_space_group_name_H-M   'P 1'
_cell_length_a   7.50614985
_cell_length_b   7.55341522
_cell_length_c   7.50615000
_cell_angle_alpha   109.59883252
_cell_angle_beta   109.34331084
_cell_angle_gamma   109.59883016
_symmetry_Int_Tables_number   1
_chemical_formula_structural   GdNp3Ga12Pt
_chemical_formula_sum   'Gd1 Np3 Ga12 Pt1'
_cell_volume   327.09171073
_cell_formula_units_Z   1
loop_
 _symmetry_equiv_pos_site_id
 _symmetry_equiv_pos_as_xyz
  1  'x, y, z'
loop_
 _atom_site_type_symbol
 _atom_site_label
 _atom_site_symmetry_multiplicity
 _atom_site_fract_x
 _atom_site_fract_y
 _atom_site_fract_z
 _atom_site_occupancy
  Gd  Gd0  1  0.000000  0.500000  0.000000  1
  Np  Np1  1  0.500000  0.000000  0.000000  1
  Np  Np2  1  0.000000  0.000000  0.500000  1
  Np  Np3  1  0.500000  0.500000  0.500000  1
  Ga  Ga4  1  0.295929  0.001721  0.295929  1
  Ga  Ga5  1  0.000000  0.705793  0.704071  1
  Ga  Ga6  1  0.250095  0.750095  0.500191  1
  Ga  Ga7  1  0.749905  0.500000  0.250095  1
  Ga  Ga8  1  0.499809  0.249905  0.749905  1
  Ga  Ga9  1  0.749905  0.249905  0.499809  1
  Ga  Ga10  1  0.704071  0.705793  0.000000  1
  Ga  Ga11  1  0.704071  0.998279  0.704071  1
  Ga  Ga12  1  0.250095  0.500000  0.749905  1
  Ga  Ga13  1  0.500191  0.750095  0.250095  1
  Ga  Ga14  1  0.295929  0.294207  0.000000  1
  Ga  Ga15  1  0.000000  0.294207  0.295929  1
  Pt  Pt16  1  0.000000  0.000000  0.000000  1
