# generated using pymatgen
data_NdHo2Fe2Co9B4
_symmetry_space_group_name_H-M   'P 1'
_cell_length_a   5.09253134
_cell_length_b   5.09176597
_cell_length_c   9.74706800
_cell_angle_alpha   89.99992473
_cell_angle_beta   90.00022015
_cell_angle_gamma   119.99848243
_symmetry_Int_Tables_number   1
_chemical_formula_structural   NdHo2Fe2Co9B4
_chemical_formula_sum   'Nd1 Ho2 Fe2 Co9 B4'
_cell_volume   218.88369626
_cell_formula_units_Z   1
loop_
 _symmetry_equiv_pos_site_id
 _symmetry_equiv_pos_as_xyz
  1  'x, y, z'
loop_
 _atom_site_type_symbol
 _atom_site_label
 _atom_site_symmetry_multiplicity
 _atom_site_fract_x
 _atom_site_fract_y
 _atom_site_fract_z
 _atom_site_occupancy
  Nd  Nd0  1  0.999996  0.000009  0.000002  1
  Ho  Ho1  1  0.999992  0.999997  0.343234  1
  Ho  Ho2  1  0.999999  0.999996  0.656770  1
  Fe  Fe3  1  0.333330  0.666667  0.000011  1
  Fe  Fe4  1  0.666648  0.333342  0.000008  1
  Co  Co5  1  0.499997  0.999999  0.500000  1
  Co  Co6  1  0.499995  0.500000  0.499997  1
  Co  Co7  1  0.999997  0.500000  0.500001  1
  Co  Co8  1  0.499985  0.999989  0.205148  1
  Co  Co9  1  0.499986  0.500004  0.205215  1
  Co  Co10  1  0.000002  0.500005  0.205208  1
  Co  Co11  1  0.499993  0.999989  0.794817  1
  Co  Co12  1  0.499992  0.500005  0.794796  1
  Co  Co13  1  0.000007  0.500003  0.794786  1
  B  B14  1  0.333317  0.666665  0.350501  1
  B  B15  1  0.666669  0.333333  0.350498  1
  B  B16  1  0.666644  0.333318  0.649505  1
  B  B17  1  0.333349  0.666679  0.649503  1
