# generated using pymatgen
data_Ac2Tb(SnPt)3
_symmetry_space_group_name_H-M   'P 1'
_cell_length_a   7.82722174
_cell_length_b   7.75242576
_cell_length_c   4.23524500
_cell_angle_alpha   90.00000000
_cell_angle_beta   90.00000000
_cell_angle_gamma   119.68441065
_symmetry_Int_Tables_number   1
_chemical_formula_structural   Ac2Tb(SnPt)3
_chemical_formula_sum   'Ac2 Tb1 Sn3 Pt3'
_cell_volume   223.26813895
_cell_formula_units_Z   1
loop_
 _symmetry_equiv_pos_site_id
 _symmetry_equiv_pos_as_xyz
  1  'x, y, z'
loop_
 _atom_site_type_symbol
 _atom_site_label
 _atom_site_symmetry_multiplicity
 _atom_site_fract_x
 _atom_site_fract_y
 _atom_site_fract_z
 _atom_site_occupancy
  Ac  Ac0  1  0.414754  0.416152  0.500000  1
  Ac  Ac1  1  0.585246  0.001398  0.500000  1
  Tb  Tb2  1  0.000000  0.590929  0.500000  1
  Sn  Sn3  1  0.761394  0.751489  0.000000  1
  Sn  Sn4  1  0.238606  0.990094  0.000000  1
  Sn  Sn5  1  0.000000  0.250700  0.000000  1
  Pt  Pt6  1  0.689818  0.349826  0.000000  1
  Pt  Pt7  1  0.310182  0.660009  0.000000  1
  Pt  Pt8  1  0.000000  0.989402  0.500000  1
