# generated using pymatgen
data_BaNa2(RhPb)4
_symmetry_space_group_name_H-M   'P 1'
_cell_length_a   7.19169471
_cell_length_b   7.19169462
_cell_length_c   7.19169455
_cell_angle_alpha   105.05685298
_cell_angle_beta   111.72248010
_cell_angle_gamma   111.72248668
_symmetry_Int_Tables_number   1
_chemical_formula_structural   BaNa2(RhPb)4
_chemical_formula_sum   'Ba1 Na2 Rh4 Pb4'
_cell_volume   285.07142479
_cell_formula_units_Z   1
loop_
 _symmetry_equiv_pos_site_id
 _symmetry_equiv_pos_as_xyz
  1  'x, y, z'
loop_
 _atom_site_type_symbol
 _atom_site_label
 _atom_site_symmetry_multiplicity
 _atom_site_fract_x
 _atom_site_fract_y
 _atom_site_fract_z
 _atom_site_occupancy
  Ba  Ba0  1  0.000000  0.499999  0.499999  1
  Na  Na1  1  0.499999  0.499999  0.000000  1
  Na  Na2  1  0.499999  0.000000  0.499999  1
  Rh  Rh3  1  0.750219  0.989520  0.989520  1
  Rh  Rh4  1  0.000000  0.760700  0.010480  1
  Rh  Rh5  1  0.249780  0.239299  0.239299  1
  Rh  Rh6  1  0.000000  0.010480  0.760700  1
  Pb  Pb7  1  0.400481  0.016247  0.016247  1
  Pb  Pb8  1  0.000000  0.384234  0.983753  1
  Pb  Pb9  1  0.000000  0.983753  0.384234  1
  Pb  Pb10  1  0.599518  0.615765  0.615765  1
