# generated using pymatgen
data_Dy19HoPb16
_symmetry_space_group_name_H-M   'P 1'
_cell_length_a   8.20738103
_cell_length_b   15.65148100
_cell_length_c   8.29051203
_cell_angle_alpha   90.00000000
_cell_angle_beta   90.00998815
_cell_angle_gamma   90.00000000
_symmetry_Int_Tables_number   1
_chemical_formula_structural   Dy19HoPb16
_chemical_formula_sum   'Dy19 Ho1 Pb16'
_cell_volume   1064.97982814
_cell_formula_units_Z   1
loop_
 _symmetry_equiv_pos_site_id
 _symmetry_equiv_pos_as_xyz
  1  'x, y, z'
loop_
 _atom_site_type_symbol
 _atom_site_label
 _atom_site_symmetry_multiplicity
 _atom_site_fract_x
 _atom_site_fract_y
 _atom_site_fract_z
 _atom_site_occupancy
  Dy  Dy0  1  0.622819  0.620317  0.159452  1
  Dy  Dy1  1  0.122814  0.879652  0.340544  1
  Dy  Dy2  1  0.377283  0.120365  0.840616  1
  Dy  Dy3  1  0.877114  0.379646  0.659487  1
  Dy  Dy4  1  0.377283  0.379635  0.840616  1
  Dy  Dy5  1  0.877114  0.120354  0.659487  1
  Dy  Dy6  1  0.622819  0.879683  0.159452  1
  Dy  Dy7  1  0.122814  0.620348  0.340544  1
  Dy  Dy8  1  0.466140  0.600151  0.676910  1
  Dy  Dy9  1  0.966155  0.899873  0.823085  1
  Dy  Dy10  1  0.533894  0.100148  0.323014  1
  Dy  Dy11  1  0.033792  0.399842  0.176857  1
  Dy  Dy12  1  0.533894  0.399852  0.323014  1
  Dy  Dy13  1  0.033792  0.100158  0.176857  1
  Dy  Dy14  1  0.466140  0.899849  0.676910  1
  Dy  Dy15  1  0.966155  0.600127  0.823085  1
  Dy  Dy16  1  0.791245  0.750000  0.496501  1
  Dy  Dy17  1  0.291253  0.750000  0.003464  1
  Dy  Dy18  1  0.208743  0.250000  0.503454  1
  Ho  Ho19  1  0.708864  0.250000  0.996467  1
  Pb  Pb20  1  0.719042  0.457216  0.966870  1
  Pb  Pb21  1  0.219056  0.042634  0.533194  1
  Pb  Pb22  1  0.280938  0.957404  0.033228  1
  Pb  Pb23  1  0.780950  0.542605  0.466806  1
  Pb  Pb24  1  0.280938  0.542596  0.033228  1
  Pb  Pb25  1  0.780950  0.957395  0.466806  1
  Pb  Pb26  1  0.719042  0.042784  0.966870  1
  Pb  Pb27  1  0.219056  0.457366  0.533194  1
  Pb  Pb28  1  0.427402  0.750000  0.373409  1
  Pb  Pb29  1  0.927405  0.750000  0.126584  1
  Pb  Pb30  1  0.572661  0.250000  0.626803  1
  Pb  Pb31  1  0.072265  0.250000  0.873575  1
  Pb  Pb32  1  0.654536  0.750000  0.848153  1
  Pb  Pb33  1  0.154494  0.750000  0.651944  1
  Pb  Pb34  1  0.345691  0.250000  0.151833  1
  Pb  Pb35  1  0.845449  0.250000  0.347686  1
