# generated using pymatgen
data_CsK2Nb2AsSe11
_symmetry_space_group_name_H-M   'P 1'
_cell_length_a   10.29663624
_cell_length_b   10.29663577
_cell_length_c   10.23512716
_cell_angle_alpha   84.08567466
_cell_angle_beta   95.91432447
_cell_angle_gamma   95.85703261
_symmetry_Int_Tables_number   1
_chemical_formula_structural   CsK2Nb2AsSe11
_chemical_formula_sum   'Cs2 K4 Nb4 As2 Se22'
_cell_volume   1069.02008652
_cell_formula_units_Z   2
loop_
 _symmetry_equiv_pos_site_id
 _symmetry_equiv_pos_as_xyz
  1  'x, y, z'
loop_
 _atom_site_type_symbol
 _atom_site_label
 _atom_site_symmetry_multiplicity
 _atom_site_fract_x
 _atom_site_fract_y
 _atom_site_fract_z
 _atom_site_occupancy
  Cs  Cs0  1  0.801293  0.356637  0.157367  1
  Cs  Cs1  1  0.643362  0.198706  0.657366  1
  K  K2  1  0.042503  0.818979  0.398115  1
  K  K3  1  0.181021  0.957497  0.898115  1
  K  K4  1  0.281237  0.563564  0.061546  1
  K  K5  1  0.436436  0.718762  0.561547  1
  Nb  Nb6  1  0.084853  0.462639  0.670060  1
  Nb  Nb7  1  0.537361  0.915148  0.170059  1
  Nb  Nb8  1  0.194479  0.202881  0.484257  1
  Nb  Nb9  1  0.797119  0.805521  0.984257  1
  As  As10  1  0.409612  0.255604  0.219847  1
  As  As11  1  0.744395  0.590387  0.719846  1
  Se  Se12  1  0.835058  0.813727  0.730295  1
  Se  Se13  1  0.186272  0.164941  0.230294  1
  Se  Se14  1  0.895722  0.495146  0.484114  1
  Se  Se15  1  0.504854  0.104279  0.984114  1
  Se  Se16  1  0.562484  0.106258  0.327442  1
  Se  Se17  1  0.893741  0.437516  0.827442  1
  Se  Se18  1  0.818680  0.987030  0.148076  1
  Se  Se19  1  0.012970  0.181320  0.648077  1
  Se  Se20  1  0.650123  0.689846  0.184293  1
  Se  Se21  1  0.310154  0.349877  0.684293  1
  Se  Se22  1  0.109467  0.471415  0.414403  1
  Se  Se23  1  0.528584  0.890533  0.914403  1
  Se  Se24  1  0.613398  0.611831  0.906292  1
  Se  Se25  1  0.388170  0.386602  0.406291  1
  Se  Se26  1  0.690824  0.816415  0.371752  1
  Se  Se27  1  0.183586  0.309176  0.871751  1
  Se  Se28  1  0.948197  0.124703  0.428836  1
  Se  Se29  1  0.875299  0.051803  0.928837  1
  Se  Se30  1  0.170017  0.675900  0.725644  1
  Se  Se31  1  0.324101  0.829984  0.225643  1
  Se  Se32  1  0.982797  0.692368  0.065122  1
  Se  Se33  1  0.307633  0.017203  0.565123  1
