# generated using pymatgen
data_Ce3Al12Tc3Pd
_symmetry_space_group_name_H-M   'P 1'
_cell_length_a   8.99804111
_cell_length_b   8.94189117
_cell_length_c   9.65965856
_cell_angle_alpha   89.23656334
_cell_angle_beta   90.37932914
_cell_angle_gamma   119.79379235
_symmetry_Int_Tables_number   1
_chemical_formula_structural   Ce3Al12Tc3Pd
_chemical_formula_sum   'Ce6 Al24 Tc6 Pd2'
_cell_volume   674.41912199
_cell_formula_units_Z   2
loop_
 _symmetry_equiv_pos_site_id
 _symmetry_equiv_pos_as_xyz
  1  'x, y, z'
loop_
 _atom_site_type_symbol
 _atom_site_label
 _atom_site_symmetry_multiplicity
 _atom_site_fract_x
 _atom_site_fract_y
 _atom_site_fract_z
 _atom_site_occupancy
  Ce  Ce0  1  0.812238  0.612451  0.746920  1
  Ce  Ce1  1  0.187762  0.800212  0.246920  1
  Ce  Ce2  1  0.617116  0.808558  0.250000  1
  Ce  Ce3  1  0.382884  0.191442  0.750000  1
  Ce  Ce4  1  0.812238  0.199788  0.753080  1
  Ce  Ce5  1  0.187762  0.387549  0.253080  1
  Al  Al6  1  0.331461  0.663326  0.490149  1
  Al  Al7  1  0.668539  0.331864  0.990149  1
  Al  Al8  1  0.668539  0.336674  0.509851  1
  Al  Al9  1  0.331461  0.668136  0.009851  1
  Al  Al10  1  0.162553  0.323767  0.578900  1
  Al  Al11  1  0.679135  0.834814  0.578898  1
  Al  Al12  1  0.158471  0.834774  0.576529  1
  Al  Al13  1  0.837447  0.161213  0.078900  1
  Al  Al14  1  0.841529  0.165226  0.423471  1
  Al  Al15  1  0.841529  0.676304  0.076529  1
  Al  Al16  1  0.320865  0.155679  0.078898  1
  Al  Al17  1  0.679135  0.844321  0.921102  1
  Al  Al18  1  0.158471  0.323696  0.923471  1
  Al  Al19  1  0.837447  0.676233  0.421100  1
  Al  Al20  1  0.999619  0.999810  0.250000  1
  Al  Al21  1  0.000381  0.000190  0.750000  1
  Al  Al22  1  0.560340  0.123651  0.247251  1
  Al  Al23  1  0.439660  0.563310  0.747251  1
  Al  Al24  1  0.128873  0.564436  0.750000  1
  Al  Al25  1  0.871127  0.435564  0.250000  1
  Al  Al26  1  0.560340  0.436690  0.252749  1
  Al  Al27  1  0.439660  0.876349  0.752749  1
  Al  Al28  1  0.162553  0.838787  0.921100  1
  Al  Al29  1  0.320865  0.165186  0.421102  1
  Tc  Tc30  1  0.000000  0.000000  0.500000  1
  Tc  Tc31  1  0.000000  0.000000  0.000000  1
  Tc  Tc32  1  0.000000  0.500000  0.000000  1
  Tc  Tc33  1  0.000000  0.500000  0.500000  1
  Tc  Tc34  1  0.500000  0.500000  0.500000  1
  Tc  Tc35  1  0.500000  0.000000  0.000000  1
  Pd  Pd36  1  0.500000  0.000000  0.500000  1
  Pd  Pd37  1  0.500000  0.500000  0.000000  1
