# generated using pymatgen
data_LaTm3Sb10
_symmetry_space_group_name_H-M   'P 1'
_cell_length_a   4.28311200
_cell_length_b   13.28942947
_cell_length_c   14.63449742
_cell_angle_alpha   78.12861548
_cell_angle_beta   90.00000000
_cell_angle_gamma   90.00000000
_symmetry_Int_Tables_number   1
_chemical_formula_structural   LaTm3Sb10
_chemical_formula_sum   'La2 Tm6 Sb20'
_cell_volume   815.18100186
_cell_formula_units_Z   2
loop_
 _symmetry_equiv_pos_site_id
 _symmetry_equiv_pos_as_xyz
  1  'x, y, z'
loop_
 _atom_site_type_symbol
 _atom_site_label
 _atom_site_symmetry_multiplicity
 _atom_site_fract_x
 _atom_site_fract_y
 _atom_site_fract_z
 _atom_site_occupancy
  La  La0  1  0.250000  0.952988  0.360347  1
  La  La1  1  0.750000  0.047012  0.639653  1
  Tm  Tm2  1  0.250000  0.400672  0.772870  1
  Tm  Tm3  1  0.750000  0.599328  0.227130  1
  Tm  Tm4  1  0.250000  0.661070  0.857339  1
  Tm  Tm5  1  0.750000  0.338930  0.142661  1
  Tm  Tm6  1  0.250000  0.663969  0.577961  1
  Tm  Tm7  1  0.750000  0.336031  0.422039  1
  Sb  Sb8  1  0.250000  0.148380  0.785226  1
  Sb  Sb9  1  0.750000  0.851620  0.214774  1
  Sb  Sb10  1  0.250000  0.155770  0.475147  1
  Sb  Sb11  1  0.750000  0.844230  0.524853  1
  Sb  Sb12  1  0.250000  0.157077  0.169337  1
  Sb  Sb13  1  0.750000  0.842923  0.830663  1
  Sb  Sb14  1  0.250000  0.421273  0.976479  1
  Sb  Sb15  1  0.750000  0.578727  0.023521  1
  Sb  Sb16  1  0.750000  0.032988  0.899380  1
  Sb  Sb17  1  0.250000  0.967012  0.100620  1
  Sb  Sb18  1  0.750000  0.148358  0.318766  1
  Sb  Sb19  1  0.250000  0.851642  0.681234  1
  Sb  Sb20  1  0.750000  0.284515  0.936832  1
  Sb  Sb21  1  0.250000  0.715485  0.063168  1
  Sb  Sb22  1  0.750000  0.296230  0.650565  1
  Sb  Sb23  1  0.250000  0.703770  0.349435  1
  Sb  Sb24  1  0.750000  0.576936  0.736234  1
  Sb  Sb25  1  0.250000  0.423064  0.263766  1
  Sb  Sb26  1  0.750000  0.573628  0.443843  1
  Sb  Sb27  1  0.250000  0.426372  0.556157  1
