# generated using pymatgen
data_Ho2Th2As4PdPt3
_symmetry_space_group_name_H-M   'P 1'
_cell_length_a   4.32243600
_cell_length_b   4.32243704
_cell_length_c   15.52693100
_cell_angle_alpha   90.00000000
_cell_angle_beta   90.00000000
_cell_angle_gamma   120.00000739
_symmetry_Int_Tables_number   1
_chemical_formula_structural   Ho2Th2As4PdPt3
_chemical_formula_sum   'Ho2 Th2 As4 Pd1 Pt3'
_cell_volume   251.23114037
_cell_formula_units_Z   1
loop_
 _symmetry_equiv_pos_site_id
 _symmetry_equiv_pos_as_xyz
  1  'x, y, z'
loop_
 _atom_site_type_symbol
 _atom_site_label
 _atom_site_symmetry_multiplicity
 _atom_site_fract_x
 _atom_site_fract_y
 _atom_site_fract_z
 _atom_site_occupancy
  Ho  Ho0  1  0.000000  0.000000  0.249268  1
  Ho  Ho1  1  0.000000  0.000000  0.749752  1
  Th  Th2  1  0.000000  0.000000  0.500159  1
  Th  Th3  1  0.000000  0.000000  0.999604  1
  As  As4  1  0.333333  0.666667  0.882225  1
  As  As5  1  0.666667  0.333333  0.118724  1
  As  As6  1  0.666667  0.333333  0.382534  1
  As  As7  1  0.333333  0.666667  0.617286  1
  Pd  Pd8  1  0.333333  0.666667  0.357010  1
  Pt  Pt9  1  0.666667  0.333333  0.643351  1
  Pt  Pt10  1  0.666667  0.333333  0.856949  1
  Pt  Pt11  1  0.333333  0.666667  0.143138  1
