# generated using pymatgen
data_Ho16In6OsRu
_symmetry_space_group_name_H-M   'P 1'
_cell_length_a   10.37025500
_cell_length_b   10.37025588
_cell_length_c   7.03899900
_cell_angle_alpha   90.00000000
_cell_angle_beta   90.00000000
_cell_angle_gamma   120.00000039
_symmetry_Int_Tables_number   1
_chemical_formula_structural   Ho16In6OsRu
_chemical_formula_sum   'Ho16 In6 Os1 Ru1'
_cell_volume   655.57206846
_cell_formula_units_Z   1
loop_
 _symmetry_equiv_pos_site_id
 _symmetry_equiv_pos_as_xyz
  1  'x, y, z'
loop_
 _atom_site_type_symbol
 _atom_site_label
 _atom_site_symmetry_multiplicity
 _atom_site_fract_x
 _atom_site_fract_y
 _atom_site_fract_z
 _atom_site_occupancy
  Ho  Ho0  1  0.533017  0.066033  0.507662  1
  Ho  Ho1  1  0.933967  0.466983  0.507662  1
  Ho  Ho2  1  0.533017  0.466983  0.507662  1
  Ho  Ho3  1  0.466985  0.933972  0.007901  1
  Ho  Ho4  1  0.066028  0.533015  0.007901  1
  Ho  Ho5  1  0.466985  0.533015  0.007901  1
  Ho  Ho6  1  0.177335  0.354670  0.712416  1
  Ho  Ho7  1  0.645330  0.822665  0.712416  1
  Ho  Ho8  1  0.177335  0.822665  0.712416  1
  Ho  Ho9  1  0.822764  0.645528  0.212959  1
  Ho  Ho10  1  0.354472  0.177236  0.212959  1
  Ho  Ho11  1  0.822764  0.177236  0.212959  1
  Ho  Ho12  1  0.666667  0.333333  0.883698  1
  Ho  Ho13  1  0.333333  0.666667  0.383707  1
  Ho  Ho14  1  0.000000  0.000000  0.492766  1
  Ho  Ho15  1  0.000000  0.000000  0.991544  1
  In  In16  1  0.837401  0.674802  0.752902  1
  In  In17  1  0.325198  0.162599  0.752902  1
  In  In18  1  0.837401  0.162599  0.752902  1
  In  In19  1  0.162851  0.325702  0.252964  1
  In  In20  1  0.674298  0.837149  0.252964  1
  In  In21  1  0.162851  0.837149  0.252964  1
  Os  Os22  1  0.666667  0.333333  0.283164  1
  Ru  Ru23  1  0.333333  0.666667  0.782753  1
