# generated using pymatgen
data_UTe28
_symmetry_space_group_name_H-M   'P 1'
_cell_length_a   12.07044839
_cell_length_b   10.81983923
_cell_length_c   12.67756400
_cell_angle_alpha   115.00825248
_cell_angle_beta   124.68022695
_cell_angle_gamma   88.22720311
_symmetry_Int_Tables_number   1
_chemical_formula_structural   UTe28
_chemical_formula_sum   'U1 Te28'
_cell_volume   1184.08520647
_cell_formula_units_Z   1
loop_
 _symmetry_equiv_pos_site_id
 _symmetry_equiv_pos_as_xyz
  1  'x, y, z'
loop_
 _atom_site_type_symbol
 _atom_site_label
 _atom_site_symmetry_multiplicity
 _atom_site_fract_x
 _atom_site_fract_y
 _atom_site_fract_z
 _atom_site_occupancy
  U  U0  1  0.500000  0.000000  0.000000  1
  Te  Te1  1  0.229294  0.106609  0.413350  1
  Te  Te2  1  0.606789  0.162853  0.447935  1
  Te  Te3  1  0.272305  0.248320  0.901661  1
  Te  Te4  1  0.907614  0.302809  0.892423  1
  Te  Te5  1  0.206481  0.545002  0.724351  1
  Te  Te6  1  0.809655  0.520551  0.632666  1
  Te  Te7  1  0.393211  0.837147  0.552065  1
  Te  Te8  1  0.770706  0.893391  0.586650  1
  Te  Te9  1  0.092386  0.697191  0.107577  1
  Te  Te10  1  0.727695  0.751680  0.098339  1
  Te  Te11  1  0.190345  0.479449  0.367334  1
  Te  Te12  1  0.793519  0.454998  0.275649  1
  Te  Te13  1  0.757143  0.070932  0.843212  1
  Te  Te14  1  0.221361  0.963292  0.713655  1
  Te  Te15  1  0.815407  0.682759  0.896895  1
  Te  Te16  1  0.379164  0.770484  0.030246  1
  Te  Te17  1  0.507433  0.254314  0.236055  1
  Te  Te18  1  0.035784  0.282036  0.362129  1
  Te  Te19  1  0.778639  0.036708  0.286345  1
  Te  Te20  1  0.242857  0.929068  0.156788  1
  Te  Te21  1  0.620836  0.229516  0.969754  1
  Te  Te22  1  0.184593  0.317241  0.103105  1
  Te  Te23  1  0.964216  0.717964  0.637871  1
  Te  Te24  1  0.492567  0.745686  0.763945  1
  Te  Te25  1  0.041041  0.381744  0.736484  1
  Te  Te26  1  0.496678  0.300366  0.592103  1
  Te  Te27  1  0.503322  0.699634  0.407897  1
  Te  Te28  1  0.958959  0.618256  0.263516  1
