# generated using pymatgen
data_Ce2TmCoSn3Rh2
_symmetry_space_group_name_H-M   'P 1'
_cell_length_a   7.44524400
_cell_length_b   7.45072846
_cell_length_c   3.95096100
_cell_angle_alpha   90.00000000
_cell_angle_beta   90.00000000
_cell_angle_gamma   119.97566195
_symmetry_Int_Tables_number   1
_chemical_formula_structural   Ce2TmCoSn3Rh2
_chemical_formula_sum   'Ce2 Tm1 Co1 Sn3 Rh2'
_cell_volume   189.85301688
_cell_formula_units_Z   1
loop_
 _symmetry_equiv_pos_site_id
 _symmetry_equiv_pos_as_xyz
  1  'x, y, z'
loop_
 _atom_site_type_symbol
 _atom_site_label
 _atom_site_symmetry_multiplicity
 _atom_site_fract_x
 _atom_site_fract_y
 _atom_site_fract_z
 _atom_site_occupancy
  Ce  Ce0  1  0.000667  0.409255  0.000000  1
  Ce  Ce1  1  0.591413  0.590745  0.000000  1
  Tm  Tm2  1  0.404371  0.000000  0.000000  1
  Co  Co3  1  0.995759  0.000000  0.000000  1
  Sn  Sn4  1  0.249605  0.242313  0.500000  1
  Sn  Sn5  1  0.007292  0.757687  0.500000  1
  Sn  Sn6  1  0.745806  0.000000  0.500000  1
  Rh  Rh7  1  0.673301  0.341514  0.500000  1
  Rh  Rh8  1  0.331786  0.658486  0.500000  1
