# generated using pymatgen
data_Dy9TmAl4(HgC4)2
_symmetry_space_group_name_H-M   'P 1'
_cell_length_a   10.97059377
_cell_length_b   10.97873974
_cell_length_c   3.50182300
_cell_angle_alpha   90.00000000
_cell_angle_beta   90.00000000
_cell_angle_gamma   90.06187427
_symmetry_Int_Tables_number   1
_chemical_formula_structural   Dy9TmAl4(HgC4)2
_chemical_formula_sum   'Dy9 Tm1 Al4 Hg2 C8'
_cell_volume   421.77085019
_cell_formula_units_Z   1
loop_
 _symmetry_equiv_pos_site_id
 _symmetry_equiv_pos_as_xyz
  1  'x, y, z'
loop_
 _atom_site_type_symbol
 _atom_site_label
 _atom_site_symmetry_multiplicity
 _atom_site_fract_x
 _atom_site_fract_y
 _atom_site_fract_z
 _atom_site_occupancy
  Dy  Dy0  1  0.550009  0.733011  0.500000  1
  Dy  Dy1  1  0.451384  0.267525  0.500000  1
  Dy  Dy2  1  0.048978  0.768010  0.500000  1
  Dy  Dy3  1  0.950635  0.231772  0.500000  1
  Dy  Dy4  1  0.267921  0.549166  0.500000  1
  Dy  Dy5  1  0.732127  0.450846  0.500000  1
  Dy  Dy6  1  0.231703  0.048815  0.500000  1
  Dy  Dy7  1  0.500305  0.000257  0.000000  1
  Dy  Dy8  1  0.999901  0.499926  0.000000  1
  Tm  Tm9  1  0.765371  0.951454  0.500000  1
  Al  Al10  1  0.704342  0.202746  0.000000  1
  Al  Al11  1  0.296669  0.796164  0.000000  1
  Al  Al12  1  0.203731  0.296227  0.000000  1
  Al  Al13  1  0.796788  0.704444  0.000000  1
  Hg  Hg14  1  0.500191  0.500270  0.000000  1
  Hg  Hg15  1  0.996610  0.999349  0.000000  1
  C  C16  1  0.632787  0.130270  0.500000  1
  C  C17  1  0.368393  0.868215  0.500000  1
  C  C18  1  0.131995  0.368103  0.500000  1
  C  C19  1  0.868336  0.631670  0.500000  1
  C  C20  1  0.161859  0.661849  0.000000  1
  C  C21  1  0.838216  0.337848  0.000000  1
  C  C22  1  0.663572  0.840362  0.000000  1
  C  C23  1  0.338177  0.161700  0.000000  1
