# generated using pymatgen
data_HoSi4P2(Pd10Pb)2
_symmetry_space_group_name_H-M   'P 1'
_cell_length_a   8.72558594
_cell_length_b   8.72558599
_cell_length_c   8.71536300
_cell_angle_alpha   60.03874522
_cell_angle_beta   60.03874503
_cell_angle_gamma   59.92250084
_symmetry_Int_Tables_number   1
_chemical_formula_structural   HoSi4P2(Pd10Pb)2
_chemical_formula_sum   'Ho1 Si4 P2 Pd20 Pb2'
_cell_volume   469.20049944
_cell_formula_units_Z   1
loop_
 _symmetry_equiv_pos_site_id
 _symmetry_equiv_pos_as_xyz
  1  'x, y, z'
loop_
 _atom_site_type_symbol
 _atom_site_label
 _atom_site_symmetry_multiplicity
 _atom_site_fract_x
 _atom_site_fract_y
 _atom_site_fract_z
 _atom_site_occupancy
  Ho  Ho0  1  0.000000  0.000000  0.000000  1
  Si  Si1  1  0.732080  0.267920  0.267920  1
  Si  Si2  1  0.267920  0.732080  0.732080  1
  Si  Si3  1  0.267920  0.732080  0.267920  1
  Si  Si4  1  0.732080  0.267920  0.732080  1
  P  P5  1  0.266811  0.266811  0.733189  1
  P  P6  1  0.733189  0.733189  0.266811  1
  Pd  Pd7  1  0.383512  0.383512  0.385496  1
  Pd  Pd8  1  0.616488  0.616488  0.614504  1
  Pd  Pd9  1  0.383512  0.383512  0.847482  1
  Pd  Pd10  1  0.385496  0.847482  0.383512  1
  Pd  Pd11  1  0.616488  0.616488  0.152518  1
  Pd  Pd12  1  0.614504  0.152518  0.616488  1
  Pd  Pd13  1  0.847482  0.385496  0.383512  1
  Pd  Pd14  1  0.152518  0.614504  0.616488  1
  Pd  Pd15  1  0.343253  0.001087  0.998913  1
  Pd  Pd16  1  0.656747  0.998913  0.001087  1
  Pd  Pd17  1  0.001087  0.343253  0.656747  1
  Pd  Pd18  1  0.998913  0.656747  0.343253  1
  Pd  Pd19  1  0.001087  0.343253  0.998913  1
  Pd  Pd20  1  0.656747  0.998913  0.343253  1
  Pd  Pd21  1  0.998913  0.656747  0.001087  1
  Pd  Pd22  1  0.343253  0.001087  0.656747  1
  Pd  Pd23  1  0.000000  0.000000  0.344520  1
  Pd  Pd24  1  0.000000  0.000000  0.655480  1
  Pd  Pd25  1  0.655480  0.344520  0.000000  1
  Pd  Pd26  1  0.344520  0.655480  0.000000  1
  Pb  Pb27  1  0.250000  0.250000  0.250000  1
  Pb  Pb28  1  0.750000  0.750000  0.750000  1
