# generated using pymatgen
data_Zr3SiO
_symmetry_space_group_name_H-M   'P 1'
_cell_length_a   3.52912200
_cell_length_b   5.83760154
_cell_length_c   8.53307200
_cell_angle_alpha   90.00000000
_cell_angle_beta   90.00000000
_cell_angle_gamma   107.59429620
_symmetry_Int_Tables_number   1
_chemical_formula_structural   Zr3SiO
_chemical_formula_sum   'Zr6 Si2 O2'
_cell_volume   167.57144857
_cell_formula_units_Z   2
loop_
 _symmetry_equiv_pos_site_id
 _symmetry_equiv_pos_as_xyz
  1  'x, y, z'
loop_
 _atom_site_type_symbol
 _atom_site_label
 _atom_site_symmetry_multiplicity
 _atom_site_fract_x
 _atom_site_fract_y
 _atom_site_fract_z
 _atom_site_occupancy
  Zr  Zr0  1  0.059405  0.118809  0.250000  1
  Zr  Zr1  1  0.940596  0.881190  0.750000  1
  Zr  Zr2  1  0.361042  0.722084  0.056474  1
  Zr  Zr3  1  0.638959  0.277915  0.943527  1
  Zr  Zr4  1  0.638959  0.277915  0.556474  1
  Zr  Zr5  1  0.361042  0.722084  0.443526  1
  Si  Si6  1  0.744403  0.488804  0.250000  1
  Si  Si7  1  0.255598  0.511195  0.750000  1
  O  O8  1  0.000000  0.000000  0.500000  1
  O  O9  1  0.000000  0.000000  0.000000  1
