# generated using pymatgen
data_Tb4Sc4Ir3Pt
_symmetry_space_group_name_H-M   'P 1'
_cell_length_a   4.30966400
_cell_length_b   7.14446221
_cell_length_c   8.73942126
_cell_angle_alpha   88.71931541
_cell_angle_beta   90.00000000
_cell_angle_gamma   90.00000000
_symmetry_Int_Tables_number   1
_chemical_formula_structural   Tb4Sc4Ir3Pt
_chemical_formula_sum   'Tb4 Sc4 Ir3 Pt1'
_cell_volume   269.02158651
_cell_formula_units_Z   1
loop_
 _symmetry_equiv_pos_site_id
 _symmetry_equiv_pos_as_xyz
  1  'x, y, z'
loop_
 _atom_site_type_symbol
 _atom_site_label
 _atom_site_symmetry_multiplicity
 _atom_site_fract_x
 _atom_site_fract_y
 _atom_site_fract_z
 _atom_site_occupancy
  Tb  Tb0  1  0.250000  0.009714  0.672417  1
  Tb  Tb1  1  0.250000  0.523257  0.821275  1
  Tb  Tb2  1  0.750000  0.986734  0.327378  1
  Tb  Tb3  1  0.750000  0.485447  0.178763  1
  Sc  Sc4  1  0.250000  0.138677  0.070021  1
  Sc  Sc5  1  0.250000  0.640712  0.432665  1
  Sc  Sc6  1  0.750000  0.859434  0.935397  1
  Sc  Sc7  1  0.750000  0.357442  0.566288  1
  Ir  Ir8  1  0.250000  0.260491  0.396646  1
  Ir  Ir9  1  0.250000  0.757338  0.097721  1
  Ir  Ir10  1  0.750000  0.737266  0.603543  1
  Pt  Pt11  1  0.750000  0.243489  0.897887  1
