# generated using pymatgen
data_MgZn21Pt4
_symmetry_space_group_name_H-M   'P 1'
_cell_length_a   7.96094983
_cell_length_b   7.98598285
_cell_length_c   7.96095092
_cell_angle_alpha   109.54635479
_cell_angle_beta   109.41566345
_cell_angle_gamma   109.54635701
_symmetry_Int_Tables_number   1
_chemical_formula_structural   MgZn21Pt4
_chemical_formula_sum   'Mg1 Zn21 Pt4'
_cell_volume   389.15899107
_cell_formula_units_Z   1
loop_
 _symmetry_equiv_pos_site_id
 _symmetry_equiv_pos_as_xyz
  1  'x, y, z'
loop_
 _atom_site_type_symbol
 _atom_site_label
 _atom_site_symmetry_multiplicity
 _atom_site_fract_x
 _atom_site_fract_y
 _atom_site_fract_z
 _atom_site_occupancy
  Mg  Mg0  1  0.725004  0.374825  0.725004  1
  Zn  Zn1  1  0.624439  0.354811  0.344095  1
  Zn  Zn2  1  0.344095  0.354811  0.624439  1
  Zn  Zn3  1  0.652065  0.271740  0.006040  1
  Zn  Zn4  1  0.221376  0.218049  0.221376  1
  Zn  Zn5  1  0.001803  0.000027  0.782051  1
  Zn  Zn6  1  0.782051  0.000027  0.001803  1
  Zn  Zn7  1  0.002866  0.793375  0.002866  1
  Zn  Zn8  1  0.360329  0.359025  0.001081  1
  Zn  Zn9  1  0.999833  0.643448  0.639681  1
  Zn  Zn10  1  0.001081  0.359025  0.360329  1
  Zn  Zn11  1  0.356551  0.995849  0.356551  1
  Zn  Zn12  1  0.639785  0.991519  0.639785  1
  Zn  Zn13  1  0.639681  0.643448  0.999833  1
  Zn  Zn14  1  0.348717  0.621366  0.348717  1
  Zn  Zn15  1  0.279577  0.004467  0.650399  1
  Zn  Zn16  1  0.650399  0.004467  0.279577  1
  Zn  Zn17  1  0.269868  0.647602  0.998405  1
  Zn  Zn18  1  0.723140  0.724748  0.373133  1
  Zn  Zn19  1  0.373133  0.724748  0.723140  1
  Zn  Zn20  1  0.998405  0.647602  0.269868  1
  Zn  Zn21  1  0.006040  0.271740  0.652065  1
  Pt  Pt22  1  0.000334  0.341287  0.000334  1
  Pt  Pt23  1  0.345713  0.997975  0.998201  1
  Pt  Pt24  1  0.998201  0.997975  0.345713  1
  Pt  Pt25  1  0.655512  0.656045  0.655512  1
