# generated using pymatgen
data_Y3Er3Al24(CoOs)4
_symmetry_space_group_name_H-M   'P 1'
_cell_length_a   8.73750130
_cell_length_b   8.73447863
_cell_length_c   9.40464440
_cell_angle_alpha   90.31635977
_cell_angle_beta   89.69199472
_cell_angle_gamma   120.31197811
_symmetry_Int_Tables_number   1
_chemical_formula_structural   Y3Er3Al24(CoOs)4
_chemical_formula_sum   'Y3 Er3 Al24 Co4 Os4'
_cell_volume   619.60481574
_cell_formula_units_Z   1
loop_
 _symmetry_equiv_pos_site_id
 _symmetry_equiv_pos_as_xyz
  1  'x, y, z'
loop_
 _atom_site_type_symbol
 _atom_site_label
 _atom_site_symmetry_multiplicity
 _atom_site_fract_x
 _atom_site_fract_y
 _atom_site_fract_z
 _atom_site_occupancy
  Y  Y0  1  0.198296  0.388736  0.248296  1
  Y  Y1  1  0.801315  0.610826  0.751722  1
  Y  Y2  1  0.611189  0.801598  0.248346  1
  Er  Er3  1  0.390227  0.199463  0.751789  1
  Er  Er4  1  0.194206  0.805841  0.251724  1
  Er  Er5  1  0.805387  0.194417  0.748173  1
  Al  Al6  1  0.329857  0.670116  0.017562  1
  Al  Al7  1  0.669636  0.329445  0.981886  1
  Al  Al8  1  0.666559  0.332991  0.514980  1
  Al  Al9  1  0.333100  0.666846  0.485541  1
  Al  Al10  1  0.158717  0.319420  0.576718  1
  Al  Al11  1  0.841466  0.680227  0.423706  1
  Al  Al12  1  0.680287  0.841467  0.576460  1
  Al  Al13  1  0.841059  0.676312  0.074943  1
  Al  Al14  1  0.319679  0.158519  0.424183  1
  Al  Al15  1  0.159133  0.323286  0.924609  1
  Al  Al16  1  0.159815  0.840954  0.578436  1
  Al  Al17  1  0.323656  0.158853  0.074381  1
  Al  Al18  1  0.840434  0.159609  0.421986  1
  Al  Al19  1  0.676382  0.841095  0.924885  1
  Al  Al20  1  0.839178  0.160848  0.073284  1
  Al  Al21  1  0.161120  0.839756  0.926272  1
  Al  Al22  1  0.560475  0.118370  0.242836  1
  Al  Al23  1  0.439337  0.882279  0.757245  1
  Al  Al24  1  0.881579  0.439462  0.242860  1
  Al  Al25  1  0.118472  0.560542  0.757121  1
  Al  Al26  1  0.564304  0.435603  0.247893  1
  Al  Al27  1  0.435440  0.563659  0.752052  1
  Al  Al28  1  0.001422  0.998578  0.250064  1
  Al  Al29  1  0.999973  0.002130  0.749928  1
  Co  Co30  1  0.499809  0.000143  0.999741  1
  Co  Co31  1  0.999790  0.499893  0.999930  1
  Co  Co32  1  0.999869  0.999912  0.000090  1
  Co  Co33  1  0.999818  0.999895  0.499887  1
  Os  Os34  1  0.499745  0.000193  0.500399  1
  Os  Os35  1  0.499744  0.499371  0.999560  1
  Os  Os36  1  0.999804  0.499912  0.500098  1
  Os  Os37  1  0.499718  0.499435  0.500416  1
