# generated using pymatgen
data_Ca20Cd3Si8Te
_symmetry_space_group_name_H-M   'P 1'
_cell_length_a   7.73737400
_cell_length_b   7.73737400
_cell_length_c   15.48313500
_cell_angle_alpha   90.00000000
_cell_angle_beta   90.00000000
_cell_angle_gamma   90.00000000
_symmetry_Int_Tables_number   1
_chemical_formula_structural   Ca20Cd3Si8Te
_chemical_formula_sum   'Ca20 Cd3 Si8 Te1'
_cell_volume   926.92816823
_cell_formula_units_Z   1
loop_
 _symmetry_equiv_pos_site_id
 _symmetry_equiv_pos_as_xyz
  1  'x, y, z'
loop_
 _atom_site_type_symbol
 _atom_site_label
 _atom_site_symmetry_multiplicity
 _atom_site_fract_x
 _atom_site_fract_y
 _atom_site_fract_z
 _atom_site_occupancy
  Ca  Ca0  1  0.670824  0.176641  0.113243  1
  Ca  Ca1  1  0.174857  0.672133  0.615031  1
  Ca  Ca2  1  0.329176  0.823359  0.113243  1
  Ca  Ca3  1  0.825143  0.327867  0.615031  1
  Ca  Ca4  1  0.823359  0.670824  0.113243  1
  Ca  Ca5  1  0.327867  0.174857  0.615031  1
  Ca  Ca6  1  0.176641  0.329176  0.113243  1
  Ca  Ca7  1  0.672133  0.825143  0.615031  1
  Ca  Ca8  1  0.823359  0.329176  0.886757  1
  Ca  Ca9  1  0.327867  0.825143  0.384969  1
  Ca  Ca10  1  0.176641  0.670824  0.886757  1
  Ca  Ca11  1  0.672133  0.174857  0.384969  1
  Ca  Ca12  1  0.670824  0.823359  0.886757  1
  Ca  Ca13  1  0.174857  0.327867  0.384969  1
  Ca  Ca14  1  0.329176  0.176641  0.886757  1
  Ca  Ca15  1  0.825143  0.672133  0.384969  1
  Ca  Ca16  1  0.500000  0.500000  0.751863  1
  Ca  Ca17  1  0.000000  0.000000  0.254277  1
  Ca  Ca18  1  0.000000  0.000000  0.745723  1
  Ca  Ca19  1  0.500000  0.500000  0.248137  1
  Cd  Cd20  1  0.500000  0.500000  0.500000  1
  Cd  Cd21  1  0.500000  0.500000  0.000000  1
  Cd  Cd22  1  0.000000  0.000000  0.500000  1
  Si  Si23  1  0.613608  0.111775  0.752670  1
  Si  Si24  1  0.111775  0.613608  0.247330  1
  Si  Si25  1  0.888225  0.386392  0.247330  1
  Si  Si26  1  0.386392  0.888225  0.752670  1
  Si  Si27  1  0.888225  0.613608  0.752670  1
  Si  Si28  1  0.386392  0.111775  0.247330  1
  Si  Si29  1  0.111775  0.386392  0.752670  1
  Si  Si30  1  0.613608  0.888225  0.247330  1
  Te  Te31  1  0.000000  0.000000  0.000000  1
