# generated using pymatgen
data_Ta4NbCo16Si7Mo
_symmetry_space_group_name_H-M   'P 1'
_cell_length_a   7.88000932
_cell_length_b   7.89060769
_cell_length_c   7.88944803
_cell_angle_alpha   59.93639077
_cell_angle_beta   60.04845621
_cell_angle_gamma   60.03018377
_symmetry_Int_Tables_number   1
_chemical_formula_structural   Ta4NbCo16Si7Mo
_chemical_formula_sum   'Ta4 Nb1 Co16 Si7 Mo1'
_cell_volume   346.91028705
_cell_formula_units_Z   1
loop_
 _symmetry_equiv_pos_site_id
 _symmetry_equiv_pos_as_xyz
  1  'x, y, z'
loop_
 _atom_site_type_symbol
 _atom_site_label
 _atom_site_symmetry_multiplicity
 _atom_site_fract_x
 _atom_site_fract_y
 _atom_site_fract_z
 _atom_site_occupancy
  Ta  Ta0  1  0.795418  0.204594  0.204254  1
  Ta  Ta1  1  0.798520  0.201503  0.797534  1
  Ta  Ta2  1  0.797805  0.797190  0.201922  1
  Ta  Ta3  1  0.202788  0.202272  0.796872  1
  Nb  Nb4  1  0.202009  0.797940  0.201003  1
  Co  Co5  1  0.381727  0.380001  0.381207  1
  Co  Co6  1  0.498216  0.834750  0.833633  1
  Co  Co7  1  0.620019  0.618234  0.142919  1
  Co  Co8  1  0.165115  0.166674  0.502873  1
  Co  Co9  1  0.833242  0.834925  0.497470  1
  Co  Co10  1  0.165081  0.166851  0.165694  1
  Co  Co11  1  0.833408  0.834930  0.834680  1
  Co  Co12  1  0.381373  0.383228  0.854521  1
  Co  Co13  1  0.834411  0.496118  0.834890  1
  Co  Co14  1  0.616825  0.618616  0.619120  1
  Co  Co15  1  0.381440  0.854491  0.383814  1
  Co  Co16  1  0.145475  0.618547  0.619738  1
  Co  Co17  1  0.619408  0.142960  0.618817  1
  Co  Co18  1  0.165310  0.501572  0.166702  1
  Co  Co19  1  0.857035  0.380604  0.381209  1
  Co  Co20  1  0.503766  0.165664  0.165468  1
  Si  Si21  1  0.002430  0.997703  0.500845  1
  Si  Si22  1  0.498546  0.997961  0.500959  1
  Si  Si23  1  0.501524  0.498354  0.498234  1
  Si  Si24  1  0.002285  0.501296  0.997573  1
  Si  Si25  1  0.498395  0.501389  0.997715  1
  Si  Si26  1  0.499109  0.000684  0.000623  1
  Si  Si27  1  0.999561  0.500732  0.500231  1
  Mo  Mo28  1  0.199762  0.800216  0.799480  1
