# generated using pymatgen
data_Sm5Dy3(SBr6)2
_symmetry_space_group_name_H-M   'P 1'
_cell_length_a   4.00989600
_cell_length_b   13.11032393
_cell_length_c   13.86463400
_cell_angle_alpha   90.26940687
_cell_angle_beta   90.00000000
_cell_angle_gamma   90.00000000
_symmetry_Int_Tables_number   1
_chemical_formula_structural   Sm5Dy3(SBr6)2
_chemical_formula_sum   'Sm5 Dy3 S2 Br12'
_cell_volume   728.87010852
_cell_formula_units_Z   1
loop_
 _symmetry_equiv_pos_site_id
 _symmetry_equiv_pos_as_xyz
  1  'x, y, z'
loop_
 _atom_site_type_symbol
 _atom_site_label
 _atom_site_symmetry_multiplicity
 _atom_site_fract_x
 _atom_site_fract_y
 _atom_site_fract_z
 _atom_site_occupancy
  Sm  Sm0  1  0.500000  0.116892  0.344071  1
  Sm  Sm1  1  0.000000  0.114965  0.577035  1
  Sm  Sm2  1  0.000000  0.885040  0.423040  1
  Sm  Sm3  1  0.000000  0.615099  0.923059  1
  Sm  Sm4  1  0.000000  0.385985  0.075895  1
  Dy  Dy5  1  0.500000  0.883058  0.656367  1
  Dy  Dy6  1  0.500000  0.616370  0.155125  1
  Dy  Dy7  1  0.500000  0.384162  0.844518  1
  S  S8  1  0.500000  0.998392  0.502182  1
  S  S9  1  0.500000  0.500653  0.999580  1
  Br  Br10  1  0.500000  0.242798  0.160759  1
  Br  Br11  1  0.500000  0.758354  0.835989  1
  Br  Br12  1  0.500000  0.740875  0.335907  1
  Br  Br13  1  0.500000  0.258352  0.665187  1
  Br  Br14  1  0.000000  0.262903  0.415455  1
  Br  Br15  1  0.000000  0.742153  0.589462  1
  Br  Br16  1  0.000000  0.757538  0.089861  1
  Br  Br17  1  0.000000  0.242696  0.909535  1
  Br  Br18  1  0.000000  0.996909  0.237417  1
  Br  Br19  1  0.000000  0.996592  0.760145  1
  Br  Br20  1  0.000000  0.503923  0.259459  1
  Br  Br21  1  0.000000  0.496292  0.739954  1
