# generated using pymatgen
data_Tb5Dy5(InSb2)2
_symmetry_space_group_name_H-M   'P 1'
_cell_length_a   6.48264000
_cell_length_b   9.00474555
_cell_length_c   9.02489700
_cell_angle_alpha   120.07387793
_cell_angle_beta   89.99998730
_cell_angle_gamma   89.99996690
_symmetry_Int_Tables_number   1
_chemical_formula_structural   Tb5Dy5(InSb2)2
_chemical_formula_sum   'Tb5 Dy5 In2 Sb4'
_cell_volume   455.90299637
_cell_formula_units_Z   1
loop_
 _symmetry_equiv_pos_site_id
 _symmetry_equiv_pos_as_xyz
  1  'x, y, z'
loop_
 _atom_site_type_symbol
 _atom_site_label
 _atom_site_symmetry_multiplicity
 _atom_site_fract_x
 _atom_site_fract_y
 _atom_site_fract_z
 _atom_site_occupancy
  Tb  Tb0  1  0.749999  0.241904  0.004219  1
  Tb  Tb1  1  0.750001  0.758080  0.762323  1
  Tb  Tb2  1  0.249999  0.759236  0.998110  1
  Tb  Tb3  1  0.250000  0.240758  0.238893  1
  Tb  Tb4  1  0.250001  0.000012  0.757477  1
  Dy  Dy5  1  0.499440  0.336140  0.667678  1
  Dy  Dy6  1  0.499440  0.663863  0.331537  1
  Dy  Dy7  1  0.000561  0.663862  0.331536  1
  Dy  Dy8  1  0.000561  0.336141  0.667677  1
  Dy  Dy9  1  0.750000  0.000001  0.239702  1
  In  In10  1  0.749999  0.605510  0.000967  1
  In  In11  1  0.750000  0.394495  0.395467  1
  Sb  Sb12  1  0.750006  0.999994  0.608539  1
  Sb  Sb13  1  0.249999  0.392236  0.998492  1
  Sb  Sb14  1  0.250000  0.607770  0.606266  1
  Sb  Sb15  1  0.250001  0.999997  0.391118  1
