# generated using pymatgen
data_Dy5Er5Pb6
_symmetry_space_group_name_H-M   'P 1'
_cell_length_a   9.04024452
_cell_length_b   9.04554992
_cell_length_c   6.58166800
_cell_angle_alpha   90.00000000
_cell_angle_beta   90.00000000
_cell_angle_gamma   120.01941315
_symmetry_Int_Tables_number   1
_chemical_formula_structural   Dy5Er5Pb6
_chemical_formula_sum   'Dy5 Er5 Pb6'
_cell_volume   466.01164081
_cell_formula_units_Z   1
loop_
 _symmetry_equiv_pos_site_id
 _symmetry_equiv_pos_as_xyz
  1  'x, y, z'
loop_
 _atom_site_type_symbol
 _atom_site_label
 _atom_site_symmetry_multiplicity
 _atom_site_fract_x
 _atom_site_fract_y
 _atom_site_fract_z
 _atom_site_occupancy
  Dy  Dy0  1  0.760990  0.760832  0.750000  1
  Dy  Dy1  1  0.239010  0.999842  0.750000  1
  Dy  Dy2  1  0.000000  0.239484  0.750000  1
  Dy  Dy3  1  0.239144  0.239029  0.250000  1
  Dy  Dy4  1  0.760856  0.999884  0.250000  1
  Er  Er5  1  0.666680  0.333373  0.000074  1
  Er  Er6  1  0.333320  0.666694  0.000074  1
  Er  Er7  1  0.333320  0.666694  0.499926  1
  Er  Er8  1  0.666680  0.333373  0.499926  1
  Er  Er9  1  0.000000  0.760764  0.250000  1
  Pb  Pb10  1  0.393907  0.393889  0.750000  1
  Pb  Pb11  1  0.606093  0.999981  0.750000  1
  Pb  Pb12  1  0.000000  0.606077  0.750000  1
  Pb  Pb13  1  0.606810  0.606327  0.250000  1
  Pb  Pb14  1  0.393190  0.999518  0.250000  1
  Pb  Pb15  1  0.000000  0.394238  0.250000  1
