# generated using pymatgen
data_Gd2V(Ni3P2)3
_symmetry_space_group_name_H-M   'P 1'
_cell_length_a   3.69876200
_cell_length_b   10.47546700
_cell_length_c   11.93801700
_cell_angle_alpha   90.00000000
_cell_angle_beta   90.00000000
_cell_angle_gamma   90.00000000
_symmetry_Int_Tables_number   1
_chemical_formula_structural   Gd2V(Ni3P2)3
_chemical_formula_sum   'Gd4 V2 Ni18 P12'
_cell_volume   462.55350187
_cell_formula_units_Z   2
loop_
 _symmetry_equiv_pos_site_id
 _symmetry_equiv_pos_as_xyz
  1  'x, y, z'
loop_
 _atom_site_type_symbol
 _atom_site_label
 _atom_site_symmetry_multiplicity
 _atom_site_fract_x
 _atom_site_fract_y
 _atom_site_fract_z
 _atom_site_occupancy
  Gd  Gd0  1  0.250000  0.582382  0.704550  1
  Gd  Gd1  1  0.250000  0.917618  0.204550  1
  Gd  Gd2  1  0.750000  0.415964  0.295712  1
  Gd  Gd3  1  0.750000  0.084036  0.795712  1
  V  V4  1  0.250000  0.704567  0.988422  1
  V  V5  1  0.250000  0.795433  0.488422  1
  Ni  Ni6  1  0.750000  0.287415  0.011015  1
  Ni  Ni7  1  0.750000  0.212585  0.511015  1
  Ni  Ni8  1  0.250000  0.405760  0.488677  1
  Ni  Ni9  1  0.250000  0.094240  0.988677  1
  Ni  Ni10  1  0.750000  0.592977  0.510592  1
  Ni  Ni11  1  0.750000  0.907023  0.010592  1
  Ni  Ni12  1  0.250000  0.220384  0.176625  1
  Ni  Ni13  1  0.250000  0.279616  0.676625  1
  Ni  Ni14  1  0.750000  0.780662  0.823962  1
  Ni  Ni15  1  0.750000  0.719338  0.323962  1
  Ni  Ni16  1  0.250000  0.884565  0.700912  1
  Ni  Ni17  1  0.250000  0.615435  0.200912  1
  Ni  Ni18  1  0.750000  0.119732  0.300515  1
  Ni  Ni19  1  0.750000  0.380268  0.800515  1
  Ni  Ni20  1  0.250000  0.464898  0.931468  1
  Ni  Ni21  1  0.250000  0.035102  0.431468  1
  Ni  Ni22  1  0.750000  0.529846  0.068818  1
  Ni  Ni23  1  0.750000  0.970154  0.568818  1
  P  P24  1  0.250000  0.417578  0.111830  1
  P  P25  1  0.250000  0.082422  0.611830  1
  P  P26  1  0.750000  0.582313  0.886701  1
  P  P27  1  0.750000  0.917687  0.386701  1
  P  P28  1  0.250000  0.270045  0.869281  1
  P  P29  1  0.250000  0.229955  0.369281  1
  P  P30  1  0.750000  0.729898  0.130645  1
  P  P31  1  0.750000  0.770102  0.630645  1
  P  P32  1  0.250000  0.600641  0.392725  1
  P  P33  1  0.250000  0.899359  0.892725  1
  P  P34  1  0.750000  0.396532  0.607551  1
  P  P35  1  0.750000  0.103468  0.107551  1
