# generated using pymatgen
data_TbSc4Co19Si11P
_symmetry_space_group_name_H-M   'P 1'
_cell_length_a   12.01142214
_cell_length_b   12.01476789
_cell_length_c   3.65087000
_cell_angle_alpha   90.00000000
_cell_angle_beta   90.00000000
_cell_angle_gamma   119.84921182
_symmetry_Int_Tables_number   1
_chemical_formula_structural   TbSc4Co19Si11P
_chemical_formula_sum   'Tb1 Sc4 Co19 Si11 P1'
_cell_volume   456.97737458
_cell_formula_units_Z   1
loop_
 _symmetry_equiv_pos_site_id
 _symmetry_equiv_pos_as_xyz
  1  'x, y, z'
loop_
 _atom_site_type_symbol
 _atom_site_label
 _atom_site_symmetry_multiplicity
 _atom_site_fract_x
 _atom_site_fract_y
 _atom_site_fract_z
 _atom_site_occupancy
  Tb  Tb0  1  0.666126  0.333220  0.000000  1
  Sc  Sc1  1  0.333402  0.666009  0.000000  1
  Sc  Sc2  1  0.185445  0.001425  0.500000  1
  Sc  Sc3  1  0.000075  0.184798  0.500000  1
  Sc  Sc4  1  0.814974  0.814108  0.500000  1
  Co  Co5  1  0.196329  0.373705  0.000000  1
  Co  Co6  1  0.622637  0.819391  0.000000  1
  Co  Co7  1  0.180738  0.803365  0.000000  1
  Co  Co8  1  0.822452  0.627248  0.000000  1
  Co  Co9  1  0.804875  0.177535  0.000000  1
  Co  Co10  1  0.369285  0.195057  0.000000  1
  Co  Co11  1  0.557556  0.000287  0.000000  1
  Co  Co12  1  0.000445  0.557676  0.000000  1
  Co  Co13  1  0.442411  0.442709  0.000000  1
  Co  Co14  1  0.124624  0.478740  0.500000  1
  Co  Co15  1  0.520216  0.644213  0.500000  1
  Co  Co16  1  0.355420  0.876410  0.500000  1
  Co  Co17  1  0.644874  0.522953  0.500000  1
  Co  Co18  1  0.878108  0.354604  0.500000  1
  Co  Co19  1  0.476041  0.122778  0.500000  1
  Co  Co20  1  0.718572  0.996552  0.500000  1
  Co  Co21  1  0.003123  0.721864  0.500000  1
  Co  Co22  1  0.274745  0.277722  0.500000  1
  Co  Co23  1  0.005596  0.005672  0.000000  1
  Si  Si24  1  0.366654  0.000083  0.000000  1
  Si  Si25  1  0.000528  0.366868  0.000000  1
  Si  Si26  1  0.633048  0.633368  0.000000  1
  Si  Si27  1  0.318643  0.481782  0.500000  1
  Si  Si28  1  0.517569  0.835926  0.500000  1
  Si  Si29  1  0.164575  0.681704  0.500000  1
  Si  Si30  1  0.842341  0.523633  0.500000  1
  Si  Si31  1  0.681164  0.157705  0.500000  1
  Si  Si32  1  0.475988  0.319246  0.500000  1
  Si  Si33  1  0.820296  0.997594  0.000000  1
  Si  Si34  1  0.001629  0.822389  0.000000  1
  P  P35  1  0.179499  0.181664  0.000000  1
