# generated using pymatgen
data_K10ZrTiP6
_symmetry_space_group_name_H-M   'P 1'
_cell_length_a   8.28325900
_cell_length_b   8.86407075
_cell_length_c   17.33788531
_cell_angle_alpha   60.44340890
_cell_angle_beta   90.00000000
_cell_angle_gamma   90.00000000
_symmetry_Int_Tables_number   1
_chemical_formula_structural   K10ZrTiP6
_chemical_formula_sum   'K20 Zr2 Ti2 P12'
_cell_volume   1107.34866613
_cell_formula_units_Z   2
loop_
 _symmetry_equiv_pos_site_id
 _symmetry_equiv_pos_as_xyz
  1  'x, y, z'
loop_
 _atom_site_type_symbol
 _atom_site_label
 _atom_site_symmetry_multiplicity
 _atom_site_fract_x
 _atom_site_fract_y
 _atom_site_fract_z
 _atom_site_occupancy
  K  K0  1  0.169614  0.846300  0.740340  1
  K  K1  1  0.669614  0.153700  0.759660  1
  K  K2  1  0.827995  0.157571  0.258252  1
  K  K3  1  0.327995  0.842429  0.241748  1
  K  K4  1  0.167757  0.160173  0.421787  1
  K  K5  1  0.667757  0.839827  0.078213  1
  K  K6  1  0.832171  0.833113  0.583556  1
  K  K7  1  0.332171  0.166887  0.916444  1
  K  K8  1  0.007096  0.088171  0.088039  1
  K  K9  1  0.507096  0.911829  0.411961  1
  K  K10  1  0.991863  0.914287  0.907629  1
  K  K11  1  0.491863  0.085713  0.592371  1
  K  K12  1  0.520813  0.255231  0.079188  1
  K  K13  1  0.020813  0.744769  0.420812  1
  K  K14  1  0.487411  0.719536  0.923496  1
  K  K15  1  0.987411  0.280464  0.576504  1
  K  K16  1  0.980242  0.543253  0.259400  1
  K  K17  1  0.480242  0.456747  0.240600  1
  K  K18  1  0.025179  0.456520  0.747513  1
  K  K19  1  0.525179  0.543480  0.752487  1
  Zr  Zr20  1  0.628805  0.503044  0.421220  1
  Zr  Zr21  1  0.128805  0.496956  0.078780  1
  Ti  Ti22  1  0.368290  0.494013  0.581656  1
  Ti  Ti23  1  0.868290  0.505987  0.918344  1
  P  P24  1  0.320043  0.486068  0.442123  1
  P  P25  1  0.820043  0.513932  0.057877  1
  P  P26  1  0.666631  0.510679  0.566737  1
  P  P27  1  0.166631  0.489321  0.933263  1
  P  P28  1  0.211228  0.217866  0.217674  1
  P  P29  1  0.711228  0.782134  0.282326  1
  P  P30  1  0.790959  0.770807  0.787667  1
  P  P31  1  0.290959  0.229193  0.712333  1
  P  P32  1  0.252810  0.764749  0.074756  1
  P  P33  1  0.752810  0.235251  0.425244  1
  P  P34  1  0.751093  0.253731  0.920871  1
  P  P35  1  0.251093  0.746269  0.579129  1
