# generated using pymatgen
data_Sc24CoTc6Rh
_symmetry_space_group_name_H-M   'P 1'
_cell_length_a   5.81427372
_cell_length_b   8.54307700
_cell_length_c   13.72448783
_cell_angle_alpha   90.00000000
_cell_angle_beta   90.36865458
_cell_angle_gamma   90.00000000
_symmetry_Int_Tables_number   1
_chemical_formula_structural   Sc24CoTc6Rh
_chemical_formula_sum   'Sc24 Co1 Tc6 Rh1'
_cell_volume   681.70573991
_cell_formula_units_Z   1
loop_
 _symmetry_equiv_pos_site_id
 _symmetry_equiv_pos_as_xyz
  1  'x, y, z'
loop_
 _atom_site_type_symbol
 _atom_site_label
 _atom_site_symmetry_multiplicity
 _atom_site_fract_x
 _atom_site_fract_y
 _atom_site_fract_z
 _atom_site_occupancy
  Sc  Sc0  1  0.533392  0.750000  0.355154  1
  Sc  Sc1  1  0.033669  0.250000  0.146133  1
  Sc  Sc2  1  0.470745  0.250000  0.646711  1
  Sc  Sc3  1  0.974067  0.750000  0.848319  1
  Sc  Sc4  1  0.796091  0.750000  0.110430  1
  Sc  Sc5  1  0.292237  0.250000  0.391360  1
  Sc  Sc6  1  0.204337  0.250000  0.887224  1
  Sc  Sc7  1  0.717105  0.750000  0.613626  1
  Sc  Sc8  1  0.426603  0.936468  0.785406  1
  Sc  Sc9  1  0.927291  0.063862  0.710056  1
  Sc  Sc10  1  0.566800  0.438021  0.210997  1
  Sc  Sc11  1  0.065911  0.563017  0.290739  1
  Sc  Sc12  1  0.566800  0.061979  0.210997  1
  Sc  Sc13  1  0.065911  0.936983  0.290739  1
  Sc  Sc14  1  0.426603  0.563532  0.785406  1
  Sc  Sc15  1  0.927291  0.436138  0.710056  1
  Sc  Sc16  1  0.247641  0.938760  0.540317  1
  Sc  Sc17  1  0.745499  0.056076  0.963822  1
  Sc  Sc18  1  0.753908  0.441202  0.467274  1
  Sc  Sc19  1  0.250037  0.563662  0.030910  1
  Sc  Sc20  1  0.753908  0.058798  0.467274  1
  Sc  Sc21  1  0.250037  0.936338  0.030910  1
  Sc  Sc22  1  0.247641  0.561240  0.540317  1
  Sc  Sc23  1  0.745499  0.443924  0.963822  1
  Co  Co24  1  0.140239  0.750000  0.681247  1
  Tc  Tc25  1  0.933963  0.750000  0.447462  1
  Tc  Tc26  1  0.072659  0.250000  0.559482  1
  Tc  Tc27  1  0.572859  0.750000  0.938956  1
  Tc  Tc28  1  0.356128  0.750000  0.179535  1
  Tc  Tc29  1  0.854877  0.250000  0.318600  1
  Tc  Tc30  1  0.644834  0.250000  0.820438  1
  Rh  Rh31  1  0.435420  0.250000  0.056278  1
