# generated using pymatgen
data_Li3Sm3Si2Ag
_symmetry_space_group_name_H-M   'P 1'
_cell_length_a   7.31457400
_cell_length_b   7.31457358
_cell_length_c   4.25207200
_cell_angle_alpha   90.00000000
_cell_angle_beta   90.00000000
_cell_angle_gamma   119.99999283
_symmetry_Int_Tables_number   1
_chemical_formula_structural   Li3Sm3Si2Ag
_chemical_formula_sum   'Li3 Sm3 Si2 Ag1'
_cell_volume   197.01955059
_cell_formula_units_Z   1
loop_
 _symmetry_equiv_pos_site_id
 _symmetry_equiv_pos_as_xyz
  1  'x, y, z'
loop_
 _atom_site_type_symbol
 _atom_site_label
 _atom_site_symmetry_multiplicity
 _atom_site_fract_x
 _atom_site_fract_y
 _atom_site_fract_z
 _atom_site_occupancy
  Li  Li0  1  0.247789  0.000000  0.500000  1
  Li  Li1  1  0.752211  0.752211  0.500000  1
  Li  Li2  1  0.000000  0.247789  0.500000  1
  Sm  Sm3  1  0.000000  0.569697  0.000000  1
  Sm  Sm4  1  0.569697  0.000000  0.000000  1
  Sm  Sm5  1  0.430303  0.430303  0.000000  1
  Si  Si6  1  0.333333  0.666667  0.500000  1
  Si  Si7  1  0.666667  0.333333  0.500000  1
  Ag  Ag8  1  0.000000  0.000000  0.000000  1
