# generated using pymatgen
data_TbHoPdPtO7
_symmetry_space_group_name_H-M   'P 1'
_cell_length_a   7.25939391
_cell_length_b   7.26496412
_cell_length_c   7.25939287
_cell_angle_alpha   59.97461246
_cell_angle_beta   59.90446908
_cell_angle_gamma   59.97461391
_symmetry_Int_Tables_number   1
_chemical_formula_structural   TbHoPdPtO7
_chemical_formula_sum   'Tb2 Ho2 Pd2 Pt2 O14'
_cell_volume   270.41955555
_cell_formula_units_Z   2
loop_
 _symmetry_equiv_pos_site_id
 _symmetry_equiv_pos_as_xyz
  1  'x, y, z'
loop_
 _atom_site_type_symbol
 _atom_site_label
 _atom_site_symmetry_multiplicity
 _atom_site_fract_x
 _atom_site_fract_y
 _atom_site_fract_z
 _atom_site_occupancy
  Tb  Tb0  1  0.625000  0.625000  0.125000  1
  Tb  Tb1  1  0.125000  0.625000  0.625000  1
  Ho  Ho2  1  0.625000  0.625000  0.625000  1
  Ho  Ho3  1  0.625000  0.125000  0.625000  1
  Pd  Pd4  1  0.125000  0.125000  0.125000  1
  Pd  Pd5  1  0.125000  0.625000  0.125000  1
  Pt  Pt6  1  0.625000  0.125000  0.125000  1
  Pt  Pt7  1  0.125000  0.125000  0.625000  1
  O  O8  1  0.033129  0.464133  0.466682  1
  O  O9  1  0.783318  0.785867  0.216871  1
  O  O10  1  0.783318  0.213943  0.216871  1
  O  O11  1  0.466304  0.033696  0.466304  1
  O  O12  1  0.747268  0.752732  0.747268  1
  O  O13  1  0.033129  0.036057  0.466682  1
  O  O14  1  0.035309  0.464691  0.035309  1
  O  O15  1  0.783696  0.216304  0.783696  1
  O  O16  1  0.214691  0.785309  0.214691  1
  O  O17  1  0.216871  0.213943  0.783318  1
  O  O18  1  0.502732  0.497268  0.502732  1
  O  O19  1  0.466682  0.036057  0.033129  1
  O  O20  1  0.466682  0.464133  0.033129  1
  O  O21  1  0.216871  0.785867  0.783318  1
