# generated using pymatgen
data_LiTb2Si2(PPd5)4
_symmetry_space_group_name_H-M   'P 1'
_cell_length_a   8.64195451
_cell_length_b   8.65542784
_cell_length_c   8.65542925
_cell_angle_alpha   59.89703011
_cell_angle_beta   60.05148028
_cell_angle_gamma   60.05148709
_symmetry_Int_Tables_number   1
_chemical_formula_structural   LiTb2Si2(PPd5)4
_chemical_formula_sum   'Li1 Tb2 Si2 P4 Pd20'
_cell_volume   457.79602663
_cell_formula_units_Z   1
loop_
 _symmetry_equiv_pos_site_id
 _symmetry_equiv_pos_as_xyz
  1  'x, y, z'
loop_
 _atom_site_type_symbol
 _atom_site_label
 _atom_site_symmetry_multiplicity
 _atom_site_fract_x
 _atom_site_fract_y
 _atom_site_fract_z
 _atom_site_occupancy
  Li  Li0  1  0.000000  0.000000  0.000000  1
  Tb  Tb1  1  0.250000  0.250000  0.250000  1
  Tb  Tb2  1  0.750000  0.750000  0.750000  1
  Si  Si3  1  0.737807  0.262193  0.262193  1
  Si  Si4  1  0.262193  0.737807  0.737807  1
  P  P5  1  0.261898  0.738102  0.261898  1
  P  P6  1  0.738102  0.261898  0.738102  1
  P  P7  1  0.261898  0.261898  0.738102  1
  P  P8  1  0.738102  0.738102  0.261898  1
  Pd  Pd9  1  0.383291  0.385386  0.385386  1
  Pd  Pd10  1  0.616709  0.614614  0.614614  1
  Pd  Pd11  1  0.385386  0.383291  0.845937  1
  Pd  Pd12  1  0.385386  0.845937  0.383291  1
  Pd  Pd13  1  0.614614  0.616709  0.154063  1
  Pd  Pd14  1  0.614614  0.154063  0.616709  1
  Pd  Pd15  1  0.845937  0.385386  0.385386  1
  Pd  Pd16  1  0.154063  0.614614  0.614614  1
  Pd  Pd17  1  0.343532  0.000000  0.000000  1
  Pd  Pd18  1  0.656468  0.000000  0.000000  1
  Pd  Pd19  1  0.000000  0.343532  0.656468  1
  Pd  Pd20  1  0.000000  0.656468  0.343532  1
  Pd  Pd21  1  0.001995  0.345482  0.998005  1
  Pd  Pd22  1  0.654518  0.998005  0.345482  1
  Pd  Pd23  1  0.998005  0.654518  0.001995  1
  Pd  Pd24  1  0.345482  0.001995  0.654518  1
  Pd  Pd25  1  0.001995  0.998005  0.345482  1
  Pd  Pd26  1  0.998005  0.001995  0.654518  1
  Pd  Pd27  1  0.654518  0.345482  0.998005  1
  Pd  Pd28  1  0.345482  0.654518  0.001995  1
