# generated using pymatgen
data_CaU3Al17GaIr6
_symmetry_space_group_name_H-M   'P 1'
_cell_length_a   7.57402881
_cell_length_b   7.59340688
_cell_length_c   9.43736800
_cell_angle_alpha   90.00000000
_cell_angle_beta   90.00000000
_cell_angle_gamma   119.28946910
_symmetry_Int_Tables_number   1
_chemical_formula_structural   CaU3Al17GaIr6
_chemical_formula_sum   'Ca1 U3 Al17 Ga1 Ir6'
_cell_volume   473.38041226
_cell_formula_units_Z   1
loop_
 _symmetry_equiv_pos_site_id
 _symmetry_equiv_pos_as_xyz
  1  'x, y, z'
loop_
 _atom_site_type_symbol
 _atom_site_label
 _atom_site_symmetry_multiplicity
 _atom_site_fract_x
 _atom_site_fract_y
 _atom_site_fract_z
 _atom_site_occupancy
  Ca  Ca0  1  0.994871  0.674194  0.750000  1
  U  U1  1  0.003371  0.326046  0.250000  1
  U  U2  1  0.674555  0.997399  0.750000  1
  U  U3  1  0.326079  0.004017  0.250000  1
  Al  Al4  1  0.865857  0.865415  0.250000  1
  Al  Al5  1  0.003520  0.339152  0.575762  1
  Al  Al6  1  0.997883  0.663696  0.425648  1
  Al  Al7  1  0.997883  0.663696  0.074352  1
  Al  Al8  1  0.333691  0.000093  0.924547  1
  Al  Al9  1  0.003520  0.339152  0.924238  1
  Al  Al10  1  0.661750  0.996026  0.074830  1
  Al  Al11  1  0.661750  0.996026  0.425170  1
  Al  Al12  1  0.333691  0.000093  0.575453  1
  Al  Al13  1  0.335992  0.335738  0.053493  1
  Al  Al14  1  0.667496  0.665326  0.945098  1
  Al  Al15  1  0.667496  0.665326  0.554902  1
  Al  Al16  1  0.335992  0.335738  0.446507  1
  Al  Al17  1  0.343300  0.552027  0.750000  1
  Al  Al18  1  0.659572  0.451855  0.250000  1
  Al  Al19  1  0.549954  0.337516  0.750000  1
  Al  Al20  1  0.449618  0.658297  0.250000  1
  Ga  Ga21  1  0.132316  0.133836  0.750000  1
  Ir  Ir22  1  0.670826  0.325486  0.498487  1
  Ir  Ir23  1  0.329271  0.671901  0.498816  1
  Ir  Ir24  1  0.329271  0.671901  0.001184  1
  Ir  Ir25  1  0.670826  0.325486  0.001513  1
  Ir  Ir26  1  0.999823  0.002280  0.494807  1
  Ir  Ir27  1  0.999823  0.002280  0.005193  1
