# generated using pymatgen
data_Tb6ScCo16TcP12
_symmetry_space_group_name_H-M   'P 1'
_cell_length_a   3.72189600
_cell_length_b   10.61295300
_cell_length_c   12.32222200
_cell_angle_alpha   90.00000000
_cell_angle_beta   90.00000000
_cell_angle_gamma   90.00000000
_symmetry_Int_Tables_number   1
_chemical_formula_structural   Tb6ScCo16TcP12
_chemical_formula_sum   'Tb6 Sc1 Co16 Tc1 P12'
_cell_volume   486.73155585
_cell_formula_units_Z   1
loop_
 _symmetry_equiv_pos_site_id
 _symmetry_equiv_pos_as_xyz
  1  'x, y, z'
loop_
 _atom_site_type_symbol
 _atom_site_label
 _atom_site_symmetry_multiplicity
 _atom_site_fract_x
 _atom_site_fract_y
 _atom_site_fract_z
 _atom_site_occupancy
  Tb  Tb0  1  0.000000  0.500000  0.524310  1
  Tb  Tb1  1  0.500000  0.000000  0.473297  1
  Tb  Tb2  1  0.500000  0.818374  0.204961  1
  Tb  Tb3  1  0.500000  0.181626  0.204961  1
  Tb  Tb4  1  0.000000  0.679043  0.793679  1
  Tb  Tb5  1  0.000000  0.320957  0.793679  1
  Sc  Sc6  1  0.000000  0.000000  0.846706  1
  Co  Co7  1  0.500000  0.500000  0.703552  1
  Co  Co8  1  0.000000  0.000000  0.296212  1
  Co  Co9  1  0.000000  0.500000  0.990195  1
  Co  Co10  1  0.500000  0.000000  0.015570  1
  Co  Co11  1  0.500000  0.336342  0.994673  1
  Co  Co12  1  0.500000  0.663658  0.994673  1
  Co  Co13  1  0.000000  0.172975  0.009533  1
  Co  Co14  1  0.000000  0.827025  0.009533  1
  Co  Co15  1  0.500000  0.297548  0.429431  1
  Co  Co16  1  0.500000  0.702452  0.429431  1
  Co  Co17  1  0.000000  0.205709  0.565677  1
  Co  Co18  1  0.000000  0.794291  0.565677  1
  Co  Co19  1  0.500000  0.877252  0.703788  1
  Co  Co20  1  0.500000  0.122748  0.703788  1
  Co  Co21  1  0.000000  0.619691  0.293275  1
  Co  Co22  1  0.000000  0.380309  0.293275  1
  Tc  Tc23  1  0.500000  0.500000  0.158949  1
  P  P24  1  0.500000  0.500000  0.883220  1
  P  P25  1  0.000000  0.000000  0.116117  1
  P  P26  1  0.500000  0.500000  0.349333  1
  P  P27  1  0.000000  0.000000  0.642517  1
  P  P28  1  0.500000  0.310673  0.614166  1
  P  P29  1  0.500000  0.689327  0.614166  1
  P  P30  1  0.000000  0.190232  0.383040  1
  P  P31  1  0.000000  0.809768  0.383040  1
  P  P32  1  0.500000  0.838597  0.897341  1
  P  P33  1  0.500000  0.161403  0.897341  1
  P  P34  1  0.000000  0.652536  0.110451  1
  P  P35  1  0.000000  0.347464  0.110451  1
