# generated using pymatgen
data_Sc3P3IrRu2
_symmetry_space_group_name_H-M   'P 1'
_cell_length_a   6.49769041
_cell_length_b   6.49027832
_cell_length_c   3.74518200
_cell_angle_alpha   90.00000000
_cell_angle_beta   90.00000000
_cell_angle_gamma   119.96226669
_symmetry_Int_Tables_number   1
_chemical_formula_structural   Sc3P3IrRu2
_chemical_formula_sum   'Sc3 P3 Ir1 Ru2'
_cell_volume   136.83301605
_cell_formula_units_Z   1
loop_
 _symmetry_equiv_pos_site_id
 _symmetry_equiv_pos_as_xyz
  1  'x, y, z'
loop_
 _atom_site_type_symbol
 _atom_site_label
 _atom_site_symmetry_multiplicity
 _atom_site_fract_x
 _atom_site_fract_y
 _atom_site_fract_z
 _atom_site_occupancy
  Sc  Sc0  1  0.415635  0.414309  0.500000  1
  Sc  Sc1  1  0.584365  0.998674  0.500000  1
  Sc  Sc2  1  0.000000  0.584131  0.500000  1
  P  P3  1  0.665567  0.334365  0.000000  1
  P  P4  1  0.334433  0.668799  0.000000  1
  P  P5  1  0.000000  0.995340  0.500000  1
  Ir  Ir6  1  0.000000  0.246929  0.000000  1
  Ru  Ru7  1  0.244470  0.000961  0.000000  1
  Ru  Ru8  1  0.755530  0.756491  0.000000  1
