# generated using pymatgen
data_Ho2Er3In4IrPt
_symmetry_space_group_name_H-M   'P 1'
_cell_length_a   3.60998700
_cell_length_b   8.09824921
_cell_length_c   18.18019562
_cell_angle_alpha   89.91082413
_cell_angle_beta   90.00000000
_cell_angle_gamma   90.00000000
_symmetry_Int_Tables_number   1
_chemical_formula_structural   Ho2Er3In4IrPt
_chemical_formula_sum   'Ho4 Er6 In8 Ir2 Pt2'
_cell_volume   531.48963730
_cell_formula_units_Z   2
loop_
 _symmetry_equiv_pos_site_id
 _symmetry_equiv_pos_as_xyz
  1  'x, y, z'
loop_
 _atom_site_type_symbol
 _atom_site_label
 _atom_site_symmetry_multiplicity
 _atom_site_fract_x
 _atom_site_fract_y
 _atom_site_fract_z
 _atom_site_occupancy
  Ho  Ho0  1  0.000000  0.249046  0.720091  1
  Ho  Ho1  1  0.000000  0.750954  0.279909  1
  Ho  Ho2  1  0.000000  0.000000  0.000000  1
  Ho  Ho3  1  0.000000  0.500000  0.500000  1
  Er  Er4  1  0.000000  0.115165  0.411897  1
  Er  Er5  1  0.000000  0.884835  0.588103  1
  Er  Er6  1  0.000000  0.383291  0.913846  1
  Er  Er7  1  0.000000  0.616709  0.086154  1
  Er  Er8  1  0.000000  0.236377  0.222003  1
  Er  Er9  1  0.000000  0.763623  0.777997  1
  In  In10  1  0.500000  0.423409  0.350987  1
  In  In11  1  0.500000  0.576591  0.649013  1
  In  In12  1  0.500000  0.074608  0.850722  1
  In  In13  1  0.500000  0.925392  0.149278  1
  In  In14  1  0.500000  0.292591  0.066568  1
  In  In15  1  0.500000  0.707409  0.933432  1
  In  In16  1  0.500000  0.206440  0.567293  1
  In  In17  1  0.500000  0.793560  0.432707  1
  Ir  Ir18  1  0.500000  0.022272  0.303860  1
  Ir  Ir19  1  0.500000  0.977728  0.696140  1
  Pt  Pt20  1  0.500000  0.477324  0.803618  1
  Pt  Pt21  1  0.500000  0.522676  0.196382  1
