# generated using pymatgen
data_Dy7TmSc12(GaSi3)4
_symmetry_space_group_name_H-M   'P 1'
_cell_length_a   7.11635609
_cell_length_b   7.40916968
_cell_length_c   14.14716403
_cell_angle_alpha   89.95371084
_cell_angle_beta   89.85437002
_cell_angle_gamma   90.17900364
_symmetry_Int_Tables_number   1
_chemical_formula_structural   Dy7TmSc12(GaSi3)4
_chemical_formula_sum   'Dy7 Tm1 Sc12 Ga4 Si12'
_cell_volume   745.92117180
_cell_formula_units_Z   1
loop_
 _symmetry_equiv_pos_site_id
 _symmetry_equiv_pos_as_xyz
  1  'x, y, z'
loop_
 _atom_site_type_symbol
 _atom_site_label
 _atom_site_symmetry_multiplicity
 _atom_site_fract_x
 _atom_site_fract_y
 _atom_site_fract_z
 _atom_site_occupancy
  Dy  Dy0  1  0.013358  0.175059  0.096910  1
  Dy  Dy1  1  0.988293  0.824676  0.901759  1
  Dy  Dy2  1  0.487135  0.677172  0.901805  1
  Dy  Dy3  1  0.988064  0.827053  0.600283  1
  Dy  Dy4  1  0.510635  0.321149  0.097121  1
  Dy  Dy5  1  0.009565  0.174844  0.400728  1
  Dy  Dy6  1  0.510754  0.324323  0.400753  1
  Tm  Tm7  1  0.490798  0.676573  0.601122  1
  Sc  Sc8  1  0.162767  0.501046  0.751358  1
  Sc  Sc9  1  0.836640  0.498361  0.250016  1
  Sc  Sc10  1  0.336127  0.001997  0.248332  1
  Sc  Sc11  1  0.663248  0.998090  0.749873  1
  Sc  Sc12  1  0.333876  0.174534  0.628045  1
  Sc  Sc13  1  0.668897  0.826503  0.373597  1
  Sc  Sc14  1  0.170102  0.673350  0.372888  1
  Sc  Sc15  1  0.668618  0.826452  0.125623  1
  Sc  Sc16  1  0.828881  0.325007  0.626884  1
  Sc  Sc17  1  0.330739  0.175567  0.874399  1
  Sc  Sc18  1  0.829235  0.323625  0.874134  1
  Sc  Sc19  1  0.173176  0.675091  0.124458  1
  Ga  Ga20  1  0.162884  0.461833  0.539880  1
  Ga  Ga21  1  0.838741  0.538543  0.461691  1
  Ga  Ga22  1  0.339250  0.960889  0.461919  1
  Ga  Ga23  1  0.839332  0.538226  0.038590  1
  Si  Si24  1  0.033215  0.116239  0.751313  1
  Si  Si25  1  0.966758  0.884217  0.248993  1
  Si  Si26  1  0.467085  0.614277  0.248383  1
  Si  Si27  1  0.533251  0.386346  0.751022  1
  Si  Si28  1  0.287064  0.871426  0.750692  1
  Si  Si29  1  0.714640  0.127435  0.248596  1
  Si  Si30  1  0.213867  0.372296  0.248661  1
  Si  Si31  1  0.786278  0.628734  0.751136  1
  Si  Si32  1  0.657690  0.035721  0.539521  1
  Si  Si33  1  0.157877  0.463204  0.960751  1
  Si  Si34  1  0.656480  0.036342  0.961223  1
  Si  Si35  1  0.344680  0.963800  0.037545  1
