# generated using pymatgen
data_Ti4BeSiH2
_symmetry_space_group_name_H-M   'P 1'
_cell_length_a   5.01739549
_cell_length_b   5.01739585
_cell_length_c   5.01739546
_cell_angle_alpha   103.91840734
_cell_angle_beta   103.91840388
_cell_angle_gamma   121.25984946
_symmetry_Int_Tables_number   1
_chemical_formula_structural   Ti4BeSiH2
_chemical_formula_sum   'Ti4 Be1 Si1 H2'
_cell_volume   94.09435521
_cell_formula_units_Z   1
loop_
 _symmetry_equiv_pos_site_id
 _symmetry_equiv_pos_as_xyz
  1  'x, y, z'
loop_
 _atom_site_type_symbol
 _atom_site_label
 _atom_site_symmetry_multiplicity
 _atom_site_fract_x
 _atom_site_fract_y
 _atom_site_fract_z
 _atom_site_occupancy
  Ti  Ti0  1  0.162498  0.662498  0.824999  1
  Ti  Ti1  1  0.837502  0.337502  0.175001  1
  Ti  Ti2  1  0.337502  0.162498  0.500000  1
  Ti  Ti3  1  0.662498  0.837502  0.500000  1
  Be  Be4  1  0.250000  0.250000  0.000000  1
  Si  Si5  1  0.750000  0.750000  0.000000  1
  H  H6  1  0.750000  0.250000  0.500000  1
  H  H7  1  0.250000  0.750000  0.500000  1
