# generated using pymatgen
data_Hf8Co11Si16Pt
_symmetry_space_group_name_H-M   'P 1'
_cell_length_a   5.22675970
_cell_length_b   6.77048589
_cell_length_c   13.74556379
_cell_angle_alpha   90.03876684
_cell_angle_beta   90.00124059
_cell_angle_gamma   89.88352415
_symmetry_Int_Tables_number   1
_chemical_formula_structural   Hf8Co11Si16Pt
_chemical_formula_sum   'Hf8 Co11 Si16 Pt1'
_cell_volume   486.42280923
_cell_formula_units_Z   1
loop_
 _symmetry_equiv_pos_site_id
 _symmetry_equiv_pos_as_xyz
  1  'x, y, z'
loop_
 _atom_site_type_symbol
 _atom_site_label
 _atom_site_symmetry_multiplicity
 _atom_site_fract_x
 _atom_site_fract_y
 _atom_site_fract_z
 _atom_site_occupancy
  Hf  Hf0  1  0.234358  0.397990  0.152038  1
  Hf  Hf1  1  0.729489  0.101445  0.149915  1
  Hf  Hf2  1  0.270437  0.099677  0.643728  1
  Hf  Hf3  1  0.766307  0.400535  0.643681  1
  Hf  Hf4  1  0.230865  0.600763  0.354917  1
  Hf  Hf5  1  0.732251  0.898604  0.354536  1
  Hf  Hf6  1  0.265422  0.900698  0.851809  1
  Hf  Hf7  1  0.772664  0.601838  0.849522  1
  Co  Co8  1  0.506574  0.224926  0.481279  1
  Co  Co9  1  0.774630  0.998323  0.749260  1
  Co  Co10  1  0.491191  0.220450  0.981615  1
  Co  Co11  1  0.722998  0.500205  0.251172  1
  Co  Co12  1  0.493937  0.774879  0.518368  1
  Co  Co13  1  0.006132  0.275000  0.481208  1
  Co  Co14  1  0.006311  0.727141  0.019132  1
  Co  Co15  1  0.223058  0.999673  0.251611  1
  Co  Co16  1  0.279277  0.502596  0.749547  1
  Co  Co17  1  0.506513  0.774552  0.019825  1
  Co  Co18  1  0.993969  0.725129  0.518459  1
  Si  Si19  1  0.227992  0.010769  0.075300  1
  Si  Si20  1  0.717926  0.519706  0.432144  1
  Si  Si21  1  0.783181  0.018960  0.567225  1
  Si  Si22  1  0.480585  0.754821  0.190183  1
  Si  Si23  1  0.020415  0.254435  0.802211  1
  Si  Si24  1  0.518193  0.245595  0.810798  1
  Si  Si25  1  0.217517  0.980679  0.432320  1
  Si  Si26  1  0.296610  0.529349  0.930634  1
  Si  Si27  1  0.980125  0.745130  0.188818  1
  Si  Si28  1  0.708127  0.489468  0.073503  1
  Si  Si29  1  0.281680  0.480974  0.567335  1
  Si  Si30  1  0.480823  0.245474  0.314064  1
  Si  Si31  1  0.020792  0.746116  0.685922  1
  Si  Si32  1  0.769413  0.969417  0.928367  1
  Si  Si33  1  0.519640  0.754755  0.686473  1
  Si  Si34  1  0.979583  0.254405  0.313688  1
  Pt  Pt35  1  0.991013  0.275524  0.979393  1
