# generated using pymatgen
data_CeDy3(HgPt2)2
_symmetry_space_group_name_H-M   'P 1'
_cell_length_a   7.86136219
_cell_length_b   7.86136219
_cell_length_c   3.63377800
_cell_angle_alpha   90.00000000
_cell_angle_beta   90.00000000
_cell_angle_gamma   88.89697524
_symmetry_Int_Tables_number   1
_chemical_formula_structural   CeDy3(HgPt2)2
_chemical_formula_sum   'Ce1 Dy3 Hg2 Pt4'
_cell_volume   224.52955687
_cell_formula_units_Z   1
loop_
 _symmetry_equiv_pos_site_id
 _symmetry_equiv_pos_as_xyz
  1  'x, y, z'
loop_
 _atom_site_type_symbol
 _atom_site_label
 _atom_site_symmetry_multiplicity
 _atom_site_fract_x
 _atom_site_fract_y
 _atom_site_fract_z
 _atom_site_occupancy
  Ce  Ce0  1  0.670379  0.829621  0.499999  1
  Dy  Dy1  1  0.328760  0.171241  0.499999  1
  Dy  Dy2  1  0.829574  0.328635  0.499999  1
  Dy  Dy3  1  0.171366  0.670426  0.499999  1
  Hg  Hg4  1  0.002505  0.001001  0.000000  1
  Hg  Hg5  1  0.498999  0.497495  0.000000  1
  Pt  Pt6  1  0.629487  0.127972  0.000000  1
  Pt  Pt7  1  0.126362  0.373638  0.000000  1
  Pt  Pt8  1  0.870543  0.629458  0.000000  1
  Pt  Pt9  1  0.372028  0.870514  0.000000  1
