# generated using pymatgen
data_Dy4MgCuNiBi
_symmetry_space_group_name_H-M   'P 1'
_cell_length_a   8.62403300
_cell_length_b   8.62403172
_cell_length_c   8.74815080
_cell_angle_alpha   128.29107285
_cell_angle_beta   128.29106620
_cell_angle_gamma   75.09899252
_symmetry_Int_Tables_number   1
_chemical_formula_structural   Dy4MgCuNiBi
_chemical_formula_sum   'Dy8 Mg2 Cu2 Ni2 Bi2'
_cell_volume   392.22139146
_cell_formula_units_Z   2
loop_
 _symmetry_equiv_pos_site_id
 _symmetry_equiv_pos_as_xyz
  1  'x, y, z'
loop_
 _atom_site_type_symbol
 _atom_site_label
 _atom_site_symmetry_multiplicity
 _atom_site_fract_x
 _atom_site_fract_y
 _atom_site_fract_z
 _atom_site_occupancy
  Dy  Dy0  1  0.786378  0.286378  0.814498  1
  Dy  Dy1  1  0.213622  0.713622  0.185502  1
  Dy  Dy2  1  0.471880  0.971880  0.185502  1
  Dy  Dy3  1  0.302431  0.458877  0.500000  1
  Dy  Dy4  1  0.041123  0.197569  0.500000  1
  Dy  Dy5  1  0.528120  0.028120  0.814498  1
  Dy  Dy6  1  0.697569  0.541123  0.500000  1
  Dy  Dy7  1  0.958877  0.802431  0.500000  1
  Mg  Mg8  1  0.000000  0.000000  0.000000  1
  Mg  Mg9  1  0.500000  0.500000  0.000000  1
  Cu  Cu10  1  0.124653  0.624653  0.749306  1
  Cu  Cu11  1  0.875347  0.375347  0.250694  1
  Ni  Ni12  1  0.627818  0.872182  0.500000  1
  Ni  Ni13  1  0.372182  0.127818  0.500000  1
  Bi  Bi14  1  0.250000  0.250000  0.000000  1
  Bi  Bi15  1  0.750000  0.750000  0.000000  1
