# generated using pymatgen
data_Yb3DyB15C
_symmetry_space_group_name_H-M   'P 1'
_cell_length_a   7.00820085
_cell_length_b   7.00820085
_cell_length_c   4.06447500
_cell_angle_alpha   90.00000000
_cell_angle_beta   90.00000000
_cell_angle_gamma   90.59751822
_symmetry_Int_Tables_number   1
_chemical_formula_structural   Yb3DyB15C
_chemical_formula_sum   'Yb3 Dy1 B15 C1'
_cell_volume   199.61534341
_cell_formula_units_Z   1
loop_
 _symmetry_equiv_pos_site_id
 _symmetry_equiv_pos_as_xyz
  1  'x, y, z'
loop_
 _atom_site_type_symbol
 _atom_site_label
 _atom_site_symmetry_multiplicity
 _atom_site_fract_x
 _atom_site_fract_y
 _atom_site_fract_z
 _atom_site_occupancy
  Yb  Yb0  1  0.818274  0.317210  0.000000  1
  Yb  Yb1  1  0.182790  0.681726  0.000000  1
  Yb  Yb2  1  0.676334  0.823666  0.000000  1
  Dy  Dy3  1  0.319184  0.180816  0.000000  1
  B  B4  1  0.505827  0.503962  0.796648  1
  B  B5  1  0.996038  0.994173  0.796648  1
  B  B6  1  0.505827  0.503962  0.203352  1
  B  B7  1  0.996038  0.994173  0.203352  1
  B  B8  1  0.079172  0.420828  0.500000  1
  B  B9  1  0.412426  0.915392  0.500000  1
  B  B10  1  0.584608  0.087574  0.500000  1
  B  B11  1  0.686132  0.540890  0.500000  1
  B  B12  1  0.326065  0.466950  0.500000  1
  B  B13  1  0.173977  0.959089  0.500000  1
  B  B14  1  0.821125  0.032600  0.500000  1
  B  B15  1  0.467400  0.678875  0.500000  1
  B  B16  1  0.540911  0.326023  0.500000  1
  B  B17  1  0.033050  0.173935  0.500000  1
  B  B18  1  0.959110  0.813868  0.500000  1
  C  C19  1  0.915710  0.584290  0.500000  1
