# generated using pymatgen
data_Ho2TmCo8TcP6
_symmetry_space_group_name_H-M   'P 1'
_cell_length_a   3.70312300
_cell_length_b   10.50567100
_cell_length_c   12.19273200
_cell_angle_alpha   90.00000000
_cell_angle_beta   90.00000000
_cell_angle_gamma   90.00000000
_symmetry_Int_Tables_number   1
_chemical_formula_structural   Ho2TmCo8TcP6
_chemical_formula_sum   'Ho4 Tm2 Co16 Tc2 P12'
_cell_volume   474.34350855
_cell_formula_units_Z   2
loop_
 _symmetry_equiv_pos_site_id
 _symmetry_equiv_pos_as_xyz
  1  'x, y, z'
loop_
 _atom_site_type_symbol
 _atom_site_label
 _atom_site_symmetry_multiplicity
 _atom_site_fract_x
 _atom_site_fract_y
 _atom_site_fract_z
 _atom_site_occupancy
  Ho  Ho0  1  0.000000  0.500000  0.524672  1
  Ho  Ho1  1  0.500000  0.000000  0.474850  1
  Ho  Ho2  1  0.000000  0.682316  0.794250  1
  Ho  Ho3  1  0.000000  0.317684  0.794250  1
  Tm  Tm4  1  0.500000  0.818206  0.205800  1
  Tm  Tm5  1  0.500000  0.181794  0.205800  1
  Co  Co6  1  0.000000  0.500000  0.987656  1
  Co  Co7  1  0.500000  0.000000  0.013649  1
  Co  Co8  1  0.500000  0.296566  0.430506  1
  Co  Co9  1  0.500000  0.703434  0.430506  1
  Co  Co10  1  0.000000  0.203230  0.568305  1
  Co  Co11  1  0.000000  0.796770  0.568305  1
  Co  Co12  1  0.500000  0.878887  0.707410  1
  Co  Co13  1  0.500000  0.121113  0.707410  1
  Co  Co14  1  0.000000  0.621671  0.292059  1
  Co  Co15  1  0.000000  0.378329  0.292059  1
  Co  Co16  1  0.500000  0.331913  0.990231  1
  Co  Co17  1  0.500000  0.668087  0.990231  1
  Co  Co18  1  0.000000  0.167470  0.011186  1
  Co  Co19  1  0.000000  0.832530  0.011186  1
  Co  Co20  1  0.500000  0.500000  0.702306  1
  Co  Co21  1  0.000000  0.000000  0.297264  1
  Tc  Tc22  1  0.500000  0.500000  0.156592  1
  Tc  Tc23  1  0.000000  0.000000  0.843577  1
  P  P24  1  0.500000  0.311744  0.615968  1
  P  P25  1  0.500000  0.688256  0.615968  1
  P  P26  1  0.000000  0.187856  0.382738  1
  P  P27  1  0.000000  0.812144  0.382738  1
  P  P28  1  0.500000  0.500000  0.880998  1
  P  P29  1  0.000000  0.000000  0.120154  1
  P  P30  1  0.500000  0.846378  0.892735  1
  P  P31  1  0.500000  0.153622  0.892735  1
  P  P32  1  0.000000  0.654513  0.108056  1
  P  P33  1  0.000000  0.345487  0.108056  1
  P  P34  1  0.500000  0.500000  0.349122  1
  P  P35  1  0.000000  0.000000  0.650672  1
