# generated using pymatgen
data_Li12Sm12Te7WO48
_symmetry_space_group_name_H-M   'P 1'
_cell_length_a   10.89131533
_cell_length_b   10.88014913
_cell_length_c   10.89131572
_cell_angle_alpha   109.45044966
_cell_angle_beta   109.49198011
_cell_angle_gamma   109.45045076
_symmetry_Int_Tables_number   1
_chemical_formula_structural   Li12Sm12Te7WO48
_chemical_formula_sum   'Li12 Sm12 Te7 W1 O48'
_cell_volume   993.76778334
_cell_formula_units_Z   1
loop_
 _symmetry_equiv_pos_site_id
 _symmetry_equiv_pos_as_xyz
  1  'x, y, z'
loop_
 _atom_site_type_symbol
 _atom_site_label
 _atom_site_symmetry_multiplicity
 _atom_site_fract_x
 _atom_site_fract_y
 _atom_site_fract_z
 _atom_site_occupancy
  Li  Li0  1  0.749824  0.375646  0.124380  1
  Li  Li1  1  0.875044  0.749910  0.125087  1
  Li  Li2  1  0.125443  0.374178  0.249824  1
  Li  Li3  1  0.625087  0.875176  0.250043  1
  Li  Li4  1  0.624381  0.248735  0.374557  1
  Li  Li5  1  0.249957  0.125134  0.375044  1
  Li  Li6  1  0.750043  0.874866  0.624956  1
  Li  Li7  1  0.375619  0.751265  0.625444  1
  Li  Li8  1  0.374913  0.124823  0.749957  1
  Li  Li9  1  0.874557  0.625822  0.750176  1
  Li  Li10  1  0.250176  0.624354  0.875619  1
  Li  Li11  1  0.124956  0.250091  0.874913  1
  Sm  Sm12  1  0.249908  0.874987  0.125080  1
  Sm  Sm13  1  0.374920  0.249906  0.124827  1
  Sm  Sm14  1  0.375173  0.625079  0.250093  1
  Sm  Sm15  1  0.875568  0.126481  0.250897  1
  Sm  Sm16  1  0.750896  0.624416  0.375328  1
  Sm  Sm17  1  0.124671  0.749086  0.375568  1
  Sm  Sm18  1  0.875328  0.250914  0.624432  1
  Sm  Sm19  1  0.249104  0.375585  0.624672  1
  Sm  Sm20  1  0.124432  0.873519  0.749104  1
  Sm  Sm21  1  0.624828  0.374921  0.749907  1
  Sm  Sm22  1  0.750093  0.125013  0.874920  1
  Sm  Sm23  1  0.625080  0.750094  0.875173  1
  Te  Te24  1  0.000000  0.000000  0.000000  1
  Te  Te25  1  0.500000  0.000000  0.000000  1
  Te  Te26  1  0.000000  0.500000  0.000000  1
  Te  Te27  1  0.500000  0.500000  0.000000  1
  Te  Te28  1  0.000000  0.000000  0.500000  1
  Te  Te29  1  0.500000  0.500000  0.500000  1
  Te  Te30  1  0.500000  0.000000  0.500000  1
  W  W31  1  0.000000  0.500000  0.500000  1
  O  O32  1  0.196140  0.617997  0.024932  1
  O  O33  1  0.328564  0.406812  0.024635  1
  O  O34  1  0.696316  0.171799  0.078631  1
  O  O35  1  0.882044  0.907095  0.078424  1
  O  O36  1  0.618190  0.921940  0.093280  1
  O  O37  1  0.974965  0.171440  0.092889  1
  O  O38  1  0.024912  0.696251  0.118189  1
  O  O39  1  0.592889  0.421449  0.117923  1
  O  O40  1  0.196071  0.078247  0.171436  1
  O  O41  1  0.475069  0.093066  0.171208  1
  O  O42  1  0.117685  0.524517  0.196316  1
  O  O43  1  0.578425  0.671330  0.196381  1
  O  O44  1  0.475365  0.882177  0.303929  1
  O  O45  1  0.328792  0.421857  0.303860  1
  O  O46  1  0.906628  0.523977  0.327766  1
  O  O47  1  0.921984  0.803683  0.328843  1
  O  O48  1  0.303619  0.974949  0.382043  1
  O  O49  1  0.578632  0.406832  0.382315  1
  O  O50  1  0.828843  0.025160  0.406859  1
  O  O51  1  0.078862  0.382651  0.406629  1
  O  O52  1  0.827765  0.303789  0.421136  1
  O  O53  1  0.093141  0.118300  0.421984  1
  O  O54  1  0.382077  0.803526  0.474965  1
  O  O55  1  0.593279  0.671339  0.475089  1
  O  O56  1  0.617922  0.196474  0.525034  1
  O  O57  1  0.406721  0.328660  0.524912  1
  O  O58  1  0.172234  0.696211  0.578862  1
  O  O59  1  0.906859  0.881700  0.578017  1
  O  O60  1  0.171157  0.974840  0.593140  1
  O  O61  1  0.921137  0.617348  0.593372  1
  O  O62  1  0.421369  0.593168  0.617685  1
  O  O63  1  0.696381  0.025051  0.617956  1
  O  O64  1  0.078016  0.196316  0.671156  1
  O  O65  1  0.093372  0.476023  0.672234  1
  O  O66  1  0.671207  0.578144  0.696140  1
  O  O67  1  0.524635  0.117824  0.696071  1
  O  O68  1  0.882315  0.475484  0.803683  1
  O  O69  1  0.421576  0.328670  0.803619  1
  O  O70  1  0.803929  0.921752  0.828563  1
  O  O71  1  0.524932  0.906934  0.828792  1
  O  O72  1  0.975088  0.303749  0.881810  1
  O  O73  1  0.407112  0.578552  0.882078  1
  O  O74  1  0.381809  0.078060  0.906720  1
  O  O75  1  0.025035  0.828561  0.907112  1
  O  O76  1  0.117955  0.092906  0.921575  1
  O  O77  1  0.303684  0.828200  0.921369  1
  O  O78  1  0.803859  0.382003  0.975068  1
  O  O79  1  0.671436  0.593189  0.975365  1
