# generated using pymatgen
data_Y3Lu7Cd3Tc
_symmetry_space_group_name_H-M   'P 1'
_cell_length_a   9.41545300
_cell_length_b   9.41545320
_cell_length_c   9.78555400
_cell_angle_alpha   90.00000000
_cell_angle_beta   90.00000000
_cell_angle_gamma   119.99999580
_symmetry_Int_Tables_number   1
_chemical_formula_structural   Y3Lu7Cd3Tc
_chemical_formula_sum   'Y6 Lu14 Cd6 Tc2'
_cell_volume   751.27427237
_cell_formula_units_Z   2
loop_
 _symmetry_equiv_pos_site_id
 _symmetry_equiv_pos_as_xyz
  1  'x, y, z'
loop_
 _atom_site_type_symbol
 _atom_site_label
 _atom_site_symmetry_multiplicity
 _atom_site_fract_x
 _atom_site_fract_y
 _atom_site_fract_z
 _atom_site_occupancy
  Y  Y0  1  0.539007  0.460993  0.250000  1
  Y  Y1  1  0.539007  0.078014  0.250000  1
  Y  Y2  1  0.921986  0.460993  0.250000  1
  Y  Y3  1  0.460993  0.539007  0.750000  1
  Y  Y4  1  0.460993  0.921986  0.750000  1
  Y  Y5  1  0.078014  0.539007  0.750000  1
  Lu  Lu6  1  0.000000  0.000000  0.500000  1
  Lu  Lu7  1  0.000000  0.000000  0.000000  1
  Lu  Lu8  1  0.210151  0.789849  0.441449  1
  Lu  Lu9  1  0.210151  0.420303  0.441449  1
  Lu  Lu10  1  0.579697  0.789849  0.441449  1
  Lu  Lu11  1  0.789849  0.210151  0.558551  1
  Lu  Lu12  1  0.789849  0.579697  0.558551  1
  Lu  Lu13  1  0.420303  0.210151  0.558551  1
  Lu  Lu14  1  0.789849  0.210151  0.941449  1
  Lu  Lu15  1  0.789849  0.579697  0.941449  1
  Lu  Lu16  1  0.420303  0.210151  0.941449  1
  Lu  Lu17  1  0.210151  0.789849  0.058551  1
  Lu  Lu18  1  0.210151  0.420303  0.058551  1
  Lu  Lu19  1  0.579697  0.789849  0.058551  1
  Cd  Cd20  1  0.886349  0.113651  0.250000  1
  Cd  Cd21  1  0.886349  0.772697  0.250000  1
  Cd  Cd22  1  0.227303  0.113651  0.250000  1
  Cd  Cd23  1  0.113651  0.886349  0.750000  1
  Cd  Cd24  1  0.113651  0.227303  0.750000  1
  Cd  Cd25  1  0.772697  0.886349  0.750000  1
  Tc  Tc26  1  0.333333  0.666667  0.250000  1
  Tc  Tc27  1  0.666667  0.333333  0.750000  1
