# generated using pymatgen
data_Y3BeGa4Co7
_symmetry_space_group_name_H-M   'P 1'
_cell_length_a   7.08725507
_cell_length_b   8.55362968
_cell_length_c   8.55471532
_cell_angle_alpha   120.01387283
_cell_angle_beta   90.01550656
_cell_angle_gamma   89.98222664
_symmetry_Int_Tables_number   1
_chemical_formula_structural   Y3BeGa4Co7
_chemical_formula_sum   'Y6 Be2 Ga8 Co14'
_cell_volume   449.05956198
_cell_formula_units_Z   2
loop_
 _symmetry_equiv_pos_site_id
 _symmetry_equiv_pos_as_xyz
  1  'x, y, z'
loop_
 _atom_site_type_symbol
 _atom_site_label
 _atom_site_symmetry_multiplicity
 _atom_site_fract_x
 _atom_site_fract_y
 _atom_site_fract_z
 _atom_site_occupancy
  Y  Y0  1  0.001382  0.525207  0.050365  1
  Y  Y1  1  0.001326  0.525263  0.474704  1
  Y  Y2  1  0.001409  0.949546  0.474737  1
  Y  Y3  1  0.501171  0.050184  0.525145  1
  Y  Y4  1  0.501383  0.474857  0.525104  1
  Y  Y5  1  0.501199  0.474887  0.949925  1
  Be  Be6  1  0.219202  0.999947  0.999960  1
  Be  Be7  1  0.719053  0.000009  0.000090  1
  Ga  Ga8  1  0.292175  0.339734  0.169807  1
  Ga  Ga9  1  0.292014  0.830204  0.169866  1
  Ga  Ga10  1  0.677156  0.666651  0.333381  1
  Ga  Ga11  1  0.792204  0.169901  0.339872  1
  Ga  Ga12  1  0.292138  0.830218  0.660266  1
  Ga  Ga13  1  0.176283  0.333326  0.666668  1
  Ga  Ga14  1  0.792178  0.169832  0.830099  1
  Ga  Ga15  1  0.792233  0.660136  0.830087  1
  Co  Co16  1  0.969126  0.193913  0.096925  1
  Co  Co17  1  0.969172  0.903039  0.096980  1
  Co  Co18  1  0.669594  0.322285  0.161190  1
  Co  Co19  1  0.669345  0.838817  0.161288  1
  Co  Co20  1  0.469373  0.097126  0.194057  1
  Co  Co21  1  0.169608  0.161444  0.322803  1
  Co  Co22  1  0.327521  0.666597  0.333202  1
  Co  Co23  1  0.826604  0.333456  0.666717  1
  Co  Co24  1  0.669517  0.838844  0.677699  1
  Co  Co25  1  0.969205  0.903020  0.805963  1
  Co  Co26  1  0.169588  0.161307  0.838596  1
  Co  Co27  1  0.169646  0.677202  0.838523  1
  Co  Co28  1  0.469288  0.096966  0.903033  1
  Co  Co29  1  0.469307  0.806081  0.902946  1
