# generated using pymatgen
data_Sm4Ho5LuSn8
_symmetry_space_group_name_H-M   'P 1'
_cell_length_a   8.05046700
_cell_length_b   8.20455800
_cell_length_c   15.50298500
_cell_angle_alpha   90.00000000
_cell_angle_beta   90.00000000
_cell_angle_gamma   90.00000000
_symmetry_Int_Tables_number   1
_chemical_formula_structural   Sm4Ho5LuSn8
_chemical_formula_sum   'Sm8 Ho10 Lu2 Sn16'
_cell_volume   1023.98027396
_cell_formula_units_Z   2
loop_
 _symmetry_equiv_pos_site_id
 _symmetry_equiv_pos_as_xyz
  1  'x, y, z'
loop_
 _atom_site_type_symbol
 _atom_site_label
 _atom_site_symmetry_multiplicity
 _atom_site_fract_x
 _atom_site_fract_y
 _atom_site_fract_z
 _atom_site_occupancy
  Sm  Sm0  1  0.518173  0.321334  0.903197  1
  Sm  Sm1  1  0.018173  0.178666  0.596803  1
  Sm  Sm2  1  0.481843  0.678637  0.402983  1
  Sm  Sm3  1  0.981843  0.821363  0.097017  1
  Sm  Sm4  1  0.481843  0.678637  0.097017  1
  Sm  Sm5  1  0.981843  0.821363  0.402983  1
  Sm  Sm6  1  0.518173  0.321334  0.596803  1
  Sm  Sm7  1  0.018173  0.178666  0.903197  1
  Ho  Ho8  1  0.364152  0.836433  0.877245  1
  Ho  Ho9  1  0.864152  0.663567  0.622755  1
  Ho  Ho10  1  0.635729  0.163472  0.377001  1
  Ho  Ho11  1  0.135729  0.336528  0.122999  1
  Ho  Ho12  1  0.635729  0.163472  0.122999  1
  Ho  Ho13  1  0.135729  0.336528  0.377001  1
  Ho  Ho14  1  0.364152  0.836433  0.622755  1
  Ho  Ho15  1  0.864152  0.663567  0.877245  1
  Ho  Ho16  1  0.196494  0.503751  0.750000  1
  Ho  Ho17  1  0.696494  0.996249  0.750000  1
  Lu  Lu18  1  0.803494  0.496063  0.250000  1
  Lu  Lu19  1  0.303494  0.003937  0.250000  1
  Sn  Sn20  1  0.298664  0.039029  0.042352  1
  Sn  Sn21  1  0.798664  0.460971  0.457648  1
  Sn  Sn22  1  0.701124  0.960761  0.541641  1
  Sn  Sn23  1  0.201124  0.539239  0.958359  1
  Sn  Sn24  1  0.701124  0.960761  0.958359  1
  Sn  Sn25  1  0.201124  0.539239  0.541641  1
  Sn  Sn26  1  0.298664  0.039029  0.457648  1
  Sn  Sn27  1  0.798664  0.460971  0.042352  1
  Sn  Sn28  1  0.562655  0.621475  0.750000  1
  Sn  Sn29  1  0.062655  0.878525  0.750000  1
  Sn  Sn30  1  0.438431  0.378505  0.250000  1
  Sn  Sn31  1  0.938431  0.121495  0.250000  1
  Sn  Sn32  1  0.326831  0.145631  0.750000  1
  Sn  Sn33  1  0.826831  0.354369  0.750000  1
  Sn  Sn34  1  0.672726  0.853203  0.250000  1
  Sn  Sn35  1  0.172726  0.646797  0.250000  1
