# generated using pymatgen
data_CeY5(SnIr)6
_symmetry_space_group_name_H-M   'P 1'
_cell_length_a   7.50634848
_cell_length_b   7.54636726
_cell_length_c   7.92751300
_cell_angle_alpha   90.00000000
_cell_angle_beta   90.00000000
_cell_angle_gamma   120.19364343
_symmetry_Int_Tables_number   1
_chemical_formula_structural   CeY5(SnIr)6
_chemical_formula_sum   'Ce1 Y5 Sn6 Ir6'
_cell_volume   388.13563126
_cell_formula_units_Z   1
loop_
 _symmetry_equiv_pos_site_id
 _symmetry_equiv_pos_as_xyz
  1  'x, y, z'
loop_
 _atom_site_type_symbol
 _atom_site_label
 _atom_site_symmetry_multiplicity
 _atom_site_fract_x
 _atom_site_fract_y
 _atom_site_fract_z
 _atom_site_occupancy
  Ce  Ce0  1  0.999599  0.412884  0.250000  1
  Y  Y1  1  0.404612  0.001925  0.250000  1
  Y  Y2  1  0.593836  0.592250  0.750000  1
  Y  Y3  1  0.595925  0.596613  0.250000  1
  Y  Y4  1  0.000591  0.404386  0.750000  1
  Y  Y5  1  0.405943  0.997851  0.750000  1
  Sn  Sn6  1  0.262528  0.258483  0.500183  1
  Sn  Sn7  1  0.262528  0.258483  0.999817  1
  Sn  Sn8  1  0.737397  0.995746  0.999845  1
  Sn  Sn9  1  0.000047  0.745047  0.502936  1
  Sn  Sn10  1  0.737397  0.995746  0.500155  1
  Sn  Sn11  1  0.000047  0.745047  0.997064  1
  Ir  Ir12  1  0.673870  0.334448  0.497595  1
  Ir  Ir13  1  0.673870  0.334448  0.002405  1
  Ir  Ir14  1  0.325892  0.660629  0.004120  1
  Ir  Ir15  1  0.325892  0.660629  0.495880  1
  Ir  Ir16  1  0.000033  0.001196  0.750000  1
  Ir  Ir17  1  0.999994  0.004185  0.250000  1
