# generated using pymatgen
data_Dy4ErTm3(ReB6)4
_symmetry_space_group_name_H-M   'P 1'
_cell_length_a   3.66287300
_cell_length_b   9.13825001
_cell_length_c   11.52486300
_cell_angle_alpha   90.00264307
_cell_angle_beta   90.00000000
_cell_angle_gamma   90.00000000
_symmetry_Int_Tables_number   1
_chemical_formula_structural   Dy4ErTm3(ReB6)4
_chemical_formula_sum   'Dy4 Er1 Tm3 Re4 B24'
_cell_volume   385.76308623
_cell_formula_units_Z   1
loop_
 _symmetry_equiv_pos_site_id
 _symmetry_equiv_pos_as_xyz
  1  'x, y, z'
loop_
 _atom_site_type_symbol
 _atom_site_label
 _atom_site_symmetry_multiplicity
 _atom_site_fract_x
 _atom_site_fract_y
 _atom_site_fract_z
 _atom_site_occupancy
  Dy  Dy0  1  0.000000  0.323346  0.413879  1
  Dy  Dy1  1  0.000000  0.676611  0.586228  1
  Dy  Dy2  1  0.000000  0.823280  0.086064  1
  Dy  Dy3  1  0.000000  0.176726  0.913784  1
  Er  Er4  1  0.000000  0.943374  0.370362  1
  Tm  Tm5  1  0.000000  0.056715  0.630020  1
  Tm  Tm6  1  0.000000  0.443404  0.129698  1
  Tm  Tm7  1  0.000000  0.556653  0.870187  1
  Re  Re8  1  0.000000  0.638796  0.320324  1
  Re  Re9  1  0.000000  0.360879  0.679687  1
  Re  Re10  1  0.000000  0.139368  0.179396  1
  Re  Re11  1  0.000000  0.860815  0.820428  1
  B  B12  1  0.500000  0.553390  0.432803  1
  B  B13  1  0.500000  0.446380  0.567269  1
  B  B14  1  0.500000  0.053636  0.067089  1
  B  B15  1  0.500000  0.946412  0.932753  1
  B  B16  1  0.500000  0.749718  0.418652  1
  B  B17  1  0.500000  0.249904  0.581437  1
  B  B18  1  0.500000  0.250249  0.081278  1
  B  B19  1  0.500000  0.749831  0.918619  1
  B  B20  1  0.500000  0.792434  0.265456  1
  B  B21  1  0.500000  0.207287  0.734472  1
  B  B22  1  0.500000  0.292916  0.234348  1
  B  B23  1  0.500000  0.707238  0.765595  1
  B  B24  1  0.500000  0.630462  0.185164  1
  B  B25  1  0.500000  0.369448  0.814774  1
  B  B26  1  0.500000  0.130914  0.314585  1
  B  B27  1  0.500000  0.869399  0.685325  1
  B  B28  1  0.500000  0.982331  0.212108  1
  B  B29  1  0.500000  0.017810  0.787679  1
  B  B30  1  0.500000  0.482063  0.287587  1
  B  B31  1  0.500000  0.517858  0.712367  1
  B  B32  1  0.500000  0.598972  0.027590  1
  B  B33  1  0.500000  0.401050  0.972326  1
  B  B34  1  0.500000  0.099497  0.472616  1
  B  B35  1  0.500000  0.900833  0.528052  1
