# generated using pymatgen
data_LaHo4Co16(TcP4)3
_symmetry_space_group_name_H-M   'P 1'
_cell_length_a   12.06350500
_cell_length_b   12.06350507
_cell_length_c   3.70851800
_cell_angle_alpha   90.00000000
_cell_angle_beta   90.00000000
_cell_angle_gamma   120.00000329
_symmetry_Int_Tables_number   1
_chemical_formula_structural   LaHo4Co16(TcP4)3
_chemical_formula_sum   'La1 Ho4 Co16 Tc3 P12'
_cell_volume   467.38850605
_cell_formula_units_Z   1
loop_
 _symmetry_equiv_pos_site_id
 _symmetry_equiv_pos_as_xyz
  1  'x, y, z'
loop_
 _atom_site_type_symbol
 _atom_site_label
 _atom_site_symmetry_multiplicity
 _atom_site_fract_x
 _atom_site_fract_y
 _atom_site_fract_z
 _atom_site_occupancy
  La  La0  1  0.666667  0.333333  0.000000  1
  Ho  Ho1  1  0.333333  0.666667  0.000000  1
  Ho  Ho2  1  0.815548  0.814347  0.500000  1
  Ho  Ho3  1  0.185653  0.001201  0.500000  1
  Ho  Ho4  1  0.998799  0.184452  0.500000  1
  Co  Co5  1  0.879283  0.356586  0.500000  1
  Co  Co6  1  0.643414  0.522697  0.500000  1
  Co  Co7  1  0.477303  0.120717  0.500000  1
  Co  Co8  1  0.355974  0.871579  0.500000  1
  Co  Co9  1  0.515607  0.644026  0.500000  1
  Co  Co10  1  0.128421  0.484393  0.500000  1
  Co  Co11  1  0.802818  0.174743  0.000000  1
  Co  Co12  1  0.825257  0.628075  0.000000  1
  Co  Co13  1  0.371925  0.197182  0.000000  1
  Co  Co14  1  0.180891  0.804883  0.000000  1
  Co  Co15  1  0.623991  0.819109  0.000000  1
  Co  Co16  1  0.195117  0.376009  0.000000  1
  Co  Co17  1  0.278194  0.283545  0.500000  1
  Co  Co18  1  0.716455  0.994649  0.500000  1
  Co  Co19  1  0.005351  0.721806  0.500000  1
  Co  Co20  1  0.000000  0.000000  0.000000  1
  Tc  Tc21  1  0.443982  0.447347  0.000000  1
  Tc  Tc22  1  0.552653  0.996635  0.000000  1
  Tc  Tc23  1  0.003365  0.556018  0.000000  1
  P  P24  1  0.685146  0.158119  0.500000  1
  P  P25  1  0.841881  0.527027  0.500000  1
  P  P26  1  0.472973  0.314854  0.500000  1
  P  P27  1  0.166812  0.686297  0.500000  1
  P  P28  1  0.519485  0.833188  0.500000  1
  P  P29  1  0.313703  0.480515  0.500000  1
  P  P30  1  0.176741  0.179409  0.000000  1
  P  P31  1  0.820591  0.997331  0.000000  1
  P  P32  1  0.002669  0.823259  0.000000  1
  P  P33  1  0.637831  0.636712  0.000000  1
  P  P34  1  0.363288  0.001119  0.000000  1
  P  P35  1  0.998881  0.362169  0.000000  1
