# generated using pymatgen
data_Gd6FeI10
_symmetry_space_group_name_H-M   'P 1'
_cell_length_a   7.80759228
_cell_length_b   9.78542277
_cell_length_c   9.75617634
_cell_angle_alpha   107.17949868
_cell_angle_beta   104.70073035
_cell_angle_gamma   96.87528274
_symmetry_Int_Tables_number   1
_chemical_formula_structural   Gd6FeI10
_chemical_formula_sum   'Gd6 Fe1 I10'
_cell_volume   673.35444049
_cell_formula_units_Z   1
loop_
 _symmetry_equiv_pos_site_id
 _symmetry_equiv_pos_as_xyz
  1  'x, y, z'
loop_
 _atom_site_type_symbol
 _atom_site_label
 _atom_site_symmetry_multiplicity
 _atom_site_fract_x
 _atom_site_fract_y
 _atom_site_fract_z
 _atom_site_occupancy
  Gd  Gd0  1  0.352909  0.171707  0.126224  1
  Gd  Gd1  1  0.032076  0.919180  0.728719  1
  Gd  Gd2  1  0.112546  0.769636  0.042162  1
  Gd  Gd3  1  0.647091  0.828293  0.873776  1
  Gd  Gd4  1  0.887454  0.230364  0.957838  1
  Gd  Gd5  1  0.967924  0.080820  0.271281  1
  Fe  Fe6  1  0.000000  0.000000  0.000000  1
  I  I7  1  0.455061  0.090106  0.814853  1
  I  I8  1  0.744236  0.538626  0.911981  1
  I  I9  1  0.255764  0.461374  0.088019  1
  I  I10  1  0.912963  0.177659  0.630098  1
  I  I11  1  0.650277  0.725761  0.549797  1
  I  I12  1  0.544939  0.909894  0.185147  1
  I  I13  1  0.087037  0.822341  0.369902  1
  I  I14  1  0.785938  0.347621  0.257972  1
  I  I15  1  0.214062  0.652379  0.742028  1
  I  I16  1  0.349723  0.274239  0.450203  1
