# generated using pymatgen
data_Cs4Ti6PBr18
_symmetry_space_group_name_H-M   'P 1'
_cell_length_a   10.74860585
_cell_length_b   11.09189959
_cell_length_c   11.19063942
_cell_angle_alpha   118.04690835
_cell_angle_beta   100.85889828
_cell_angle_gamma   104.71267744
_symmetry_Int_Tables_number   1
_chemical_formula_structural   Cs4Ti6PBr18
_chemical_formula_sum   'Cs4 Ti6 P1 Br18'
_cell_volume   1062.26730955
_cell_formula_units_Z   1
loop_
 _symmetry_equiv_pos_site_id
 _symmetry_equiv_pos_as_xyz
  1  'x, y, z'
loop_
 _atom_site_type_symbol
 _atom_site_label
 _atom_site_symmetry_multiplicity
 _atom_site_fract_x
 _atom_site_fract_y
 _atom_site_fract_z
 _atom_site_occupancy
  Cs  Cs0  1  0.200548  0.729584  0.563679  1
  Cs  Cs1  1  0.834926  0.964525  0.768046  1
  Cs  Cs2  1  0.165074  0.035475  0.231954  1
  Cs  Cs3  1  0.799452  0.270416  0.436321  1
  Ti  Ti4  1  0.353269  0.444972  0.780021  1
  Ti  Ti5  1  0.365658  0.615345  0.121826  1
  Ti  Ti6  1  0.641732  0.728861  0.044305  1
  Ti  Ti7  1  0.646731  0.555028  0.219979  1
  Ti  Ti8  1  0.358268  0.271139  0.955695  1
  Ti  Ti9  1  0.634342  0.384655  0.878174  1
  P  P10  1  0.500000  0.500000  0.000000  1
  Br  Br11  1  0.804909  0.435439  0.108080  1
  Br  Br12  1  0.514876  0.687165  0.375661  1
  Br  Br13  1  0.194777  0.010087  0.903919  1
  Br  Br14  1  0.195091  0.564561  0.891920  1
  Br  Br15  1  0.814118  0.813230  0.292035  1
  Br  Br16  1  0.504723  0.310685  0.194095  1
  Br  Br17  1  0.783760  0.255723  0.742292  1
  Br  Br18  1  0.185882  0.186770  0.707965  1
  Br  Br19  1  0.507732  0.877095  0.180384  1
  Br  Br20  1  0.801007  0.624842  0.916029  1
  Br  Br21  1  0.216240  0.744277  0.257708  1
  Br  Br22  1  0.182719  0.381574  0.529139  1
  Br  Br23  1  0.495277  0.689315  0.805905  1
  Br  Br24  1  0.805223  0.989913  0.096081  1
  Br  Br25  1  0.485124  0.312835  0.624339  1
  Br  Br26  1  0.198993  0.375158  0.083971  1
  Br  Br27  1  0.817281  0.618426  0.470861  1
  Br  Br28  1  0.492268  0.122905  0.819616  1
