# generated using pymatgen
data_Er3Tm(B4Ru)4
_symmetry_space_group_name_H-M   'P 1'
_cell_length_a   3.54088900
_cell_length_b   5.93473903
_cell_length_c   11.48382406
_cell_angle_alpha   90.01182537
_cell_angle_beta   90.00000000
_cell_angle_gamma   90.00000000
_symmetry_Int_Tables_number   1
_chemical_formula_structural   Er3Tm(B4Ru)4
_chemical_formula_sum   'Er3 Tm1 B16 Ru4'
_cell_volume   241.32396938
_cell_formula_units_Z   1
loop_
 _symmetry_equiv_pos_site_id
 _symmetry_equiv_pos_as_xyz
  1  'x, y, z'
loop_
 _atom_site_type_symbol
 _atom_site_label
 _atom_site_symmetry_multiplicity
 _atom_site_fract_x
 _atom_site_fract_y
 _atom_site_fract_z
 _atom_site_occupancy
  Er  Er0  1  0.500000  0.129225  0.149803  1
  Er  Er1  1  0.500000  0.870779  0.850180  1
  Er  Er2  1  0.500000  0.629190  0.350245  1
  Tm  Tm3  1  0.500000  0.370756  0.649755  1
  B  B4  1  0.000000  0.476841  0.192298  1
  B  B5  1  0.000000  0.523066  0.807537  1
  B  B6  1  0.000000  0.976851  0.307724  1
  B  B7  1  0.000000  0.023366  0.692293  1
  B  B8  1  0.000000  0.290092  0.314172  1
  B  B9  1  0.000000  0.709606  0.685831  1
  B  B10  1  0.000000  0.790094  0.185852  1
  B  B11  1  0.000000  0.209964  0.814020  1
  B  B12  1  0.000000  0.364381  0.470238  1
  B  B13  1  0.000000  0.635507  0.529975  1
  B  B14  1  0.000000  0.864353  0.029898  1
  B  B15  1  0.000000  0.135679  0.970084  1
  B  B16  1  0.000000  0.387694  0.047014  1
  B  B17  1  0.000000  0.612274  0.952945  1
  B  B18  1  0.000000  0.887743  0.453029  1
  B  B19  1  0.000000  0.112590  0.547142  1
  Ru  Ru20  1  0.500000  0.141144  0.407207  1
  Ru  Ru21  1  0.500000  0.858786  0.592950  1
  Ru  Ru22  1  0.500000  0.641075  0.092889  1
  Ru  Ru23  1  0.500000  0.358945  0.906919  1
