# generated using pymatgen
data_Tb5LuSi24Os3Ru5
_symmetry_space_group_name_H-M   'P 1'
_cell_length_a   10.11153686
_cell_length_b   10.11153760
_cell_length_c   8.16318323
_cell_angle_alpha   90.02201634
_cell_angle_beta   90.02201167
_cell_angle_gamma   132.37540421
_symmetry_Int_Tables_number   1
_chemical_formula_structural   Tb5LuSi24Os3Ru5
_chemical_formula_sum   'Tb5 Lu1 Si24 Os3 Ru5'
_cell_volume   616.57813160
_cell_formula_units_Z   1
loop_
 _symmetry_equiv_pos_site_id
 _symmetry_equiv_pos_as_xyz
  1  'x, y, z'
loop_
 _atom_site_type_symbol
 _atom_site_label
 _atom_site_symmetry_multiplicity
 _atom_site_fract_x
 _atom_site_fract_y
 _atom_site_fract_z
 _atom_site_occupancy
  Tb  Tb0  1  0.999943  0.000057  0.000000  1
  Tb  Tb1  1  0.502099  0.001984  0.749901  1
  Tb  Tb2  1  0.998016  0.497901  0.250099  1
  Tb  Tb3  1  0.498079  0.997904  0.249894  1
  Tb  Tb4  1  0.002096  0.501921  0.750106  1
  Lu  Lu5  1  0.500006  0.499994  0.500000  1
  Si  Si6  1  0.795405  0.204595  0.500000  1
  Si  Si7  1  0.295950  0.704050  0.000000  1
  Si  Si8  1  0.204662  0.795338  0.500000  1
  Si  Si9  1  0.704685  0.295315  0.000000  1
  Si  Si10  1  0.332060  0.331727  0.833108  1
  Si  Si11  1  0.668273  0.667940  0.166892  1
  Si  Si12  1  0.166971  0.167191  0.332312  1
  Si  Si13  1  0.832809  0.833029  0.667688  1
  Si  Si14  1  0.120373  0.887091  0.727920  1
  Si  Si15  1  0.112909  0.879627  0.272080  1
  Si  Si16  1  0.611940  0.379012  0.227770  1
  Si  Si17  1  0.620988  0.388060  0.772230  1
  Si  Si18  1  0.878927  0.112665  0.271085  1
  Si  Si19  1  0.887335  0.121073  0.728915  1
  Si  Si20  1  0.389040  0.621924  0.771792  1
  Si  Si21  1  0.378076  0.610960  0.228208  1
  Si  Si22  1  0.344569  0.111986  0.505004  1
  Si  Si23  1  0.888014  0.655431  0.494996  1
  Si  Si24  1  0.388286  0.155708  0.003542  1
  Si  Si25  1  0.844292  0.611714  0.996458  1
  Si  Si26  1  0.655587  0.888189  0.494594  1
  Si  Si27  1  0.111811  0.344413  0.505406  1
  Si  Si28  1  0.613102  0.846036  0.995355  1
  Si  Si29  1  0.153964  0.386898  0.004645  1
  Os  Os30  1  0.668488  0.331512  0.500000  1
  Os  Os31  1  0.169701  0.830299  0.000000  1
  Os  Os32  1  0.331495  0.668505  0.500000  1
  Ru  Ru33  1  0.830244  0.169756  0.000000  1
  Ru  Ru34  1  0.128486  0.128383  0.625006  1
  Ru  Ru35  1  0.871617  0.871514  0.374994  1
  Ru  Ru36  1  0.375096  0.375394  0.129315  1
  Ru  Ru37  1  0.624606  0.624904  0.870685  1
