# generated using pymatgen
data_CeHo(Al5Os)4
_symmetry_space_group_name_H-M   'P 1'
_cell_length_a   6.87315554
_cell_length_b   6.87315628
_cell_length_c   9.15449900
_cell_angle_alpha   90.00000000
_cell_angle_beta   90.00000000
_cell_angle_gamma   96.80427947
_symmetry_Int_Tables_number   1
_chemical_formula_structural   CeHo(Al5Os)4
_chemical_formula_sum   'Ce1 Ho1 Al20 Os4'
_cell_volume   429.41505490
_cell_formula_units_Z   1
loop_
 _symmetry_equiv_pos_site_id
 _symmetry_equiv_pos_as_xyz
  1  'x, y, z'
loop_
 _atom_site_type_symbol
 _atom_site_label
 _atom_site_symmetry_multiplicity
 _atom_site_fract_x
 _atom_site_fract_y
 _atom_site_fract_z
 _atom_site_occupancy
  Ce  Ce0  1  0.373083  0.626917  0.250000  1
  Ho  Ho1  1  0.630295  0.369705  0.750000  1
  Al  Al2  1  0.282235  0.019265  0.750000  1
  Al  Al3  1  0.017358  0.281795  0.250000  1
  Al  Al4  1  0.718205  0.982642  0.250000  1
  Al  Al5  1  0.980735  0.717765  0.750000  1
  Al  Al6  1  0.876134  0.123866  0.950477  1
  Al  Al7  1  0.122771  0.877229  0.046273  1
  Al  Al8  1  0.876134  0.123866  0.549523  1
  Al  Al9  1  0.122771  0.877229  0.453727  1
  Al  Al10  1  0.645620  0.917756  0.750000  1
  Al  Al11  1  0.913108  0.645624  0.250000  1
  Al  Al12  1  0.354376  0.086892  0.250000  1
  Al  Al13  1  0.082244  0.354380  0.750000  1
  Al  Al14  1  0.343545  0.656455  0.897599  1
  Al  Al15  1  0.657894  0.342106  0.101009  1
  Al  Al16  1  0.343545  0.656455  0.602401  1
  Al  Al17  1  0.657894  0.342106  0.398991  1
  Al  Al18  1  0.724913  0.723978  0.998243  1
  Al  Al19  1  0.724913  0.723978  0.501757  1
  Al  Al20  1  0.276022  0.275087  0.998243  1
  Al  Al21  1  0.276022  0.275087  0.501757  1
  Os  Os22  1  0.499655  0.999564  0.999620  1
  Os  Os23  1  0.000436  0.500345  0.999620  1
  Os  Os24  1  0.499655  0.999564  0.500380  1
  Os  Os25  1  0.000436  0.500345  0.500380  1
