# generated using pymatgen
data_Cd3BiRuRh3O14
_symmetry_space_group_name_H-M   'P 1'
_cell_length_a   7.28788321
_cell_length_b   7.19093686
_cell_length_c   7.19093700
_cell_angle_alpha   59.99999474
_cell_angle_beta   60.43906776
_cell_angle_gamma   60.43906865
_symmetry_Int_Tables_number   1
_chemical_formula_structural   Cd3BiRuRh3O14
_chemical_formula_sum   'Cd3 Bi1 Ru1 Rh3 O14'
_cell_volume   268.23033580
_cell_formula_units_Z   1
loop_
 _symmetry_equiv_pos_site_id
 _symmetry_equiv_pos_as_xyz
  1  'x, y, z'
loop_
 _atom_site_type_symbol
 _atom_site_label
 _atom_site_symmetry_multiplicity
 _atom_site_fract_x
 _atom_site_fract_y
 _atom_site_fract_z
 _atom_site_occupancy
  Cd  Cd0  1  0.125000  0.625000  0.125000  1
  Cd  Cd1  1  0.125000  0.125000  0.625000  1
  Cd  Cd2  1  0.125000  0.125000  0.125000  1
  Bi  Bi3  1  0.625000  0.125000  0.125000  1
  Ru  Ru4  1  0.125000  0.625000  0.625000  1
  Rh  Rh5  1  0.625000  0.125000  0.625000  1
  Rh  Rh6  1  0.625000  0.625000  0.125000  1
  Rh  Rh7  1  0.625000  0.625000  0.625000  1
  O  O8  1  0.710172  0.710780  0.289524  1
  O  O9  1  0.943863  0.557877  0.557877  1
  O  O10  1  0.539828  0.960476  0.960476  1
  O  O11  1  0.943863  0.940383  0.557877  1
  O  O12  1  0.943863  0.557877  0.940383  1
  O  O13  1  0.539828  0.960476  0.539220  1
  O  O14  1  0.306137  0.692123  0.309617  1
  O  O15  1  0.306137  0.692123  0.692123  1
  O  O16  1  0.710172  0.289524  0.289524  1
  O  O17  1  0.710172  0.289524  0.710780  1
  O  O18  1  0.539828  0.539220  0.960476  1
  O  O19  1  0.306137  0.309617  0.692123  1
  O  O20  1  0.243883  0.252039  0.252039  1
  O  O21  1  0.006117  0.997961  0.997961  1
