# generated using pymatgen
data_TbDy3Ga17SiIr6
_symmetry_space_group_name_H-M   'P 1'
_cell_length_a   7.59184218
_cell_length_b   7.57218421
_cell_length_c   9.49329007
_cell_angle_alpha   90.05499835
_cell_angle_beta   89.81777734
_cell_angle_gamma   119.90540071
_symmetry_Int_Tables_number   1
_chemical_formula_structural   TbDy3Ga17SiIr6
_chemical_formula_sum   'Tb1 Dy3 Ga17 Si1 Ir6'
_cell_volume   473.07131549
_cell_formula_units_Z   1
loop_
 _symmetry_equiv_pos_site_id
 _symmetry_equiv_pos_as_xyz
  1  'x, y, z'
loop_
 _atom_site_type_symbol
 _atom_site_label
 _atom_site_symmetry_multiplicity
 _atom_site_fract_x
 _atom_site_fract_y
 _atom_site_fract_z
 _atom_site_occupancy
  Tb  Tb0  1  0.996994  0.665194  0.248433  1
  Dy  Dy1  1  0.002848  0.331315  0.751119  1
  Dy  Dy2  1  0.672998  0.001560  0.248425  1
  Dy  Dy3  1  0.330898  0.002650  0.749971  1
  Ga  Ga4  1  0.129118  0.128548  0.250804  1
  Ga  Ga5  1  0.873285  0.874244  0.750640  1
  Ga  Ga6  1  0.999546  0.670239  0.917633  1
  Ga  Ga7  1  0.000776  0.666079  0.580378  1
  Ga  Ga8  1  0.333955  0.998387  0.419578  1
  Ga  Ga9  1  0.999322  0.334309  0.420645  1
  Ga  Ga10  1  0.665388  0.000356  0.580380  1
  Ga  Ga11  1  0.659853  0.995527  0.917804  1
  Ga  Ga12  1  0.333879  0.998198  0.081371  1
  Ga  Ga13  1  0.332205  0.331608  0.564830  1
  Ga  Ga14  1  0.668425  0.668891  0.434817  1
  Ga  Ga15  1  0.668071  0.668980  0.066967  1
  Ga  Ga16  1  0.337202  0.332382  0.933697  1
  Ga  Ga17  1  0.340835  0.546140  0.251379  1
  Ga  Ga18  1  0.661145  0.452456  0.750891  1
  Ga  Ga19  1  0.547029  0.339448  0.250452  1
  Ga  Ga20  1  0.452073  0.659675  0.750284  1
  Si  Si21  1  0.999420  0.334157  0.073349  1
  Ir  Ir22  1  0.683713  0.329465  0.003187  1
  Ir  Ir23  1  0.314067  0.656973  0.001601  1
  Ir  Ir24  1  0.327964  0.671048  0.500223  1
  Ir  Ir25  1  0.671453  0.328416  0.500013  1
  Ir  Ir26  1  0.998178  0.013567  0.001419  1
  Ir  Ir27  1  0.999358  0.000184  0.499711  1
