# generated using pymatgen
data_Er8Be(Si5W4)3
_symmetry_space_group_name_H-M   'P 1'
_cell_length_a   6.83808949
_cell_length_b   6.82987601
_cell_length_c   12.70918261
_cell_angle_alpha   90.10905471
_cell_angle_beta   90.24467017
_cell_angle_gamma   89.89451374
_symmetry_Int_Tables_number   1
_chemical_formula_structural   Er8Be(Si5W4)3
_chemical_formula_sum   'Er8 Be1 Si15 W12'
_cell_volume   593.55332627
_cell_formula_units_Z   1
loop_
 _symmetry_equiv_pos_site_id
 _symmetry_equiv_pos_as_xyz
  1  'x, y, z'
loop_
 _atom_site_type_symbol
 _atom_site_label
 _atom_site_symmetry_multiplicity
 _atom_site_fract_x
 _atom_site_fract_y
 _atom_site_fract_z
 _atom_site_occupancy
  Er  Er0  1  0.337494  0.000112  0.471214  1
  Er  Er1  1  0.497321  0.838091  0.718523  1
  Er  Er2  1  0.498772  0.162364  0.219353  1
  Er  Er3  1  0.838163  0.501713  0.281318  1
  Er  Er4  1  0.163339  0.497029  0.778765  1
  Er  Er5  1  0.660302  0.001486  0.967863  1
  Er  Er6  1  0.006193  0.332258  0.533782  1
  Er  Er7  1  0.001579  0.662211  0.030418  1
  Be  Be8  1  0.206182  0.127730  0.687016  1
  Si  Si9  1  0.371894  0.701144  0.932159  1
  Si  Si10  1  0.629805  0.298813  0.433984  1
  Si  Si11  1  0.701674  0.372582  0.065972  1
  Si  Si12  1  0.297736  0.627497  0.567816  1
  Si  Si13  1  0.797678  0.872577  0.183305  1
  Si  Si14  1  0.126908  0.201835  0.316982  1
  Si  Si15  1  0.872998  0.795540  0.816921  1
  Si  Si16  1  0.288517  0.963202  0.063156  1
  Si  Si17  1  0.535985  0.789909  0.314073  1
  Si  Si18  1  0.453704  0.207643  0.809724  1
  Si  Si19  1  0.791873  0.538620  0.684647  1
  Si  Si20  1  0.210861  0.463678  0.186406  1
  Si  Si21  1  0.709710  0.038404  0.564369  1
  Si  Si22  1  0.962784  0.290026  0.935307  1
  Si  Si23  1  0.037567  0.709777  0.438045  1
  W  W24  1  0.332506  0.332906  0.999556  1
  W  W25  1  0.166933  0.832712  0.249666  1
  W  W26  1  0.834344  0.164152  0.749795  1
  W  W27  1  0.666929  0.668232  0.499654  1
  W  W28  1  0.160227  0.000698  0.872278  1
  W  W29  1  0.501562  0.664389  0.122790  1
  W  W30  1  0.503822  0.338752  0.624294  1
  W  W31  1  0.662408  0.497240  0.874220  1
  W  W32  1  0.335999  0.498628  0.377569  1
  W  W33  1  0.836438  0.999850  0.374201  1
  W  W34  1  0.998308  0.163894  0.126508  1
  W  W35  1  0.001484  0.844307  0.628350  1
