# generated using pymatgen
data_TbWF7
_symmetry_space_group_name_H-M   'P 1'
_cell_length_a   5.74237600
_cell_length_b   6.09330143
_cell_length_c   8.35830753
_cell_angle_alpha   102.48120536
_cell_angle_beta   90.00000000
_cell_angle_gamma   90.00000000
_symmetry_Int_Tables_number   1
_chemical_formula_structural   TbWF7
_chemical_formula_sum   'Tb2 W2 F14'
_cell_volume   285.54575383
_cell_formula_units_Z   2
loop_
 _symmetry_equiv_pos_site_id
 _symmetry_equiv_pos_as_xyz
  1  'x, y, z'
loop_
 _atom_site_type_symbol
 _atom_site_label
 _atom_site_symmetry_multiplicity
 _atom_site_fract_x
 _atom_site_fract_y
 _atom_site_fract_z
 _atom_site_occupancy
  Tb  Tb0  1  0.701112  0.656116  0.687974  1
  Tb  Tb1  1  0.201112  0.343884  0.312026  1
  W  W2  1  0.707324  0.810984  0.224109  1
  W  W3  1  0.207324  0.189016  0.775891  1
  F  F4  1  0.914017  0.472110  0.483979  1
  F  F5  1  0.414017  0.527890  0.516021  1
  F  F6  1  0.431610  0.923633  0.764604  1
  F  F7  1  0.931610  0.076367  0.235396  1
  F  F8  1  0.944676  0.967289  0.758704  1
  F  F9  1  0.444676  0.032711  0.241296  1
  F  F10  1  0.979884  0.455794  0.794414  1
  F  F11  1  0.479884  0.544206  0.205586  1
  F  F12  1  0.700075  0.766991  0.981294  1
  F  F13  1  0.200075  0.233009  0.018706  1
  F  F14  1  0.714246  0.864683  0.468187  1
  F  F15  1  0.214246  0.135317  0.531813  1
  F  F16  1  0.483415  0.393838  0.791301  1
  F  F17  1  0.983415  0.606162  0.208699  1
