# generated using pymatgen
data_Pa4AlB16W3
_symmetry_space_group_name_H-M   'P 1'
_cell_length_a   3.69536400
_cell_length_b   5.99115624
_cell_length_c   11.60619258
_cell_angle_alpha   89.86638068
_cell_angle_beta   90.00000000
_cell_angle_gamma   90.00000000
_symmetry_Int_Tables_number   1
_chemical_formula_structural   Pa4AlB16W3
_chemical_formula_sum   'Pa4 Al1 B16 W3'
_cell_volume   256.95463756
_cell_formula_units_Z   1
loop_
 _symmetry_equiv_pos_site_id
 _symmetry_equiv_pos_as_xyz
  1  'x, y, z'
loop_
 _atom_site_type_symbol
 _atom_site_label
 _atom_site_symmetry_multiplicity
 _atom_site_fract_x
 _atom_site_fract_y
 _atom_site_fract_z
 _atom_site_occupancy
  Pa  Pa0  1  0.000000  0.627151  0.351642  1
  Pa  Pa1  1  0.000000  0.371997  0.647963  1
  Pa  Pa2  1  0.000000  0.126940  0.152666  1
  Pa  Pa3  1  0.000000  0.873498  0.846722  1
  Al  Al4  1  0.000000  0.861181  0.590988  1
  B  B5  1  0.500000  0.788823  0.187867  1
  B  B6  1  0.500000  0.211818  0.811691  1
  B  B7  1  0.500000  0.287931  0.314197  1
  B  B8  1  0.500000  0.711358  0.686344  1
  B  B9  1  0.500000  0.866563  0.031530  1
  B  B10  1  0.500000  0.133965  0.967758  1
  B  B11  1  0.500000  0.365332  0.468127  1
  B  B12  1  0.500000  0.633245  0.530735  1
  B  B13  1  0.500000  0.888066  0.452086  1
  B  B14  1  0.500000  0.116580  0.544938  1
  B  B15  1  0.500000  0.386149  0.046550  1
  B  B16  1  0.500000  0.615080  0.952800  1
  B  B17  1  0.500000  0.974717  0.308533  1
  B  B18  1  0.500000  0.028953  0.691865  1
  B  B19  1  0.500000  0.473481  0.193061  1
  B  B20  1  0.500000  0.527313  0.806164  1
  W  W21  1  0.000000  0.635831  0.089951  1
  W  W22  1  0.000000  0.365904  0.911649  1
  W  W23  1  0.000000  0.128122  0.414173  1
