# generated using pymatgen
data_Cs6MnSe4
_symmetry_space_group_name_H-M   'P 1'
_cell_length_a   11.15196000
_cell_length_b   11.15196029
_cell_length_c   8.79153200
_cell_angle_alpha   90.00000000
_cell_angle_beta   90.00000000
_cell_angle_gamma   119.99999913
_symmetry_Int_Tables_number   1
_chemical_formula_structural   Cs6MnSe4
_chemical_formula_sum   'Cs12 Mn2 Se8'
_cell_volume   946.88582282
_cell_formula_units_Z   2
loop_
 _symmetry_equiv_pos_site_id
 _symmetry_equiv_pos_as_xyz
  1  'x, y, z'
loop_
 _atom_site_type_symbol
 _atom_site_label
 _atom_site_symmetry_multiplicity
 _atom_site_fract_x
 _atom_site_fract_y
 _atom_site_fract_z
 _atom_site_occupancy
  Cs  Cs0  1  0.146367  0.853633  0.543736  1
  Cs  Cs1  1  0.292734  0.146367  0.043736  1
  Cs  Cs2  1  0.853633  0.707266  0.043736  1
  Cs  Cs3  1  0.146367  0.292734  0.543736  1
  Cs  Cs4  1  0.707266  0.853633  0.543736  1
  Cs  Cs5  1  0.853633  0.146367  0.043736  1
  Cs  Cs6  1  0.529204  0.470796  0.365320  1
  Cs  Cs7  1  0.058409  0.529204  0.865320  1
  Cs  Cs8  1  0.470796  0.941591  0.865320  1
  Cs  Cs9  1  0.529204  0.058409  0.365320  1
  Cs  Cs10  1  0.941591  0.470796  0.365320  1
  Cs  Cs11  1  0.470796  0.529204  0.865320  1
  Mn  Mn12  1  0.333333  0.666667  0.251802  1
  Mn  Mn13  1  0.666667  0.333333  0.751802  1
  Se  Se14  1  0.333333  0.666667  0.551401  1
  Se  Se15  1  0.666667  0.333333  0.051401  1
  Se  Se16  1  0.203736  0.796264  0.159777  1
  Se  Se17  1  0.407472  0.203736  0.659777  1
  Se  Se18  1  0.796264  0.592528  0.659777  1
  Se  Se19  1  0.203736  0.407472  0.159777  1
  Se  Se20  1  0.592528  0.796264  0.159777  1
  Se  Se21  1  0.796264  0.203736  0.659777  1
