# generated using pymatgen
data_Y3Ho3Co16(ReP6)2
_symmetry_space_group_name_H-M   'P 1'
_cell_length_a   3.71813800
_cell_length_b   10.49856103
_cell_length_c   12.20250203
_cell_angle_alpha   90.00830935
_cell_angle_beta   90.00000000
_cell_angle_gamma   90.00000000
_symmetry_Int_Tables_number   1
_chemical_formula_structural   Y3Ho3Co16(ReP6)2
_chemical_formula_sum   'Y3 Ho3 Co16 Re2 P12'
_cell_volume   476.32586623
_cell_formula_units_Z   1
loop_
 _symmetry_equiv_pos_site_id
 _symmetry_equiv_pos_as_xyz
  1  'x, y, z'
loop_
 _atom_site_type_symbol
 _atom_site_label
 _atom_site_symmetry_multiplicity
 _atom_site_fract_x
 _atom_site_fract_y
 _atom_site_fract_z
 _atom_site_occupancy
  Y  Y0  1  0.000000  0.500008  0.524631  1
  Y  Y1  1  0.500000  0.000005  0.475291  1
  Y  Y2  1  0.000000  0.318369  0.794400  1
  Ho  Ho3  1  0.500000  0.818352  0.205624  1
  Ho  Ho4  1  0.500000  0.181662  0.205581  1
  Ho  Ho5  1  0.000000  0.681680  0.794372  1
  Co  Co6  1  0.500000  0.500468  0.702535  1
  Co  Co7  1  0.000000  0.000001  0.297258  1
  Co  Co8  1  0.000000  0.500100  0.988127  1
  Co  Co9  1  0.500000  0.999972  0.012073  1
  Co  Co10  1  0.500000  0.332433  0.990113  1
  Co  Co11  1  0.500000  0.667606  0.989873  1
  Co  Co12  1  0.000000  0.167425  0.010293  1
  Co  Co13  1  0.000000  0.832488  0.010183  1
  Co  Co14  1  0.500000  0.296407  0.430835  1
  Co  Co15  1  0.500000  0.703588  0.430880  1
  Co  Co16  1  0.000000  0.203474  0.568889  1
  Co  Co17  1  0.000000  0.796439  0.569095  1
  Co  Co18  1  0.500000  0.879015  0.709006  1
  Co  Co19  1  0.500000  0.120610  0.708848  1
  Co  Co20  1  0.000000  0.620963  0.291001  1
  Co  Co21  1  0.000000  0.379037  0.290980  1
  Re  Re22  1  0.500000  0.499985  0.156181  1
  Re  Re23  1  0.000000  0.999901  0.843954  1
  P  P24  1  0.500000  0.500363  0.880319  1
  P  P25  1  0.000000  0.000006  0.119804  1
  P  P26  1  0.500000  0.499996  0.348806  1
  P  P27  1  0.000000  0.000015  0.651198  1
  P  P28  1  0.500000  0.311575  0.616143  1
  P  P29  1  0.500000  0.688467  0.616554  1
  P  P30  1  0.000000  0.188453  0.383433  1
  P  P31  1  0.000000  0.811540  0.383450  1
  P  P32  1  0.500000  0.845546  0.892454  1
  P  P33  1  0.500000  0.154060  0.892722  1
  P  P34  1  0.000000  0.654471  0.107576  1
  P  P35  1  0.000000  0.345522  0.107518  1
