# generated using pymatgen
data_YHoTm2Ni13C4
_symmetry_space_group_name_H-M   'P 1'
_cell_length_a   8.37322504
_cell_length_b   8.37322567
_cell_length_c   3.84615100
_cell_angle_alpha   90.00000000
_cell_angle_beta   90.00000000
_cell_angle_gamma   91.09062690
_symmetry_Int_Tables_number   1
_chemical_formula_structural   YHoTm2Ni13C4
_chemical_formula_sum   'Y1 Ho1 Tm2 Ni13 C4'
_cell_volume   269.60826777
_cell_formula_units_Z   1
loop_
 _symmetry_equiv_pos_site_id
 _symmetry_equiv_pos_as_xyz
  1  'x, y, z'
loop_
 _atom_site_type_symbol
 _atom_site_label
 _atom_site_symmetry_multiplicity
 _atom_site_fract_x
 _atom_site_fract_y
 _atom_site_fract_z
 _atom_site_occupancy
  Y  Y0  1  0.348383  0.348383  0.500000  1
  Ho  Ho1  1  0.652295  0.652295  0.500000  1
  Tm  Tm2  1  0.812940  0.187130  0.500000  1
  Tm  Tm3  1  0.187130  0.812940  0.500000  1
  Ni  Ni4  1  0.501365  0.998723  0.500000  1
  Ni  Ni5  1  0.998723  0.501365  0.500000  1
  Ni  Ni6  1  0.999683  0.999683  0.000000  1
  Ni  Ni7  1  0.429693  0.784791  0.000000  1
  Ni  Ni8  1  0.571427  0.215376  0.000000  1
  Ni  Ni9  1  0.215376  0.571427  0.000000  1
  Ni  Ni10  1  0.784791  0.429693  0.000000  1
  Ni  Ni11  1  0.708953  0.926297  0.000000  1
  Ni  Ni12  1  0.290493  0.072377  0.000000  1
  Ni  Ni13  1  0.072377  0.290493  0.000000  1
  Ni  Ni14  1  0.926297  0.708953  0.000000  1
  Ni  Ni15  1  0.877388  0.877388  0.500000  1
  Ni  Ni16  1  0.121413  0.121413  0.500000  1
  C  C17  1  0.443465  0.557425  0.000000  1
  C  C18  1  0.557425  0.443465  0.000000  1
  C  C19  1  0.499894  0.000491  0.000000  1
  C  C20  1  0.000491  0.499894  0.000000  1
