# generated using pymatgen
data_Ac3Pr(MgRh)4
_symmetry_space_group_name_H-M   'P 1'
_cell_length_a   4.26110600
_cell_length_b   7.52176974
_cell_length_c   8.98089780
_cell_angle_alpha   89.53213625
_cell_angle_beta   90.00000000
_cell_angle_gamma   90.00000000
_symmetry_Int_Tables_number   1
_chemical_formula_structural   Ac3Pr(MgRh)4
_chemical_formula_sum   'Ac3 Pr1 Mg4 Rh4'
_cell_volume   287.83768107
_cell_formula_units_Z   1
loop_
 _symmetry_equiv_pos_site_id
 _symmetry_equiv_pos_as_xyz
  1  'x, y, z'
loop_
 _atom_site_type_symbol
 _atom_site_label
 _atom_site_symmetry_multiplicity
 _atom_site_fract_x
 _atom_site_fract_y
 _atom_site_fract_z
 _atom_site_occupancy
  Ac  Ac0  1  0.250000  0.038032  0.318321  1
  Ac  Ac1  1  0.750000  0.960796  0.682840  1
  Ac  Ac2  1  0.250000  0.538582  0.176681  1
  Pr  Pr3  1  0.750000  0.458517  0.818839  1
  Mg  Mg4  1  0.250000  0.134932  0.943108  1
  Mg  Mg5  1  0.750000  0.869917  0.052530  1
  Mg  Mg6  1  0.250000  0.625641  0.559836  1
  Mg  Mg7  1  0.750000  0.372058  0.449204  1
  Rh  Rh8  1  0.750000  0.246441  0.122480  1
  Rh  Rh9  1  0.250000  0.753726  0.873583  1
  Rh  Rh10  1  0.750000  0.742863  0.375235  1
  Rh  Rh11  1  0.250000  0.258494  0.627343  1
