# generated using pymatgen
data_LiGa2CuCl8
_symmetry_space_group_name_H-M   'P 1'
_cell_length_a   5.61757900
_cell_length_b   5.61757900
_cell_length_c   10.17583300
_cell_angle_alpha   90.00000000
_cell_angle_beta   90.00000000
_cell_angle_gamma   90.00000000
_symmetry_Int_Tables_number   1
_chemical_formula_structural   LiGa2CuCl8
_chemical_formula_sum   'Li1 Ga2 Cu1 Cl8'
_cell_volume   321.12073427
_cell_formula_units_Z   1
loop_
 _symmetry_equiv_pos_site_id
 _symmetry_equiv_pos_as_xyz
  1  'x, y, z'
loop_
 _atom_site_type_symbol
 _atom_site_label
 _atom_site_symmetry_multiplicity
 _atom_site_fract_x
 _atom_site_fract_y
 _atom_site_fract_z
 _atom_site_occupancy
  Li  Li0  1  0.000000  0.000000  0.000000  1
  Ga  Ga1  1  0.000000  0.500000  0.253280  1
  Ga  Ga2  1  0.500000  0.000000  0.746720  1
  Cu  Cu3  1  0.000000  0.000000  0.500000  1
  Cl  Cl4  1  0.231807  0.276099  0.128911  1
  Cl  Cl5  1  0.768193  0.723902  0.128911  1
  Cl  Cl6  1  0.276099  0.768193  0.871089  1
  Cl  Cl7  1  0.771601  0.267600  0.376403  1
  Cl  Cl8  1  0.723902  0.231807  0.871089  1
  Cl  Cl9  1  0.228399  0.732401  0.376403  1
  Cl  Cl10  1  0.732401  0.771601  0.623597  1
  Cl  Cl11  1  0.267600  0.228399  0.623597  1
