# generated using pymatgen
data_PrDy3(CCl)2
_symmetry_space_group_name_H-M   'P 1'
_cell_length_a   3.67523900
_cell_length_b   3.67523896
_cell_length_c   13.92134200
_cell_angle_alpha   90.00000000
_cell_angle_beta   90.00000000
_cell_angle_gamma   120.00000939
_symmetry_Int_Tables_number   1
_chemical_formula_structural   PrDy3(CCl)2
_chemical_formula_sum   'Pr1 Dy3 C2 Cl2'
_cell_volume   162.84816192
_cell_formula_units_Z   1
loop_
 _symmetry_equiv_pos_site_id
 _symmetry_equiv_pos_as_xyz
  1  'x, y, z'
loop_
 _atom_site_type_symbol
 _atom_site_label
 _atom_site_symmetry_multiplicity
 _atom_site_fract_x
 _atom_site_fract_y
 _atom_site_fract_z
 _atom_site_occupancy
  Pr  Pr0  1  0.333333  0.666667  0.406476  1
  Dy  Dy1  1  0.333333  0.666667  0.088583  1
  Dy  Dy2  1  0.666667  0.333333  0.599839  1
  Dy  Dy3  1  0.666667  0.333333  0.904842  1
  C  C4  1  0.000000  0.000000  0.996008  1
  C  C5  1  0.000000  0.000000  0.514760  1
  Cl  Cl6  1  0.666667  0.333333  0.234254  1
  Cl  Cl7  1  0.333333  0.666667  0.755238  1
