# generated using pymatgen
data_Nd2Dy(SiIr)2
_symmetry_space_group_name_H-M   'P 1'
_cell_length_a   5.76422500
_cell_length_b   5.76422550
_cell_length_c   13.33332400
_cell_angle_alpha   90.00000000
_cell_angle_beta   90.00000000
_cell_angle_gamma   138.03810055
_symmetry_Int_Tables_number   1
_chemical_formula_structural   Nd2Dy(SiIr)2
_chemical_formula_sum   'Nd4 Dy2 Si4 Ir4'
_cell_volume   296.21719068
_cell_formula_units_Z   2
loop_
 _symmetry_equiv_pos_site_id
 _symmetry_equiv_pos_as_xyz
  1  'x, y, z'
loop_
 _atom_site_type_symbol
 _atom_site_label
 _atom_site_symmetry_multiplicity
 _atom_site_fract_x
 _atom_site_fract_y
 _atom_site_fract_z
 _atom_site_occupancy
  Nd  Nd0  1  0.773255  0.226745  0.603614  1
  Nd  Nd1  1  0.226745  0.773255  0.396386  1
  Nd  Nd2  1  0.773255  0.226745  0.896386  1
  Nd  Nd3  1  0.226745  0.773255  0.103614  1
  Dy  Dy4  1  0.515616  0.484384  0.250000  1
  Dy  Dy5  1  0.484384  0.515616  0.750000  1
  Si  Si6  1  0.059177  0.940823  0.589875  1
  Si  Si7  1  0.059177  0.940823  0.910125  1
  Si  Si8  1  0.940823  0.059177  0.410125  1
  Si  Si9  1  0.940823  0.059177  0.089875  1
  Ir  Ir10  1  0.817990  0.182010  0.250000  1
  Ir  Ir11  1  0.182010  0.817990  0.750000  1
  Ir  Ir12  1  0.500000  0.500000  0.000000  1
  Ir  Ir13  1  0.500000  0.500000  0.500000  1
