# generated using pymatgen
data_Tm7P4S3
_symmetry_space_group_name_H-M   'P 1'
_cell_length_a   6.77084982
_cell_length_b   8.76127360
_cell_length_c   10.40123200
_cell_angle_alpha   53.74599078
_cell_angle_beta   40.26209245
_cell_angle_gamma   49.73712170
_symmetry_Int_Tables_number   1
_chemical_formula_structural   Tm7P4S3
_chemical_formula_sum   'Tm7 P4 S3'
_cell_volume   298.20311405
_cell_formula_units_Z   1
loop_
 _symmetry_equiv_pos_site_id
 _symmetry_equiv_pos_as_xyz
  1  'x, y, z'
loop_
 _atom_site_type_symbol
 _atom_site_label
 _atom_site_symmetry_multiplicity
 _atom_site_fract_x
 _atom_site_fract_y
 _atom_site_fract_z
 _atom_site_occupancy
  Tm  Tm0  1  0.856564  0.416218  0.580614  1
  Tm  Tm1  1  0.425743  0.116735  0.162523  1
  Tm  Tm2  1  0.155361  0.266672  0.863112  1
  Tm  Tm3  1  0.569049  0.556517  0.302973  1
  Tm  Tm4  1  0.999052  0.842120  0.722351  1
  Tm  Tm5  1  0.290740  0.699121  0.013320  1
  Tm  Tm6  1  0.729244  0.976238  0.438292  1
  P  P7  1  0.363092  0.911189  0.081168  1
  P  P8  1  0.648092  0.767918  0.369121  1
  P  P9  1  0.929443  0.622043  0.657683  1
  P  P10  1  0.788219  0.198324  0.511111  1
  S  S11  1  0.218240  0.481291  0.941807  1
  S  S12  1  0.072473  0.054417  0.797796  1
  S  S13  1  0.505837  0.338253  0.224680  1
