# generated using pymatgen
data_Pr4TlCd4In3
_symmetry_space_group_name_H-M   'P 1'
_cell_length_a   4.91721300
_cell_length_b   4.91721156
_cell_length_c   15.57456000
_cell_angle_alpha   90.00000000
_cell_angle_beta   90.00000000
_cell_angle_gamma   120.00000296
_symmetry_Int_Tables_number   1
_chemical_formula_structural   Pr4TlCd4In3
_chemical_formula_sum   'Pr4 Tl1 Cd4 In3'
_cell_volume   326.12517114
_cell_formula_units_Z   1
loop_
 _symmetry_equiv_pos_site_id
 _symmetry_equiv_pos_as_xyz
  1  'x, y, z'
loop_
 _atom_site_type_symbol
 _atom_site_label
 _atom_site_symmetry_multiplicity
 _atom_site_fract_x
 _atom_site_fract_y
 _atom_site_fract_z
 _atom_site_occupancy
  Pr  Pr0  1  0.000000  0.000000  0.500379  1
  Pr  Pr1  1  0.000000  0.000000  0.999983  1
  Pr  Pr2  1  0.000000  0.000000  0.250409  1
  Pr  Pr3  1  0.000000  0.000000  0.750222  1
  Tl  Tl4  1  0.333333  0.666667  0.604677  1
  Cd  Cd5  1  0.333333  0.666667  0.395030  1
  Cd  Cd6  1  0.666667  0.333333  0.647870  1
  Cd  Cd7  1  0.666667  0.333333  0.852171  1
  Cd  Cd8  1  0.333333  0.666667  0.104326  1
  In  In9  1  0.333333  0.666667  0.893011  1
  In  In10  1  0.666667  0.333333  0.143225  1
  In  In11  1  0.666667  0.333333  0.358698  1
