# generated using pymatgen
data_Dy4Y4Re3B24Rh
_symmetry_space_group_name_H-M   'P 1'
_cell_length_a   3.68668100
_cell_length_b   9.18210380
_cell_length_c   11.56619302
_cell_angle_alpha   90.17633551
_cell_angle_beta   90.00000000
_cell_angle_gamma   90.00000000
_symmetry_Int_Tables_number   1
_chemical_formula_structural   Dy4Y4Re3B24Rh
_chemical_formula_sum   'Dy4 Y4 Re3 B24 Rh1'
_cell_volume   391.53098546
_cell_formula_units_Z   1
loop_
 _symmetry_equiv_pos_site_id
 _symmetry_equiv_pos_as_xyz
  1  'x, y, z'
loop_
 _atom_site_type_symbol
 _atom_site_label
 _atom_site_symmetry_multiplicity
 _atom_site_fract_x
 _atom_site_fract_y
 _atom_site_fract_z
 _atom_site_occupancy
  Dy  Dy0  1  0.000000  0.942941  0.369952  1
  Dy  Dy1  1  0.000000  0.055931  0.628779  1
  Dy  Dy2  1  0.000000  0.441400  0.129212  1
  Dy  Dy3  1  0.000000  0.556762  0.871785  1
  Y  Y4  1  0.000000  0.318392  0.415529  1
  Y  Y5  1  0.000000  0.678025  0.591267  1
  Y  Y6  1  0.000000  0.827376  0.081343  1
  Y  Y7  1  0.000000  0.177479  0.912663  1
  Re  Re8  1  0.000000  0.362727  0.677599  1
  Re  Re9  1  0.000000  0.138325  0.179968  1
  Re  Re10  1  0.000000  0.861635  0.820622  1
  B  B11  1  0.500000  0.553811  0.433547  1
  B  B12  1  0.500000  0.446669  0.566820  1
  B  B13  1  0.500000  0.053727  0.066675  1
  B  B14  1  0.500000  0.947275  0.932301  1
  B  B15  1  0.500000  0.748628  0.420097  1
  B  B16  1  0.500000  0.250970  0.581134  1
  B  B17  1  0.500000  0.249037  0.081527  1
  B  B18  1  0.500000  0.752269  0.918707  1
  B  B19  1  0.500000  0.790715  0.265390  1
  B  B20  1  0.500000  0.208734  0.733748  1
  B  B21  1  0.500000  0.291405  0.234940  1
  B  B22  1  0.500000  0.708378  0.766157  1
  B  B23  1  0.500000  0.632001  0.184466  1
  B  B24  1  0.500000  0.369318  0.813879  1
  B  B25  1  0.500000  0.130705  0.314599  1
  B  B26  1  0.500000  0.868322  0.685622  1
  B  B27  1  0.500000  0.983385  0.211838  1
  B  B28  1  0.500000  0.017000  0.786853  1
  B  B29  1  0.500000  0.483524  0.288029  1
  B  B30  1  0.500000  0.517781  0.712554  1
  B  B31  1  0.500000  0.604735  0.029740  1
  B  B32  1  0.500000  0.396837  0.971983  1
  B  B33  1  0.500000  0.102141  0.470748  1
  B  B34  1  0.500000  0.894098  0.528423  1
  Rh  Rh35  1  0.000000  0.637542  0.321504  1
