# generated using pymatgen
data_Tb5Ho(LuIn4)2
_symmetry_space_group_name_H-M   'P 1'
_cell_length_a   6.53624359
_cell_length_b   6.53624373
_cell_length_c   10.00721300
_cell_angle_alpha   90.00000000
_cell_angle_beta   90.00000000
_cell_angle_gamma   98.61417604
_symmetry_Int_Tables_number   1
_chemical_formula_structural   Tb5Ho(LuIn4)2
_chemical_formula_sum   'Tb5 Ho1 Lu2 In8'
_cell_volume   422.71012065
_cell_formula_units_Z   1
loop_
 _symmetry_equiv_pos_site_id
 _symmetry_equiv_pos_as_xyz
  1  'x, y, z'
loop_
 _atom_site_type_symbol
 _atom_site_label
 _atom_site_symmetry_multiplicity
 _atom_site_fract_x
 _atom_site_fract_y
 _atom_site_fract_z
 _atom_site_occupancy
  Tb  Tb0  1  0.465053  0.465053  0.750000  1
  Tb  Tb1  1  0.245243  0.754893  0.499905  1
  Tb  Tb2  1  0.245243  0.754893  0.000095  1
  Tb  Tb3  1  0.754893  0.245243  0.499905  1
  Tb  Tb4  1  0.754893  0.245243  0.000095  1
  Ho  Ho5  1  0.534839  0.534839  0.250000  1
  Lu  Lu6  1  0.978027  0.978027  0.250000  1
  Lu  Lu7  1  0.021626  0.021626  0.750000  1
  In  In8  1  0.251785  0.251785  0.022143  1
  In  In9  1  0.748268  0.748268  0.978254  1
  In  In10  1  0.251785  0.251785  0.477857  1
  In  In11  1  0.748268  0.748268  0.521746  1
  In  In12  1  0.483565  0.023788  0.250000  1
  In  In13  1  0.976223  0.516500  0.750000  1
  In  In14  1  0.516500  0.976223  0.750000  1
  In  In15  1  0.023788  0.483565  0.250000  1
