# generated using pymatgen
data_RbP4(RhO7)2
_symmetry_space_group_name_H-M   'P 1'
_cell_length_a   6.27040755
_cell_length_b   6.31391049
_cell_length_c   7.91773700
_cell_angle_alpha   97.27602591
_cell_angle_beta   101.05181421
_cell_angle_gamma   105.72480757
_symmetry_Int_Tables_number   1
_chemical_formula_structural   RbP4(RhO7)2
_chemical_formula_sum   'Rb1 P4 Rh2 O14'
_cell_volume   290.80140873
_cell_formula_units_Z   1
loop_
 _symmetry_equiv_pos_site_id
 _symmetry_equiv_pos_as_xyz
  1  'x, y, z'
loop_
 _atom_site_type_symbol
 _atom_site_label
 _atom_site_symmetry_multiplicity
 _atom_site_fract_x
 _atom_site_fract_y
 _atom_site_fract_z
 _atom_site_occupancy
  Rb  Rb0  1  0.000000  0.000000  0.000000  1
  P  P1  1  0.818225  0.542603  0.196452  1
  P  P2  1  0.181775  0.457397  0.803548  1
  P  P3  1  0.516274  0.754653  0.667324  1
  P  P4  1  0.483726  0.245347  0.332676  1
  Rh  Rh5  1  0.627031  0.312746  0.771062  1
  Rh  Rh6  1  0.372969  0.687254  0.228938  1
  O  O7  1  0.934834  0.316773  0.719835  1
  O  O8  1  0.065166  0.683227  0.280165  1
  O  O9  1  0.684427  0.639409  0.758735  1
  O  O10  1  0.315573  0.360591  0.241265  1
  O  O11  1  0.676117  0.705410  0.168926  1
  O  O12  1  0.323883  0.294590  0.831074  1
  O  O13  1  0.565317  0.980853  0.786174  1
  O  O14  1  0.434683  0.019147  0.213826  1
  O  O15  1  0.538740  0.772909  0.481249  1
  O  O16  1  0.461260  0.227091  0.518751  1
  O  O17  1  0.260674  0.601881  0.658429  1
  O  O18  1  0.739326  0.398119  0.341571  1
  O  O19  1  0.214335  0.629546  0.969345  1
  O  O20  1  0.785665  0.370454  0.030655  1
