# generated using pymatgen
data_Ac4Ho3Lu3Si8
_symmetry_space_group_name_H-M   'P 1'
_cell_length_a   7.98221531
_cell_length_b   7.98125624
_cell_length_c   14.69834400
_cell_angle_alpha   89.98605879
_cell_angle_beta   90.13239703
_cell_angle_gamma   90.00197766
_symmetry_Int_Tables_number   1
_chemical_formula_structural   Ac4Ho3Lu3Si8
_chemical_formula_sum   'Ac8 Ho6 Lu6 Si16'
_cell_volume   936.40112587
_cell_formula_units_Z   2
loop_
 _symmetry_equiv_pos_site_id
 _symmetry_equiv_pos_as_xyz
  1  'x, y, z'
loop_
 _atom_site_type_symbol
 _atom_site_label
 _atom_site_symmetry_multiplicity
 _atom_site_fract_x
 _atom_site_fract_y
 _atom_site_fract_z
 _atom_site_occupancy
  Ac  Ac0  1  0.991711  0.644710  0.039535  1
  Ac  Ac1  1  0.008300  0.355420  0.539544  1
  Ac  Ac2  1  0.644762  0.991451  0.960332  1
  Ac  Ac3  1  0.144764  0.508513  0.789638  1
  Ac  Ac4  1  0.855918  0.491395  0.289699  1
  Ac  Ac5  1  0.508131  0.144979  0.210311  1
  Ac  Ac6  1  0.491531  0.855610  0.710428  1
  Ac  Ac7  1  0.354799  0.008445  0.460440  1
  Ho  Ho8  1  0.359537  0.495382  0.374320  1
  Ho  Ho9  1  0.859011  0.004060  0.374949  1
  Ho  Ho10  1  0.995758  0.140585  0.124066  1
  Ho  Ho11  1  0.004400  0.859533  0.624892  1
  Ho  Ho12  1  0.640326  0.504016  0.874687  1
  Ho  Ho13  1  0.495407  0.359074  0.625700  1
  Lu  Lu14  1  0.503388  0.640983  0.125235  1
  Lu  Lu15  1  0.140982  0.995933  0.875836  1
  Lu  Lu16  1  0.682027  0.681628  0.499953  1
  Lu  Lu17  1  0.819994  0.181528  0.750410  1
  Lu  Lu18  1  0.182596  0.818062  0.249728  1
  Lu  Lu19  1  0.318405  0.318958  0.000188  1
  Si  Si20  1  0.063229  0.714235  0.436160  1
  Si  Si21  1  0.938730  0.284738  0.935490  1
  Si  Si22  1  0.714508  0.063189  0.563848  1
  Si  Si23  1  0.215236  0.438287  0.185527  1
  Si  Si24  1  0.785735  0.562881  0.686024  1
  Si  Si25  1  0.435127  0.213591  0.814530  1
  Si  Si26  1  0.562471  0.784704  0.312828  1
  Si  Si27  1  0.285785  0.936098  0.063400  1
  Si  Si28  1  0.853367  0.798288  0.809579  1
  Si  Si29  1  0.148228  0.202436  0.308427  1
  Si  Si30  1  0.795213  0.850730  0.190442  1
  Si  Si31  1  0.296768  0.648375  0.558408  1
  Si  Si32  1  0.700958  0.353543  0.059546  1
  Si  Si33  1  0.648388  0.296560  0.441437  1
  Si  Si34  1  0.351520  0.704367  0.941776  1
  Si  Si35  1  0.202988  0.147718  0.692688  1
