# generated using pymatgen
data_NbHg3WF12
_symmetry_space_group_name_H-M   'P 1'
_cell_length_a   9.01345700
_cell_length_b   6.12338281
_cell_length_c   12.24023100
_cell_angle_alpha   85.93644601
_cell_angle_beta   90.00000000
_cell_angle_gamma   90.00000000
_symmetry_Int_Tables_number   1
_chemical_formula_structural   NbHg3WF12
_chemical_formula_sum   'Nb2 Hg6 W2 F24'
_cell_volume   673.87485508
_cell_formula_units_Z   2
loop_
 _symmetry_equiv_pos_site_id
 _symmetry_equiv_pos_as_xyz
  1  'x, y, z'
loop_
 _atom_site_type_symbol
 _atom_site_label
 _atom_site_symmetry_multiplicity
 _atom_site_fract_x
 _atom_site_fract_y
 _atom_site_fract_z
 _atom_site_occupancy
  Nb  Nb0  1  0.856536  0.295932  0.326960  1
  Nb  Nb1  1  0.356536  0.704068  0.173040  1
  Hg  Hg2  1  0.729025  0.756310  0.562047  1
  Hg  Hg3  1  0.229025  0.243690  0.937953  1
  Hg  Hg4  1  0.270046  0.243851  0.438394  1
  Hg  Hg5  1  0.770046  0.756149  0.061606  1
  Hg  Hg6  1  0.499191  0.999705  0.501136  1
  Hg  Hg7  1  0.999191  0.000295  0.998864  1
  W  W8  1  0.141018  0.704161  0.672729  1
  W  W9  1  0.641018  0.295839  0.827271  1
  F  F10  1  0.950857  0.583482  0.617516  1
  F  F11  1  0.450857  0.416518  0.882484  1
  F  F12  1  0.048877  0.413672  0.380376  1
  F  F13  1  0.548877  0.586328  0.119624  1
  F  F14  1  0.202797  0.411872  0.722838  1
  F  F15  1  0.702797  0.588128  0.777162  1
  F  F16  1  0.799915  0.594421  0.282019  1
  F  F17  1  0.299915  0.405579  0.217981  1
  F  F18  1  0.058141  0.718687  0.817320  1
  F  F19  1  0.558141  0.281313  0.682680  1
  F  F20  1  0.177061  0.840628  0.215775  1
  F  F21  1  0.677061  0.159372  0.284225  1
  F  F22  1  0.826016  0.164293  0.784846  1
  F  F23  1  0.326016  0.835707  0.715154  1
  F  F24  1  0.263973  0.656835  0.032572  1
  F  F25  1  0.763973  0.343165  0.467428  1
  F  F26  1  0.731769  0.333805  0.968962  1
  F  F27  1  0.231769  0.666195  0.531038  1
  F  F28  1  0.435932  0.981957  0.117974  1
  F  F29  1  0.935932  0.018043  0.382026  1
  F  F30  1  0.569844  0.015449  0.883859  1
  F  F31  1  0.069844  0.984551  0.616141  1
  F  F32  1  0.439002  0.722552  0.317790  1
  F  F33  1  0.939002  0.277448  0.182210  1
