# generated using pymatgen
data_Dy8ReSi16Mo11
_symmetry_space_group_name_H-M   'P 1'
_cell_length_a   6.77515256
_cell_length_b   6.93709122
_cell_length_c   12.94031800
_cell_angle_alpha   90.00000000
_cell_angle_beta   90.00000000
_cell_angle_gamma   89.90869227
_symmetry_Int_Tables_number   1
_chemical_formula_structural   Dy8ReSi16Mo11
_chemical_formula_sum   'Dy8 Re1 Si16 Mo11'
_cell_volume   608.19224976
_cell_formula_units_Z   1
loop_
 _symmetry_equiv_pos_site_id
 _symmetry_equiv_pos_as_xyz
  1  'x, y, z'
loop_
 _atom_site_type_symbol
 _atom_site_label
 _atom_site_symmetry_multiplicity
 _atom_site_fract_x
 _atom_site_fract_y
 _atom_site_fract_z
 _atom_site_occupancy
  Dy  Dy0  1  0.493535  0.333840  0.093562  1
  Dy  Dy1  1  0.995867  0.165737  0.406321  1
  Dy  Dy2  1  0.504358  0.666180  0.593773  1
  Dy  Dy3  1  0.004588  0.833616  0.906091  1
  Dy  Dy4  1  0.504358  0.666180  0.906227  1
  Dy  Dy5  1  0.004588  0.833616  0.593909  1
  Dy  Dy6  1  0.493535  0.333840  0.406438  1
  Dy  Dy7  1  0.995867  0.165737  0.093679  1
  Re  Re8  1  0.830476  0.494226  0.250000  1
  Si  Si9  1  0.804770  0.630814  0.750000  1
  Si  Si10  1  0.305538  0.869102  0.750000  1
  Si  Si11  1  0.190669  0.369684  0.250000  1
  Si  Si12  1  0.694550  0.133942  0.250000  1
  Si  Si13  1  0.536738  0.363510  0.750000  1
  Si  Si14  1  0.035738  0.136435  0.750000  1
  Si  Si15  1  0.466959  0.636220  0.250000  1
  Si  Si16  1  0.963969  0.861617  0.250000  1
  Si  Si17  1  0.659133  0.043726  0.547525  1
  Si  Si18  1  0.159249  0.456678  0.952791  1
  Si  Si19  1  0.341870  0.955917  0.047680  1
  Si  Si20  1  0.841263  0.544132  0.450472  1
  Si  Si21  1  0.341870  0.955917  0.452320  1
  Si  Si22  1  0.841263  0.544132  0.049528  1
  Si  Si23  1  0.659133  0.043726  0.952475  1
  Si  Si24  1  0.159249  0.456678  0.547209  1
  Mo  Mo25  1  0.668051  0.999594  0.750000  1
  Mo  Mo26  1  0.166961  0.500351  0.750000  1
  Mo  Mo27  1  0.332255  0.002704  0.250000  1
  Mo  Mo28  1  0.832159  0.337449  0.624171  1
  Mo  Mo29  1  0.330980  0.162364  0.874891  1
  Mo  Mo30  1  0.169318  0.661971  0.126251  1
  Mo  Mo31  1  0.669340  0.839290  0.373879  1
  Mo  Mo32  1  0.169318  0.661971  0.373749  1
  Mo  Mo33  1  0.669340  0.839290  0.126121  1
  Mo  Mo34  1  0.832159  0.337449  0.875829  1
  Mo  Mo35  1  0.330980  0.162364  0.625109  1
