# generated using pymatgen
data_RbBaVS4
_symmetry_space_group_name_H-M   'P 1'
_cell_length_a   12.07554800
_cell_length_b   6.85430400
_cell_length_c   10.10399300
_cell_angle_alpha   90.00000000
_cell_angle_beta   90.00000000
_cell_angle_gamma   90.00000000
_symmetry_Int_Tables_number   1
_chemical_formula_structural   RbBaVS4
_chemical_formula_sum   'Rb4 Ba4 V4 S16'
_cell_volume   836.30221580
_cell_formula_units_Z   4
loop_
 _symmetry_equiv_pos_site_id
 _symmetry_equiv_pos_as_xyz
  1  'x, y, z'
loop_
 _atom_site_type_symbol
 _atom_site_label
 _atom_site_symmetry_multiplicity
 _atom_site_fract_x
 _atom_site_fract_y
 _atom_site_fract_z
 _atom_site_occupancy
  Rb  Rb0  1  0.570690  0.250000  0.141041  1
  Rb  Rb1  1  0.070690  0.250000  0.358959  1
  Rb  Rb2  1  0.929311  0.750000  0.641041  1
  Rb  Rb3  1  0.429311  0.750000  0.858959  1
  Ba  Ba4  1  0.850683  0.750000  0.107034  1
  Ba  Ba5  1  0.350682  0.750000  0.392966  1
  Ba  Ba6  1  0.649318  0.250000  0.607034  1
  Ba  Ba7  1  0.149318  0.250000  0.892965  1
  V  V8  1  0.172804  0.750000  0.107691  1
  V  V9  1  0.672804  0.750000  0.392309  1
  V  V10  1  0.327196  0.250000  0.607691  1
  V  V11  1  0.827196  0.250000  0.892309  1
  S  S12  1  0.926471  0.250000  0.069798  1
  S  S13  1  0.279908  0.499670  0.114616  1
  S  S14  1  0.279908  0.000330  0.114616  1
  S  S15  1  0.570886  0.750000  0.215410  1
  S  S16  1  0.070885  0.750000  0.284590  1
  S  S17  1  0.779908  0.499670  0.385385  1
  S  S18  1  0.779908  0.000330  0.385385  1
  S  S19  1  0.426471  0.250000  0.430202  1
  S  S20  1  0.573529  0.750000  0.569798  1
  S  S21  1  0.220091  0.999670  0.614616  1
  S  S22  1  0.220091  0.500331  0.614616  1
  S  S23  1  0.929115  0.250000  0.715410  1
  S  S24  1  0.429115  0.250000  0.784590  1
  S  S25  1  0.720091  0.999670  0.885385  1
  S  S26  1  0.720091  0.500331  0.885385  1
  S  S27  1  0.073529  0.750000  0.930202  1
