# generated using pymatgen
data_Nd3DyCu3Ni17Sn4
_symmetry_space_group_name_H-M   'P 1'
_cell_length_a   4.94390700
_cell_length_b   4.94390634
_cell_length_c   19.77299800
_cell_angle_alpha   90.00000000
_cell_angle_beta   90.00000000
_cell_angle_gamma   120.00001114
_symmetry_Int_Tables_number   1
_chemical_formula_structural   Nd3DyCu3Ni17Sn4
_chemical_formula_sum   'Nd3 Dy1 Cu3 Ni17 Sn4'
_cell_volume   418.54642067
_cell_formula_units_Z   1
loop_
 _symmetry_equiv_pos_site_id
 _symmetry_equiv_pos_as_xyz
  1  'x, y, z'
loop_
 _atom_site_type_symbol
 _atom_site_label
 _atom_site_symmetry_multiplicity
 _atom_site_fract_x
 _atom_site_fract_y
 _atom_site_fract_z
 _atom_site_occupancy
  Nd  Nd0  1  0.666667  0.333333  0.750000  1
  Nd  Nd1  1  0.000000  0.000000  0.499999  1
  Nd  Nd2  1  0.000000  0.000000  0.000001  1
  Dy  Dy3  1  0.333333  0.666667  0.250000  1
  Cu  Cu4  1  0.000000  0.000000  0.250000  1
  Cu  Cu5  1  0.000000  0.000000  0.750000  1
  Cu  Cu6  1  0.333333  0.666667  0.750000  1
  Ni  Ni7  1  0.666667  0.333333  0.250000  1
  Ni  Ni8  1  0.333333  0.666667  0.957767  1
  Ni  Ni9  1  0.666667  0.333333  0.043315  1
  Ni  Ni10  1  0.666667  0.333333  0.456685  1
  Ni  Ni11  1  0.333333  0.666667  0.542233  1
  Ni  Ni12  1  0.833151  0.166849  0.353445  1
  Ni  Ni13  1  0.833151  0.666303  0.353445  1
  Ni  Ni14  1  0.333697  0.166849  0.353445  1
  Ni  Ni15  1  0.166265  0.833735  0.645021  1
  Ni  Ni16  1  0.166265  0.332530  0.645021  1
  Ni  Ni17  1  0.667470  0.833735  0.645021  1
  Ni  Ni18  1  0.166265  0.833735  0.854979  1
  Ni  Ni19  1  0.166265  0.332530  0.854979  1
  Ni  Ni20  1  0.667470  0.833735  0.854979  1
  Ni  Ni21  1  0.833151  0.166849  0.146555  1
  Ni  Ni22  1  0.833151  0.666303  0.146555  1
  Ni  Ni23  1  0.333697  0.166849  0.146555  1
  Sn  Sn24  1  0.333333  0.666667  0.411140  1
  Sn  Sn25  1  0.666667  0.333333  0.587403  1
  Sn  Sn26  1  0.666667  0.333333  0.912597  1
  Sn  Sn27  1  0.333333  0.666667  0.088860  1
