# generated using pymatgen
data_PrIrI
_symmetry_space_group_name_H-M   'P 1'
_cell_length_a   4.38699500
_cell_length_b   4.38699552
_cell_length_c   12.39140900
_cell_angle_alpha   90.00000000
_cell_angle_beta   90.00000000
_cell_angle_gamma   119.99998857
_symmetry_Int_Tables_number   1
_chemical_formula_structural   PrIrI
_chemical_formula_sum   'Pr2 Ir2 I2'
_cell_volume   206.53121665
_cell_formula_units_Z   2
loop_
 _symmetry_equiv_pos_site_id
 _symmetry_equiv_pos_as_xyz
  1  'x, y, z'
loop_
 _atom_site_type_symbol
 _atom_site_label
 _atom_site_symmetry_multiplicity
 _atom_site_fract_x
 _atom_site_fract_y
 _atom_site_fract_z
 _atom_site_occupancy
  Pr  Pr0  1  0.000000  0.000000  0.153060  1
  Pr  Pr1  1  0.000000  0.000000  0.846940  1
  Ir  Ir2  1  0.333333  0.666667  0.002534  1
  Ir  Ir3  1  0.666667  0.333333  0.997466  1
  I  I4  1  0.333333  0.666667  0.673531  1
  I  I5  1  0.666667  0.333333  0.326469  1
