# generated using pymatgen
data_Ta12Mn9Al3N4
_symmetry_space_group_name_H-M   'P 1'
_cell_length_a   8.06225585
_cell_length_b   8.07050245
_cell_length_c   8.07050200
_cell_angle_alpha   60.00000184
_cell_angle_beta   59.96615997
_cell_angle_gamma   59.96616003
_symmetry_Int_Tables_number   1
_chemical_formula_structural   Ta12Mn9Al3N4
_chemical_formula_sum   'Ta12 Mn9 Al3 N4'
_cell_volume   371.12514469
_cell_formula_units_Z   1
loop_
 _symmetry_equiv_pos_site_id
 _symmetry_equiv_pos_as_xyz
  1  'x, y, z'
loop_
 _atom_site_type_symbol
 _atom_site_label
 _atom_site_symmetry_multiplicity
 _atom_site_fract_x
 _atom_site_fract_y
 _atom_site_fract_z
 _atom_site_occupancy
  Ta  Ta0  1  0.803992  0.804041  0.195984  1
  Ta  Ta1  1  0.195660  0.193710  0.805315  1
  Ta  Ta2  1  0.803992  0.195984  0.804041  1
  Ta  Ta3  1  0.195660  0.805315  0.193710  1
  Ta  Ta4  1  0.195660  0.805315  0.805315  1
  Ta  Ta5  1  0.803992  0.195984  0.195984  1
  Ta  Ta6  1  0.446008  0.445959  0.054016  1
  Ta  Ta7  1  0.054340  0.056290  0.444685  1
  Ta  Ta8  1  0.446008  0.054016  0.445959  1
  Ta  Ta9  1  0.054340  0.444685  0.056290  1
  Ta  Ta10  1  0.054340  0.444685  0.444685  1
  Ta  Ta11  1  0.446008  0.054016  0.054016  1
  Mn  Mn12  1  0.125000  0.625000  0.625000  1
  Mn  Mn13  1  0.739100  0.420300  0.420300  1
  Mn  Mn14  1  0.411238  0.740684  0.424039  1
  Mn  Mn15  1  0.411238  0.424039  0.740684  1
  Mn  Mn16  1  0.411238  0.424039  0.424039  1
  Mn  Mn17  1  0.510900  0.829700  0.829700  1
  Mn  Mn18  1  0.838762  0.509316  0.825961  1
  Mn  Mn19  1  0.838762  0.825961  0.509316  1
  Mn  Mn20  1  0.838762  0.825961  0.825961  1
  Al  Al21  1  0.625000  0.125000  0.625000  1
  Al  Al22  1  0.625000  0.625000  0.125000  1
  Al  Al23  1  0.625000  0.625000  0.625000  1
  N  N24  1  0.625000  0.125000  0.125000  1
  N  N25  1  0.125000  0.625000  0.125000  1
  N  N26  1  0.125000  0.125000  0.625000  1
  N  N27  1  0.125000  0.125000  0.125000  1
