# generated using pymatgen
data_Er4Ga16Ir3
_symmetry_space_group_name_H-M   'P 1'
_cell_length_a   6.15426800
_cell_length_b   6.15426800
_cell_length_c   11.18052900
_cell_angle_alpha   90.00000000
_cell_angle_beta   90.00000000
_cell_angle_gamma   90.00000000
_symmetry_Int_Tables_number   1
_chemical_formula_structural   Er4Ga16Ir3
_chemical_formula_sum   'Er4 Ga16 Ir3'
_cell_volume   423.46269929
_cell_formula_units_Z   1
loop_
 _symmetry_equiv_pos_site_id
 _symmetry_equiv_pos_as_xyz
  1  'x, y, z'
loop_
 _atom_site_type_symbol
 _atom_site_label
 _atom_site_symmetry_multiplicity
 _atom_site_fract_x
 _atom_site_fract_y
 _atom_site_fract_z
 _atom_site_occupancy
  Er  Er0  1  0.000000  0.500000  0.193781  1
  Er  Er1  1  0.000000  0.500000  0.806219  1
  Er  Er2  1  0.500000  0.000000  0.806219  1
  Er  Er3  1  0.500000  0.000000  0.193781  1
  Ga  Ga4  1  0.000000  0.000000  0.224749  1
  Ga  Ga5  1  0.000000  0.000000  0.775251  1
  Ga  Ga6  1  0.500000  0.500000  0.195031  1
  Ga  Ga7  1  0.500000  0.500000  0.804969  1
  Ga  Ga8  1  0.287868  0.287868  0.000000  1
  Ga  Ga9  1  0.712132  0.712132  0.000000  1
  Ga  Ga10  1  0.287868  0.712132  0.000000  1
  Ga  Ga11  1  0.712132  0.287868  0.000000  1
  Ga  Ga12  1  0.249218  0.249218  0.378611  1
  Ga  Ga13  1  0.750782  0.750782  0.378611  1
  Ga  Ga14  1  0.249218  0.750782  0.621389  1
  Ga  Ga15  1  0.750782  0.249218  0.621389  1
  Ga  Ga16  1  0.750782  0.750782  0.621389  1
  Ga  Ga17  1  0.249218  0.249218  0.621389  1
  Ga  Ga18  1  0.249218  0.750782  0.378611  1
  Ga  Ga19  1  0.750782  0.249218  0.378611  1
  Ir  Ir20  1  0.000000  0.500000  0.500000  1
  Ir  Ir21  1  0.500000  0.000000  0.500000  1
  Ir  Ir22  1  0.000000  0.000000  0.000000  1
