# generated using pymatgen
data_Ho9Er2ThCo4
_symmetry_space_group_name_H-M   'P 1'
_cell_length_a   6.21175803
_cell_length_b   6.91090844
_cell_length_c   9.44382906
_cell_angle_alpha   90.01812673
_cell_angle_beta   90.05076536
_cell_angle_gamma   91.16173749
_symmetry_Int_Tables_number   1
_chemical_formula_structural   Ho9Er2ThCo4
_chemical_formula_sum   'Ho9 Er2 Th1 Co4'
_cell_volume   405.32959205
_cell_formula_units_Z   1
loop_
 _symmetry_equiv_pos_site_id
 _symmetry_equiv_pos_as_xyz
  1  'x, y, z'
loop_
 _atom_site_type_symbol
 _atom_site_label
 _atom_site_symmetry_multiplicity
 _atom_site_fract_x
 _atom_site_fract_y
 _atom_site_fract_z
 _atom_site_occupancy
  Ho  Ho0  1  0.138474  0.041629  0.249810  1
  Ho  Ho1  1  0.324272  0.827294  0.930867  1
  Ho  Ho2  1  0.175901  0.324247  0.568129  1
  Ho  Ho3  1  0.673266  0.175702  0.431268  1
  Ho  Ho4  1  0.176164  0.324014  0.931938  1
  Ho  Ho5  1  0.324027  0.827101  0.569014  1
  Ho  Ho6  1  0.858513  0.957995  0.750004  1
  Ho  Ho7  1  0.643857  0.457103  0.749968  1
  Ho  Ho8  1  0.827234  0.675105  0.066144  1
  Er  Er9  1  0.672915  0.175330  0.068413  1
  Er  Er10  1  0.827738  0.675154  0.433965  1
  Th  Th11  1  0.348684  0.552652  0.250129  1
  Co  Co12  1  0.965311  0.388616  0.250177  1
  Co  Co13  1  0.452447  0.114504  0.750662  1
  Co  Co14  1  0.544514  0.870520  0.250101  1
  Co  Co15  1  0.046683  0.613036  0.749411  1
