# generated using pymatgen
data_Er2Si7(Pt5Rh)2
_symmetry_space_group_name_H-M   'P 1'
_cell_length_a   9.93017555
_cell_length_b   9.92958229
_cell_length_c   3.91535399
_cell_angle_alpha   89.82367883
_cell_angle_beta   90.00710306
_cell_angle_gamma   120.03962298
_symmetry_Int_Tables_number   1
_chemical_formula_structural   Er2Si7(Pt5Rh)2
_chemical_formula_sum   'Er2 Si7 Pt10 Rh2'
_cell_volume   334.20534736
_cell_formula_units_Z   1
loop_
 _symmetry_equiv_pos_site_id
 _symmetry_equiv_pos_as_xyz
  1  'x, y, z'
loop_
 _atom_site_type_symbol
 _atom_site_label
 _atom_site_symmetry_multiplicity
 _atom_site_fract_x
 _atom_site_fract_y
 _atom_site_fract_z
 _atom_site_occupancy
  Er  Er0  1  0.333449  0.666720  0.752569  1
  Er  Er1  1  0.665536  0.331249  0.247765  1
  Si  Si2  1  0.002944  0.003839  0.490568  1
  Si  Si3  1  0.400537  0.283689  0.750805  1
  Si  Si4  1  0.715620  0.116610  0.751176  1
  Si  Si5  1  0.882821  0.595327  0.747736  1
  Si  Si6  1  0.595416  0.712902  0.251421  1
  Si  Si7  1  0.287820  0.887938  0.251194  1
  Si  Si8  1  0.112455  0.400093  0.251653  1
  Pt  Pt9  1  0.454465  0.073610  0.750718  1
  Pt  Pt10  1  0.926718  0.380066  0.749575  1
  Pt  Pt11  1  0.618351  0.543065  0.748447  1
  Pt  Pt12  1  0.545975  0.926917  0.250357  1
  Pt  Pt13  1  0.075494  0.620094  0.247816  1
  Pt  Pt14  1  0.379370  0.453958  0.248383  1
  Pt  Pt15  1  0.146099  0.262996  0.754621  1
  Pt  Pt16  1  0.741352  0.885980  0.753412  1
  Pt  Pt17  1  0.115326  0.853883  0.753373  1
  Pt  Pt18  1  0.853619  0.739416  0.243173  1
  Rh  Rh19  1  0.262465  0.116879  0.253093  1
  Rh  Rh20  1  0.884170  0.144770  0.252145  1
