# generated using pymatgen
data_Pr11Nd(PtBr3)4
_symmetry_space_group_name_H-M   'P 1'
_cell_length_a   10.63428673
_cell_length_b   10.62918274
_cell_length_c   10.63300307
_cell_angle_alpha   109.46581934
_cell_angle_beta   109.47510647
_cell_angle_gamma   109.46056190
_symmetry_Int_Tables_number   1
_chemical_formula_structural   Pr11Nd(PtBr3)4
_chemical_formula_sum   'Pr11 Nd1 Pt4 Br12'
_cell_volume   925.35316856
_cell_formula_units_Z   1
loop_
 _symmetry_equiv_pos_site_id
 _symmetry_equiv_pos_as_xyz
  1  'x, y, z'
loop_
 _atom_site_type_symbol
 _atom_site_label
 _atom_site_symmetry_multiplicity
 _atom_site_fract_x
 _atom_site_fract_y
 _atom_site_fract_z
 _atom_site_occupancy
  Pr  Pr0  1  0.749956  0.235207  0.264821  1
  Pr  Pr1  1  0.749956  0.014748  0.485135  1
  Pr  Pr2  1  0.235374  0.470328  0.484996  1
  Pr  Pr3  1  0.264956  0.749759  0.235113  1
  Pr  Pr4  1  0.030129  0.265064  0.015064  1
  Pr  Pr5  1  0.014960  0.029917  0.264978  1
  Pr  Pr6  1  0.485173  0.749842  0.014937  1
  Pr  Pr7  1  0.485173  0.235331  0.470236  1
  Pr  Pr8  1  0.014960  0.485042  0.749981  1
  Pr  Pr9  1  0.264956  0.015196  0.029843  1
  Pr  Pr10  1  0.235374  0.265046  0.750378  1
  Nd  Nd11  1  0.468465  0.484233  0.234233  1
  Pt  Pt12  1  0.250765  0.250759  0.250040  1
  Pt  Pt13  1  0.499978  0.999989  0.249989  1
  Pt  Pt14  1  0.000122  0.250061  0.500061  1
  Pt  Pt15  1  0.250765  0.500006  0.000724  1
  Br  Br16  1  0.249999  0.753945  0.746070  1
  Br  Br17  1  0.507927  0.503964  0.753964  1
  Br  Br18  1  0.992170  0.746085  0.996085  1
  Br  Br19  1  0.746092  0.250023  0.753971  1
  Br  Br20  1  0.996082  0.992109  0.746067  1
  Br  Br21  1  0.249999  0.996054  0.503929  1
  Br  Br22  1  0.753151  0.507869  0.503109  1
  Br  Br23  1  0.504098  0.250993  0.997026  1
  Br  Br24  1  0.753151  0.745282  0.250042  1
  Br  Br25  1  0.746092  0.996069  0.992122  1
  Br  Br26  1  0.996082  0.503972  0.250014  1
  Br  Br27  1  0.504098  0.753105  0.507073  1
