# generated using pymatgen
data_ZnFe20(ReB3)2
_symmetry_space_group_name_H-M   'P 1'
_cell_length_a   7.50153759
_cell_length_b   7.50153804
_cell_length_c   7.50153900
_cell_angle_alpha   60.00000018
_cell_angle_beta   59.99999818
_cell_angle_gamma   59.99999570
_symmetry_Int_Tables_number   1
_chemical_formula_structural   ZnFe20(ReB3)2
_chemical_formula_sum   'Zn1 Fe20 Re2 B6'
_cell_volume   298.49424335
_cell_formula_units_Z   1
loop_
 _symmetry_equiv_pos_site_id
 _symmetry_equiv_pos_as_xyz
  1  'x, y, z'
loop_
 _atom_site_type_symbol
 _atom_site_label
 _atom_site_symmetry_multiplicity
 _atom_site_fract_x
 _atom_site_fract_y
 _atom_site_fract_z
 _atom_site_occupancy
  Zn  Zn0  1  0.000000  0.000000  0.000000  1
  Fe  Fe1  1  0.619160  0.619160  0.142520  1
  Fe  Fe2  1  0.619160  0.142520  0.619160  1
  Fe  Fe3  1  0.142520  0.619160  0.619160  1
  Fe  Fe4  1  0.619160  0.619160  0.619160  1
  Fe  Fe5  1  0.380840  0.380840  0.857480  1
  Fe  Fe6  1  0.380840  0.857480  0.380840  1
  Fe  Fe7  1  0.857480  0.380840  0.380840  1
  Fe  Fe8  1  0.380840  0.380840  0.380840  1
  Fe  Fe9  1  0.000000  0.000000  0.343553  1
  Fe  Fe10  1  0.656447  0.000000  0.343553  1
  Fe  Fe11  1  0.000000  0.656447  0.343553  1
  Fe  Fe12  1  0.656447  0.343553  0.000000  1
  Fe  Fe13  1  0.000000  0.343553  0.000000  1
  Fe  Fe14  1  0.000000  0.343553  0.656447  1
  Fe  Fe15  1  0.343553  0.656447  0.000000  1
  Fe  Fe16  1  0.343553  0.000000  0.656447  1
  Fe  Fe17  1  0.343553  0.000000  0.000000  1
  Fe  Fe18  1  0.000000  0.000000  0.656447  1
  Fe  Fe19  1  0.000000  0.656447  0.000000  1
  Fe  Fe20  1  0.656447  0.000000  0.000000  1
  Re  Re21  1  0.750000  0.750000  0.750000  1
  Re  Re22  1  0.250000  0.250000  0.250000  1
  B  B23  1  0.721238  0.721238  0.278762  1
  B  B24  1  0.278762  0.721238  0.278762  1
  B  B25  1  0.721238  0.278762  0.278762  1
  B  B26  1  0.278762  0.278762  0.721238  1
  B  B27  1  0.721238  0.278762  0.721238  1
  B  B28  1  0.278762  0.721238  0.721238  1
