# generated using pymatgen
data_La10ZnSi4Ag
_symmetry_space_group_name_H-M   'P 1'
_cell_length_a   7.80533836
_cell_length_b   7.80533992
_cell_length_c   9.38723000
_cell_angle_alpha   114.56608774
_cell_angle_beta   114.56607683
_cell_angle_gamma   89.99999255
_symmetry_Int_Tables_number   1
_chemical_formula_structural   La10ZnSi4Ag
_chemical_formula_sum   'La10 Zn1 Si4 Ag1'
_cell_volume   462.60990686
_cell_formula_units_Z   1
loop_
 _symmetry_equiv_pos_site_id
 _symmetry_equiv_pos_as_xyz
  1  'x, y, z'
loop_
 _atom_site_type_symbol
 _atom_site_label
 _atom_site_symmetry_multiplicity
 _atom_site_fract_x
 _atom_site_fract_y
 _atom_site_fract_z
 _atom_site_occupancy
  La  La0  1  0.473555  0.473555  0.947109  1
  La  La1  1  0.026445  0.026445  0.052891  1
  La  La2  1  0.955211  0.807100  0.277653  1
  La  La3  1  0.322443  0.470553  0.277653  1
  La  La4  1  0.807100  0.322443  0.277653  1
  La  La5  1  0.470553  0.955211  0.277653  1
  La  La6  1  0.029447  0.177557  0.722347  1
  La  La7  1  0.692900  0.544789  0.722347  1
  La  La8  1  0.177557  0.692900  0.722347  1
  La  La9  1  0.544789  0.029447  0.722347  1
  Zn  Zn10  1  0.250000  0.250000  0.500000  1
  Si  Si11  1  0.613662  0.886338  0.000000  1
  Si  Si12  1  0.386338  0.113662  0.000000  1
  Si  Si13  1  0.886338  0.386338  0.000000  1
  Si  Si14  1  0.113662  0.613662  0.000000  1
  Ag  Ag15  1  0.750000  0.750000  0.500000  1
