# generated using pymatgen
data_Ta2NbCo6(Ni7B3)2
_symmetry_space_group_name_H-M   'P 1'
_cell_length_a   7.47088097
_cell_length_b   7.47491439
_cell_length_c   7.47491400
_cell_angle_alpha   60.00000172
_cell_angle_beta   59.98214086
_cell_angle_gamma   59.98214449
_symmetry_Int_Tables_number   1
_chemical_formula_structural   Ta2NbCo6(Ni7B3)2
_chemical_formula_sum   'Ta2 Nb1 Co6 Ni14 B6'
_cell_volume   295.08828857
_cell_formula_units_Z   1
loop_
 _symmetry_equiv_pos_site_id
 _symmetry_equiv_pos_as_xyz
  1  'x, y, z'
loop_
 _atom_site_type_symbol
 _atom_site_label
 _atom_site_symmetry_multiplicity
 _atom_site_fract_x
 _atom_site_fract_y
 _atom_site_fract_z
 _atom_site_occupancy
  Ta  Ta0  1  0.255946  0.248018  0.248018  1
  Ta  Ta1  1  0.999963  0.000012  0.000012  1
  Nb  Nb2  1  0.743860  0.752047  0.752047  1
  Co  Co3  1  0.383638  0.383238  0.383238  1
  Co  Co4  1  0.616416  0.616731  0.616731  1
  Co  Co5  1  0.383638  0.383238  0.849886  1
  Co  Co6  1  0.383638  0.849886  0.383238  1
  Co  Co7  1  0.616416  0.616731  0.150121  1
  Co  Co8  1  0.616416  0.150121  0.616731  1
  Ni  Ni9  1  0.847551  0.384150  0.384150  1
  Ni  Ni10  1  0.153504  0.615499  0.615499  1
  Ni  Ni11  1  0.340296  0.001139  0.001139  1
  Ni  Ni12  1  0.659010  0.999490  0.999490  1
  Ni  Ni13  1  0.000268  0.341679  0.657796  1
  Ni  Ni14  1  0.000268  0.657796  0.341679  1
  Ni  Ni15  1  0.000268  0.341679  0.000256  1
  Ni  Ni16  1  0.659010  0.999490  0.342009  1
  Ni  Ni17  1  0.000268  0.657796  0.000256  1
  Ni  Ni18  1  0.340296  0.001139  0.657427  1
  Ni  Ni19  1  0.000268  0.000256  0.341679  1
  Ni  Ni20  1  0.000268  0.000256  0.657796  1
  Ni  Ni21  1  0.659010  0.342009  0.999490  1
  Ni  Ni22  1  0.340296  0.657427  0.001139  1
  B  B23  1  0.725800  0.272675  0.272675  1
  B  B24  1  0.274029  0.727254  0.727254  1
  B  B25  1  0.274029  0.727254  0.271462  1
  B  B26  1  0.725800  0.272675  0.728851  1
  B  B27  1  0.274029  0.271462  0.727254  1
  B  B28  1  0.725800  0.728851  0.272675  1
