# generated using pymatgen
data_YbPr7TlPd24
_symmetry_space_group_name_H-M   'P 1'
_cell_length_a   8.58425118
_cell_length_b   8.58425136
_cell_length_c   8.58425100
_cell_angle_alpha   89.94342674
_cell_angle_beta   90.05657326
_cell_angle_gamma   90.05657570
_symmetry_Int_Tables_number   1
_chemical_formula_structural   YbPr7TlPd24
_chemical_formula_sum   'Yb1 Pr7 Tl1 Pd24'
_cell_volume   632.56712290
_cell_formula_units_Z   1
loop_
 _symmetry_equiv_pos_site_id
 _symmetry_equiv_pos_as_xyz
  1  'x, y, z'
loop_
 _atom_site_type_symbol
 _atom_site_label
 _atom_site_symmetry_multiplicity
 _atom_site_fract_x
 _atom_site_fract_y
 _atom_site_fract_z
 _atom_site_occupancy
  Yb  Yb0  1  0.750155  0.249845  0.249845  1
  Pr  Pr1  1  0.249334  0.251759  0.251759  1
  Pr  Pr2  1  0.749736  0.748273  0.748273  1
  Pr  Pr3  1  0.748241  0.750666  0.251759  1
  Pr  Pr4  1  0.748241  0.251759  0.750666  1
  Pr  Pr5  1  0.251727  0.250264  0.748273  1
  Pr  Pr6  1  0.251727  0.748273  0.250264  1
  Pr  Pr7  1  0.249565  0.750435  0.750435  1
  Tl  Tl8  1  0.000132  0.999868  0.999868  1
  Pd  Pd9  1  0.269122  0.499378  0.997929  1
  Pd  Pd10  1  0.730887  0.498011  0.005701  1
  Pd  Pd11  1  0.994299  0.269113  0.498011  1
  Pd  Pd12  1  0.501989  0.269113  0.005701  1
  Pd  Pd13  1  0.002071  0.730878  0.499378  1
  Pd  Pd14  1  0.500622  0.730878  0.997929  1
  Pd  Pd15  1  0.501989  0.005701  0.269113  1
  Pd  Pd16  1  0.269122  0.997929  0.499378  1
  Pd  Pd17  1  0.500622  0.997929  0.730878  1
  Pd  Pd18  1  0.730887  0.005701  0.498011  1
  Pd  Pd19  1  0.994299  0.498011  0.269113  1
  Pd  Pd20  1  0.002071  0.499378  0.730878  1
  Pd  Pd21  1  0.255467  0.500788  0.500788  1
  Pd  Pd22  1  0.744511  0.496609  0.496609  1
  Pd  Pd23  1  0.503391  0.255489  0.496609  1
  Pd  Pd24  1  0.499212  0.744533  0.500788  1
  Pd  Pd25  1  0.503391  0.496609  0.255489  1
  Pd  Pd26  1  0.499212  0.500788  0.744533  1
  Pd  Pd27  1  0.322851  0.999785  0.999785  1
  Pd  Pd28  1  0.679776  0.002540  0.002540  1
  Pd  Pd29  1  0.997460  0.320224  0.002540  1
  Pd  Pd30  1  0.000215  0.677149  0.999785  1
  Pd  Pd31  1  0.997460  0.002540  0.320224  1
  Pd  Pd32  1  0.000215  0.999785  0.677149  1
