# generated using pymatgen
data_ZrBe2Cu2Pd
_symmetry_space_group_name_H-M   'P 1'
_cell_length_a   4.84343583
_cell_length_b   4.71768153
_cell_length_c   4.71768315
_cell_angle_alpha   60.15833694
_cell_angle_beta   59.11427175
_cell_angle_gamma   59.11425216
_symmetry_Int_Tables_number   1
_chemical_formula_structural   ZrBe2Cu2Pd
_chemical_formula_sum   'Zr1 Be2 Cu2 Pd1'
_cell_volume   75.27530637
_cell_formula_units_Z   1
loop_
 _symmetry_equiv_pos_site_id
 _symmetry_equiv_pos_as_xyz
  1  'x, y, z'
loop_
 _atom_site_type_symbol
 _atom_site_label
 _atom_site_symmetry_multiplicity
 _atom_site_fract_x
 _atom_site_fract_y
 _atom_site_fract_z
 _atom_site_occupancy
  Zr  Zr0  1  0.999834  0.000166  0.000166  1
  Be  Be1  1  0.617549  0.631479  0.133423  1
  Be  Be2  1  0.617549  0.133423  0.631479  1
  Cu  Cu3  1  0.123842  0.624295  0.624295  1
  Cu  Cu4  1  0.627566  0.624295  0.624295  1
  Pd  Pd5  1  0.263659  0.236341  0.236341  1
