# generated using pymatgen
data_Ta12Al8IrPd3C4
_symmetry_space_group_name_H-M   'P 1'
_cell_length_a   8.36258177
_cell_length_b   8.36258251
_cell_length_c   8.36258132
_cell_angle_alpha   59.73912312
_cell_angle_beta   59.73912293
_cell_angle_gamma   59.73912459
_symmetry_Int_Tables_number   1
_chemical_formula_structural   Ta12Al8IrPd3C4
_chemical_formula_sum   'Ta12 Al8 Ir1 Pd3 C4'
_cell_volume   411.07927746
_cell_formula_units_Z   1
loop_
 _symmetry_equiv_pos_site_id
 _symmetry_equiv_pos_as_xyz
  1  'x, y, z'
loop_
 _atom_site_type_symbol
 _atom_site_label
 _atom_site_symmetry_multiplicity
 _atom_site_fract_x
 _atom_site_fract_y
 _atom_site_fract_z
 _atom_site_occupancy
  Ta  Ta0  1  0.569038  0.932250  0.569038  1
  Ta  Ta1  1  0.317750  0.680962  0.680962  1
  Ta  Ta2  1  0.687410  0.315545  0.315545  1
  Ta  Ta3  1  0.315545  0.687410  0.315545  1
  Ta  Ta4  1  0.680962  0.680962  0.317750  1
  Ta  Ta5  1  0.315545  0.315545  0.687410  1
  Ta  Ta6  1  0.569038  0.569038  0.932250  1
  Ta  Ta7  1  0.932250  0.569038  0.569038  1
  Ta  Ta8  1  0.562590  0.934455  0.934455  1
  Ta  Ta9  1  0.934455  0.934455  0.562590  1
  Ta  Ta10  1  0.680962  0.317750  0.680962  1
  Ta  Ta11  1  0.934455  0.562590  0.934455  1
  Al  Al12  1  0.914652  0.914652  0.914652  1
  Al  Al13  1  0.999556  0.333252  0.333252  1
  Al  Al14  1  0.333252  0.999556  0.333252  1
  Al  Al15  1  0.333252  0.333252  0.999556  1
  Al  Al16  1  0.916748  0.250444  0.916748  1
  Al  Al17  1  0.916748  0.916748  0.250444  1
  Al  Al18  1  0.250444  0.916748  0.916748  1
  Al  Al19  1  0.335348  0.335348  0.335348  1
  Ir  Ir20  1  0.125000  0.125000  0.125000  1
  Pd  Pd21  1  0.625000  0.125000  0.125000  1
  Pd  Pd22  1  0.125000  0.625000  0.125000  1
  Pd  Pd23  1  0.125000  0.125000  0.625000  1
  C  C24  1  0.625000  0.625000  0.625000  1
  C  C25  1  0.125000  0.625000  0.625000  1
  C  C26  1  0.625000  0.125000  0.625000  1
  C  C27  1  0.625000  0.625000  0.125000  1
