# generated using pymatgen
data_SnHg3(SCl3)2
_symmetry_space_group_name_H-M   'P 1'
_cell_length_a   7.63187300
_cell_length_b   6.76606913
_cell_length_c   13.29522700
_cell_angle_alpha   88.86045980
_cell_angle_beta   90.00000000
_cell_angle_gamma   90.00000000
_symmetry_Int_Tables_number   1
_chemical_formula_structural   SnHg3(SCl3)2
_chemical_formula_sum   'Sn2 Hg6 S4 Cl12'
_cell_volume   686.40023234
_cell_formula_units_Z   2
loop_
 _symmetry_equiv_pos_site_id
 _symmetry_equiv_pos_as_xyz
  1  'x, y, z'
loop_
 _atom_site_type_symbol
 _atom_site_label
 _atom_site_symmetry_multiplicity
 _atom_site_fract_x
 _atom_site_fract_y
 _atom_site_fract_z
 _atom_site_occupancy
  Sn  Sn0  1  0.500000  0.500000  0.500000  1
  Sn  Sn1  1  0.000000  0.500000  0.000000  1
  Hg  Hg2  1  0.786367  0.994828  0.758598  1
  Hg  Hg3  1  0.213633  0.005172  0.241402  1
  Hg  Hg4  1  0.286367  0.005172  0.741402  1
  Hg  Hg5  1  0.713633  0.994828  0.258598  1
  Hg  Hg6  1  0.000000  0.000000  0.500000  1
  Hg  Hg7  1  0.500000  0.000000  0.000000  1
  S  S8  1  0.969737  0.149622  0.331759  1
  S  S9  1  0.469737  0.850378  0.168241  1
  S  S10  1  0.530263  0.149622  0.831759  1
  S  S11  1  0.030263  0.850378  0.668241  1
  Cl  Cl12  1  0.957271  0.657091  0.164945  1
  Cl  Cl13  1  0.275568  0.356629  0.066453  1
  Cl  Cl14  1  0.724432  0.643371  0.933547  1
  Cl  Cl15  1  0.542729  0.657091  0.664945  1
  Cl  Cl16  1  0.775568  0.643371  0.433547  1
  Cl  Cl17  1  0.842087  0.197329  0.060567  1
  Cl  Cl18  1  0.457271  0.342909  0.335055  1
  Cl  Cl19  1  0.042729  0.342909  0.835055  1
  Cl  Cl20  1  0.157913  0.802671  0.939433  1
  Cl  Cl21  1  0.224432  0.356629  0.566453  1
  Cl  Cl22  1  0.657913  0.197329  0.560567  1
  Cl  Cl23  1  0.342087  0.802671  0.439433  1
