# generated using pymatgen
data_Na2NiH6Pt
_symmetry_space_group_name_H-M   'P 1'
_cell_length_a   4.94277501
_cell_length_b   4.94210237
_cell_length_c   7.10554200
_cell_angle_alpha   89.99921070
_cell_angle_beta   89.99940206
_cell_angle_gamma   90.02624443
_symmetry_Int_Tables_number   1
_chemical_formula_structural   Na2NiH6Pt
_chemical_formula_sum   'Na4 Ni2 H12 Pt2'
_cell_volume   173.57203079
_cell_formula_units_Z   2
loop_
 _symmetry_equiv_pos_site_id
 _symmetry_equiv_pos_as_xyz
  1  'x, y, z'
loop_
 _atom_site_type_symbol
 _atom_site_label
 _atom_site_symmetry_multiplicity
 _atom_site_fract_x
 _atom_site_fract_y
 _atom_site_fract_z
 _atom_site_occupancy
  Na  Na0  1  0.949966  0.549941  0.249948  1
  Na  Na1  1  0.450029  0.050010  0.249938  1
  Na  Na2  1  0.450046  0.050002  0.750060  1
  Na  Na3  1  0.949963  0.549930  0.750049  1
  Ni  Ni4  1  0.949844  0.050134  0.999997  1
  Ni  Ni5  1  0.450156  0.549872  0.499999  1
  H  H6  1  0.703576  0.296548  0.999992  1
  H  H7  1  0.195928  0.295675  0.000021  1
  H  H8  1  0.704055  0.804319  0.999977  1
  H  H9  1  0.196241  0.803655  0.000008  1
  H  H10  1  0.450003  0.550042  0.252579  1
  H  H11  1  0.950004  0.049915  0.247528  1
  H  H12  1  0.204028  0.304415  0.499964  1
  H  H13  1  0.203689  0.796576  0.499992  1
  H  H14  1  0.696288  0.303488  0.500001  1
  H  H15  1  0.696169  0.795491  0.500035  1
  H  H16  1  0.950112  0.049927  0.752474  1
  H  H17  1  0.449932  0.550003  0.747419  1
  Pt  Pt18  1  0.449913  0.550082  0.999998  1
  Pt  Pt19  1  0.950043  0.049983  0.500002  1
