# generated using pymatgen
data_DyHf2Zr(Al3Ir)6
_symmetry_space_group_name_H-M   'P 1'
_cell_length_a   7.49622000
_cell_length_b   7.48820301
_cell_length_c   9.30008700
_cell_angle_alpha   90.00000000
_cell_angle_beta   90.00000000
_cell_angle_gamma   119.79778903
_symmetry_Int_Tables_number   1
_chemical_formula_structural   DyHf2Zr(Al3Ir)6
_chemical_formula_sum   'Dy1 Hf2 Zr1 Al18 Ir6'
_cell_volume   453.02158899
_cell_formula_units_Z   1
loop_
 _symmetry_equiv_pos_site_id
 _symmetry_equiv_pos_as_xyz
  1  'x, y, z'
loop_
 _atom_site_type_symbol
 _atom_site_label
 _atom_site_symmetry_multiplicity
 _atom_site_fract_x
 _atom_site_fract_y
 _atom_site_fract_z
 _atom_site_occupancy
  Dy  Dy0  1  0.329406  0.005637  0.250000  1
  Hf  Hf1  1  0.994178  0.671584  0.750000  1
  Hf  Hf2  1  0.671887  0.994552  0.750000  1
  Zr  Zr3  1  0.005351  0.329400  0.250000  1
  Al  Al4  1  0.123414  0.124658  0.750000  1
  Al  Al5  1  0.871862  0.875154  0.250000  1
  Al  Al6  1  0.997753  0.334621  0.577655  1
  Al  Al7  1  0.999717  0.663005  0.425822  1
  Al  Al8  1  0.999717  0.663005  0.074178  1
  Al  Al9  1  0.334865  0.998205  0.919188  1
  Al  Al10  1  0.997753  0.334621  0.922345  1
  Al  Al11  1  0.667792  0.001769  0.074242  1
  Al  Al12  1  0.667792  0.001769  0.425758  1
  Al  Al13  1  0.334865  0.998205  0.580812  1
  Al  Al14  1  0.331469  0.333667  0.055690  1
  Al  Al15  1  0.668159  0.668141  0.939305  1
  Al  Al16  1  0.668159  0.668141  0.560695  1
  Al  Al17  1  0.331469  0.333667  0.444310  1
  Al  Al18  1  0.338357  0.552150  0.750000  1
  Al  Al19  1  0.666140  0.452722  0.250000  1
  Al  Al20  1  0.553168  0.339528  0.750000  1
  Al  Al21  1  0.447540  0.656797  0.250000  1
  Ir  Ir22  1  0.672980  0.327838  0.501814  1
  Ir  Ir23  1  0.328134  0.673546  0.502101  1
  Ir  Ir24  1  0.328134  0.673546  0.997899  1
  Ir  Ir25  1  0.672980  0.327838  0.998186  1
  Ir  Ir26  1  0.998478  0.998117  0.502214  1
  Ir  Ir27  1  0.998478  0.998117  0.997786  1
