# generated using pymatgen
data_Ti2MnVPd12
_symmetry_space_group_name_H-M   'P 1'
_cell_length_a   5.55925500
_cell_length_b   5.55925470
_cell_length_c   9.00589400
_cell_angle_alpha   90.00000000
_cell_angle_beta   90.00000000
_cell_angle_gamma   119.99999583
_symmetry_Int_Tables_number   1
_chemical_formula_structural   Ti2MnVPd12
_chemical_formula_sum   'Ti2 Mn1 V1 Pd12'
_cell_volume   241.04084898
_cell_formula_units_Z   1
loop_
 _symmetry_equiv_pos_site_id
 _symmetry_equiv_pos_as_xyz
  1  'x, y, z'
loop_
 _atom_site_type_symbol
 _atom_site_label
 _atom_site_symmetry_multiplicity
 _atom_site_fract_x
 _atom_site_fract_y
 _atom_site_fract_z
 _atom_site_occupancy
  Ti  Ti0  1  0.000000  0.000000  0.002472  1
  Ti  Ti1  1  0.666667  0.333333  0.751920  1
  Mn  Mn2  1  0.333333  0.666667  0.249354  1
  V  V3  1  0.000000  0.000000  0.497455  1
  Pd  Pd4  1  0.501189  0.498811  0.502499  1
  Pd  Pd5  1  0.501189  0.002378  0.502499  1
  Pd  Pd6  1  0.997622  0.498811  0.502499  1
  Pd  Pd7  1  0.501106  0.498894  0.997227  1
  Pd  Pd8  1  0.501106  0.002212  0.997227  1
  Pd  Pd9  1  0.997788  0.498894  0.997227  1
  Pd  Pd10  1  0.834352  0.668705  0.251546  1
  Pd  Pd11  1  0.331295  0.165648  0.251546  1
  Pd  Pd12  1  0.834352  0.165648  0.251546  1
  Pd  Pd13  1  0.164954  0.329907  0.748328  1
  Pd  Pd14  1  0.670093  0.835046  0.748328  1
  Pd  Pd15  1  0.164954  0.835046  0.748328  1
