# generated using pymatgen
data_InGa4AgTe8
_symmetry_space_group_name_H-M   'P 1'
_cell_length_a   7.42876870
_cell_length_b   7.42876820
_cell_length_c   8.94032605
_cell_angle_alpha   89.82669155
_cell_angle_beta   89.82669275
_cell_angle_gamma   106.65653876
_symmetry_Int_Tables_number   1
_chemical_formula_structural   InGa4AgTe8
_chemical_formula_sum   'In1 Ga4 Ag1 Te8'
_cell_volume   472.67775205
_cell_formula_units_Z   1
loop_
 _symmetry_equiv_pos_site_id
 _symmetry_equiv_pos_as_xyz
  1  'x, y, z'
loop_
 _atom_site_type_symbol
 _atom_site_label
 _atom_site_symmetry_multiplicity
 _atom_site_fract_x
 _atom_site_fract_y
 _atom_site_fract_z
 _atom_site_occupancy
  In  In0  1  0.501455  0.498545  0.500000  1
  Ga  Ga1  1  0.988195  0.011805  0.500000  1
  Ga  Ga2  1  0.510600  0.489400  0.000000  1
  Ga  Ga3  1  0.989493  0.489201  0.752957  1
  Ga  Ga4  1  0.510799  0.010507  0.247043  1
  Ag  Ag5  1  0.999873  0.000127  0.000000  1
  Te  Te6  1  0.392573  0.119371  0.992869  1
  Te  Te7  1  0.903317  0.630123  0.490100  1
  Te  Te8  1  0.880629  0.607427  0.007131  1
  Te  Te9  1  0.369877  0.096683  0.509900  1
  Te  Te10  1  0.878084  0.150660  0.256727  1
  Te  Te11  1  0.369576  0.643811  0.763803  1
  Te  Te12  1  0.849340  0.121916  0.743273  1
  Te  Te13  1  0.356189  0.630424  0.236197  1
