# generated using pymatgen
data_Dy3Lu(Hf4Pb5)2
_symmetry_space_group_name_H-M   'P 1'
_cell_length_a   6.06363542
_cell_length_b   9.15740009
_cell_length_c   11.30325988
_cell_angle_alpha   113.95889742
_cell_angle_beta   105.55868202
_cell_angle_gamma   89.99999765
_symmetry_Int_Tables_number   1
_chemical_formula_structural   Dy3Lu(Hf4Pb5)2
_chemical_formula_sum   'Dy3 Lu1 Hf8 Pb10'
_cell_volume   548.29575835
_cell_formula_units_Z   1
loop_
 _symmetry_equiv_pos_site_id
 _symmetry_equiv_pos_as_xyz
  1  'x, y, z'
loop_
 _atom_site_type_symbol
 _atom_site_label
 _atom_site_symmetry_multiplicity
 _atom_site_fract_x
 _atom_site_fract_y
 _atom_site_fract_z
 _atom_site_occupancy
  Dy  Dy0  1  0.143893  0.254551  0.287786  1
  Dy  Dy1  1  0.856307  0.746265  0.712613  1
  Dy  Dy2  1  0.643807  0.033091  0.287615  1
  Lu  Lu3  1  0.356040  0.966317  0.712080  1
  Hf  Hf4  1  0.562126  0.312621  0.624337  1
  Hf  Hf5  1  0.437939  0.687978  0.375828  1
  Hf  Hf6  1  0.937889  0.687978  0.375828  1
  Hf  Hf7  1  0.062212  0.312621  0.624337  1
  Hf  Hf8  1  0.434509  0.671536  0.869018  1
  Hf  Hf9  1  0.565799  0.328815  0.131599  1
  Hf  Hf10  1  0.934314  0.196301  0.868627  1
  Hf  Hf11  1  0.065559  0.803169  0.131119  1
  Pb  Pb12  1  0.288895  0.590844  0.577790  1
  Pb  Pb13  1  0.711527  0.411327  0.423053  1
  Pb  Pb14  1  0.788504  0.988191  0.577007  1
  Pb  Pb15  1  0.211900  0.011399  0.423799  1
  Pb  Pb16  1  0.249785  0.999998  0.999393  1
  Pb  Pb17  1  0.749609  0.999998  0.999393  1
  Pb  Pb18  1  0.066867  0.462726  0.133734  1
  Pb  Pb19  1  0.933086  0.537333  0.866172  1
  Pb  Pb20  1  0.566820  0.670863  0.133640  1
  Pb  Pb21  1  0.432615  0.326080  0.865230  1
