# generated using pymatgen
data_Sc4Si2Pt6Rh
_symmetry_space_group_name_H-M   'P 1'
_cell_length_a   4.01637800
_cell_length_b   6.54004827
_cell_length_c   16.24775111
_cell_angle_alpha   90.36712682
_cell_angle_beta   90.00000000
_cell_angle_gamma   90.00000000
_symmetry_Int_Tables_number   1
_chemical_formula_structural   Sc4Si2Pt6Rh
_chemical_formula_sum   'Sc8 Si4 Pt12 Rh2'
_cell_volume   426.77588910
_cell_formula_units_Z   2
loop_
 _symmetry_equiv_pos_site_id
 _symmetry_equiv_pos_as_xyz
  1  'x, y, z'
loop_
 _atom_site_type_symbol
 _atom_site_label
 _atom_site_symmetry_multiplicity
 _atom_site_fract_x
 _atom_site_fract_y
 _atom_site_fract_z
 _atom_site_occupancy
  Sc  Sc0  1  0.000000  0.281316  0.461969  1
  Sc  Sc1  1  0.000000  0.718684  0.538031  1
  Sc  Sc2  1  0.000000  0.785680  0.039519  1
  Sc  Sc3  1  0.000000  0.214320  0.960481  1
  Sc  Sc4  1  0.000000  0.532138  0.293988  1
  Sc  Sc5  1  0.000000  0.467862  0.706012  1
  Sc  Sc6  1  0.000000  0.027686  0.212525  1
  Sc  Sc7  1  0.000000  0.972314  0.787475  1
  Si  Si8  1  0.500000  0.843893  0.309156  1
  Si  Si9  1  0.500000  0.156107  0.690844  1
  Si  Si10  1  0.500000  0.342338  0.194881  1
  Si  Si11  1  0.500000  0.657662  0.805119  1
  Pt  Pt12  1  0.000000  0.408055  0.118834  1
  Pt  Pt13  1  0.000000  0.591945  0.881166  1
  Pt  Pt14  1  0.500000  0.600016  0.421984  1
  Pt  Pt15  1  0.500000  0.399984  0.578016  1
  Pt  Pt16  1  0.500000  0.095911  0.080064  1
  Pt  Pt17  1  0.500000  0.904089  0.919936  1
  Pt  Pt18  1  0.500000  0.500000  0.000000  1
  Pt  Pt19  1  0.500000  0.000000  0.500000  1
  Pt  Pt20  1  0.500000  0.214230  0.334306  1
  Pt  Pt21  1  0.500000  0.785770  0.665694  1
  Pt  Pt22  1  0.500000  0.716292  0.168398  1
  Pt  Pt23  1  0.500000  0.283708  0.831602  1
  Rh  Rh24  1  0.000000  0.905174  0.381687  1
  Rh  Rh25  1  0.000000  0.094826  0.618313  1
