# generated using pymatgen
data_AlV3GaN
_symmetry_space_group_name_H-M   'P 1'
_cell_length_a   6.61930100
_cell_length_b   6.61930100
_cell_length_c   6.61930100
_cell_angle_alpha   90.00000000
_cell_angle_beta   90.00000000
_cell_angle_gamma   90.00000000
_symmetry_Int_Tables_number   1
_chemical_formula_structural   AlV3GaN
_chemical_formula_sum   'Al4 V12 Ga4 N4'
_cell_volume   290.02563794
_cell_formula_units_Z   4
loop_
 _symmetry_equiv_pos_site_id
 _symmetry_equiv_pos_as_xyz
  1  'x, y, z'
loop_
 _atom_site_type_symbol
 _atom_site_label
 _atom_site_symmetry_multiplicity
 _atom_site_fract_x
 _atom_site_fract_y
 _atom_site_fract_z
 _atom_site_occupancy
  Al  Al0  1  0.180710  0.819290  0.319290  1
  Al  Al1  1  0.319290  0.180710  0.819290  1
  Al  Al2  1  0.819290  0.319290  0.180710  1
  Al  Al3  1  0.680710  0.680710  0.680710  1
  V  V4  1  0.792671  0.957923  0.375138  1
  V  V5  1  0.707329  0.042077  0.875138  1
  V  V6  1  0.207329  0.457923  0.124862  1
  V  V7  1  0.292671  0.542077  0.624862  1
  V  V8  1  0.957923  0.375138  0.792671  1
  V  V9  1  0.042077  0.875138  0.707329  1
  V  V10  1  0.457923  0.124862  0.207329  1
  V  V11  1  0.542077  0.624862  0.292671  1
  V  V12  1  0.375138  0.792671  0.957923  1
  V  V13  1  0.875138  0.707329  0.042077  1
  V  V14  1  0.124862  0.207329  0.457923  1
  V  V15  1  0.624862  0.292671  0.542077  1
  Ga  Ga16  1  0.569243  0.430757  0.930757  1
  Ga  Ga17  1  0.430757  0.930757  0.569243  1
  Ga  Ga18  1  0.930757  0.569243  0.430757  1
  Ga  Ga19  1  0.069243  0.069243  0.069243  1
  N  N20  1  0.874918  0.125082  0.625082  1
  N  N21  1  0.625082  0.874918  0.125082  1
  N  N22  1  0.125082  0.625082  0.874918  1
  N  N23  1  0.374918  0.374918  0.374918  1
