# generated using pymatgen
data_AcZnInCu4
_symmetry_space_group_name_H-M   'P 1'
_cell_length_a   5.25286500
_cell_length_b   8.60785700
_cell_length_c   10.89013000
_cell_angle_alpha   90.00000000
_cell_angle_beta   90.00000000
_cell_angle_gamma   90.00000000
_symmetry_Int_Tables_number   1
_chemical_formula_structural   AcZnInCu4
_chemical_formula_sum   'Ac4 Zn4 In4 Cu16'
_cell_volume   492.40714625
_cell_formula_units_Z   4
loop_
 _symmetry_equiv_pos_site_id
 _symmetry_equiv_pos_as_xyz
  1  'x, y, z'
loop_
 _atom_site_type_symbol
 _atom_site_label
 _atom_site_symmetry_multiplicity
 _atom_site_fract_x
 _atom_site_fract_y
 _atom_site_fract_z
 _atom_site_occupancy
  Ac  Ac0  1  0.250000  0.755407  0.058868  1
  Ac  Ac1  1  0.750000  0.244593  0.941132  1
  Ac  Ac2  1  0.750000  0.744593  0.558868  1
  Ac  Ac3  1  0.250000  0.255407  0.441132  1
  Zn  Zn4  1  0.250000  0.816929  0.742285  1
  Zn  Zn5  1  0.750000  0.183071  0.257715  1
  Zn  Zn6  1  0.750000  0.683071  0.242285  1
  Zn  Zn7  1  0.250000  0.316929  0.757715  1
  In  In8  1  0.250000  0.640996  0.365856  1
  In  In9  1  0.750000  0.359004  0.634144  1
  In  In10  1  0.750000  0.859004  0.865856  1
  In  In11  1  0.250000  0.140996  0.134144  1
  Cu  Cu12  1  0.500736  0.565886  0.813024  1
  Cu  Cu13  1  0.499264  0.434114  0.186976  1
  Cu  Cu14  1  0.499264  0.934114  0.313024  1
  Cu  Cu15  1  0.000736  0.434114  0.186976  1
  Cu  Cu16  1  0.500736  0.065886  0.686976  1
  Cu  Cu17  1  0.999264  0.565886  0.813024  1
  Cu  Cu18  1  0.999264  0.065886  0.686976  1
  Cu  Cu19  1  0.000736  0.934114  0.313024  1
  Cu  Cu20  1  0.250000  0.558972  0.610755  1
  Cu  Cu21  1  0.750000  0.441028  0.389245  1
  Cu  Cu22  1  0.750000  0.941028  0.110755  1
  Cu  Cu23  1  0.250000  0.058972  0.889245  1
  Cu  Cu24  1  0.250000  0.920227  0.514685  1
  Cu  Cu25  1  0.750000  0.079773  0.485315  1
  Cu  Cu26  1  0.750000  0.579773  0.014685  1
  Cu  Cu27  1  0.250000  0.420227  0.985315  1
