# generated using pymatgen
data_Pr4Cd2PdAu3
_symmetry_space_group_name_H-M   'P 1'
_cell_length_a   8.11851699
_cell_length_b   8.11851699
_cell_length_c   3.93157000
_cell_angle_alpha   90.00000000
_cell_angle_beta   90.00000000
_cell_angle_gamma   89.42000468
_symmetry_Int_Tables_number   1
_chemical_formula_structural   Pr4Cd2PdAu3
_chemical_formula_sum   'Pr4 Cd2 Pd1 Au3'
_cell_volume   259.11775269
_cell_formula_units_Z   1
loop_
 _symmetry_equiv_pos_site_id
 _symmetry_equiv_pos_as_xyz
  1  'x, y, z'
loop_
 _atom_site_type_symbol
 _atom_site_label
 _atom_site_symmetry_multiplicity
 _atom_site_fract_x
 _atom_site_fract_y
 _atom_site_fract_z
 _atom_site_occupancy
  Pr  Pr0  1  0.335109  0.824178  0.500000  1
  Pr  Pr1  1  0.820970  0.679030  0.500000  1
  Pr  Pr2  1  0.171781  0.328219  0.500000  1
  Pr  Pr3  1  0.675822  0.164891  0.500000  1
  Cd  Cd4  1  0.996292  0.998862  0.000000  1
  Cd  Cd5  1  0.501138  0.503708  0.000000  1
  Pd  Pd6  1  0.625949  0.874051  0.000000  1
  Au  Au7  1  0.375572  0.124428  0.000000  1
  Au  Au8  1  0.871877  0.374510  0.000000  1
  Au  Au9  1  0.125490  0.628123  0.000000  1
