# generated using pymatgen
data_Er3Hf(MoN2)4
_symmetry_space_group_name_H-M   'P 1'
_cell_length_a   3.14612500
_cell_length_b   5.63645833
_cell_length_c   10.53075011
_cell_angle_alpha   90.22958171
_cell_angle_beta   90.00000000
_cell_angle_gamma   90.00000000
_symmetry_Int_Tables_number   1
_chemical_formula_structural   Er3Hf(MoN2)4
_chemical_formula_sum   'Er3 Hf1 Mo4 N8'
_cell_volume   186.74031836
_cell_formula_units_Z   1
loop_
 _symmetry_equiv_pos_site_id
 _symmetry_equiv_pos_as_xyz
  1  'x, y, z'
loop_
 _atom_site_type_symbol
 _atom_site_label
 _atom_site_symmetry_multiplicity
 _atom_site_fract_x
 _atom_site_fract_y
 _atom_site_fract_z
 _atom_site_occupancy
  Er  Er0  1  0.250000  0.580512  0.647934  1
  Er  Er1  1  0.750000  0.918719  0.146953  1
  Er  Er2  1  0.750000  0.419937  0.351888  1
  Hf  Hf3  1  0.250000  0.081163  0.849921  1
  Mo  Mo4  1  0.250000  0.429875  0.092095  1
  Mo  Mo5  1  0.250000  0.931717  0.406117  1
  Mo  Mo6  1  0.750000  0.565993  0.908354  1
  Mo  Mo7  1  0.750000  0.070014  0.593643  1
  N  N8  1  0.250000  0.165868  0.246013  1
  N  N9  1  0.250000  0.663118  0.249882  1
  N  N10  1  0.750000  0.849810  0.760989  1
  N  N11  1  0.750000  0.324329  0.753173  1
  N  N12  1  0.250000  0.771681  0.990591  1
  N  N13  1  0.250000  0.263110  0.506332  1
  N  N14  1  0.750000  0.228246  0.997921  1
  N  N15  1  0.750000  0.735909  0.498193  1
