# generated using pymatgen
data_Cs2WSeS3
_symmetry_space_group_name_H-M   'P 1'
_cell_length_a   7.41662700
_cell_length_b   10.54906800
_cell_length_c   13.25461000
_cell_angle_alpha   90.00000000
_cell_angle_beta   90.00000000
_cell_angle_gamma   90.00000000
_symmetry_Int_Tables_number   1
_chemical_formula_structural   Cs2WSeS3
_chemical_formula_sum   'Cs8 W4 Se4 S12'
_cell_volume   1037.02083833
_cell_formula_units_Z   4
loop_
 _symmetry_equiv_pos_site_id
 _symmetry_equiv_pos_as_xyz
  1  'x, y, z'
loop_
 _atom_site_type_symbol
 _atom_site_label
 _atom_site_symmetry_multiplicity
 _atom_site_fract_x
 _atom_site_fract_y
 _atom_site_fract_z
 _atom_site_occupancy
  Cs  Cs0  1  0.250000  0.847936  0.100726  1
  Cs  Cs1  1  0.750000  0.152064  0.899274  1
  Cs  Cs2  1  0.250000  0.347936  0.399274  1
  Cs  Cs3  1  0.750000  0.652064  0.600726  1
  Cs  Cs4  1  0.250000  0.534204  0.828134  1
  Cs  Cs5  1  0.750000  0.465796  0.171866  1
  Cs  Cs6  1  0.250000  0.034204  0.671866  1
  Cs  Cs7  1  0.750000  0.965796  0.328134  1
  W  W8  1  0.250000  0.751179  0.424975  1
  W  W9  1  0.750000  0.248821  0.575025  1
  W  W10  1  0.250000  0.251179  0.075025  1
  W  W11  1  0.750000  0.748821  0.924975  1
  Se  Se12  1  0.250000  0.971196  0.395053  1
  Se  Se13  1  0.750000  0.028804  0.604947  1
  Se  Se14  1  0.250000  0.471196  0.104947  1
  Se  Se15  1  0.750000  0.528804  0.895053  1
  S  S16  1  0.507923  0.333301  0.643790  1
  S  S17  1  0.007923  0.666699  0.356210  1
  S  S18  1  0.992077  0.833301  0.856210  1
  S  S19  1  0.492077  0.166699  0.143790  1
  S  S20  1  0.492077  0.666699  0.356210  1
  S  S21  1  0.992077  0.333301  0.643790  1
  S  S22  1  0.007923  0.166699  0.143790  1
  S  S23  1  0.507923  0.833301  0.856210  1
  S  S24  1  0.750000  0.788238  0.088479  1
  S  S25  1  0.250000  0.211762  0.911521  1
  S  S26  1  0.750000  0.288238  0.411521  1
  S  S27  1  0.250000  0.711762  0.588479  1
