# generated using pymatgen
data_Dy2Sc3Si7(Pt2Rh)3
_symmetry_space_group_name_H-M   'P 1'
_cell_length_a   10.05533900
_cell_length_b   10.05533873
_cell_length_c   3.92389500
_cell_angle_alpha   90.00000000
_cell_angle_beta   90.00000000
_cell_angle_gamma   119.99999758
_symmetry_Int_Tables_number   1
_chemical_formula_structural   Dy2Sc3Si7(Pt2Rh)3
_chemical_formula_sum   'Dy2 Sc3 Si7 Pt6 Rh3'
_cell_volume   343.59073290
_cell_formula_units_Z   1
loop_
 _symmetry_equiv_pos_site_id
 _symmetry_equiv_pos_as_xyz
  1  'x, y, z'
loop_
 _atom_site_type_symbol
 _atom_site_label
 _atom_site_symmetry_multiplicity
 _atom_site_fract_x
 _atom_site_fract_y
 _atom_site_fract_z
 _atom_site_occupancy
  Dy  Dy0  1  0.000000  0.000000  0.000000  1
  Dy  Dy1  1  0.333333  0.666667  0.500000  1
  Sc  Sc2  1  0.894680  0.455621  0.500000  1
  Sc  Sc3  1  0.560941  0.105320  0.500000  1
  Sc  Sc4  1  0.544379  0.439059  0.500000  1
  Si  Si5  1  0.244704  0.196581  0.500000  1
  Si  Si6  1  0.803419  0.048124  0.500000  1
  Si  Si7  1  0.951876  0.755296  0.500000  1
  Si  Si8  1  0.559645  0.650128  0.000000  1
  Si  Si9  1  0.349872  0.909516  0.000000  1
  Si  Si10  1  0.090484  0.440355  0.000000  1
  Si  Si11  1  0.666667  0.333333  0.000000  1
  Pt  Pt12  1  0.313268  0.410905  0.000000  1
  Pt  Pt13  1  0.589095  0.902363  0.000000  1
  Pt  Pt14  1  0.097637  0.686732  0.000000  1
  Pt  Pt15  1  0.383903  0.172794  0.000000  1
  Pt  Pt16  1  0.827206  0.211109  0.000000  1
  Pt  Pt17  1  0.788891  0.616097  0.000000  1
  Rh  Rh18  1  0.221296  0.937782  0.500000  1
  Rh  Rh19  1  0.062218  0.283514  0.500000  1
  Rh  Rh20  1  0.716486  0.778704  0.500000  1
