# generated using pymatgen
data_Cs3Ir2O9
_symmetry_space_group_name_H-M   'P 1'
_cell_length_a   6.49506400
_cell_length_b   6.49506363
_cell_length_c   15.11384300
_cell_angle_alpha   90.00000000
_cell_angle_beta   90.00000000
_cell_angle_gamma   120.00000187
_symmetry_Int_Tables_number   1
_chemical_formula_structural   Cs3Ir2O9
_chemical_formula_sum   'Cs6 Ir4 O18'
_cell_volume   552.16945065
_cell_formula_units_Z   2
loop_
 _symmetry_equiv_pos_site_id
 _symmetry_equiv_pos_as_xyz
  1  'x, y, z'
loop_
 _atom_site_type_symbol
 _atom_site_label
 _atom_site_symmetry_multiplicity
 _atom_site_fract_x
 _atom_site_fract_y
 _atom_site_fract_z
 _atom_site_occupancy
  Cs  Cs0  1  0.666667  0.333333  0.928112  1
  Cs  Cs1  1  0.333333  0.666667  0.071888  1
  Cs  Cs2  1  0.333333  0.666667  0.428112  1
  Cs  Cs3  1  0.666667  0.333333  0.250000  1
  Cs  Cs4  1  0.666667  0.333333  0.571888  1
  Cs  Cs5  1  0.333333  0.666667  0.750000  1
  Ir  Ir6  1  0.000000  0.000000  0.845855  1
  Ir  Ir7  1  0.000000  0.000000  0.345855  1
  Ir  Ir8  1  0.000000  0.000000  0.654145  1
  Ir  Ir9  1  0.000000  0.000000  0.154145  1
  O  O10  1  0.857234  0.142766  0.097430  1
  O  O11  1  0.714467  0.857234  0.597430  1
  O  O12  1  0.142766  0.285533  0.902570  1
  O  O13  1  0.857234  0.714467  0.097430  1
  O  O14  1  0.142766  0.857234  0.597430  1
  O  O15  1  0.285533  0.142766  0.097430  1
  O  O16  1  0.285533  0.142766  0.402570  1
  O  O17  1  0.142766  0.857234  0.902570  1
  O  O18  1  0.857234  0.714467  0.402570  1
  O  O19  1  0.714467  0.857234  0.902570  1
  O  O20  1  0.142766  0.285533  0.597430  1
  O  O21  1  0.857234  0.142766  0.402570  1
  O  O22  1  0.748942  0.874471  0.250000  1
  O  O23  1  0.125529  0.874471  0.250000  1
  O  O24  1  0.125529  0.251058  0.250000  1
  O  O25  1  0.874471  0.748942  0.750000  1
  O  O26  1  0.874471  0.125529  0.750000  1
  O  O27  1  0.251058  0.125529  0.750000  1
