# generated using pymatgen
data_Ca3Nd(OsC2)2
_symmetry_space_group_name_H-M   'P 1'
_cell_length_a   5.20181000
_cell_length_b   6.50799784
_cell_length_c   10.57668491
_cell_angle_alpha   90.37307663
_cell_angle_beta   90.00000000
_cell_angle_gamma   90.00000000
_symmetry_Int_Tables_number   1
_chemical_formula_structural   Ca3Nd(OsC2)2
_chemical_formula_sum   'Ca6 Nd2 Os4 C8'
_cell_volume   358.04881835
_cell_formula_units_Z   2
loop_
 _symmetry_equiv_pos_site_id
 _symmetry_equiv_pos_as_xyz
  1  'x, y, z'
loop_
 _atom_site_type_symbol
 _atom_site_label
 _atom_site_symmetry_multiplicity
 _atom_site_fract_x
 _atom_site_fract_y
 _atom_site_fract_z
 _atom_site_occupancy
  Ca  Ca0  1  0.750000  0.806632  0.049888  1
  Ca  Ca1  1  0.250000  0.193368  0.950112  1
  Ca  Ca2  1  0.250000  0.539000  0.213461  1
  Ca  Ca3  1  0.750000  0.461000  0.786539  1
  Ca  Ca4  1  0.750000  0.967905  0.733209  1
  Ca  Ca5  1  0.250000  0.032095  0.266791  1
  Nd  Nd6  1  0.250000  0.697716  0.551988  1
  Nd  Nd7  1  0.750000  0.302284  0.448012  1
  Os  Os8  1  0.250000  0.732113  0.853190  1
  Os  Os9  1  0.750000  0.267887  0.146810  1
  Os  Os10  1  0.750000  0.769772  0.344666  1
  Os  Os11  1  0.250000  0.230228  0.655334  1
  C  C12  1  0.250000  0.471933  0.759175  1
  C  C13  1  0.750000  0.528067  0.240825  1
  C  C14  1  0.750000  0.031450  0.256620  1
  C  C15  1  0.250000  0.968550  0.743380  1
  C  C16  1  0.250000  0.791262  0.024518  1
  C  C17  1  0.750000  0.208738  0.975482  1
  C  C18  1  0.750000  0.705520  0.518608  1
  C  C19  1  0.250000  0.294480  0.481392  1
