# generated using pymatgen
data_RbHg(PO3)3
_symmetry_space_group_name_H-M   'P 1'
_cell_length_a   6.84761480
_cell_length_b   6.84761513
_cell_length_c   6.84761441
_cell_angle_alpha   108.57991660
_cell_angle_beta   108.57992372
_cell_angle_gamma   108.57991729
_symmetry_Int_Tables_number   1
_chemical_formula_structural   RbHg(PO3)3
_chemical_formula_sum   'Rb1 Hg1 P3 O9'
_cell_volume   255.00056263
_cell_formula_units_Z   1
loop_
 _symmetry_equiv_pos_site_id
 _symmetry_equiv_pos_as_xyz
  1  'x, y, z'
loop_
 _atom_site_type_symbol
 _atom_site_label
 _atom_site_symmetry_multiplicity
 _atom_site_fract_x
 _atom_site_fract_y
 _atom_site_fract_z
 _atom_site_occupancy
  Rb  Rb0  1  0.505105  0.505105  0.505105  1
  Hg  Hg1  1  0.001279  0.001279  0.001279  1
  P  P2  1  0.961841  0.522691  0.105223  1
  P  P3  1  0.105224  0.961841  0.522691  1
  P  P4  1  0.522691  0.105223  0.961842  1
  O  O5  1  0.099298  0.392373  0.077558  1
  O  O6  1  0.392373  0.077558  0.099298  1
  O  O7  1  0.732136  0.370286  0.117243  1
  O  O8  1  0.077558  0.099297  0.392374  1
  O  O9  1  0.117244  0.732135  0.370286  1
  O  O10  1  0.934193  0.884870  0.610103  1
  O  O11  1  0.370286  0.117244  0.732136  1
  O  O12  1  0.610103  0.934193  0.884870  1
  O  O13  1  0.884870  0.610103  0.934193  1
