# generated using pymatgen
data_Zr4P4PdRu2Pt
_symmetry_space_group_name_H-M   'P 1'
_cell_length_a   3.84224800
_cell_length_b   6.58238398
_cell_length_c   7.50799372
_cell_angle_alpha   90.14122291
_cell_angle_beta   90.00000000
_cell_angle_gamma   90.00000000
_symmetry_Int_Tables_number   1
_chemical_formula_structural   Zr4P4PdRu2Pt
_chemical_formula_sum   'Zr4 P4 Pd1 Ru2 Pt1'
_cell_volume   189.88523128
_cell_formula_units_Z   1
loop_
 _symmetry_equiv_pos_site_id
 _symmetry_equiv_pos_as_xyz
  1  'x, y, z'
loop_
 _atom_site_type_symbol
 _atom_site_label
 _atom_site_symmetry_multiplicity
 _atom_site_fract_x
 _atom_site_fract_y
 _atom_site_fract_z
 _atom_site_occupancy
  Zr  Zr0  1  0.750000  0.528376  0.323708  1
  Zr  Zr1  1  0.250000  0.974666  0.819977  1
  Zr  Zr2  1  0.750000  0.029794  0.174742  1
  Zr  Zr3  1  0.250000  0.476521  0.681301  1
  P  P4  1  0.250000  0.742849  0.111092  1
  P  P5  1  0.250000  0.242771  0.390401  1
  P  P6  1  0.750000  0.264447  0.861640  1
  P  P7  1  0.750000  0.765901  0.636702  1
  Pd  Pd8  1  0.250000  0.850033  0.430283  1
  Ru  Ru9  1  0.750000  0.139406  0.551901  1
  Ru  Ru10  1  0.750000  0.637465  0.948693  1
  Pt  Pt11  1  0.250000  0.347773  0.069560  1
