# generated using pymatgen
data_Dy2Er4TcIr
_symmetry_space_group_name_H-M   'P 1'
_cell_length_a   6.29965600
_cell_length_b   7.30063400
_cell_length_c   9.08521000
_cell_angle_alpha   90.00000000
_cell_angle_beta   90.00000000
_cell_angle_gamma   90.00000000
_symmetry_Int_Tables_number   1
_chemical_formula_structural   Dy2Er4TcIr
_chemical_formula_sum   'Dy4 Er8 Tc2 Ir2'
_cell_volume   417.84227928
_cell_formula_units_Z   2
loop_
 _symmetry_equiv_pos_site_id
 _symmetry_equiv_pos_as_xyz
  1  'x, y, z'
loop_
 _atom_site_type_symbol
 _atom_site_label
 _atom_site_symmetry_multiplicity
 _atom_site_fract_x
 _atom_site_fract_y
 _atom_site_fract_z
 _atom_site_occupancy
  Dy  Dy0  1  0.873642  0.538212  0.250000  1
  Dy  Dy1  1  0.626358  0.038212  0.250000  1
  Dy  Dy2  1  0.133188  0.460375  0.750000  1
  Dy  Dy3  1  0.366812  0.960375  0.750000  1
  Er  Er4  1  0.329602  0.676405  0.065448  1
  Er  Er5  1  0.170398  0.176405  0.434552  1
  Er  Er6  1  0.668241  0.323762  0.561007  1
  Er  Er7  1  0.831759  0.823762  0.938993  1
  Er  Er8  1  0.668241  0.323762  0.938993  1
  Er  Er9  1  0.831759  0.823762  0.561007  1
  Er  Er10  1  0.329602  0.676405  0.434552  1
  Er  Er11  1  0.170398  0.176405  0.065448  1
  Tc  Tc12  1  0.036759  0.886054  0.250000  1
  Tc  Tc13  1  0.463241  0.386054  0.250000  1
  Ir  Ir14  1  0.955053  0.115024  0.750000  1
  Ir  Ir15  1  0.544947  0.615024  0.750000  1
