# generated using pymatgen
data_Ta12Mn3Cr(Ga2C)4
_symmetry_space_group_name_H-M   'P 1'
_cell_length_a   8.22768922
_cell_length_b   8.22768967
_cell_length_c   8.22768847
_cell_angle_alpha   60.09756628
_cell_angle_beta   60.09756442
_cell_angle_gamma   60.09756629
_symmetry_Int_Tables_number   1
_chemical_formula_structural   Ta12Mn3Cr(Ga2C)4
_chemical_formula_sum   'Ta12 Mn3 Cr1 Ga8 C4'
_cell_volume   394.70956902
_cell_formula_units_Z   1
loop_
 _symmetry_equiv_pos_site_id
 _symmetry_equiv_pos_as_xyz
  1  'x, y, z'
loop_
 _atom_site_type_symbol
 _atom_site_label
 _atom_site_symmetry_multiplicity
 _atom_site_fract_x
 _atom_site_fract_y
 _atom_site_fract_z
 _atom_site_occupancy
  Ta  Ta0  1  0.555884  0.944133  0.555884  1
  Ta  Ta1  1  0.305867  0.694116  0.694116  1
  Ta  Ta2  1  0.696115  0.305023  0.305023  1
  Ta  Ta3  1  0.305023  0.696115  0.305023  1
  Ta  Ta4  1  0.694116  0.694116  0.305867  1
  Ta  Ta5  1  0.305023  0.305023  0.696115  1
  Ta  Ta6  1  0.555884  0.555884  0.944133  1
  Ta  Ta7  1  0.944133  0.555884  0.555884  1
  Ta  Ta8  1  0.553885  0.944977  0.944977  1
  Ta  Ta9  1  0.944977  0.944977  0.553885  1
  Ta  Ta10  1  0.694116  0.305867  0.694116  1
  Ta  Ta11  1  0.944977  0.553885  0.944977  1
  Mn  Mn12  1  0.625000  0.125000  0.125000  1
  Mn  Mn13  1  0.125000  0.625000  0.125000  1
  Mn  Mn14  1  0.125000  0.125000  0.625000  1
  Cr  Cr15  1  0.125000  0.125000  0.125000  1
  Ga  Ga16  1  0.914493  0.914493  0.914493  1
  Ga  Ga17  1  0.992928  0.336517  0.336517  1
  Ga  Ga18  1  0.336517  0.992928  0.336517  1
  Ga  Ga19  1  0.336517  0.336517  0.992928  1
  Ga  Ga20  1  0.913483  0.257072  0.913483  1
  Ga  Ga21  1  0.913483  0.913483  0.257072  1
  Ga  Ga22  1  0.257072  0.913483  0.913483  1
  Ga  Ga23  1  0.335507  0.335507  0.335507  1
  C  C24  1  0.625000  0.625000  0.625000  1
  C  C25  1  0.125000  0.625000  0.625000  1
  C  C26  1  0.625000  0.125000  0.625000  1
  C  C27  1  0.625000  0.625000  0.125000  1
