# generated using pymatgen
data_Y11TmInCo4Au
_symmetry_space_group_name_H-M   'P 1'
_cell_length_a   8.37687351
_cell_length_b   8.36594948
_cell_length_c   8.36594887
_cell_angle_alpha   110.95428002
_cell_angle_beta   110.55842598
_cell_angle_gamma   106.88053794
_symmetry_Int_Tables_number   1
_chemical_formula_structural   Y11TmInCo4Au
_chemical_formula_sum   'Y11 Tm1 In1 Co4 Au1'
_cell_volume   450.92466195
_cell_formula_units_Z   1
loop_
 _symmetry_equiv_pos_site_id
 _symmetry_equiv_pos_as_xyz
  1  'x, y, z'
loop_
 _atom_site_type_symbol
 _atom_site_label
 _atom_site_symmetry_multiplicity
 _atom_site_fract_x
 _atom_site_fract_y
 _atom_site_fract_z
 _atom_site_occupancy
  Y  Y0  1  0.314869  0.619251  0.303046  1
  Y  Y1  1  0.685265  0.381899  0.697728  1
  Y  Y2  1  0.314869  0.011820  0.695617  1
  Y  Y3  1  0.685265  0.987539  0.303366  1
  Y  Y4  1  0.186084  0.290618  0.477738  1
  Y  Y5  1  0.813380  0.708211  0.520212  1
  Y  Y6  1  0.186084  0.708346  0.895466  1
  Y  Y7  1  0.813380  0.293168  0.105168  1
  Y  Y8  1  0.424934  0.220683  0.204252  1
  Y  Y9  1  0.575768  0.779408  0.796360  1
  Y  Y10  1  0.016460  0.220233  0.796229  1
  Tm  Tm11  1  0.986076  0.781022  0.205052  1
  In  In12  1  0.500682  0.500264  0.000417  1
  Co  Co13  1  0.110510  0.611367  0.499143  1
  Co  Co14  1  0.889163  0.388959  0.500204  1
  Co  Co15  1  0.378091  0.998839  0.379251  1
  Co  Co16  1  0.619021  0.000176  0.618846  1
  Au  Au17  1  0.000100  0.998197  0.001903  1
