# generated using pymatgen
data_Gd8In4RhAu7
_symmetry_space_group_name_H-M   'P 1'
_cell_length_a   7.96227036
_cell_length_b   7.96227092
_cell_length_c   7.37232600
_cell_angle_alpha   90.12304295
_cell_angle_beta   89.87695704
_cell_angle_gamma   90.06797760
_symmetry_Int_Tables_number   1
_chemical_formula_structural   Gd8In4RhAu7
_chemical_formula_sum   'Gd8 In4 Rh1 Au7'
_cell_volume   467.38642642
_cell_formula_units_Z   1
loop_
 _symmetry_equiv_pos_site_id
 _symmetry_equiv_pos_as_xyz
  1  'x, y, z'
loop_
 _atom_site_type_symbol
 _atom_site_label
 _atom_site_symmetry_multiplicity
 _atom_site_fract_x
 _atom_site_fract_y
 _atom_site_fract_z
 _atom_site_occupancy
  Gd  Gd0  1  0.164384  0.150949  0.994372  1
  Gd  Gd1  1  0.849051  0.835616  0.994372  1
  Gd  Gd2  1  0.657879  0.342121  0.498657  1
  Gd  Gd3  1  0.331203  0.668797  0.507954  1
  Gd  Gd4  1  0.684364  0.315636  0.000192  1
  Gd  Gd5  1  0.309418  0.690582  0.995107  1
  Gd  Gd6  1  0.823718  0.813745  0.503162  1
  Gd  Gd7  1  0.186255  0.176282  0.503162  1
  In  In8  1  0.503912  0.999404  0.248692  1
  In  In9  1  0.493756  0.997391  0.748613  1
  In  In10  1  0.000596  0.496088  0.248692  1
  In  In11  1  0.002609  0.506244  0.748613  1
  Rh  Rh12  1  0.129601  0.870399  0.732865  1
  Au  Au13  1  0.368445  0.374868  0.224971  1
  Au  Au14  1  0.626519  0.628141  0.775670  1
  Au  Au15  1  0.625132  0.631555  0.224971  1
  Au  Au16  1  0.872483  0.127517  0.724311  1
  Au  Au17  1  0.871813  0.128187  0.274432  1
  Au  Au18  1  0.371859  0.373481  0.775670  1
  Au  Au19  1  0.127002  0.872998  0.275520  1
