# generated using pymatgen
data_TlV2InO7
_symmetry_space_group_name_H-M   'P 1'
_cell_length_a   7.99861487
_cell_length_b   8.86373577
_cell_length_c   10.69576700
_cell_angle_alpha   91.16349562
_cell_angle_beta   89.94365416
_cell_angle_gamma   105.73090943
_symmetry_Int_Tables_number   1
_chemical_formula_structural   TlV2InO7
_chemical_formula_sum   'Tl4 V8 In4 O28'
_cell_volume   729.74394524
_cell_formula_units_Z   4
loop_
 _symmetry_equiv_pos_site_id
 _symmetry_equiv_pos_as_xyz
  1  'x, y, z'
loop_
 _atom_site_type_symbol
 _atom_site_label
 _atom_site_symmetry_multiplicity
 _atom_site_fract_x
 _atom_site_fract_y
 _atom_site_fract_z
 _atom_site_occupancy
  Tl  Tl0  1  0.327406  0.945832  0.176573  1
  Tl  Tl1  1  0.672594  0.054168  0.823427  1
  Tl  Tl2  1  0.651468  0.539559  0.679808  1
  Tl  Tl3  1  0.348532  0.460441  0.320192  1
  V  V4  1  0.041776  0.792308  0.865313  1
  V  V5  1  0.663358  0.849889  0.430529  1
  V  V6  1  0.367345  0.667790  0.900804  1
  V  V7  1  0.054588  0.321143  0.644047  1
  V  V8  1  0.958224  0.207692  0.134687  1
  V  V9  1  0.632655  0.332210  0.099196  1
  V  V10  1  0.336642  0.150111  0.569471  1
  V  V11  1  0.945412  0.678857  0.355953  1
  In  In12  1  0.733752  0.768857  0.101852  1
  In  In13  1  0.264690  0.735930  0.592587  1
  In  In14  1  0.735310  0.264070  0.407413  1
  In  In15  1  0.266248  0.231143  0.898148  1
  O  O16  1  0.172243  0.255381  0.085607  1
  O  O17  1  0.127708  0.185607  0.543946  1
  O  O18  1  0.046487  0.762529  0.705778  1
  O  O19  1  0.681366  0.036787  0.482932  1
  O  O20  1  0.953513  0.237471  0.294222  1
  O  O21  1  0.142746  0.662657  0.409051  1
  O  O22  1  0.579028  0.224294  0.234175  1
  O  O23  1  0.491179  0.288133  0.487515  1
  O  O24  1  0.610151  0.822466  0.274323  1
  O  O25  1  0.041000  0.251007  0.795047  1
  O  O26  1  0.508821  0.711867  0.512485  1
  O  O27  1  0.154377  0.977522  0.912804  1
  O  O28  1  0.959000  0.748993  0.204953  1
  O  O29  1  0.389849  0.177534  0.725677  1
  O  O30  1  0.787752  0.505473  0.363040  1
  O  O31  1  0.396330  0.484173  0.881978  1
  O  O32  1  0.855227  0.345425  0.063937  1
  O  O33  1  0.857254  0.337343  0.590949  1
  O  O34  1  0.506041  0.216847  0.982223  1
  O  O35  1  0.420972  0.775706  0.765825  1
  O  O36  1  0.144773  0.654575  0.936063  1
  O  O37  1  0.603670  0.515827  0.118022  1
  O  O38  1  0.318634  0.963213  0.517068  1
  O  O39  1  0.212248  0.494527  0.636960  1
  O  O40  1  0.827757  0.744619  0.914393  1
  O  O41  1  0.493959  0.783153  0.017777  1
  O  O42  1  0.872292  0.814393  0.456054  1
  O  O43  1  0.845623  0.022478  0.087196  1
