# generated using pymatgen
data_DyEr2Al7Pd2
_symmetry_space_group_name_H-M   'P 1'
_cell_length_a   9.18402647
_cell_length_b   9.18402696
_cell_length_c   9.18402600
_cell_angle_alpha   34.93428838
_cell_angle_beta   34.93428402
_cell_angle_gamma   34.93428827
_symmetry_Int_Tables_number   1
_chemical_formula_structural   DyEr2Al7Pd2
_chemical_formula_sum   'Dy1 Er2 Al7 Pd2'
_cell_volume   226.77868911
_cell_formula_units_Z   1
loop_
 _symmetry_equiv_pos_site_id
 _symmetry_equiv_pos_as_xyz
  1  'x, y, z'
loop_
 _atom_site_type_symbol
 _atom_site_label
 _atom_site_symmetry_multiplicity
 _atom_site_fract_x
 _atom_site_fract_y
 _atom_site_fract_z
 _atom_site_occupancy
  Dy  Dy0  1  0.000000  0.000000  0.000000  1
  Er  Er1  1  0.142992  0.142992  0.142992  1
  Er  Er2  1  0.857008  0.857008  0.857008  1
  Al  Al3  1  0.583112  0.583112  0.073763  1
  Al  Al4  1  0.926238  0.416887  0.416889  1
  Al  Al5  1  0.416887  0.926238  0.416889  1
  Al  Al6  1  0.500000  0.500000  0.500000  1
  Al  Al7  1  0.583113  0.073762  0.583111  1
  Al  Al8  1  0.073762  0.583113  0.583111  1
  Al  Al9  1  0.416888  0.416888  0.926237  1
  Pd  Pd10  1  0.335406  0.335406  0.335406  1
  Pd  Pd11  1  0.664595  0.664595  0.664595  1
