# generated using pymatgen
data_Ho2Tm3Co16(TcP4)3
_symmetry_space_group_name_H-M   'P 1'
_cell_length_a   12.00157300
_cell_length_b   12.00157316
_cell_length_c   3.69156800
_cell_angle_alpha   90.00000000
_cell_angle_beta   90.00000000
_cell_angle_gamma   120.00000231
_symmetry_Int_Tables_number   1
_chemical_formula_structural   Ho2Tm3Co16(TcP4)3
_chemical_formula_sum   'Ho2 Tm3 Co16 Tc3 P12'
_cell_volume   460.48749632
_cell_formula_units_Z   1
loop_
 _symmetry_equiv_pos_site_id
 _symmetry_equiv_pos_as_xyz
  1  'x, y, z'
loop_
 _atom_site_type_symbol
 _atom_site_label
 _atom_site_symmetry_multiplicity
 _atom_site_fract_x
 _atom_site_fract_y
 _atom_site_fract_z
 _atom_site_occupancy
  Ho  Ho0  1  0.666667  0.333333  0.000000  1
  Ho  Ho1  1  0.333333  0.666667  0.000000  1
  Tm  Tm2  1  0.815903  0.815903  0.500000  1
  Tm  Tm3  1  0.184097  0.000000  0.500000  1
  Tm  Tm4  1  0.000000  0.184097  0.500000  1
  Co  Co5  1  0.873678  0.355668  0.500000  1
  Co  Co6  1  0.644332  0.518011  0.500000  1
  Co  Co7  1  0.481989  0.126322  0.500000  1
  Co  Co8  1  0.355668  0.873678  0.500000  1
  Co  Co9  1  0.518011  0.644332  0.500000  1
  Co  Co10  1  0.126322  0.481989  0.500000  1
  Co  Co11  1  0.803751  0.178396  0.000000  1
  Co  Co12  1  0.821604  0.625354  0.000000  1
  Co  Co13  1  0.374646  0.196249  0.000000  1
  Co  Co14  1  0.178396  0.803751  0.000000  1
  Co  Co15  1  0.625354  0.821604  0.000000  1
  Co  Co16  1  0.196249  0.374646  0.000000  1
  Co  Co17  1  0.281778  0.281778  0.500000  1
  Co  Co18  1  0.718222  0.000000  0.500000  1
  Co  Co19  1  0.000000  0.718222  0.500000  1
  Co  Co20  1  0.000000  0.000000  0.000000  1
  Tc  Tc21  1  0.446541  0.446541  0.000000  1
  Tc  Tc22  1  0.553459  0.000000  0.000000  1
  Tc  Tc23  1  0.000000  0.553459  0.000000  1
  P  P24  1  0.685444  0.164724  0.500000  1
  P  P25  1  0.835276  0.520720  0.500000  1
  P  P26  1  0.479280  0.314556  0.500000  1
  P  P27  1  0.164724  0.685444  0.500000  1
  P  P28  1  0.520720  0.835276  0.500000  1
  P  P29  1  0.314556  0.479280  0.500000  1
  P  P30  1  0.177925  0.177925  0.000000  1
  P  P31  1  0.822075  0.000000  0.000000  1
  P  P32  1  0.000000  0.822075  0.000000  1
  P  P33  1  0.638465  0.638465  0.000000  1
  P  P34  1  0.361535  0.000000  0.000000  1
  P  P35  1  0.000000  0.361535  0.000000  1
