# generated using pymatgen
data_Dy4Sc4B24Ir3Ru
_symmetry_space_group_name_H-M   'P 1'
_cell_length_a   3.55307000
_cell_length_b   8.99771825
_cell_length_c   11.37187132
_cell_angle_alpha   90.02711164
_cell_angle_beta   90.00000000
_cell_angle_gamma   90.00000000
_symmetry_Int_Tables_number   1
_chemical_formula_structural   Dy4Sc4B24Ir3Ru
_chemical_formula_sum   'Dy4 Sc4 B24 Ir3 Ru1'
_cell_volume   363.55325856
_cell_formula_units_Z   1
loop_
 _symmetry_equiv_pos_site_id
 _symmetry_equiv_pos_as_xyz
  1  'x, y, z'
loop_
 _atom_site_type_symbol
 _atom_site_label
 _atom_site_symmetry_multiplicity
 _atom_site_fract_x
 _atom_site_fract_y
 _atom_site_fract_z
 _atom_site_occupancy
  Dy  Dy0  1  0.500000  0.318386  0.412905  1
  Dy  Dy1  1  0.500000  0.680557  0.586091  1
  Dy  Dy2  1  0.500000  0.180310  0.915153  1
  Dy  Dy3  1  0.500000  0.821443  0.086598  1
  Sc  Sc4  1  0.500000  0.442238  0.124115  1
  Sc  Sc5  1  0.500000  0.555318  0.876018  1
  Sc  Sc6  1  0.500000  0.055091  0.623903  1
  Sc  Sc7  1  0.500000  0.947334  0.374725  1
  B  B8  1  0.000000  0.100319  0.473155  1
  B  B9  1  0.000000  0.899639  0.527129  1
  B  B10  1  0.000000  0.399719  0.972821  1
  B  B11  1  0.000000  0.600646  0.027044  1
  B  B12  1  0.000000  0.129456  0.317321  1
  B  B13  1  0.000000  0.870256  0.681374  1
  B  B14  1  0.000000  0.370377  0.818641  1
  B  B15  1  0.000000  0.629501  0.181561  1
  B  B16  1  0.000000  0.055305  0.066935  1
  B  B17  1  0.000000  0.945393  0.934040  1
  B  B18  1  0.000000  0.444752  0.565775  1
  B  B19  1  0.000000  0.554910  0.433875  1
  B  B20  1  0.000000  0.481705  0.284972  1
  B  B21  1  0.000000  0.518241  0.714962  1
  B  B22  1  0.000000  0.018369  0.784915  1
  B  B23  1  0.000000  0.982612  0.214964  1
  B  B24  1  0.000000  0.253770  0.081524  1
  B  B25  1  0.000000  0.745516  0.919576  1
  B  B26  1  0.000000  0.245533  0.580322  1
  B  B27  1  0.000000  0.754610  0.419455  1
  B  B28  1  0.000000  0.294616  0.234570  1
  B  B29  1  0.000000  0.704415  0.764659  1
  B  B30  1  0.000000  0.204596  0.735514  1
  B  B31  1  0.000000  0.795444  0.265195  1
  Ir  Ir32  1  0.500000  0.859464  0.819176  1
  Ir  Ir33  1  0.500000  0.358883  0.681201  1
  Ir  Ir34  1  0.500000  0.640736  0.318334  1
  Ru  Ru35  1  0.500000  0.140542  0.181485  1
