# generated using pymatgen
data_Tb8Nd4TlZnCo4
_symmetry_space_group_name_H-M   'P 1'
_cell_length_a   8.48723629
_cell_length_b   8.48721751
_cell_length_c   8.48723604
_cell_angle_alpha   112.51106409
_cell_angle_beta   108.71855728
_cell_angle_gamma   107.23071571
_symmetry_Int_Tables_number   1
_chemical_formula_structural   Tb8Nd4TlZnCo4
_chemical_formula_sum   'Tb8 Nd4 Tl1 Zn1 Co4'
_cell_volume   469.55133184
_cell_formula_units_Z   1
loop_
 _symmetry_equiv_pos_site_id
 _symmetry_equiv_pos_as_xyz
  1  'x, y, z'
loop_
 _atom_site_type_symbol
 _atom_site_label
 _atom_site_symmetry_multiplicity
 _atom_site_fract_x
 _atom_site_fract_y
 _atom_site_fract_z
 _atom_site_occupancy
  Tb  Tb0  1  0.672130  0.855959  0.183830  1
  Tb  Tb1  1  0.327870  0.511700  0.183830  1
  Tb  Tb2  1  0.327870  0.144041  0.816170  1
  Tb  Tb3  1  0.672130  0.488300  0.816170  1
  Tb  Tb4  1  0.175598  0.217924  0.393521  1
  Tb  Tb5  1  0.824403  0.217924  0.042326  1
  Tb  Tb6  1  0.175597  0.782076  0.957674  1
  Tb  Tb7  1  0.824402  0.782076  0.606479  1
  Nd  Nd8  1  0.033468  0.733448  0.300024  1
  Nd  Nd9  1  0.966532  0.266552  0.699976  1
  Nd  Nd10  1  0.566575  0.266552  0.300020  1
  Nd  Nd11  1  0.433425  0.733448  0.699980  1
  Tl  Tl12  1  0.500000  0.000000  0.500000  1
  Zn  Zn13  1  0.000000  0.500000  0.500000  1
  Co  Co14  1  0.662256  0.500000  0.162256  1
  Co  Co15  1  0.337744  0.500000  0.837744  1
  Co  Co16  1  0.887125  0.887128  0.000001  1
  Co  Co17  1  0.112875  0.112872  0.999999  1
