# generated using pymatgen
data_Er2TmSc3MnBi2
_symmetry_space_group_name_H-M   'P 1'
_cell_length_a   7.91260505
_cell_length_b   7.91100536
_cell_length_c   4.22016600
_cell_angle_alpha   90.00000000
_cell_angle_beta   90.00000000
_cell_angle_gamma   119.99330357
_symmetry_Int_Tables_number   1
_chemical_formula_structural   Er2TmSc3MnBi2
_chemical_formula_sum   'Er2 Tm1 Sc3 Mn1 Bi2'
_cell_volume   228.79189469
_cell_formula_units_Z   1
loop_
 _symmetry_equiv_pos_site_id
 _symmetry_equiv_pos_as_xyz
  1  'x, y, z'
loop_
 _atom_site_type_symbol
 _atom_site_label
 _atom_site_symmetry_multiplicity
 _atom_site_fract_x
 _atom_site_fract_y
 _atom_site_fract_z
 _atom_site_occupancy
  Er  Er0  1  0.386934  0.386959  0.500000  1
  Er  Er1  1  0.613066  0.000026  0.500000  1
  Tm  Tm2  1  0.000000  0.613317  0.500000  1
  Sc  Sc3  1  0.224120  0.999856  0.000000  1
  Sc  Sc4  1  0.775880  0.775736  0.000000  1
  Sc  Sc5  1  0.000000  0.224217  0.000000  1
  Mn  Mn6  1  0.000000  0.999804  0.500000  1
  Bi  Bi7  1  0.333186  0.666635  0.000000  1
  Bi  Bi8  1  0.666814  0.333449  0.000000  1
