# generated using pymatgen
data_Ce8ScTa7(TiSi4)4
_symmetry_space_group_name_H-M   'P 1'
_cell_length_a   6.98447110
_cell_length_b   7.13710606
_cell_length_c   13.47182760
_cell_angle_alpha   90.00449846
_cell_angle_beta   90.05559171
_cell_angle_gamma   89.99097640
_symmetry_Int_Tables_number   1
_chemical_formula_structural   Ce8ScTa7(TiSi4)4
_chemical_formula_sum   'Ce8 Sc1 Ta7 Ti4 Si16'
_cell_volume   671.55560830
_cell_formula_units_Z   1
loop_
 _symmetry_equiv_pos_site_id
 _symmetry_equiv_pos_as_xyz
  1  'x, y, z'
loop_
 _atom_site_type_symbol
 _atom_site_label
 _atom_site_symmetry_multiplicity
 _atom_site_fract_x
 _atom_site_fract_y
 _atom_site_fract_z
 _atom_site_occupancy
  Ce  Ce0  1  0.994826  0.166905  0.094730  1
  Ce  Ce1  1  0.496542  0.333768  0.404563  1
  Ce  Ce2  1  0.505629  0.665387  0.905950  1
  Ce  Ce3  1  0.004213  0.832262  0.593335  1
  Ce  Ce4  1  0.004974  0.831035  0.906513  1
  Ce  Ce5  1  0.506348  0.667093  0.594206  1
  Ce  Ce6  1  0.495469  0.332636  0.095166  1
  Ce  Ce7  1  0.994683  0.167893  0.405412  1
  Sc  Sc8  1  0.333492  0.999317  0.750078  1
  Ta  Ta9  1  0.662701  0.995323  0.249853  1
  Ta  Ta10  1  0.162439  0.505290  0.250177  1
  Ta  Ta11  1  0.836281  0.495431  0.750142  1
  Ta  Ta12  1  0.160237  0.328648  0.874818  1
  Ta  Ta13  1  0.668805  0.176360  0.625012  1
  Ta  Ta14  1  0.335643  0.826703  0.127593  1
  Ta  Ta15  1  0.835192  0.673906  0.372907  1
  Ti  Ti16  1  0.835318  0.673197  0.126045  1
  Ti  Ti17  1  0.335892  0.827039  0.373436  1
  Ti  Ti18  1  0.668318  0.175345  0.875663  1
  Ti  Ti19  1  0.160589  0.327188  0.624691  1
  Si  Si20  1  0.797463  0.378094  0.248861  1
  Si  Si21  1  0.297011  0.122794  0.250918  1
  Si  Si22  1  0.708814  0.878697  0.750829  1
  Si  Si23  1  0.201292  0.614382  0.749153  1
  Si  Si24  1  0.039746  0.871043  0.249415  1
  Si  Si25  1  0.540020  0.629129  0.250550  1
  Si  Si26  1  0.460968  0.369062  0.750604  1
  Si  Si27  1  0.957550  0.131693  0.749517  1
  Si  Si28  1  0.840939  0.460376  0.956468  1
  Si  Si29  1  0.343299  0.041381  0.541024  1
  Si  Si30  1  0.657626  0.959364  0.045072  1
  Si  Si31  1  0.158560  0.541048  0.454844  1
  Si  Si32  1  0.158271  0.540885  0.044206  1
  Si  Si33  1  0.657375  0.959429  0.455812  1
  Si  Si34  1  0.342335  0.041531  0.959643  1
  Si  Si35  1  0.841142  0.460361  0.542794  1
