# generated using pymatgen
data_TbLuTa4(B2Ru5)2
_symmetry_space_group_name_H-M   'P 1'
_cell_length_a   9.54195712
_cell_length_b   9.54195684
_cell_length_c   3.08947500
_cell_angle_alpha   90.00000000
_cell_angle_beta   90.00000000
_cell_angle_gamma   90.54172305
_symmetry_Int_Tables_number   1
_chemical_formula_structural   TbLuTa4(B2Ru5)2
_chemical_formula_sum   'Tb1 Lu1 Ta4 B4 Ru10'
_cell_volume   281.28086023
_cell_formula_units_Z   1
loop_
 _symmetry_equiv_pos_site_id
 _symmetry_equiv_pos_as_xyz
  1  'x, y, z'
loop_
 _atom_site_type_symbol
 _atom_site_label
 _atom_site_symmetry_multiplicity
 _atom_site_fract_x
 _atom_site_fract_y
 _atom_site_fract_z
 _atom_site_occupancy
  Tb  Tb0  1  0.824389  0.675611  0.000000  1
  Lu  Lu1  1  0.176754  0.323246  0.000000  1
  Ta  Ta2  1  0.323645  0.823850  0.000000  1
  Ta  Ta3  1  0.676150  0.176355  0.000000  1
  Ta  Ta4  1  0.498910  0.499635  0.000000  1
  Ta  Ta5  1  0.000365  0.001090  0.000000  1
  B  B6  1  0.619695  0.880305  0.000000  1
  B  B7  1  0.378471  0.121529  0.000000  1
  B  B8  1  0.121660  0.620162  0.000000  1
  B  B9  1  0.879838  0.378340  0.000000  1
  Ru  Ru10  1  0.558068  0.723848  0.500000  1
  Ru  Ru11  1  0.439460  0.277600  0.500000  1
  Ru  Ru12  1  0.082713  0.785396  0.500000  1
  Ru  Ru13  1  0.920096  0.214573  0.500000  1
  Ru  Ru14  1  0.285427  0.579904  0.500000  1
  Ru  Ru15  1  0.714604  0.417287  0.500000  1
  Ru  Ru16  1  0.222400  0.060540  0.500000  1
  Ru  Ru17  1  0.776152  0.941932  0.500000  1
  Ru  Ru18  1  0.499188  0.000812  0.500000  1
  Ru  Ru19  1  0.002013  0.497987  0.500000  1
