# generated using pymatgen
data_CaTa5FeB4Ru9
_symmetry_space_group_name_H-M   'P 1'
_cell_length_a   9.43951554
_cell_length_b   9.43951521
_cell_length_c   3.05937900
_cell_angle_alpha   90.00000000
_cell_angle_beta   90.00000000
_cell_angle_gamma   90.18817678
_symmetry_Int_Tables_number   1
_chemical_formula_structural   CaTa5FeB4Ru9
_chemical_formula_sum   'Ca1 Ta5 Fe1 B4 Ru9'
_cell_volume   272.60281453
_cell_formula_units_Z   1
loop_
 _symmetry_equiv_pos_site_id
 _symmetry_equiv_pos_as_xyz
  1  'x, y, z'
loop_
 _atom_site_type_symbol
 _atom_site_label
 _atom_site_symmetry_multiplicity
 _atom_site_fract_x
 _atom_site_fract_y
 _atom_site_fract_z
 _atom_site_occupancy
  Ca  Ca0  1  0.822532  0.677468  0.000000  1
  Ta  Ta1  1  0.179382  0.320618  0.000000  1
  Ta  Ta2  1  0.329219  0.830535  0.000000  1
  Ta  Ta3  1  0.669465  0.170781  0.000000  1
  Ta  Ta4  1  0.503621  0.501566  0.000000  1
  Ta  Ta5  1  0.998434  0.996379  0.000000  1
  Fe  Fe6  1  0.494134  0.005866  0.500000  1
  B  B7  1  0.609307  0.890693  0.000000  1
  B  B8  1  0.386092  0.113908  0.000000  1
  B  B9  1  0.124046  0.619057  0.000000  1
  B  B10  1  0.880943  0.375954  0.000000  1
  Ru  Ru11  1  0.549704  0.733761  0.500000  1
  Ru  Ru12  1  0.429756  0.278674  0.500000  1
  Ru  Ru13  1  0.088379  0.783602  0.500000  1
  Ru  Ru14  1  0.932739  0.213280  0.500000  1
  Ru  Ru15  1  0.286720  0.567261  0.500000  1
  Ru  Ru16  1  0.716398  0.411621  0.500000  1
  Ru  Ru17  1  0.221326  0.070244  0.500000  1
  Ru  Ru18  1  0.766239  0.950296  0.500000  1
  Ru  Ru19  1  0.011563  0.488437  0.500000  1
