# generated using pymatgen
data_IrPt3F24
_symmetry_space_group_name_H-M   'P 1'
_cell_length_a   5.13847336
_cell_length_b   8.89560800
_cell_length_c   9.75486368
_cell_angle_alpha   90.00000000
_cell_angle_beta   89.95734716
_cell_angle_gamma   90.00000000
_symmetry_Int_Tables_number   1
_chemical_formula_structural   IrPt3F24
_chemical_formula_sum   'Ir1 Pt3 F24'
_cell_volume   445.89318007
_cell_formula_units_Z   1
loop_
 _symmetry_equiv_pos_site_id
 _symmetry_equiv_pos_as_xyz
  1  'x, y, z'
loop_
 _atom_site_type_symbol
 _atom_site_label
 _atom_site_symmetry_multiplicity
 _atom_site_fract_x
 _atom_site_fract_y
 _atom_site_fract_z
 _atom_site_occupancy
  Ir  Ir0  1  0.093710  0.750000  0.626927  1
  Pt  Pt1  1  0.594019  0.250000  0.873738  1
  Pt  Pt2  1  0.905940  0.250000  0.372885  1
  Pt  Pt3  1  0.406790  0.750000  0.126622  1
  F  F4  1  0.249518  0.600847  0.518514  1
  F  F5  1  0.250500  0.901442  0.016914  1
  F  F6  1  0.938876  0.898920  0.735762  1
  F  F7  1  0.201947  0.250000  0.489456  1
  F  F8  1  0.750065  0.098891  0.983909  1
  F  F9  1  0.562443  0.901199  0.236623  1
  F  F10  1  0.297344  0.250000  0.990021  1
  F  F11  1  0.249518  0.899153  0.518514  1
  F  F12  1  0.748503  0.400347  0.483369  1
  F  F13  1  0.438269  0.400430  0.763168  1
  F  F14  1  0.750065  0.401109  0.983909  1
  F  F15  1  0.801804  0.750000  0.511594  1
  F  F16  1  0.703540  0.750000  0.010684  1
  F  F17  1  0.250500  0.598558  0.016914  1
  F  F18  1  0.438269  0.099570  0.763168  1
  F  F19  1  0.062094  0.400390  0.262093  1
  F  F20  1  0.608996  0.250000  0.256802  1
  F  F21  1  0.562443  0.598801  0.236623  1
  F  F22  1  0.889649  0.250000  0.756509  1
  F  F23  1  0.109252  0.750000  0.242235  1
  F  F24  1  0.062094  0.099610  0.262093  1
  F  F25  1  0.938876  0.601080  0.735762  1
  F  F26  1  0.386471  0.750000  0.741824  1
  F  F27  1  0.748503  0.099653  0.483369  1
