# generated using pymatgen
data_Sc11TcRu2Pt
_symmetry_space_group_name_H-M   'P 1'
_cell_length_a   9.53107799
_cell_length_b   9.52204438
_cell_length_c   9.49053433
_cell_angle_alpha   60.17231173
_cell_angle_beta   60.07774013
_cell_angle_gamma   59.74994021
_symmetry_Int_Tables_number   1
_chemical_formula_structural   Sc11TcRu2Pt
_chemical_formula_sum   'Sc22 Tc2 Ru4 Pt2'
_cell_volume   609.02467915
_cell_formula_units_Z   2
loop_
 _symmetry_equiv_pos_site_id
 _symmetry_equiv_pos_as_xyz
  1  'x, y, z'
loop_
 _atom_site_type_symbol
 _atom_site_label
 _atom_site_symmetry_multiplicity
 _atom_site_fract_x
 _atom_site_fract_y
 _atom_site_fract_z
 _atom_site_occupancy
  Sc  Sc0  1  0.803506  0.803506  0.196494  1
  Sc  Sc1  1  0.196618  0.803382  0.196618  1
  Sc  Sc2  1  0.802893  0.197107  0.197107  1
  Sc  Sc3  1  0.196494  0.196494  0.803506  1
  Sc  Sc4  1  0.803382  0.196618  0.803382  1
  Sc  Sc5  1  0.197107  0.802893  0.802893  1
  Sc  Sc6  1  0.617940  0.616880  0.151346  1
  Sc  Sc7  1  0.613836  0.151346  0.616880  1
  Sc  Sc8  1  0.151346  0.613836  0.617940  1
  Sc  Sc9  1  0.616880  0.617940  0.613836  1
  Sc  Sc10  1  0.382060  0.383120  0.848654  1
  Sc  Sc11  1  0.386164  0.848654  0.383120  1
  Sc  Sc12  1  0.848654  0.386164  0.382060  1
  Sc  Sc13  1  0.383120  0.382060  0.386164  1
  Sc  Sc14  1  0.841898  0.840277  0.470595  1
  Sc  Sc15  1  0.847228  0.470595  0.840277  1
  Sc  Sc16  1  0.470595  0.847228  0.841898  1
  Sc  Sc17  1  0.840277  0.841898  0.847228  1
  Sc  Sc18  1  0.158102  0.159723  0.529405  1
  Sc  Sc19  1  0.152772  0.529405  0.159723  1
  Sc  Sc20  1  0.529405  0.152772  0.158102  1
  Sc  Sc21  1  0.159723  0.158102  0.152772  1
  Tc  Tc22  1  0.500000  0.000000  0.500000  1
  Tc  Tc23  1  0.000000  0.500000  0.000000  1
  Ru  Ru24  1  0.000000  0.000000  0.000000  1
  Ru  Ru25  1  0.500000  0.500000  0.500000  1
  Ru  Ru26  1  0.000000  0.500000  0.500000  1
  Ru  Ru27  1  0.500000  0.000000  0.000000  1
  Pt  Pt28  1  0.000000  0.000000  0.500000  1
  Pt  Pt29  1  0.500000  0.500000  0.000000  1
