# generated using pymatgen
data_YHo7(PtI6)2
_symmetry_space_group_name_H-M   'P 1'
_cell_length_a   4.18853800
_cell_length_b   13.98718111
_cell_length_c   14.74610300
_cell_angle_alpha   90.00711119
_cell_angle_beta   90.00000000
_cell_angle_gamma   90.00000000
_symmetry_Int_Tables_number   1
_chemical_formula_structural   YHo7(PtI6)2
_chemical_formula_sum   'Y1 Ho7 Pt2 I12'
_cell_volume   863.91281817
_cell_formula_units_Z   1
loop_
 _symmetry_equiv_pos_site_id
 _symmetry_equiv_pos_as_xyz
  1  'x, y, z'
loop_
 _atom_site_type_symbol
 _atom_site_label
 _atom_site_symmetry_multiplicity
 _atom_site_fract_x
 _atom_site_fract_y
 _atom_site_fract_z
 _atom_site_occupancy
  Y  Y0  1  0.500000  0.118595  0.343981  1
  Ho  Ho1  1  0.500000  0.882316  0.655154  1
  Ho  Ho2  1  0.500000  0.617649  0.155095  1
  Ho  Ho3  1  0.500000  0.382506  0.844783  1
  Ho  Ho4  1  0.000000  0.104644  0.571675  1
  Ho  Ho5  1  0.000000  0.895009  0.428678  1
  Ho  Ho6  1  0.000000  0.604862  0.928409  1
  Ho  Ho7  1  0.000000  0.395538  0.071172  1
  Pt  Pt8  1  0.500000  0.999624  0.500495  1
  Pt  Pt9  1  0.500000  0.500198  0.999818  1
  I  I10  1  0.500000  0.248195  0.163766  1
  I  I11  1  0.500000  0.751983  0.835368  1
  I  I12  1  0.500000  0.747606  0.335645  1
  I  I13  1  0.500000  0.251789  0.664925  1
  I  I14  1  0.000000  0.264664  0.416784  1
  I  I15  1  0.000000  0.736148  0.584871  1
  I  I16  1  0.000000  0.763799  0.084784  1
  I  I17  1  0.000000  0.236331  0.914959  1
  I  I18  1  0.000000  0.999982  0.235506  1
  I  I19  1  0.000000  0.998599  0.764541  1
  I  I20  1  0.000000  0.501354  0.264304  1
  I  I21  1  0.000000  0.498607  0.735286  1
