# generated using pymatgen
data_YHo7Si12Ir3Rh
_symmetry_space_group_name_H-M   'P 1'
_cell_length_a   8.16762700
_cell_length_b   8.16762734
_cell_length_c   7.90208400
_cell_angle_alpha   90.00000000
_cell_angle_beta   90.00000000
_cell_angle_gamma   120.00001076
_symmetry_Int_Tables_number   1
_chemical_formula_structural   YHo7Si12Ir3Rh
_chemical_formula_sum   'Y1 Ho7 Si12 Ir3 Rh1'
_cell_volume   456.52444485
_cell_formula_units_Z   1
loop_
 _symmetry_equiv_pos_site_id
 _symmetry_equiv_pos_as_xyz
  1  'x, y, z'
loop_
 _atom_site_type_symbol
 _atom_site_label
 _atom_site_symmetry_multiplicity
 _atom_site_fract_x
 _atom_site_fract_y
 _atom_site_fract_z
 _atom_site_occupancy
  Y  Y0  1  0.000000  0.000000  0.248948  1
  Ho  Ho1  1  0.000000  0.000000  0.750354  1
  Ho  Ho2  1  0.509872  0.490128  0.250176  1
  Ho  Ho3  1  0.509872  0.019745  0.250176  1
  Ho  Ho4  1  0.980255  0.490128  0.250176  1
  Ho  Ho5  1  0.490709  0.509291  0.749827  1
  Ho  Ho6  1  0.490709  0.981418  0.749827  1
  Ho  Ho7  1  0.018582  0.509291  0.749827  1
  Si  Si8  1  0.166883  0.833117  0.499095  1
  Si  Si9  1  0.166883  0.333764  0.499095  1
  Si  Si10  1  0.666236  0.833117  0.499095  1
  Si  Si11  1  0.833199  0.166801  0.500905  1
  Si  Si12  1  0.833199  0.666400  0.500905  1
  Si  Si13  1  0.333600  0.166801  0.500905  1
  Si  Si14  1  0.833312  0.166688  0.999139  1
  Si  Si15  1  0.833312  0.666625  0.999139  1
  Si  Si16  1  0.333375  0.166688  0.999139  1
  Si  Si17  1  0.167327  0.832673  0.999794  1
  Si  Si18  1  0.167327  0.334655  0.999794  1
  Si  Si19  1  0.665345  0.832673  0.999794  1
  Ir  Ir20  1  0.333333  0.666667  0.468189  1
  Ir  Ir21  1  0.666667  0.333333  0.533602  1
  Ir  Ir22  1  0.666667  0.333333  0.965211  1
  Rh  Rh23  1  0.333333  0.666667  0.036888  1
