# generated using pymatgen
data_Ce4Th(ReB3)2
_symmetry_space_group_name_H-M   'P 1'
_cell_length_a   5.49984526
_cell_length_b   5.49984592
_cell_length_c   8.67346195
_cell_angle_alpha   71.51536739
_cell_angle_beta   71.51537798
_cell_angle_gamma   59.99999326
_symmetry_Int_Tables_number   1
_chemical_formula_structural   Ce4Th(ReB3)2
_chemical_formula_sum   'Ce4 Th1 Re2 B6'
_cell_volume   211.43459918
_cell_formula_units_Z   1
loop_
 _symmetry_equiv_pos_site_id
 _symmetry_equiv_pos_as_xyz
  1  'x, y, z'
loop_
 _atom_site_type_symbol
 _atom_site_label
 _atom_site_symmetry_multiplicity
 _atom_site_fract_x
 _atom_site_fract_y
 _atom_site_fract_z
 _atom_site_occupancy
  Ce  Ce0  1  0.748882  0.748882  0.753352  1
  Ce  Ce1  1  0.251118  0.251118  0.246648  1
  Ce  Ce2  1  0.584644  0.584644  0.246068  1
  Ce  Ce3  1  0.415356  0.415356  0.753932  1
  Th  Th4  1  0.000000  0.000000  0.000000  1
  Re  Re5  1  0.888519  0.888519  0.334443  1
  Re  Re6  1  0.111481  0.111481  0.665558  1
  B  B7  1  0.500000  0.172312  0.500000  1
  B  B8  1  0.827688  0.500000  0.500000  1
  B  B9  1  0.172312  0.827688  0.500000  1
  B  B10  1  0.172312  0.500000  0.500000  1
  B  B11  1  0.827688  0.172312  0.500000  1
  B  B12  1  0.500000  0.827688  0.500000  1
