# generated using pymatgen
data_Ho4Sc4Hg3Os
_symmetry_space_group_name_H-M   'P 1'
_cell_length_a   9.81564300
_cell_length_b   9.81564308
_cell_length_c   7.15043200
_cell_angle_alpha   90.00000000
_cell_angle_beta   90.00000000
_cell_angle_gamma   120.00000309
_symmetry_Int_Tables_number   1
_chemical_formula_structural   Ho4Sc4Hg3Os
_chemical_formula_sum   'Ho8 Sc8 Hg6 Os2'
_cell_volume   596.62357727
_cell_formula_units_Z   2
loop_
 _symmetry_equiv_pos_site_id
 _symmetry_equiv_pos_as_xyz
  1  'x, y, z'
loop_
 _atom_site_type_symbol
 _atom_site_label
 _atom_site_symmetry_multiplicity
 _atom_site_fract_x
 _atom_site_fract_y
 _atom_site_fract_z
 _atom_site_occupancy
  Ho  Ho0  1  0.464911  0.535089  0.210325  1
  Ho  Ho1  1  0.070176  0.535089  0.210325  1
  Ho  Ho2  1  0.464911  0.929824  0.210325  1
  Ho  Ho3  1  0.535089  0.464911  0.710325  1
  Ho  Ho4  1  0.929824  0.464911  0.710325  1
  Ho  Ho5  1  0.535089  0.070176  0.710325  1
  Ho  Ho6  1  0.000000  0.000000  0.233980  1
  Ho  Ho7  1  0.000000  0.000000  0.733980  1
  Sc  Sc8  1  0.175937  0.824063  0.518793  1
  Sc  Sc9  1  0.648125  0.824063  0.518793  1
  Sc  Sc10  1  0.175937  0.351875  0.518793  1
  Sc  Sc11  1  0.824063  0.175937  0.018793  1
  Sc  Sc12  1  0.351875  0.175937  0.018793  1
  Sc  Sc13  1  0.824063  0.648125  0.018793  1
  Sc  Sc14  1  0.333333  0.666667  0.819326  1
  Sc  Sc15  1  0.666667  0.333333  0.319326  1
  Hg  Hg16  1  0.166466  0.833534  0.947145  1
  Hg  Hg17  1  0.667067  0.833534  0.947145  1
  Hg  Hg18  1  0.166466  0.332933  0.947145  1
  Hg  Hg19  1  0.833534  0.166466  0.447145  1
  Hg  Hg20  1  0.332933  0.166466  0.447145  1
  Hg  Hg21  1  0.833534  0.667067  0.447145  1
  Os  Os22  1  0.333333  0.666667  0.454927  1
  Os  Os23  1  0.666667  0.333333  0.954927  1
