# generated using pymatgen
data_Nd3ZrCo7NiP6
_symmetry_space_group_name_H-M   'P 1'
_cell_length_a   3.78828300
_cell_length_b   10.84758700
_cell_length_c   12.64151000
_cell_angle_alpha   90.00000000
_cell_angle_beta   90.00000000
_cell_angle_gamma   90.00000000
_symmetry_Int_Tables_number   1
_chemical_formula_structural   Nd3ZrCo7NiP6
_chemical_formula_sum   'Nd6 Zr2 Co14 Ni2 P12'
_cell_volume   519.48679144
_cell_formula_units_Z   2
loop_
 _symmetry_equiv_pos_site_id
 _symmetry_equiv_pos_as_xyz
  1  'x, y, z'
loop_
 _atom_site_type_symbol
 _atom_site_label
 _atom_site_symmetry_multiplicity
 _atom_site_fract_x
 _atom_site_fract_y
 _atom_site_fract_z
 _atom_site_occupancy
  Nd  Nd0  1  0.000000  0.500000  0.527580  1
  Nd  Nd1  1  0.500000  0.000000  0.472420  1
  Nd  Nd2  1  0.500000  0.818915  0.204079  1
  Nd  Nd3  1  0.500000  0.181085  0.204079  1
  Nd  Nd4  1  0.000000  0.681085  0.795921  1
  Nd  Nd5  1  0.000000  0.318915  0.795921  1
  Zr  Zr6  1  0.500000  0.500000  0.155836  1
  Zr  Zr7  1  0.000000  0.000000  0.844164  1
  Co  Co8  1  0.000000  0.500000  0.986326  1
  Co  Co9  1  0.500000  0.000000  0.013674  1
  Co  Co10  1  0.500000  0.332538  0.993541  1
  Co  Co11  1  0.500000  0.667462  0.993541  1
  Co  Co12  1  0.000000  0.167462  0.006459  1
  Co  Co13  1  0.000000  0.832538  0.006459  1
  Co  Co14  1  0.500000  0.295648  0.433313  1
  Co  Co15  1  0.500000  0.704352  0.433313  1
  Co  Co16  1  0.000000  0.204352  0.566687  1
  Co  Co17  1  0.000000  0.795648  0.566687  1
  Co  Co18  1  0.500000  0.879961  0.701206  1
  Co  Co19  1  0.500000  0.120039  0.701206  1
  Co  Co20  1  0.000000  0.620039  0.298794  1
  Co  Co21  1  0.000000  0.379961  0.298794  1
  Ni  Ni22  1  0.500000  0.500000  0.703699  1
  Ni  Ni23  1  0.000000  0.000000  0.296301  1
  P  P24  1  0.500000  0.500000  0.888160  1
  P  P25  1  0.000000  0.000000  0.111840  1
  P  P26  1  0.500000  0.500000  0.358572  1
  P  P27  1  0.000000  0.000000  0.641428  1
  P  P28  1  0.500000  0.303345  0.612945  1
  P  P29  1  0.500000  0.696655  0.612945  1
  P  P30  1  0.000000  0.196655  0.387055  1
  P  P31  1  0.000000  0.803345  0.387055  1
  P  P32  1  0.500000  0.840546  0.899036  1
  P  P33  1  0.500000  0.159454  0.899036  1
  P  P34  1  0.000000  0.659454  0.100964  1
  P  P35  1  0.000000  0.340546  0.100964  1
