# generated using pymatgen
data_Mn3Tc9N16
_symmetry_space_group_name_H-M   'P 1'
_cell_length_a   5.04331230
_cell_length_b   5.86310200
_cell_length_c   10.02881019
_cell_angle_alpha   90.00000000
_cell_angle_beta   89.95654130
_cell_angle_gamma   90.00000000
_symmetry_Int_Tables_number   1
_chemical_formula_structural   Mn3Tc9N16
_chemical_formula_sum   'Mn3 Tc9 N16'
_cell_volume   296.54636049
_cell_formula_units_Z   1
loop_
 _symmetry_equiv_pos_site_id
 _symmetry_equiv_pos_as_xyz
  1  'x, y, z'
loop_
 _atom_site_type_symbol
 _atom_site_label
 _atom_site_symmetry_multiplicity
 _atom_site_fract_x
 _atom_site_fract_y
 _atom_site_fract_z
 _atom_site_occupancy
  Mn  Mn0  1  0.898184  0.750000  0.578967  1
  Mn  Mn1  1  0.391346  0.250000  0.913743  1
  Mn  Mn2  1  0.108775  0.250000  0.416744  1
  Tc  Tc3  1  0.997824  0.477626  0.992426  1
  Tc  Tc4  1  0.503272  0.021550  0.504933  1
  Tc  Tc5  1  0.997824  0.022374  0.992426  1
  Tc  Tc6  1  0.503272  0.478450  0.504933  1
  Tc  Tc7  1  0.990992  0.750000  0.262345  1
  Tc  Tc8  1  0.509468  0.750000  0.736925  1
  Tc  Tc9  1  0.005744  0.250000  0.759016  1
  Tc  Tc10  1  0.492727  0.250000  0.258700  1
  Tc  Tc11  1  0.593577  0.750000  0.082472  1
  N  N12  1  0.216866  0.750000  0.085840  1
  N  N13  1  0.256517  0.750000  0.583909  1
  N  N14  1  0.741485  0.250000  0.912278  1
  N  N15  1  0.753952  0.250000  0.414690  1
  N  N16  1  0.741168  0.750000  0.420113  1
  N  N17  1  0.758365  0.750000  0.911643  1
  N  N18  1  0.233309  0.250000  0.587283  1
  N  N19  1  0.268573  0.250000  0.083181  1
  N  N20  1  0.747005  0.492888  0.170286  1
  N  N21  1  0.766983  0.002266  0.665681  1
  N  N22  1  0.267545  0.996749  0.830386  1
  N  N23  1  0.236847  0.500528  0.332362  1
  N  N24  1  0.267545  0.503251  0.830386  1
  N  N25  1  0.236847  0.999472  0.332362  1
  N  N26  1  0.747005  0.007112  0.170286  1
  N  N27  1  0.766983  0.497734  0.665681  1
