# generated using pymatgen
data_Sc8Ti9Nb(Si8Ru)2
_symmetry_space_group_name_H-M   'P 1'
_cell_length_a   6.60502445
_cell_length_b   6.79983320
_cell_length_c   12.98175800
_cell_angle_alpha   90.00000000
_cell_angle_beta   90.00000000
_cell_angle_gamma   90.08486746
_symmetry_Int_Tables_number   1
_chemical_formula_structural   Sc8Ti9Nb(Si8Ru)2
_chemical_formula_sum   'Sc8 Ti9 Nb1 Si16 Ru2'
_cell_volume   583.04989547
_cell_formula_units_Z   1
loop_
 _symmetry_equiv_pos_site_id
 _symmetry_equiv_pos_as_xyz
  1  'x, y, z'
loop_
 _atom_site_type_symbol
 _atom_site_label
 _atom_site_symmetry_multiplicity
 _atom_site_fract_x
 _atom_site_fract_y
 _atom_site_fract_z
 _atom_site_occupancy
  Sc  Sc0  1  0.500251  0.673230  0.593289  1
  Sc  Sc1  1  0.998958  0.826611  0.905596  1
  Sc  Sc2  1  0.501473  0.325470  0.094690  1
  Sc  Sc3  1  0.998833  0.172494  0.406180  1
  Sc  Sc4  1  0.501473  0.325470  0.405310  1
  Sc  Sc5  1  0.998833  0.172494  0.093820  1
  Sc  Sc6  1  0.500251  0.673230  0.906711  1
  Sc  Sc7  1  0.998958  0.826611  0.594404  1
  Ti  Ti8  1  0.667634  0.171466  0.626844  1
  Ti  Ti9  1  0.165300  0.329406  0.874558  1
  Ti  Ti10  1  0.335006  0.830316  0.124750  1
  Ti  Ti11  1  0.830237  0.672083  0.374345  1
  Ti  Ti12  1  0.335006  0.830316  0.375250  1
  Ti  Ti13  1  0.830237  0.672083  0.125655  1
  Ti  Ti14  1  0.667634  0.171466  0.873156  1
  Ti  Ti15  1  0.165300  0.329406  0.625442  1
  Ti  Ti16  1  0.837629  0.491134  0.750000  1
  Nb  Nb17  1  0.663458  0.992577  0.250000  1
  Si  Si18  1  0.666768  0.964039  0.461496  1
  Si  Si19  1  0.167010  0.537759  0.042519  1
  Si  Si20  1  0.332868  0.038389  0.956948  1
  Si  Si21  1  0.834211  0.464444  0.539981  1
  Si  Si22  1  0.332868  0.038389  0.543052  1
  Si  Si23  1  0.834211  0.464444  0.960019  1
  Si  Si24  1  0.666768  0.964039  0.038504  1
  Si  Si25  1  0.167010  0.537759  0.457481  1
  Si  Si26  1  0.462506  0.383071  0.750000  1
  Si  Si27  1  0.970064  0.115170  0.750000  1
  Si  Si28  1  0.528520  0.613107  0.250000  1
  Si  Si29  1  0.041299  0.878996  0.250000  1
  Si  Si30  1  0.700266  0.862380  0.750000  1
  Si  Si31  1  0.204310  0.639906  0.750000  1
  Si  Si32  1  0.292881  0.141456  0.250000  1
  Si  Si33  1  0.801334  0.366923  0.250000  1
  Ru  Ru34  1  0.337541  0.001767  0.750000  1
  Ru  Ru35  1  0.163088  0.502101  0.250000  1
