# generated using pymatgen
data_LaPr3(HgPd2)2
_symmetry_space_group_name_H-M   'P 1'
_cell_length_a   7.87994777
_cell_length_b   7.87994810
_cell_length_c   3.95895300
_cell_angle_alpha   90.00000000
_cell_angle_beta   90.00000000
_cell_angle_gamma   90.46953293
_symmetry_Int_Tables_number   1
_chemical_formula_structural   LaPr3(HgPd2)2
_chemical_formula_sum   'La1 Pr3 Hg2 Pd4'
_cell_volume   245.81730836
_cell_formula_units_Z   1
loop_
 _symmetry_equiv_pos_site_id
 _symmetry_equiv_pos_as_xyz
  1  'x, y, z'
loop_
 _atom_site_type_symbol
 _atom_site_label
 _atom_site_symmetry_multiplicity
 _atom_site_fract_x
 _atom_site_fract_y
 _atom_site_fract_z
 _atom_site_occupancy
  La  La0  1  0.322611  0.822611  0.500000  1
  Pr  Pr1  1  0.677540  0.177540  0.500000  1
  Pr  Pr2  1  0.176428  0.322444  0.500000  1
  Pr  Pr3  1  0.822444  0.676428  0.500000  1
  Hg  Hg4  1  0.998112  0.001233  0.000000  1
  Hg  Hg5  1  0.501233  0.498112  0.000000  1
  Pd  Pd6  1  0.374359  0.124649  0.000000  1
  Pd  Pd7  1  0.127024  0.627024  0.000000  1
  Pd  Pd8  1  0.624649  0.874359  0.000000  1
  Pd  Pd9  1  0.875600  0.375600  0.000000  1
