# generated using pymatgen
data_Ta3NbS8
_symmetry_space_group_name_H-M   'P 1'
_cell_length_a   13.05066084
_cell_length_b   13.05066079
_cell_length_c   5.76186603
_cell_angle_alpha   85.73301248
_cell_angle_beta   85.73301378
_cell_angle_gamma   14.75919880
_symmetry_Int_Tables_number   1
_chemical_formula_structural   Ta3NbS8
_chemical_formula_sum   'Ta3 Nb1 S8'
_cell_volume   249.30379778
_cell_formula_units_Z   1
loop_
 _symmetry_equiv_pos_site_id
 _symmetry_equiv_pos_as_xyz
  1  'x, y, z'
loop_
 _atom_site_type_symbol
 _atom_site_label
 _atom_site_symmetry_multiplicity
 _atom_site_fract_x
 _atom_site_fract_y
 _atom_site_fract_z
 _atom_site_occupancy
  Ta  Ta0  1  0.375051  0.375051  0.538625  1
  Ta  Ta1  1  0.624965  0.624965  0.789336  1
  Ta  Ta2  1  0.875047  0.875047  0.038616  1
  Nb  Nb3  1  0.124945  0.124945  0.285566  1
  S  S4  1  0.685963  0.685963  0.104808  1
  S  S5  1  0.935616  0.935616  0.356149  1
  S  S6  1  0.185478  0.185478  0.608358  1
  S  S7  1  0.435608  0.435608  0.856167  1
  S  S8  1  0.814448  0.814448  0.397024  1
  S  S9  1  0.064413  0.064413  0.649190  1
  S  S10  1  0.314455  0.314455  0.896990  1
  S  S11  1  0.563911  0.563911  0.145870  1
