# generated using pymatgen
data_La2HoEr(Zn5Sn)2
_symmetry_space_group_name_H-M   'P 1'
_cell_length_a   8.49045607
_cell_length_b   8.49045629
_cell_length_c   9.07752900
_cell_angle_alpha   90.00000000
_cell_angle_beta   90.00000000
_cell_angle_gamma   149.65402996
_symmetry_Int_Tables_number   1
_chemical_formula_structural   La2HoEr(Zn5Sn)2
_chemical_formula_sum   'La2 Ho1 Er1 Zn10 Sn2'
_cell_volume   330.60574135
_cell_formula_units_Z   1
loop_
 _symmetry_equiv_pos_site_id
 _symmetry_equiv_pos_as_xyz
  1  'x, y, z'
loop_
 _atom_site_type_symbol
 _atom_site_label
 _atom_site_symmetry_multiplicity
 _atom_site_fract_x
 _atom_site_fract_y
 _atom_site_fract_z
 _atom_site_occupancy
  La  La0  1  0.000065  0.999935  0.499870  1
  La  La1  1  0.000065  0.999935  0.000130  1
  Ho  Ho2  1  0.793881  0.206119  0.750000  1
  Er  Er3  1  0.206180  0.793820  0.250000  1
  Zn  Zn4  1  0.812007  0.187993  0.389280  1
  Zn  Zn5  1  0.187908  0.812092  0.610438  1
  Zn  Zn6  1  0.812007  0.187993  0.110720  1
  Zn  Zn7  1  0.187908  0.812092  0.889562  1
  Zn  Zn8  1  0.659477  0.340523  0.483480  1
  Zn  Zn9  1  0.340504  0.659496  0.516276  1
  Zn  Zn10  1  0.659477  0.340523  0.016520  1
  Zn  Zn11  1  0.340504  0.659496  0.983724  1
  Zn  Zn12  1  0.394753  0.605247  0.250000  1
  Zn  Zn13  1  0.605166  0.394834  0.750000  1
  Sn  Sn14  1  0.559846  0.440154  0.250000  1
  Sn  Sn15  1  0.440249  0.559751  0.750000  1
