# generated using pymatgen
data_CaTl2B2Pt7
_symmetry_space_group_name_H-M   'P 1'
_cell_length_a   8.26780033
_cell_length_b   8.26780027
_cell_length_c   8.26780200
_cell_angle_alpha   38.85513933
_cell_angle_beta   38.85515092
_cell_angle_gamma   38.85513845
_symmetry_Int_Tables_number   1
_chemical_formula_structural   CaTl2B2Pt7
_chemical_formula_sum   'Ca1 Tl2 B2 Pt7'
_cell_volume   199.98104608
_cell_formula_units_Z   1
loop_
 _symmetry_equiv_pos_site_id
 _symmetry_equiv_pos_as_xyz
  1  'x, y, z'
loop_
 _atom_site_type_symbol
 _atom_site_label
 _atom_site_symmetry_multiplicity
 _atom_site_fract_x
 _atom_site_fract_y
 _atom_site_fract_z
 _atom_site_occupancy
  Ca  Ca0  1  0.000000  0.000000  0.000000  1
  Tl  Tl1  1  0.854036  0.854036  0.854036  1
  Tl  Tl2  1  0.145964  0.145964  0.145964  1
  B  B3  1  0.667227  0.667227  0.667227  1
  B  B4  1  0.332773  0.332773  0.332773  1
  Pt  Pt5  1  0.435763  0.932068  0.435763  1
  Pt  Pt6  1  0.435763  0.435763  0.932068  1
  Pt  Pt7  1  0.932068  0.435763  0.435763  1
  Pt  Pt8  1  0.564237  0.067932  0.564237  1
  Pt  Pt9  1  0.564237  0.564237  0.067932  1
  Pt  Pt10  1  0.067932  0.564237  0.564237  1
  Pt  Pt11  1  0.500000  0.500000  0.500000  1
