# generated using pymatgen
data_Tb11Nd8ErSn16
_symmetry_space_group_name_H-M   'P 1'
_cell_length_a   8.11817000
_cell_length_b   8.27462108
_cell_length_c   15.62705900
_cell_angle_alpha   90.00000000
_cell_angle_beta   90.00000000
_cell_angle_gamma   90.00789368
_symmetry_Int_Tables_number   1
_chemical_formula_structural   Tb11Nd8ErSn16
_chemical_formula_sum   'Tb11 Nd8 Er1 Sn16'
_cell_volume   1049.74424980
_cell_formula_units_Z   1
loop_
 _symmetry_equiv_pos_site_id
 _symmetry_equiv_pos_as_xyz
  1  'x, y, z'
loop_
 _atom_site_type_symbol
 _atom_site_label
 _atom_site_symmetry_multiplicity
 _atom_site_fract_x
 _atom_site_fract_y
 _atom_site_fract_z
 _atom_site_occupancy
  Tb  Tb0  1  0.365315  0.835921  0.877902  1
  Tb  Tb1  1  0.865288  0.664095  0.622200  1
  Tb  Tb2  1  0.634496  0.163944  0.377815  1
  Tb  Tb3  1  0.134823  0.335840  0.122193  1
  Tb  Tb4  1  0.634496  0.163944  0.122185  1
  Tb  Tb5  1  0.134823  0.335840  0.377807  1
  Tb  Tb6  1  0.365315  0.835921  0.622098  1
  Tb  Tb7  1  0.865288  0.664095  0.877800  1
  Tb  Tb8  1  0.197805  0.502828  0.750000  1
  Tb  Tb9  1  0.697777  0.997224  0.750000  1
  Tb  Tb10  1  0.802287  0.497308  0.250000  1
  Nd  Nd11  1  0.518022  0.320800  0.902335  1
  Nd  Nd12  1  0.017948  0.179146  0.597623  1
  Nd  Nd13  1  0.482002  0.679194  0.402327  1
  Nd  Nd14  1  0.982038  0.820905  0.097628  1
  Nd  Nd15  1  0.482002  0.679194  0.097673  1
  Nd  Nd16  1  0.982038  0.820905  0.402372  1
  Nd  Nd17  1  0.518022  0.320800  0.597665  1
  Nd  Nd18  1  0.017948  0.179146  0.902377  1
  Er  Er19  1  0.301944  0.002875  0.250000  1
  Sn  Sn20  1  0.297702  0.038344  0.042363  1
  Sn  Sn21  1  0.797722  0.461595  0.458056  1
  Sn  Sn22  1  0.702212  0.961496  0.541932  1
  Sn  Sn23  1  0.202181  0.538441  0.958089  1
  Sn  Sn24  1  0.702212  0.961496  0.958068  1
  Sn  Sn25  1  0.202181  0.538441  0.541911  1
  Sn  Sn26  1  0.297702  0.038344  0.457637  1
  Sn  Sn27  1  0.797722  0.461595  0.041944  1
  Sn  Sn28  1  0.564335  0.621016  0.750000  1
  Sn  Sn29  1  0.064469  0.879052  0.750000  1
  Sn  Sn30  1  0.435363  0.378516  0.250000  1
  Sn  Sn31  1  0.936635  0.120688  0.250000  1
  Sn  Sn32  1  0.325746  0.142994  0.750000  1
  Sn  Sn33  1  0.825933  0.356859  0.750000  1
  Sn  Sn34  1  0.673830  0.857172  0.250000  1
  Sn  Sn35  1  0.174375  0.644021  0.250000  1
