# generated using pymatgen
data_Lu4Ge6Ir7
_symmetry_space_group_name_H-M   'P 1'
_cell_length_a   7.20747899
_cell_length_b   7.20747975
_cell_length_c   7.20748000
_cell_angle_alpha   109.47122696
_cell_angle_beta   109.47122911
_cell_angle_gamma   109.47121797
_symmetry_Int_Tables_number   1
_chemical_formula_structural   Lu4Ge6Ir7
_chemical_formula_sum   'Lu4 Ge6 Ir7'
_cell_volume   288.22278210
_cell_formula_units_Z   1
loop_
 _symmetry_equiv_pos_site_id
 _symmetry_equiv_pos_as_xyz
  1  'x, y, z'
loop_
 _atom_site_type_symbol
 _atom_site_label
 _atom_site_symmetry_multiplicity
 _atom_site_fract_x
 _atom_site_fract_y
 _atom_site_fract_z
 _atom_site_occupancy
  Lu  Lu0  1  0.500001  0.000000  0.000000  1
  Lu  Lu1  1  0.000000  0.500001  0.000000  1
  Lu  Lu2  1  0.000000  0.000000  0.500001  1
  Lu  Lu3  1  0.500001  0.500001  0.500001  1
  Ge  Ge4  1  0.314571  0.314571  0.000000  1
  Ge  Ge5  1  0.685430  0.685430  0.000000  1
  Ge  Ge6  1  0.314571  0.000000  0.314571  1
  Ge  Ge7  1  0.000000  0.314571  0.314571  1
  Ge  Ge8  1  0.685430  0.000000  0.685430  1
  Ge  Ge9  1  0.000000  0.685430  0.685430  1
  Ir  Ir10  1  0.000000  0.000000  0.000000  1
  Ir  Ir11  1  0.750000  0.500000  0.250000  1
  Ir  Ir12  1  0.500000  0.750000  0.250000  1
  Ir  Ir13  1  0.750000  0.250000  0.500000  1
  Ir  Ir14  1  0.250000  0.750000  0.500000  1
  Ir  Ir15  1  0.500000  0.250000  0.750000  1
  Ir  Ir16  1  0.250000  0.500000  0.750000  1
