# generated using pymatgen
data_Ho4Zr3PtF28
_symmetry_space_group_name_H-M   'P 1'
_cell_length_a   5.68402941
_cell_length_b   9.02266939
_cell_length_c   12.15852305
_cell_angle_alpha   62.47919900
_cell_angle_beta   90.07265274
_cell_angle_gamma   90.04389340
_symmetry_Int_Tables_number   1
_chemical_formula_structural   Ho4Zr3PtF28
_chemical_formula_sum   'Ho4 Zr3 Pt1 F28'
_cell_volume   552.99172923
_cell_formula_units_Z   1
loop_
 _symmetry_equiv_pos_site_id
 _symmetry_equiv_pos_as_xyz
  1  'x, y, z'
loop_
 _atom_site_type_symbol
 _atom_site_label
 _atom_site_symmetry_multiplicity
 _atom_site_fract_x
 _atom_site_fract_y
 _atom_site_fract_z
 _atom_site_occupancy
  Ho  Ho0  1  0.257795  0.816074  0.268324  1
  Ho  Ho1  1  0.744060  0.186300  0.732571  1
  Ho  Ho2  1  0.757861  0.182468  0.235234  1
  Ho  Ho3  1  0.241106  0.816810  0.760650  1
  Zr  Zr4  1  0.755972  0.726705  0.043464  1
  Zr  Zr5  1  0.244711  0.275100  0.954845  1
  Zr  Zr6  1  0.256214  0.274895  0.455815  1
  Pt  Pt7  1  0.739868  0.727240  0.544398  1
  F  F8  1  0.939167  0.705051  0.420221  1
  F  F9  1  0.038801  0.289805  0.582467  1
  F  F10  1  0.463568  0.290960  0.081485  1
  F  F11  1  0.535256  0.710560  0.917492  1
  F  F12  1  0.481446  0.733040  0.149455  1
  F  F13  1  0.521291  0.267993  0.851018  1
  F  F14  1  0.977137  0.266450  0.353146  1
  F  F15  1  0.022469  0.728114  0.638314  1
  F  F16  1  0.967661  0.748181  0.173269  1
  F  F17  1  0.037621  0.251065  0.825763  1
  F  F18  1  0.466114  0.253817  0.325925  1
  F  F19  1  0.545394  0.742060  0.674194  1
  F  F20  1  0.776231  0.473179  0.140996  1
  F  F21  1  0.221934  0.528443  0.856380  1
  F  F22  1  0.268121  0.529054  0.359795  1
  F  F23  1  0.729891  0.481401  0.642425  1
  F  F24  1  0.946132  0.274761  0.050439  1
  F  F25  1  0.052766  0.726115  0.947269  1
  F  F26  1  0.449656  0.719011  0.457101  1
  F  F27  1  0.555464  0.280588  0.548107  1
  F  F28  1  0.741767  0.973296  0.450358  1
  F  F29  1  0.261179  0.021638  0.557107  1
  F  F30  1  0.242045  0.022227  0.061203  1
  F  F31  1  0.758508  0.979690  0.939839  1
  F  F32  1  0.575178  0.970711  0.236216  1
  F  F33  1  0.426021  0.027321  0.763290  1
  F  F34  1  0.076560  0.026933  0.269750  1
  F  F35  1  0.925035  0.972945  0.731675  1
