# generated using pymatgen
data_Hf4AlGa(SbPt2)2
_symmetry_space_group_name_H-M   'P 1'
_cell_length_a   6.30510709
_cell_length_b   6.30510591
_cell_length_c   7.71478477
_cell_angle_alpha   65.88070144
_cell_angle_beta   65.88070768
_cell_angle_gamma   89.99999813
_symmetry_Int_Tables_number   1
_chemical_formula_structural   Hf4AlGa(SbPt2)2
_chemical_formula_sum   'Hf4 Al1 Ga1 Sb2 Pt4'
_cell_volume   250.29699571
_cell_formula_units_Z   1
loop_
 _symmetry_equiv_pos_site_id
 _symmetry_equiv_pos_as_xyz
  1  'x, y, z'
loop_
 _atom_site_type_symbol
 _atom_site_label
 _atom_site_symmetry_multiplicity
 _atom_site_fract_x
 _atom_site_fract_y
 _atom_site_fract_z
 _atom_site_occupancy
  Hf  Hf0  1  0.495133  0.995133  0.009735  1
  Hf  Hf1  1  0.755606  0.755606  0.488788  1
  Hf  Hf2  1  0.244394  0.244394  0.511213  1
  Hf  Hf3  1  0.004868  0.504868  0.990265  1
  Al  Al4  1  0.250001  0.750001  0.499999  1
  Ga  Ga5  1  0.000000  0.000000  0.000000  1
  Sb  Sb6  1  0.500000  0.500000  0.000000  1
  Sb  Sb7  1  0.750001  0.250001  0.499999  1
  Pt  Pt8  1  0.620332  0.115520  0.252546  1
  Pt  Pt9  1  0.127122  0.631933  0.252548  1
  Pt  Pt10  1  0.884481  0.872879  0.747453  1
  Pt  Pt11  1  0.368066  0.379668  0.747453  1
