# generated using pymatgen
data_YbDy3Al24Pt8Au
_symmetry_space_group_name_H-M   'P 1'
_cell_length_a   7.54377474
_cell_length_b   7.56384458
_cell_length_c   13.20035585
_cell_angle_alpha   84.58930771
_cell_angle_beta   79.10978234
_cell_angle_gamma   59.94908677
_symmetry_Int_Tables_number   1
_chemical_formula_structural   YbDy3Al24Pt8Au
_chemical_formula_sum   'Yb1 Dy3 Al24 Pt8 Au1'
_cell_volume   640.22409003
_cell_formula_units_Z   1
loop_
 _symmetry_equiv_pos_site_id
 _symmetry_equiv_pos_as_xyz
  1  'x, y, z'
loop_
 _atom_site_type_symbol
 _atom_site_label
 _atom_site_symmetry_multiplicity
 _atom_site_fract_x
 _atom_site_fract_y
 _atom_site_fract_z
 _atom_site_occupancy
  Yb  Yb0  1  0.392620  0.169151  0.808495  1
  Dy  Dy1  1  0.605858  0.832092  0.192086  1
  Dy  Dy2  1  0.734175  0.498694  0.808793  1
  Dy  Dy3  1  0.266780  0.500832  0.191320  1
  Al  Al4  1  0.683176  0.834421  0.945542  1
  Al  Al5  1  0.315508  0.165984  0.055077  1
  Al  Al6  1  0.146786  0.838821  0.559815  1
  Al  Al7  1  0.853942  0.167448  0.436893  1
  Al  Al8  1  0.487674  0.159747  0.557771  1
  Al  Al9  1  0.520531  0.833474  0.439981  1
  Al  Al10  1  0.217571  0.165011  0.329073  1
  Al  Al11  1  0.777119  0.839992  0.672478  1
  Al  Al12  1  0.441035  0.506173  0.672620  1
  Al  Al13  1  0.562902  0.493569  0.328966  1
  Al  Al14  1  0.109632  0.154045  0.671741  1
  Al  Al15  1  0.890210  0.840161  0.330163  1
  Al  Al16  1  0.353030  0.498842  0.945378  1
  Al  Al17  1  0.647105  0.500681  0.055933  1
  Al  Al18  1  0.015499  0.167285  0.954039  1
  Al  Al19  1  0.984307  0.832444  0.047323  1
  Al  Al20  1  0.188122  0.499179  0.437044  1
  Al  Al21  1  0.806696  0.500640  0.557250  1
  Al  Al22  1  0.734431  0.163955  0.183541  1
  Al  Al23  1  0.266866  0.834595  0.816723  1
  Al  Al24  1  0.058992  0.634758  0.818347  1
  Al  Al25  1  0.938668  0.368817  0.184853  1
  Al  Al26  1  0.855201  0.042778  0.816319  1
  Al  Al27  1  0.144768  0.958131  0.183947  1
  Pt  Pt28  1  0.880058  0.508172  0.361289  1
  Pt  Pt29  1  0.657465  0.171280  0.000272  1
  Pt  Pt30  1  0.342453  0.828172  0.000357  1
  Pt  Pt31  1  0.537572  0.166942  0.361313  1
  Pt  Pt32  1  0.462309  0.833007  0.637608  1
  Pt  Pt33  1  0.779960  0.174926  0.636060  1
  Pt  Pt34  1  0.221158  0.824648  0.362637  1
  Pt  Pt35  1  0.999393  0.500305  0.000952  1
  Au  Au36  1  0.120425  0.490830  0.638004  1
