# generated using pymatgen
data_Ba5(AgAu2)2
_symmetry_space_group_name_H-M   'P 1'
_cell_length_a   17.41509762
_cell_length_b   17.41509655
_cell_length_c   4.69554000
_cell_angle_alpha   90.00000000
_cell_angle_beta   90.00000000
_cell_angle_gamma   164.81210476
_symmetry_Int_Tables_number   1
_chemical_formula_structural   Ba5(AgAu2)2
_chemical_formula_sum   'Ba5 Ag2 Au4'
_cell_volume   373.09056021
_cell_formula_units_Z   1
loop_
 _symmetry_equiv_pos_site_id
 _symmetry_equiv_pos_as_xyz
  1  'x, y, z'
loop_
 _atom_site_type_symbol
 _atom_site_label
 _atom_site_symmetry_multiplicity
 _atom_site_fract_x
 _atom_site_fract_y
 _atom_site_fract_z
 _atom_site_occupancy
  Ba  Ba0  1  0.998659  0.001341  0.000000  1
  Ba  Ba1  1  0.615506  0.384494  0.000000  1
  Ba  Ba2  1  0.384949  0.615051  0.000000  1
  Ba  Ba3  1  0.799405  0.200594  0.500000  1
  Ba  Ba4  1  0.198565  0.801434  0.500000  1
  Ag  Ag5  1  0.910062  0.089938  0.500000  1
  Ag  Ag6  1  0.541287  0.458712  0.500000  1
  Au  Au7  1  0.719585  0.280415  0.000000  1
  Au  Au8  1  0.280516  0.719484  0.000000  1
  Au  Au9  1  0.459053  0.540946  0.500000  1
  Au  Au10  1  0.092411  0.907589  0.500000  1
