# generated using pymatgen
data_TbDy3(YPt)4
_symmetry_space_group_name_H-M   'P 1'
_cell_length_a   4.77836600
_cell_length_b   7.19530315
_cell_length_c   8.83053000
_cell_angle_alpha   89.98675879
_cell_angle_beta   90.00000000
_cell_angle_gamma   90.00000000
_symmetry_Int_Tables_number   1
_chemical_formula_structural   TbDy3(YPt)4
_chemical_formula_sum   'Tb1 Dy3 Y4 Pt4'
_cell_volume   303.60943697
_cell_formula_units_Z   1
loop_
 _symmetry_equiv_pos_site_id
 _symmetry_equiv_pos_as_xyz
  1  'x, y, z'
loop_
 _atom_site_type_symbol
 _atom_site_label
 _atom_site_symmetry_multiplicity
 _atom_site_fract_x
 _atom_site_fract_y
 _atom_site_fract_z
 _atom_site_occupancy
  Tb  Tb0  1  0.750000  0.645124  0.419801  1
  Dy  Dy1  1  0.250000  0.855391  0.919944  1
  Dy  Dy2  1  0.250000  0.355127  0.580090  1
  Dy  Dy3  1  0.750000  0.144730  0.080090  1
  Y  Y4  1  0.250000  0.989781  0.331606  1
  Y  Y5  1  0.250000  0.489594  0.168187  1
  Y  Y6  1  0.750000  0.010490  0.668857  1
  Y  Y7  1  0.750000  0.510495  0.831451  1
  Pt  Pt8  1  0.250000  0.257260  0.906254  1
  Pt  Pt9  1  0.250000  0.757498  0.594524  1
  Pt  Pt10  1  0.750000  0.742950  0.092942  1
  Pt  Pt11  1  0.750000  0.241561  0.406256  1
