# generated using pymatgen
data_Ca3Tb(ReN3)4
_symmetry_space_group_name_H-M   'P 1'
_cell_length_a   7.42956004
_cell_length_b   7.42955941
_cell_length_c   6.27607429
_cell_angle_alpha   74.17135387
_cell_angle_beta   74.17136030
_cell_angle_gamma   83.68150304
_symmetry_Int_Tables_number   1
_chemical_formula_structural   Ca3Tb(ReN3)4
_chemical_formula_sum   'Ca3 Tb1 Re4 N12'
_cell_volume   320.41711712
_cell_formula_units_Z   1
loop_
 _symmetry_equiv_pos_site_id
 _symmetry_equiv_pos_as_xyz
  1  'x, y, z'
loop_
 _atom_site_type_symbol
 _atom_site_label
 _atom_site_symmetry_multiplicity
 _atom_site_fract_x
 _atom_site_fract_y
 _atom_site_fract_z
 _atom_site_occupancy
  Ca  Ca0  1  0.295819  0.704181  0.750000  1
  Ca  Ca1  1  0.089140  0.910860  0.250000  1
  Ca  Ca2  1  0.704473  0.295527  0.250000  1
  Tb  Tb3  1  0.911005  0.088995  0.750000  1
  Re  Re4  1  0.623288  0.797856  0.270828  1
  Re  Re5  1  0.202144  0.376712  0.229172  1
  Re  Re6  1  0.378631  0.203647  0.726884  1
  Re  Re7  1  0.796353  0.621369  0.773116  1
  N  N8  1  0.342216  0.353013  0.938024  1
  N  N9  1  0.007354  0.222742  0.347652  1
  N  N10  1  0.777258  0.992646  0.152348  1
  N  N11  1  0.220259  0.013851  0.834949  1
  N  N12  1  0.656724  0.643852  0.062632  1
  N  N13  1  0.878944  0.382587  0.827013  1
  N  N14  1  0.122272  0.612577  0.169675  1
  N  N15  1  0.986149  0.779741  0.665051  1
  N  N16  1  0.387423  0.877728  0.330325  1
  N  N17  1  0.646987  0.657784  0.561976  1
  N  N18  1  0.617413  0.121056  0.672987  1
  N  N19  1  0.356148  0.343276  0.437368  1
