# generated using pymatgen
data_SiH4F8
_symmetry_space_group_name_H-M   'P 1'
_cell_length_a   4.39786505
_cell_length_b   4.67525876
_cell_length_c   8.90903435
_cell_angle_alpha   102.80203250
_cell_angle_beta   90.01791563
_cell_angle_gamma   111.49140806
_symmetry_Int_Tables_number   1
_chemical_formula_structural   SiH4F8
_chemical_formula_sum   'Si1 H4 F8'
_cell_volume   165.53530349
_cell_formula_units_Z   1
loop_
 _symmetry_equiv_pos_site_id
 _symmetry_equiv_pos_as_xyz
  1  'x, y, z'
loop_
 _atom_site_type_symbol
 _atom_site_label
 _atom_site_symmetry_multiplicity
 _atom_site_fract_x
 _atom_site_fract_y
 _atom_site_fract_z
 _atom_site_occupancy
  Si  Si0  1  0.351494  0.757217  0.505441  1
  H  H1  1  0.901411  0.991277  0.125416  1
  H  H2  1  0.378563  0.940817  0.132350  1
  H  H3  1  0.020919  0.411179  0.879081  1
  H  H4  1  0.516152  0.379304  0.893537  1
  F  F5  1  0.844484  0.463731  0.838677  1
  F  F6  1  0.731666  0.075903  0.109242  1
  F  F7  1  0.441319  0.692001  0.663123  1
  F  F8  1  0.005645  0.789234  0.515753  1
  F  F9  1  0.292377  0.318467  0.928359  1
  F  F10  1  0.605697  0.080183  0.479722  1
  F  F11  1  0.144180  0.847912  0.149635  1
  F  F12  1  0.328261  0.474301  0.365231  1
