# generated using pymatgen
data_Hf2V3Tc
_symmetry_space_group_name_H-M   'P 1'
_cell_length_a   5.27660600
_cell_length_b   5.27660614
_cell_length_c   8.20989200
_cell_angle_alpha   90.00000000
_cell_angle_beta   90.00000000
_cell_angle_gamma   119.99999914
_symmetry_Int_Tables_number   1
_chemical_formula_structural   Hf2V3Tc
_chemical_formula_sum   'Hf4 V6 Tc2'
_cell_volume   197.95999070
_cell_formula_units_Z   2
loop_
 _symmetry_equiv_pos_site_id
 _symmetry_equiv_pos_as_xyz
  1  'x, y, z'
loop_
 _atom_site_type_symbol
 _atom_site_label
 _atom_site_symmetry_multiplicity
 _atom_site_fract_x
 _atom_site_fract_y
 _atom_site_fract_z
 _atom_site_occupancy
  Hf  Hf0  1  0.333333  0.666667  0.438271  1
  Hf  Hf1  1  0.666667  0.333333  0.561729  1
  Hf  Hf2  1  0.666667  0.333333  0.938271  1
  Hf  Hf3  1  0.333333  0.666667  0.061729  1
  V  V4  1  0.828966  0.171034  0.250000  1
  V  V5  1  0.828966  0.657931  0.250000  1
  V  V6  1  0.342069  0.171034  0.250000  1
  V  V7  1  0.171034  0.828966  0.750000  1
  V  V8  1  0.171034  0.342069  0.750000  1
  V  V9  1  0.657931  0.828966  0.750000  1
  Tc  Tc10  1  0.000000  0.000000  0.500000  1
  Tc  Tc11  1  0.000000  0.000000  0.000000  1
