# generated using pymatgen
data_NdGa5Pt3
_symmetry_space_group_name_H-M   'P 1'
_cell_length_a   4.14564000
_cell_length_b   7.40586400
_cell_length_c   21.16815300
_cell_angle_alpha   90.00000000
_cell_angle_beta   90.00000000
_cell_angle_gamma   90.00000000
_symmetry_Int_Tables_number   1
_chemical_formula_structural   NdGa5Pt3
_chemical_formula_sum   'Nd4 Ga20 Pt12'
_cell_volume   649.90560784
_cell_formula_units_Z   4
loop_
 _symmetry_equiv_pos_site_id
 _symmetry_equiv_pos_as_xyz
  1  'x, y, z'
loop_
 _atom_site_type_symbol
 _atom_site_label
 _atom_site_symmetry_multiplicity
 _atom_site_fract_x
 _atom_site_fract_y
 _atom_site_fract_z
 _atom_site_occupancy
  Nd  Nd0  1  0.250000  0.116788  0.641210  1
  Nd  Nd1  1  0.750000  0.883212  0.358790  1
  Nd  Nd2  1  0.250000  0.383212  0.141210  1
  Nd  Nd3  1  0.750000  0.616788  0.858790  1
  Ga  Ga4  1  0.750000  0.353175  0.382674  1
  Ga  Ga5  1  0.750000  0.883080  0.983020  1
  Ga  Ga6  1  0.750000  0.681786  0.199740  1
  Ga  Ga7  1  0.250000  0.870766  0.490262  1
  Ga  Ga8  1  0.250000  0.629234  0.990262  1
  Ga  Ga9  1  0.250000  0.318214  0.800260  1
  Ga  Ga10  1  0.750000  0.078527  0.206737  1
  Ga  Ga11  1  0.250000  0.646825  0.617326  1
  Ga  Ga12  1  0.250000  0.578527  0.293263  1
  Ga  Ga13  1  0.250000  0.181786  0.300260  1
  Ga  Ga14  1  0.750000  0.146825  0.882674  1
  Ga  Ga15  1  0.250000  0.921473  0.793263  1
  Ga  Ga16  1  0.750000  0.370766  0.009738  1
  Ga  Ga17  1  0.750000  0.616920  0.483020  1
  Ga  Ga18  1  0.750000  0.129234  0.509738  1
  Ga  Ga19  1  0.250000  0.116920  0.016980  1
  Ga  Ga20  1  0.250000  0.853175  0.117326  1
  Ga  Ga21  1  0.250000  0.383080  0.516980  1
  Ga  Ga22  1  0.750000  0.421473  0.706737  1
  Ga  Ga23  1  0.750000  0.818214  0.699740  1
  Pt  Pt24  1  0.750000  0.383353  0.262241  1
  Pt  Pt25  1  0.250000  0.883353  0.237759  1
  Pt  Pt26  1  0.250000  0.616647  0.737759  1
  Pt  Pt27  1  0.750000  0.116647  0.762241  1
  Pt  Pt28  1  0.250000  0.164897  0.425180  1
  Pt  Pt29  1  0.750000  0.423888  0.585893  1
  Pt  Pt30  1  0.750000  0.076112  0.085893  1
  Pt  Pt31  1  0.250000  0.923888  0.914107  1
  Pt  Pt32  1  0.750000  0.835103  0.574820  1
  Pt  Pt33  1  0.250000  0.335103  0.925180  1
  Pt  Pt34  1  0.750000  0.664897  0.074820  1
  Pt  Pt35  1  0.250000  0.576112  0.414107  1
