# generated using pymatgen
data_Th3AlZn2Cu3
_symmetry_space_group_name_H-M   'P 1'
_cell_length_a   6.96722531
_cell_length_b   6.96722540
_cell_length_c   4.32563300
_cell_angle_alpha   90.00000000
_cell_angle_beta   90.00000000
_cell_angle_gamma   119.91014364
_symmetry_Int_Tables_number   1
_chemical_formula_structural   Th3AlZn2Cu3
_chemical_formula_sum   'Th3 Al1 Zn2 Cu3'
_cell_volume   182.00886400
_cell_formula_units_Z   1
loop_
 _symmetry_equiv_pos_site_id
 _symmetry_equiv_pos_as_xyz
  1  'x, y, z'
loop_
 _atom_site_type_symbol
 _atom_site_label
 _atom_site_symmetry_multiplicity
 _atom_site_fract_x
 _atom_site_fract_y
 _atom_site_fract_z
 _atom_site_occupancy
  Th  Th0  1  0.422201  0.996835  0.500000  1
  Th  Th1  1  0.996835  0.422201  0.500000  1
  Th  Th2  1  0.583856  0.583856  0.500000  1
  Al  Al3  1  0.226591  0.226591  0.000000  1
  Zn  Zn4  1  0.766960  0.001741  0.000000  1
  Zn  Zn5  1  0.001741  0.766960  0.000000  1
  Cu  Cu6  1  0.333975  0.660554  0.000000  1
  Cu  Cu7  1  0.660554  0.333975  0.000000  1
  Cu  Cu8  1  0.007286  0.007286  0.500000  1
