# generated using pymatgen
data_YbPr3Mg2Ir3
_symmetry_space_group_name_H-M   'P 1'
_cell_length_a   7.57318300
_cell_length_b   7.61389804
_cell_length_c   4.19167100
_cell_angle_alpha   90.00000000
_cell_angle_beta   90.00000000
_cell_angle_gamma   119.82326011
_symmetry_Int_Tables_number   1
_chemical_formula_structural   YbPr3Mg2Ir3
_chemical_formula_sum   'Yb1 Pr3 Mg2 Ir3'
_cell_volume   209.68821941
_cell_formula_units_Z   1
loop_
 _symmetry_equiv_pos_site_id
 _symmetry_equiv_pos_as_xyz
  1  'x, y, z'
loop_
 _atom_site_type_symbol
 _atom_site_label
 _atom_site_symmetry_multiplicity
 _atom_site_fract_x
 _atom_site_fract_y
 _atom_site_fract_z
 _atom_site_occupancy
  Yb  Yb0  1  0.755275  0.000000  0.000000  1
  Pr  Pr1  1  0.395912  0.000000  0.500000  1
  Pr  Pr2  1  0.010015  0.425549  0.500000  1
  Pr  Pr3  1  0.584465  0.574451  0.500000  1
  Mg  Mg4  1  0.244156  0.242998  0.000000  1
  Mg  Mg5  1  0.001158  0.757001  0.000000  1
  Ir  Ir6  1  0.668022  0.339190  0.000000  1
  Ir  Ir7  1  0.328832  0.660810  0.000000  1
  Ir  Ir8  1  0.012165  0.000000  0.500000  1
