# generated using pymatgen
data_KYbBO3
_symmetry_space_group_name_H-M   'P 1'
_cell_length_a   7.29081000
_cell_length_b   7.29081000
_cell_length_c   7.29081000
_cell_angle_alpha   90.00000000
_cell_angle_beta   90.00000000
_cell_angle_gamma   90.00000000
_symmetry_Int_Tables_number   1
_chemical_formula_structural   KYbBO3
_chemical_formula_sum   'K4 Yb4 B4 O12'
_cell_volume   387.54964351
_cell_formula_units_Z   4
loop_
 _symmetry_equiv_pos_site_id
 _symmetry_equiv_pos_as_xyz
  1  'x, y, z'
loop_
 _atom_site_type_symbol
 _atom_site_label
 _atom_site_symmetry_multiplicity
 _atom_site_fract_x
 _atom_site_fract_y
 _atom_site_fract_z
 _atom_site_occupancy
  K  K0  1  0.379085  0.879085  0.620915  1
  K  K1  1  0.879085  0.620915  0.379085  1
  K  K2  1  0.620915  0.379085  0.879085  1
  K  K3  1  0.120915  0.120915  0.120915  1
  Yb  Yb4  1  0.652682  0.152682  0.347318  1
  Yb  Yb5  1  0.152682  0.347318  0.652682  1
  Yb  Yb6  1  0.347318  0.652682  0.152682  1
  Yb  Yb7  1  0.847318  0.847318  0.847318  1
  B  B8  1  0.067908  0.567907  0.932093  1
  B  B9  1  0.567908  0.932093  0.067907  1
  B  B10  1  0.932092  0.067907  0.567907  1
  B  B11  1  0.432092  0.432093  0.432093  1
  O  O12  1  0.945476  0.551239  0.785532  1
  O  O13  1  0.214468  0.445476  0.948761  1
  O  O14  1  0.051239  0.714468  0.054524  1
  O  O15  1  0.445476  0.948761  0.214468  1
  O  O16  1  0.714468  0.054524  0.051239  1
  O  O17  1  0.551239  0.785532  0.945476  1
  O  O18  1  0.054524  0.051239  0.714468  1
  O  O19  1  0.785532  0.945476  0.551239  1
  O  O20  1  0.948761  0.214468  0.445476  1
  O  O21  1  0.554524  0.448761  0.285532  1
  O  O22  1  0.285532  0.554524  0.448761  1
  O  O23  1  0.448761  0.285532  0.554524  1
