# generated using pymatgen
data_LaPr15(TmIr3)4
_symmetry_space_group_name_H-M   'P 1'
_cell_length_a   11.24831402
_cell_length_b   11.25579242
_cell_length_c   6.54497055
_cell_angle_alpha   89.99175579
_cell_angle_beta   89.92160952
_cell_angle_gamma   89.92533785
_symmetry_Int_Tables_number   1
_chemical_formula_structural   LaPr15(TmIr3)4
_chemical_formula_sum   'La1 Pr15 Tm4 Ir12'
_cell_volume   828.64864433
_cell_formula_units_Z   1
loop_
 _symmetry_equiv_pos_site_id
 _symmetry_equiv_pos_as_xyz
  1  'x, y, z'
loop_
 _atom_site_type_symbol
 _atom_site_label
 _atom_site_symmetry_multiplicity
 _atom_site_fract_x
 _atom_site_fract_y
 _atom_site_fract_z
 _atom_site_occupancy
  La  La0  1  0.288103  0.087374  0.382553  1
  Pr  Pr1  1  0.288085  0.911997  0.881370  1
  Pr  Pr2  1  0.711727  0.087309  0.881578  1
  Pr  Pr3  1  0.711962  0.912700  0.381512  1
  Pr  Pr4  1  0.587122  0.788140  0.881398  1
  Pr  Pr5  1  0.588105  0.212243  0.381318  1
  Pr  Pr6  1  0.412872  0.787376  0.381134  1
  Pr  Pr7  1  0.413255  0.212264  0.881571  1
  Pr  Pr8  1  0.211799  0.413182  0.619078  1
  Pr  Pr9  1  0.211928  0.587184  0.118538  1
  Pr  Pr10  1  0.788124  0.412830  0.118509  1
  Pr  Pr11  1  0.788160  0.587152  0.618466  1
  Pr  Pr12  1  0.912723  0.711885  0.118713  1
  Pr  Pr13  1  0.912510  0.288181  0.618154  1
  Pr  Pr14  1  0.087232  0.711856  0.618740  1
  Pr  Pr15  1  0.086930  0.288486  0.117893  1
  Tm  Tm16  1  0.999371  0.999646  0.500287  1
  Tm  Tm17  1  0.999843  0.000056  0.999776  1
  Tm  Tm18  1  0.500009  0.499962  0.000149  1
  Tm  Tm19  1  0.500199  0.500016  0.500161  1
  Ir  Ir20  1  0.853393  0.146548  0.249861  1
  Ir  Ir21  1  0.853372  0.853505  0.750139  1
  Ir  Ir22  1  0.147419  0.146235  0.748410  1
  Ir  Ir23  1  0.146573  0.853386  0.249908  1
  Ir  Ir24  1  0.646653  0.353560  0.750072  1
  Ir  Ir25  1  0.646448  0.646718  0.249821  1
  Ir  Ir26  1  0.353420  0.353385  0.250301  1
  Ir  Ir27  1  0.353511  0.646528  0.750041  1
  Ir  Ir28  1  0.499268  0.000338  0.117575  1
  Ir  Ir29  1  0.499881  0.999988  0.616370  1
  Ir  Ir30  1  0.000085  0.499847  0.883384  1
  Ir  Ir31  1  0.999915  0.500123  0.383219  1
