# generated using pymatgen
data_Dy11Ho9(Cd3Ru)2
_symmetry_space_group_name_H-M   'P 1'
_cell_length_a   9.57577900
_cell_length_b   9.57514169
_cell_length_c   9.83349200
_cell_angle_alpha   89.99823680
_cell_angle_beta   90.00355418
_cell_angle_gamma   120.00276976
_symmetry_Int_Tables_number   1
_chemical_formula_structural   Dy11Ho9(Cd3Ru)2
_chemical_formula_sum   'Dy11 Ho9 Cd6 Ru2'
_cell_volume   780.81042264
_cell_formula_units_Z   1
loop_
 _symmetry_equiv_pos_site_id
 _symmetry_equiv_pos_as_xyz
  1  'x, y, z'
loop_
 _atom_site_type_symbol
 _atom_site_label
 _atom_site_symmetry_multiplicity
 _atom_site_fract_x
 _atom_site_fract_y
 _atom_site_fract_z
 _atom_site_occupancy
  Dy  Dy0  1  0.209816  0.790319  0.440252  1
  Dy  Dy1  1  0.209809  0.419502  0.440238  1
  Dy  Dy2  1  0.580457  0.790228  0.440230  1
  Dy  Dy3  1  0.790089  0.209773  0.559794  1
  Dy  Dy4  1  0.790096  0.580314  0.559805  1
  Dy  Dy5  1  0.541074  0.458828  0.249825  1
  Dy  Dy6  1  0.541080  0.082237  0.249827  1
  Dy  Dy7  1  0.917799  0.458909  0.249768  1
  Dy  Dy8  1  0.458893  0.541000  0.750192  1
  Dy  Dy9  1  0.458892  0.917901  0.750188  1
  Dy  Dy10  1  0.082226  0.541114  0.750256  1
  Ho  Ho11  1  0.000110  0.000058  0.500008  1
  Ho  Ho12  1  0.000002  0.999997  0.000017  1
  Ho  Ho13  1  0.419611  0.209800  0.559764  1
  Ho  Ho14  1  0.790072  0.209864  0.940364  1
  Ho  Ho15  1  0.790087  0.580211  0.940363  1
  Ho  Ho16  1  0.419833  0.209913  0.940271  1
  Ho  Ho17  1  0.209915  0.790119  0.059647  1
  Ho  Ho18  1  0.209901  0.419788  0.059655  1
  Ho  Ho19  1  0.580218  0.790118  0.059634  1
  Cd  Cd20  1  0.885566  0.114477  0.249871  1
  Cd  Cd21  1  0.885538  0.771079  0.249872  1
  Cd  Cd22  1  0.228952  0.114501  0.249913  1
  Cd  Cd23  1  0.114479  0.885568  0.750109  1
  Cd  Cd24  1  0.114509  0.228920  0.750113  1
  Cd  Cd25  1  0.771085  0.885521  0.750134  1
  Ru  Ru26  1  0.333324  0.666665  0.249743  1
  Ru  Ru27  1  0.666565  0.333275  0.750147  1
