# generated using pymatgen
data_Zr4ZnTc24
_symmetry_space_group_name_H-M   'P 1'
_cell_length_a   8.42605327
_cell_length_b   8.42605309
_cell_length_c   8.42605300
_cell_angle_alpha   109.47122523
_cell_angle_beta   109.47122480
_cell_angle_gamma   109.47122029
_symmetry_Int_Tables_number   1
_chemical_formula_structural   Zr4ZnTc24
_chemical_formula_sum   'Zr4 Zn1 Tc24'
_cell_volume   460.52227560
_cell_formula_units_Z   1
loop_
 _symmetry_equiv_pos_site_id
 _symmetry_equiv_pos_as_xyz
  1  'x, y, z'
loop_
 _atom_site_type_symbol
 _atom_site_label
 _atom_site_symmetry_multiplicity
 _atom_site_fract_x
 _atom_site_fract_y
 _atom_site_fract_z
 _atom_site_occupancy
  Zr  Zr0  1  0.632744  0.000000  0.000000  1
  Zr  Zr1  1  0.000000  0.632744  0.000000  1
  Zr  Zr2  1  0.000000  0.000000  0.632744  1
  Zr  Zr3  1  0.367256  0.367256  0.367256  1
  Zn  Zn4  1  0.000000  0.000000  0.000000  1
  Tc  Tc5  1  0.392285  0.672682  0.000000  1
  Tc  Tc6  1  0.719604  0.327318  0.327318  1
  Tc  Tc7  1  0.392285  0.000000  0.672682  1
  Tc  Tc8  1  0.672682  0.392285  0.000000  1
  Tc  Tc9  1  0.000000  0.392285  0.672682  1
  Tc  Tc10  1  0.327318  0.719604  0.327318  1
  Tc  Tc11  1  0.327318  0.327318  0.719604  1
  Tc  Tc12  1  0.000000  0.672682  0.392285  1
  Tc  Tc13  1  0.672682  0.000000  0.392285  1
  Tc  Tc14  1  0.607715  0.607715  0.280396  1
  Tc  Tc15  1  0.280396  0.607715  0.607715  1
  Tc  Tc16  1  0.607715  0.280396  0.607715  1
  Tc  Tc17  1  0.373453  0.193179  0.000000  1
  Tc  Tc18  1  0.180273  0.806821  0.806821  1
  Tc  Tc19  1  0.373453  0.000000  0.193179  1
  Tc  Tc20  1  0.193179  0.373453  0.000000  1
  Tc  Tc21  1  0.000000  0.373453  0.193179  1
  Tc  Tc22  1  0.806821  0.180273  0.806821  1
  Tc  Tc23  1  0.806821  0.806821  0.180273  1
  Tc  Tc24  1  0.000000  0.193179  0.373453  1
  Tc  Tc25  1  0.193179  0.000000  0.373453  1
  Tc  Tc26  1  0.626547  0.626547  0.819727  1
  Tc  Tc27  1  0.819727  0.626547  0.626547  1
  Tc  Tc28  1  0.626547  0.819727  0.626547  1
