# generated using pymatgen
data_Dy3Er(Tc3Os)2
_symmetry_space_group_name_H-M   'P 1'
_cell_length_a   5.28624300
_cell_length_b   5.28624349
_cell_length_c   9.09010700
_cell_angle_alpha   90.00000000
_cell_angle_beta   90.00000000
_cell_angle_gamma   120.00000322
_symmetry_Int_Tables_number   1
_chemical_formula_structural   Dy3Er(Tc3Os)2
_chemical_formula_sum   'Dy3 Er1 Tc6 Os2'
_cell_volume   219.98542047
_cell_formula_units_Z   1
loop_
 _symmetry_equiv_pos_site_id
 _symmetry_equiv_pos_as_xyz
  1  'x, y, z'
loop_
 _atom_site_type_symbol
 _atom_site_label
 _atom_site_symmetry_multiplicity
 _atom_site_fract_x
 _atom_site_fract_y
 _atom_site_fract_z
 _atom_site_occupancy
  Dy  Dy0  1  0.333333  0.666667  0.436478  1
  Dy  Dy1  1  0.666667  0.333333  0.563291  1
  Dy  Dy2  1  0.666667  0.333333  0.936849  1
  Er  Er3  1  0.333333  0.666667  0.063552  1
  Tc  Tc4  1  0.829557  0.170443  0.249586  1
  Tc  Tc5  1  0.829557  0.659114  0.249586  1
  Tc  Tc6  1  0.340886  0.170443  0.249586  1
  Tc  Tc7  1  0.170559  0.829441  0.750324  1
  Tc  Tc8  1  0.170559  0.341118  0.750324  1
  Tc  Tc9  1  0.658882  0.829441  0.750324  1
  Os  Os10  1  0.000000  0.000000  0.500001  1
  Os  Os11  1  0.000000  0.000000  0.000099  1
