# generated using pymatgen
data_PrNd15MgHg3Pt4
_symmetry_space_group_name_H-M   'P 1'
_cell_length_a   9.98458964
_cell_length_b   10.02160175
_cell_length_c   10.02160169
_cell_angle_alpha   60.24732817
_cell_angle_beta   60.11564980
_cell_angle_gamma   60.11565252
_symmetry_Int_Tables_number   1
_chemical_formula_structural   PrNd15MgHg3Pt4
_chemical_formula_sum   'Pr1 Nd15 Mg1 Hg3 Pt4'
_cell_volume   711.63043334
_cell_formula_units_Z   1
loop_
 _symmetry_equiv_pos_site_id
 _symmetry_equiv_pos_as_xyz
  1  'x, y, z'
loop_
 _atom_site_type_symbol
 _atom_site_label
 _atom_site_symmetry_multiplicity
 _atom_site_fract_x
 _atom_site_fract_y
 _atom_site_fract_z
 _atom_site_occupancy
  Pr  Pr0  1  0.349555  0.348741  0.348741  1
  Nd  Nd1  1  0.351868  0.350755  0.947294  1
  Nd  Nd2  1  0.351868  0.947294  0.350755  1
  Nd  Nd3  1  0.939754  0.354029  0.354029  1
  Nd  Nd4  1  0.808359  0.192918  0.192918  1
  Nd  Nd5  1  0.189234  0.809326  0.809326  1
  Nd  Nd6  1  0.188312  0.811280  0.191826  1
  Nd  Nd7  1  0.806241  0.193409  0.807108  1
  Nd  Nd8  1  0.188312  0.191826  0.811280  1
  Nd  Nd9  1  0.806241  0.807108  0.193409  1
  Nd  Nd10  1  0.938284  0.564322  0.564322  1
  Nd  Nd11  1  0.561079  0.936341  0.936341  1
  Nd  Nd12  1  0.561727  0.939795  0.564522  1
  Nd  Nd13  1  0.935502  0.563648  0.934881  1
  Nd  Nd14  1  0.561727  0.564522  0.939795  1
  Nd  Nd15  1  0.935502  0.934881  0.563648  1
  Mg  Mg16  1  0.284698  0.571846  0.571846  1
  Hg  Hg17  1  0.582180  0.586887  0.586887  1
  Hg  Hg18  1  0.581388  0.587087  0.244335  1
  Hg  Hg19  1  0.581388  0.244335  0.587087  1
  Pt  Pt20  1  0.142461  0.144772  0.144772  1
  Pt  Pt21  1  0.141064  0.141615  0.571991  1
  Pt  Pt22  1  0.141064  0.571991  0.141615  1
  Pt  Pt23  1  0.572193  0.141272  0.141272  1
