# generated using pymatgen
data_LuHf5(ZnRh2)6
_symmetry_space_group_name_H-M   'P 1'
_cell_length_a   4.47470700
_cell_length_b   6.27628800
_cell_length_c   13.34974000
_cell_angle_alpha   90.00000000
_cell_angle_beta   90.00012411
_cell_angle_gamma   90.00000000
_symmetry_Int_Tables_number   1
_chemical_formula_structural   LuHf5(ZnRh2)6
_chemical_formula_sum   'Lu1 Hf5 Zn6 Rh12'
_cell_volume   374.92143848
_cell_formula_units_Z   1
loop_
 _symmetry_equiv_pos_site_id
 _symmetry_equiv_pos_as_xyz
  1  'x, y, z'
loop_
 _atom_site_type_symbol
 _atom_site_label
 _atom_site_symmetry_multiplicity
 _atom_site_fract_x
 _atom_site_fract_y
 _atom_site_fract_z
 _atom_site_occupancy
  Lu  Lu0  1  0.000000  0.500001  0.000000  1
  Hf  Hf1  1  0.499830  0.000000  0.166449  1
  Hf  Hf2  1  0.999830  0.500001  0.333205  1
  Hf  Hf3  1  0.500000  0.000000  0.500000  1
  Hf  Hf4  1  0.000170  0.500001  0.666795  1
  Hf  Hf5  1  0.500170  0.000000  0.833551  1
  Zn  Zn6  1  0.000000  0.000000  0.000000  1
  Zn  Zn7  1  0.499823  0.500001  0.166923  1
  Zn  Zn8  1  0.999810  0.000000  0.333648  1
  Zn  Zn9  1  0.500000  0.500001  0.500000  1
  Zn  Zn10  1  0.000189  0.000000  0.666351  1
  Zn  Zn11  1  0.500176  0.500001  0.833077  1
  Rh  Rh12  1  0.500000  0.242814  0.000000  1
  Rh  Rh13  1  0.500000  0.757187  0.000000  1
  Rh  Rh14  1  0.999813  0.246611  0.169966  1
  Rh  Rh15  1  0.999813  0.753389  0.169966  1
  Rh  Rh16  1  0.499817  0.250372  0.333832  1
  Rh  Rh17  1  0.499817  0.749629  0.333832  1
  Rh  Rh18  1  0.000000  0.249958  0.500000  1
  Rh  Rh19  1  0.000000  0.750043  0.500000  1
  Rh  Rh20  1  0.500183  0.250372  0.666168  1
  Rh  Rh21  1  0.500183  0.749629  0.666168  1
  Rh  Rh22  1  0.000187  0.246611  0.830034  1
  Rh  Rh23  1  0.000187  0.753389  0.830034  1
