# generated using pymatgen
data_Li2Dy5P12Ir16Rh
_symmetry_space_group_name_H-M   'P 1'
_cell_length_a   12.68802000
_cell_length_b   12.76324862
_cell_length_c   3.95418400
_cell_angle_alpha   90.00000000
_cell_angle_beta   90.00000000
_cell_angle_gamma   119.80521358
_symmetry_Int_Tables_number   1
_chemical_formula_structural   Li2Dy5P12Ir16Rh
_chemical_formula_sum   'Li2 Dy5 P12 Ir16 Rh1'
_cell_volume   555.63766773
_cell_formula_units_Z   1
loop_
 _symmetry_equiv_pos_site_id
 _symmetry_equiv_pos_as_xyz
  1  'x, y, z'
loop_
 _atom_site_type_symbol
 _atom_site_label
 _atom_site_symmetry_multiplicity
 _atom_site_fract_x
 _atom_site_fract_y
 _atom_site_fract_z
 _atom_site_occupancy
  Li  Li0  1  0.999267  0.441810  0.500000  1
  Li  Li1  1  0.557457  0.558190  0.500000  1
  Dy  Dy2  1  0.332340  0.662781  0.500000  1
  Dy  Dy3  1  0.669561  0.337219  0.500000  1
  Dy  Dy4  1  0.001507  0.809320  0.000000  1
  Dy  Dy5  1  0.192187  0.190680  0.000000  1
  Dy  Dy6  1  0.810511  0.000000  0.000000  1
  P  P7  1  0.999735  0.630555  0.500000  1
  P  P8  1  0.369180  0.369445  0.500000  1
  P  P9  1  0.637457  0.000000  0.500000  1
  P  P10  1  0.513784  0.683670  0.000000  1
  P  P11  1  0.308498  0.824681  0.000000  1
  P  P12  1  0.167182  0.480051  0.000000  1
  P  P13  1  0.483817  0.175319  0.000000  1
  P  P14  1  0.687131  0.519949  0.000000  1
  P  P15  1  0.830115  0.316330  0.000000  1
  P  P16  1  0.997874  0.177755  0.500000  1
  P  P17  1  0.820119  0.822245  0.500000  1
  P  P18  1  0.179156  0.000000  0.500000  1
  Ir  Ir19  1  0.504510  0.865244  0.000000  1
  Ir  Ir20  1  0.129498  0.638786  0.000000  1
  Ir  Ir21  1  0.356444  0.487892  0.000000  1
  Ir  Ir22  1  0.490713  0.361214  0.000000  1
  Ir  Ir23  1  0.868553  0.512108  0.000000  1
  Ir  Ir24  1  0.639266  0.134756  0.000000  1
  Ir  Ir25  1  0.996628  0.277338  0.000000  1
  Ir  Ir26  1  0.719291  0.722662  0.000000  1
  Ir  Ir27  1  0.284186  0.000000  0.000000  1
  Ir  Ir28  1  0.623267  0.807438  0.500000  1
  Ir  Ir29  1  0.198158  0.822163  0.500000  1
  Ir  Ir30  1  0.177244  0.370810  0.500000  1
  Ir  Ir31  1  0.375996  0.177837  0.500000  1
  Ir  Ir32  1  0.806434  0.629190  0.500000  1
  Ir  Ir33  1  0.815830  0.192562  0.500000  1
  Ir  Ir34  1  0.999459  0.000000  0.500000  1
  Rh  Rh35  1  0.457639  0.000000  0.500000  1
