# generated using pymatgen
data_Tm16MgAg3Pt4
_symmetry_space_group_name_H-M   'P 1'
_cell_length_a   9.49201183
_cell_length_b   9.49372385
_cell_length_c   9.49372300
_cell_angle_alpha   59.99999948
_cell_angle_beta   59.99403289
_cell_angle_gamma   59.99403393
_symmetry_Int_Tables_number   1
_chemical_formula_structural   Tm16MgAg3Pt4
_chemical_formula_sum   'Tm16 Mg1 Ag3 Pt4'
_cell_volume   604.89117662
_cell_formula_units_Z   1
loop_
 _symmetry_equiv_pos_site_id
 _symmetry_equiv_pos_as_xyz
  1  'x, y, z'
loop_
 _atom_site_type_symbol
 _atom_site_label
 _atom_site_symmetry_multiplicity
 _atom_site_fract_x
 _atom_site_fract_y
 _atom_site_fract_z
 _atom_site_occupancy
  Tm  Tm0  1  0.353972  0.351688  0.351688  1
  Tm  Tm1  1  0.353972  0.351688  0.942654  1
  Tm  Tm2  1  0.353972  0.942654  0.351688  1
  Tm  Tm3  1  0.928349  0.357218  0.357218  1
  Tm  Tm4  1  0.809198  0.190404  0.190404  1
  Tm  Tm5  1  0.187217  0.812416  0.812416  1
  Tm  Tm6  1  0.187217  0.812416  0.187951  1
  Tm  Tm7  1  0.809198  0.190404  0.809993  1
  Tm  Tm8  1  0.187217  0.187951  0.812416  1
  Tm  Tm9  1  0.809198  0.809993  0.190404  1
  Tm  Tm10  1  0.931699  0.566676  0.566676  1
  Tm  Tm11  1  0.565835  0.933726  0.933726  1
  Tm  Tm12  1  0.565835  0.933726  0.566712  1
  Tm  Tm13  1  0.931699  0.566676  0.934948  1
  Tm  Tm14  1  0.565835  0.566712  0.933726  1
  Tm  Tm15  1  0.931699  0.934948  0.566676  1
  Mg  Mg16  1  0.286477  0.571174  0.571174  1
  Ag  Ag17  1  0.582298  0.586107  0.586107  1
  Ag  Ag18  1  0.582298  0.586107  0.245488  1
  Ag  Ag19  1  0.582298  0.245488  0.586107  1
  Pt  Pt20  1  0.141070  0.145124  0.145124  1
  Pt  Pt21  1  0.141070  0.145124  0.568683  1
  Pt  Pt22  1  0.141070  0.568683  0.145124  1
  Pt  Pt23  1  0.571303  0.142900  0.142900  1
