# generated using pymatgen
data_Sc9(PaNi4)5
_symmetry_space_group_name_H-M   'P 1'
_cell_length_a   7.69983320
_cell_length_b   7.69983366
_cell_length_c   9.27292336
_cell_angle_alpha   90.07651153
_cell_angle_beta   90.07651148
_cell_angle_gamma   105.41029130
_symmetry_Int_Tables_number   1
_chemical_formula_structural   Sc9(PaNi4)5
_chemical_formula_sum   'Sc9 Pa5 Ni20'
_cell_volume   530.00112888
_cell_formula_units_Z   1
loop_
 _symmetry_equiv_pos_site_id
 _symmetry_equiv_pos_as_xyz
  1  'x, y, z'
loop_
 _atom_site_type_symbol
 _atom_site_label
 _atom_site_symmetry_multiplicity
 _atom_site_fract_x
 _atom_site_fract_y
 _atom_site_fract_z
 _atom_site_occupancy
  Sc  Sc0  1  0.193162  0.806838  0.500000  1
  Sc  Sc1  1  0.007295  0.508017  0.254400  1
  Sc  Sc2  1  0.998786  0.500107  0.746065  1
  Sc  Sc3  1  0.491983  0.992705  0.745600  1
  Sc  Sc4  1  0.499893  0.001214  0.253935  1
  Sc  Sc5  1  0.303438  0.304619  0.196361  1
  Sc  Sc6  1  0.695381  0.696562  0.803639  1
  Sc  Sc7  1  0.194178  0.191532  0.693388  1
  Sc  Sc8  1  0.808468  0.805822  0.306612  1
  Pa  Pa9  1  0.689482  0.310518  0.000000  1
  Pa  Pa10  1  0.309809  0.690191  0.000000  1
  Pa  Pa11  1  0.812216  0.187784  0.500000  1
  Pa  Pa12  1  0.000293  0.999707  0.000000  1
  Pa  Pa13  1  0.498260  0.501740  0.500000  1
  Ni  Ni14  1  0.866451  0.153768  0.206133  1
  Ni  Ni15  1  0.130907  0.847582  0.794094  1
  Ni  Ni16  1  0.633317  0.346869  0.707220  1
  Ni  Ni17  1  0.653131  0.366683  0.292780  1
  Ni  Ni18  1  0.369706  0.652116  0.290421  1
  Ni  Ni19  1  0.347884  0.630294  0.709579  1
  Ni  Ni20  1  0.846232  0.133549  0.793867  1
  Ni  Ni21  1  0.152418  0.869093  0.205906  1
  Ni  Ni22  1  0.934269  0.649360  0.008572  1
  Ni  Ni23  1  0.063186  0.351462  0.992118  1
  Ni  Ni24  1  0.568432  0.849270  0.507720  1
  Ni  Ni25  1  0.150730  0.431568  0.492280  1
  Ni  Ni26  1  0.436384  0.153384  0.491921  1
  Ni  Ni27  1  0.846616  0.563616  0.508079  1
  Ni  Ni28  1  0.350640  0.065731  0.991428  1
  Ni  Ni29  1  0.648538  0.936814  0.007882  1
  Ni  Ni30  1  0.103869  0.105763  0.395266  1
  Ni  Ni31  1  0.894237  0.896131  0.604734  1
  Ni  Ni32  1  0.394309  0.393899  0.896286  1
  Ni  Ni33  1  0.606101  0.605691  0.103714  1
