# generated using pymatgen
data_Hf6NiAs4PRu6
_symmetry_space_group_name_H-M   'P 1'
_cell_length_a   7.60909377
_cell_length_b   7.64441143
_cell_length_c   7.60909467
_cell_angle_alpha   128.36046760
_cell_angle_beta   120.49542605
_cell_angle_gamma   82.51006050
_symmetry_Int_Tables_number   1
_chemical_formula_structural   Hf6NiAs4PRu6
_chemical_formula_sum   'Hf6 Ni1 As4 P1 Ru6'
_cell_volume   287.66725348
_cell_formula_units_Z   1
loop_
 _symmetry_equiv_pos_site_id
 _symmetry_equiv_pos_as_xyz
  1  'x, y, z'
loop_
 _atom_site_type_symbol
 _atom_site_label
 _atom_site_symmetry_multiplicity
 _atom_site_fract_x
 _atom_site_fract_y
 _atom_site_fract_z
 _atom_site_occupancy
  Hf  Hf0  1  0.439281  0.636806  0.697525  1
  Hf  Hf1  1  0.533445  0.251192  0.217746  1
  Hf  Hf2  1  0.748364  0.845355  0.596992  1
  Hf  Hf3  1  0.249259  0.855759  0.106499  1
  Hf  Hf4  1  0.066544  0.254859  0.688315  1
  Hf  Hf5  1  0.959672  0.671744  0.212071  1
  Ni  Ni6  1  0.258969  0.239995  0.481028  1
  As  As7  1  0.332507  0.586094  0.252317  1
  As  As8  1  0.668613  0.919902  0.255123  1
  As  As9  1  0.164779  0.919902  0.751287  1
  As  As10  1  0.833778  0.586094  0.753588  1
  P  P11  1  0.743690  0.268520  0.024828  1
  Ru  Ru12  1  0.504709  0.493741  0.999211  1
  Ru  Ru13  1  0.994529  0.493741  0.489032  1
  Ru  Ru14  1  0.084792  0.253857  0.096911  1
  Ru  Ru15  1  0.862489  0.014093  0.116459  1
  Ru  Ru16  1  0.397634  0.014093  0.651604  1
  Ru  Ru17  1  0.656946  0.253857  0.669065  1
