# generated using pymatgen
data_HfTiFe3Sb2
_symmetry_space_group_name_H-M   'P 1'
_cell_length_a   4.26221631
_cell_length_b   4.26221569
_cell_length_c   7.42164463
_cell_angle_alpha   73.31273268
_cell_angle_beta   73.31273235
_cell_angle_gamma   59.99999087
_symmetry_Int_Tables_number   1
_chemical_formula_structural   HfTiFe3Sb2
_chemical_formula_sum   'Hf1 Ti1 Fe3 Sb2'
_cell_volume   110.15689830
_cell_formula_units_Z   1
loop_
 _symmetry_equiv_pos_site_id
 _symmetry_equiv_pos_as_xyz
  1  'x, y, z'
loop_
 _atom_site_type_symbol
 _atom_site_label
 _atom_site_symmetry_multiplicity
 _atom_site_fract_x
 _atom_site_fract_y
 _atom_site_fract_z
 _atom_site_occupancy
  Hf  Hf0  1  0.247175  0.247175  0.258477  1
  Ti  Ti1  1  0.753161  0.753161  0.740518  1
  Fe  Fe2  1  0.630044  0.630044  0.109868  1
  Fe  Fe3  1  0.120476  0.120476  0.638575  1
  Fe  Fe4  1  0.375544  0.375544  0.873366  1
  Sb  Sb5  1  0.997904  0.997904  0.006291  1
  Sb  Sb6  1  0.500699  0.500699  0.497906  1
