# generated using pymatgen
data_Y5Tm3Al8
_symmetry_space_group_name_H-M   'P 1'
_cell_length_a   5.59399600
_cell_length_b   5.84382131
_cell_length_c   11.39521361
_cell_angle_alpha   89.96249511
_cell_angle_beta   90.00000000
_cell_angle_gamma   90.00000000
_symmetry_Int_Tables_number   1
_chemical_formula_structural   Y5Tm3Al8
_chemical_formula_sum   'Y5 Tm3 Al8'
_cell_volume   372.51302038
_cell_formula_units_Z   1
loop_
 _symmetry_equiv_pos_site_id
 _symmetry_equiv_pos_as_xyz
  1  'x, y, z'
loop_
 _atom_site_type_symbol
 _atom_site_label
 _atom_site_symmetry_multiplicity
 _atom_site_fract_x
 _atom_site_fract_y
 _atom_site_fract_z
 _atom_site_occupancy
  Y  Y0  1  0.250000  0.165354  0.014968  1
  Y  Y1  1  0.750000  0.834965  0.983812  1
  Y  Y2  1  0.750000  0.163177  0.485229  1
  Y  Y3  1  0.250000  0.836275  0.517405  1
  Y  Y4  1  0.250000  0.400287  0.330863  1
  Tm  Tm5  1  0.750000  0.602441  0.669153  1
  Tm  Tm6  1  0.750000  0.397414  0.168938  1
  Tm  Tm7  1  0.250000  0.602379  0.830193  1
  Al  Al8  1  0.999626  0.929794  0.249376  1
  Al  Al9  1  0.500340  0.068660  0.750102  1
  Al  Al10  1  0.999660  0.068660  0.750102  1
  Al  Al11  1  0.500374  0.929794  0.249376  1
  Al  Al12  1  0.250000  0.659744  0.097323  1
  Al  Al13  1  0.750000  0.340789  0.901293  1
  Al  Al14  1  0.750000  0.659448  0.402027  1
  Al  Al15  1  0.250000  0.340818  0.599841  1
