# generated using pymatgen
data_Hf3Zr3BeTe2
_symmetry_space_group_name_H-M   'P 1'
_cell_length_a   3.82776600
_cell_length_b   7.53650494
_cell_length_c   7.53650600
_cell_angle_alpha   119.99999589
_cell_angle_beta   90.00000000
_cell_angle_gamma   90.00000000
_symmetry_Int_Tables_number   1
_chemical_formula_structural   Hf3Zr3BeTe2
_chemical_formula_sum   'Hf3 Zr3 Be1 Te2'
_cell_volume   188.28514941
_cell_formula_units_Z   1
loop_
 _symmetry_equiv_pos_site_id
 _symmetry_equiv_pos_as_xyz
  1  'x, y, z'
loop_
 _atom_site_type_symbol
 _atom_site_label
 _atom_site_symmetry_multiplicity
 _atom_site_fract_x
 _atom_site_fract_y
 _atom_site_fract_z
 _atom_site_occupancy
  Hf  Hf0  1  0.500000  0.769078  0.769078  1
  Hf  Hf1  1  0.500000  0.000000  0.230922  1
  Hf  Hf2  1  0.500000  0.230922  0.000000  1
  Zr  Zr3  1  0.000000  0.401284  0.401284  1
  Zr  Zr4  1  0.000000  0.000000  0.598716  1
  Zr  Zr5  1  0.000000  0.598716  0.000000  1
  Be  Be6  1  0.000000  0.000000  0.000000  1
  Te  Te7  1  0.500000  0.666667  0.333333  1
  Te  Te8  1  0.500000  0.333333  0.666667  1
