# generated using pymatgen
data_PrTh5Cd23Sb
_symmetry_space_group_name_H-M   'P 1'
_cell_length_a   10.12772671
_cell_length_b   10.13635014
_cell_length_c   10.13633700
_cell_angle_alpha   59.94421197
_cell_angle_beta   60.02859752
_cell_angle_gamma   60.02862938
_symmetry_Int_Tables_number   1
_chemical_formula_structural   PrTh5Cd23Sb
_chemical_formula_sum   'Pr1 Th5 Cd23 Sb1'
_cell_volume   735.80666174
_cell_formula_units_Z   1
loop_
 _symmetry_equiv_pos_site_id
 _symmetry_equiv_pos_as_xyz
  1  'x, y, z'
loop_
 _atom_site_type_symbol
 _atom_site_label
 _atom_site_symmetry_multiplicity
 _atom_site_fract_x
 _atom_site_fract_y
 _atom_site_fract_z
 _atom_site_occupancy
  Pr  Pr0  1  0.220090  0.779947  0.779971  1
  Th  Th1  1  0.780717  0.783479  0.219130  1
  Th  Th2  1  0.216518  0.783442  0.219150  1
  Th  Th3  1  0.784255  0.215724  0.215712  1
  Th  Th4  1  0.216497  0.219134  0.783471  1
  Th  Th5  1  0.780691  0.219166  0.783478  1
  Cd  Cd6  1  0.838529  0.838584  0.484011  1
  Cd  Cd7  1  0.838525  0.484007  0.838578  1
  Cd  Cd8  1  0.481217  0.839470  0.839460  1
  Cd  Cd9  1  0.839567  0.839595  0.839581  1
  Cd  Cd10  1  0.160640  0.160770  0.518485  1
  Cd  Cd11  1  0.160645  0.518491  0.160774  1
  Cd  Cd12  1  0.515707  0.161629  0.161633  1
  Cd  Cd13  1  0.161303  0.161571  0.161585  1
  Cd  Cd14  1  0.624630  0.624312  0.127893  1
  Cd  Cd15  1  0.624641  0.127889  0.624318  1
  Cd  Cd16  1  0.128826  0.624289  0.624283  1
  Cd  Cd17  1  0.623447  0.624008  0.624014  1
  Cd  Cd18  1  0.375602  0.376036  0.871190  1
  Cd  Cd19  1  0.375598  0.871192  0.376027  1
  Cd  Cd20  1  0.872218  0.375249  0.375248  1
  Cd  Cd21  1  0.376245  0.375699  0.375667  1
  Cd  Cd22  1  0.999949  0.000027  0.500009  1
  Cd  Cd23  1  0.500020  0.000125  0.500113  1
  Cd  Cd24  1  0.999901  0.500060  0.500053  1
  Cd  Cd25  1  0.500021  0.500115  0.000130  1
  Cd  Cd26  1  0.999949  0.500010  0.000026  1
  Cd  Cd27  1  0.500145  0.999887  0.999883  1
  Cd  Cd28  1  0.501330  0.498641  0.498636  1
  Sb  Sb29  1  0.002575  0.997453  0.997491  1
