# generated using pymatgen
data_Yb5Cd4In
_symmetry_space_group_name_H-M   'P 1'
_cell_length_a   3.83479000
_cell_length_b   3.83479000
_cell_length_c   18.66492900
_cell_angle_alpha   90.00000000
_cell_angle_beta   90.00000000
_cell_angle_gamma   90.00000000
_symmetry_Int_Tables_number   1
_chemical_formula_structural   Yb5Cd4In
_chemical_formula_sum   'Yb5 Cd4 In1'
_cell_volume   274.47924763
_cell_formula_units_Z   1
loop_
 _symmetry_equiv_pos_site_id
 _symmetry_equiv_pos_as_xyz
  1  'x, y, z'
loop_
 _atom_site_type_symbol
 _atom_site_label
 _atom_site_symmetry_multiplicity
 _atom_site_fract_x
 _atom_site_fract_y
 _atom_site_fract_z
 _atom_site_occupancy
  Yb  Yb0  1  0.500000  0.500000  0.102183  1
  Yb  Yb1  1  0.500000  0.500000  0.299332  1
  Yb  Yb2  1  0.500000  0.500000  0.500000  1
  Yb  Yb3  1  0.500000  0.500000  0.700668  1
  Yb  Yb4  1  0.500000  0.500000  0.897817  1
  Cd  Cd5  1  0.000000  0.000000  0.200444  1
  Cd  Cd6  1  0.000000  0.000000  0.400540  1
  Cd  Cd7  1  0.000000  0.000000  0.599460  1
  Cd  Cd8  1  0.000000  0.000000  0.799556  1
  In  In9  1  0.000000  0.000000  0.000000  1
