# generated using pymatgen
data_Er3Tm13In4Ir3Ru
_symmetry_space_group_name_H-M   'P 1'
_cell_length_a   9.55776568
_cell_length_b   9.55941756
_cell_length_c   9.55776503
_cell_angle_alpha   59.90029892
_cell_angle_beta   59.90404466
_cell_angle_gamma   59.90029339
_symmetry_Int_Tables_number   1
_chemical_formula_structural   Er3Tm13In4Ir3Ru
_chemical_formula_sum   'Er3 Tm13 In4 Ir3 Ru1'
_cell_volume   616.10969540
_cell_formula_units_Z   1
loop_
 _symmetry_equiv_pos_site_id
 _symmetry_equiv_pos_as_xyz
  1  'x, y, z'
loop_
 _atom_site_type_symbol
 _atom_site_label
 _atom_site_symmetry_multiplicity
 _atom_site_fract_x
 _atom_site_fract_y
 _atom_site_fract_z
 _atom_site_occupancy
  Er  Er0  1  0.060551  0.439312  0.439878  1
  Er  Er1  1  0.439878  0.439312  0.060551  1
  Er  Er2  1  0.059045  0.441279  0.059045  1
  Tm  Tm3  1  0.059073  0.058535  0.441636  1
  Tm  Tm4  1  0.650917  0.046260  0.650917  1
  Tm  Tm5  1  0.191862  0.809089  0.191862  1
  Tm  Tm6  1  0.439807  0.060128  0.439807  1
  Tm  Tm7  1  0.191992  0.191864  0.808882  1
  Tm  Tm8  1  0.651048  0.651216  0.651048  1
  Tm  Tm9  1  0.046139  0.651043  0.650776  1
  Tm  Tm10  1  0.441636  0.058535  0.059073  1
  Tm  Tm11  1  0.650776  0.651043  0.046139  1
  Tm  Tm12  1  0.190644  0.809193  0.808780  1
  Tm  Tm13  1  0.809045  0.190495  0.809045  1
  Tm  Tm14  1  0.808882  0.191864  0.191992  1
  Tm  Tm15  1  0.808780  0.809193  0.190644  1
  In  In16  1  0.749718  0.416710  0.416887  1
  In  In17  1  0.416887  0.416710  0.749718  1
  In  In18  1  0.416652  0.750383  0.416652  1
  In  In19  1  0.416914  0.417020  0.416914  1
  Ir  Ir20  1  0.422279  0.859286  0.858775  1
  Ir  Ir21  1  0.858775  0.859286  0.422279  1
  Ir  Ir22  1  0.858934  0.422173  0.858934  1
  Ru  Ru23  1  0.859769  0.860078  0.859769  1
