# generated using pymatgen
data_Ac6Cu2Ni4P17
_symmetry_space_group_name_H-M   'P 1'
_cell_length_a   9.02493887
_cell_length_b   9.02612224
_cell_length_c   9.02206634
_cell_angle_alpha   109.33756355
_cell_angle_beta   109.52709406
_cell_angle_gamma   109.54527828
_symmetry_Int_Tables_number   1
_chemical_formula_structural   Ac6Cu2Ni4P17
_chemical_formula_sum   'Ac6 Cu2 Ni4 P17'
_cell_volume   565.78087336
_cell_formula_units_Z   1
loop_
 _symmetry_equiv_pos_site_id
 _symmetry_equiv_pos_as_xyz
  1  'x, y, z'
loop_
 _atom_site_type_symbol
 _atom_site_label
 _atom_site_symmetry_multiplicity
 _atom_site_fract_x
 _atom_site_fract_y
 _atom_site_fract_z
 _atom_site_occupancy
  Ac  Ac0  1  0.708532  0.001242  0.707644  1
  Ac  Ac1  1  0.291468  0.292710  0.999112  1
  Ac  Ac2  1  0.706664  0.707318  0.999214  1
  Ac  Ac3  1  0.000000  0.290529  0.292476  1
  Ac  Ac4  1  0.000000  0.707882  0.709807  1
  Ac  Ac5  1  0.293336  0.000653  0.292550  1
  Cu  Cu6  1  0.749374  0.499030  0.250028  1
  Cu  Cu7  1  0.250626  0.749656  0.500654  1
  Ni  Ni8  1  0.750660  0.249724  0.501331  1
  Ni  Ni9  1  0.499577  0.250914  0.748713  1
  Ni  Ni10  1  0.500423  0.751338  0.249136  1
  Ni  Ni11  1  0.249340  0.499064  0.750671  1
  P  P12  1  0.000000  0.000071  0.000087  1
  P  P13  1  0.566973  0.565224  0.566469  1
  P  P14  1  0.000000  0.433480  0.998991  1
  P  P15  1  0.433027  0.998251  0.999495  1
  P  P16  1  0.000000  0.002464  0.434985  1
  P  P17  1  0.367790  0.369384  0.604051  1
  P  P18  1  0.000000  0.236216  0.631855  1
  P  P19  1  0.234975  0.007226  0.633683  1
  P  P20  1  0.764698  0.395900  0.764777  1
  P  P21  1  0.398150  0.763489  0.771850  1
  P  P22  1  0.601850  0.365339  0.373700  1
  P  P23  1  0.000000  0.629832  0.226690  1
  P  P24  1  0.765025  0.772251  0.398708  1
  P  P25  1  0.625083  0.226549  0.991032  1
  P  P26  1  0.235302  0.631202  0.000079  1
  P  P27  1  0.374917  0.601466  0.365949  1
  P  P28  1  0.632210  0.001594  0.236261  1
