# generated using pymatgen
data_CeNp(AsH)2
_symmetry_space_group_name_H-M   'P 1'
_cell_length_a   3.89044600
_cell_length_b   3.89044681
_cell_length_c   7.62388700
_cell_angle_alpha   90.00000000
_cell_angle_beta   90.00000000
_cell_angle_gamma   119.99999314
_symmetry_Int_Tables_number   1
_chemical_formula_structural   CeNp(AsH)2
_chemical_formula_sum   'Ce1 Np1 As2 H2'
_cell_volume   99.93232362
_cell_formula_units_Z   1
loop_
 _symmetry_equiv_pos_site_id
 _symmetry_equiv_pos_as_xyz
  1  'x, y, z'
loop_
 _atom_site_type_symbol
 _atom_site_label
 _atom_site_symmetry_multiplicity
 _atom_site_fract_x
 _atom_site_fract_y
 _atom_site_fract_z
 _atom_site_occupancy
  Ce  Ce0  1  0.333333  0.666667  0.250000  1
  Np  Np1  1  0.666667  0.333333  0.750000  1
  As  As2  1  0.000000  0.000000  0.992645  1
  As  As3  1  0.000000  0.000000  0.507355  1
  H  H4  1  0.666667  0.333333  0.250000  1
  H  H5  1  0.333333  0.666667  0.750000  1
