# generated using pymatgen
data_Tb2Ga2Co2C
_symmetry_space_group_name_H-M   'P 1'
_cell_length_a   5.76789065
_cell_length_b   5.76789101
_cell_length_c   6.95904102
_cell_angle_alpha   125.90838406
_cell_angle_beta   125.90838465
_cell_angle_gamma   40.18972779
_symmetry_Int_Tables_number   1
_chemical_formula_structural   Tb2Ga2Co2C
_chemical_formula_sum   'Tb2 Ga2 Co2 C1'
_cell_volume   116.68645883
_cell_formula_units_Z   1
loop_
 _symmetry_equiv_pos_site_id
 _symmetry_equiv_pos_as_xyz
  1  'x, y, z'
loop_
 _atom_site_type_symbol
 _atom_site_label
 _atom_site_symmetry_multiplicity
 _atom_site_fract_x
 _atom_site_fract_y
 _atom_site_fract_z
 _atom_site_occupancy
  Tb  Tb0  1  0.554307  0.554307  0.284586  1
  Tb  Tb1  1  0.445693  0.445693  0.715415  1
  Ga  Ga2  1  0.837944  0.837944  0.290868  1
  Ga  Ga3  1  0.162056  0.162056  0.709131  1
  Co  Co4  1  0.192153  0.192153  0.085547  1
  Co  Co5  1  0.807847  0.807847  0.914452  1
  C  C6  1  0.000000  0.000000  0.000000  1
