# generated using pymatgen
data_Zr6Al4Ga3Ni16H3
_symmetry_space_group_name_H-M   'P 1'
_cell_length_a   8.28456220
_cell_length_b   8.29744352
_cell_length_c   8.29744408
_cell_angle_alpha   119.88551231
_cell_angle_beta   120.22462247
_cell_angle_gamma   89.94958598
_symmetry_Int_Tables_number   1
_chemical_formula_structural   Zr6Al4Ga3Ni16H3
_chemical_formula_sum   'Zr6 Al4 Ga3 Ni16 H3'
_cell_volume   402.81603125
_cell_formula_units_Z   1
loop_
 _symmetry_equiv_pos_site_id
 _symmetry_equiv_pos_as_xyz
  1  'x, y, z'
loop_
 _atom_site_type_symbol
 _atom_site_label
 _atom_site_symmetry_multiplicity
 _atom_site_fract_x
 _atom_site_fract_y
 _atom_site_fract_z
 _atom_site_occupancy
  Zr  Zr0  1  0.794633  0.213225  0.003142  1
  Zr  Zr1  1  0.794633  0.791493  0.581409  1
  Zr  Zr2  1  0.777652  0.778781  0.998872  1
  Zr  Zr3  1  0.210773  0.791982  0.996558  1
  Zr  Zr4  1  0.210773  0.214214  0.418792  1
  Zr  Zr5  1  0.213326  0.212678  0.000648  1
  Al  Al6  1  0.000823  0.002480  0.503422  1
  Al  Al7  1  0.000823  0.497401  0.998343  1
  Al  Al8  1  0.998275  0.498264  0.500012  1
  Al  Al9  1  0.499406  0.499515  0.999891  1
  Ga  Ga10  1  0.498672  0.496665  0.496103  1
  Ga  Ga11  1  0.498672  0.002570  0.002007  1
  Ga  Ga12  1  0.499751  0.999905  0.499847  1
  Ni  Ni13  1  0.482823  0.826691  0.656132  1
  Ni  Ni14  1  0.168909  0.826250  0.342657  1
  Ni  Ni15  1  0.167372  0.829845  0.660319  1
  Ni  Ni16  1  0.167372  0.507051  0.337526  1
  Ni  Ni17  1  0.510180  0.169418  0.340764  1
  Ni  Ni18  1  0.830710  0.170031  0.660679  1
  Ni  Ni19  1  0.831924  0.167070  0.337342  1
  Ni  Ni20  1  0.831924  0.494583  0.664854  1
  Ni  Ni21  1  0.861252  0.618424  0.242828  1
  Ni  Ni22  1  0.374357  0.617116  0.757241  1
  Ni  Ni23  1  0.378943  0.618896  0.237502  1
  Ni  Ni24  1  0.378943  0.141444  0.760047  1
  Ni  Ni25  1  0.138361  0.380436  0.757924  1
  Ni  Ni26  1  0.623692  0.381833  0.241859  1
  Ni  Ni27  1  0.619886  0.378797  0.761484  1
  Ni  Ni28  1  0.619886  0.858401  0.241088  1
  H  H29  1  0.027616  0.027286  0.000330  1
  H  H30  1  0.718426  0.903893  0.814534  1
  H  H31  1  0.089006  0.903163  0.185844  1
