# generated using pymatgen
data_DyY3Ho2(SbO7)2
_symmetry_space_group_name_H-M   'P 1'
_cell_length_a   6.48187840
_cell_length_b   6.48723307
_cell_length_c   7.51525712
_cell_angle_alpha   89.98942102
_cell_angle_beta   89.98782977
_cell_angle_gamma   109.15129387
_symmetry_Int_Tables_number   1
_chemical_formula_structural   DyY3Ho2(SbO7)2
_chemical_formula_sum   'Dy1 Y3 Ho2 Sb2 O14'
_cell_volume   298.52293234
_cell_formula_units_Z   1
loop_
 _symmetry_equiv_pos_site_id
 _symmetry_equiv_pos_as_xyz
  1  'x, y, z'
loop_
 _atom_site_type_symbol
 _atom_site_label
 _atom_site_symmetry_multiplicity
 _atom_site_fract_x
 _atom_site_fract_y
 _atom_site_fract_z
 _atom_site_occupancy
  Dy  Dy0  1  0.532218  0.000228  0.754334  1
  Y  Y1  1  0.483857  0.483039  0.000462  1
  Y  Y2  1  0.516910  0.516669  0.499308  1
  Y  Y3  1  0.000155  0.468547  0.745744  1
  Ho  Ho4  1  0.000448  0.531957  0.245628  1
  Ho  Ho5  1  0.468017  0.999625  0.254431  1
  Sb  Sb6  1  0.999380  0.999423  0.499308  1
  Sb  Sb7  1  0.000564  0.000708  0.000731  1
  O  O8  1  0.929351  0.069655  0.750012  1
  O  O9  1  0.637613  0.361848  0.749852  1
  O  O10  1  0.316776  0.061297  0.533926  1
  O  O11  1  0.936661  0.682862  0.967176  1
  O  O12  1  0.630724  0.368933  0.250038  1
  O  O13  1  0.921043  0.674690  0.524989  1
  O  O14  1  0.325167  0.077852  0.973998  1
  O  O15  1  0.078404  0.325163  0.027760  1
  O  O16  1  0.674810  0.922417  0.472456  1
  O  O17  1  0.370265  0.630226  0.750056  1
  O  O18  1  0.683489  0.940170  0.035601  1
  O  O19  1  0.061300  0.316564  0.464275  1
  O  O20  1  0.360976  0.639347  0.249917  1
  O  O21  1  0.071873  0.928777  0.249998  1
