# generated using pymatgen
data_DyHo7Re13B12
_symmetry_space_group_name_H-M   'P 1'
_cell_length_a   7.78566631
_cell_length_b   7.78566672
_cell_length_c   7.78566587
_cell_angle_alpha   86.44826032
_cell_angle_beta   86.44825471
_cell_angle_gamma   86.44826229
_symmetry_Int_Tables_number   1
_chemical_formula_structural   DyHo7Re13B12
_chemical_formula_sum   'Dy1 Ho7 Re13 B12'
_cell_volume   469.32878250
_cell_formula_units_Z   1
loop_
 _symmetry_equiv_pos_site_id
 _symmetry_equiv_pos_as_xyz
  1  'x, y, z'
loop_
 _atom_site_type_symbol
 _atom_site_label
 _atom_site_symmetry_multiplicity
 _atom_site_fract_x
 _atom_site_fract_y
 _atom_site_fract_z
 _atom_site_occupancy
  Dy  Dy0  1  0.641436  0.641436  0.641436  1
  Ho  Ho1  1  0.358749  0.358749  0.358749  1
  Ho  Ho2  1  0.188783  0.188783  0.687438  1
  Ho  Ho3  1  0.687438  0.188783  0.188783  1
  Ho  Ho4  1  0.188783  0.687438  0.188783  1
  Ho  Ho5  1  0.811194  0.811194  0.312572  1
  Ho  Ho6  1  0.312572  0.811194  0.811194  1
  Ho  Ho7  1  0.811194  0.312572  0.811194  1
  Re  Re8  1  0.000029  0.000029  0.000029  1
  Re  Re9  1  0.596741  0.063373  0.596741  1
  Re  Re10  1  0.596741  0.596741  0.063373  1
  Re  Re11  1  0.063373  0.596741  0.596741  1
  Re  Re12  1  0.403201  0.936830  0.403201  1
  Re  Re13  1  0.403201  0.403201  0.936830  1
  Re  Re14  1  0.936830  0.403201  0.403201  1
  Re  Re15  1  0.923232  0.923232  0.670668  1
  Re  Re16  1  0.670668  0.923232  0.923232  1
  Re  Re17  1  0.923232  0.670668  0.923232  1
  Re  Re18  1  0.076887  0.076887  0.329356  1
  Re  Re19  1  0.329356  0.076887  0.076887  1
  Re  Re20  1  0.076887  0.329356  0.076887  1
  B  B21  1  0.152369  0.847620  0.499975  1
  B  B22  1  0.499975  0.152369  0.847620  1
  B  B23  1  0.847620  0.499975  0.152369  1
  B  B24  1  0.499975  0.847620  0.152369  1
  B  B25  1  0.152369  0.499975  0.847620  1
  B  B26  1  0.847620  0.152369  0.499975  1
  B  B27  1  0.671157  0.499885  0.328729  1
  B  B28  1  0.328729  0.671157  0.499885  1
  B  B29  1  0.499885  0.328729  0.671157  1
  B  B30  1  0.328729  0.499885  0.671157  1
  B  B31  1  0.671157  0.328729  0.499885  1
  B  B32  1  0.499885  0.671157  0.328729  1
