# generated using pymatgen
data_YHoTm2(Al3Ir)6
_symmetry_space_group_name_H-M   'P 1'
_cell_length_a   7.54596707
_cell_length_b   7.54421463
_cell_length_c   9.45831300
_cell_angle_alpha   90.00000000
_cell_angle_beta   90.00000000
_cell_angle_gamma   119.52820650
_symmetry_Int_Tables_number   1
_chemical_formula_structural   YHoTm2(Al3Ir)6
_chemical_formula_sum   'Y1 Ho1 Tm2 Al18 Ir6'
_cell_volume   468.50946195
_cell_formula_units_Z   1
loop_
 _symmetry_equiv_pos_site_id
 _symmetry_equiv_pos_as_xyz
  1  'x, y, z'
loop_
 _atom_site_type_symbol
 _atom_site_label
 _atom_site_symmetry_multiplicity
 _atom_site_fract_x
 _atom_site_fract_y
 _atom_site_fract_z
 _atom_site_occupancy
  Y  Y0  1  0.671254  0.994720  0.250000  1
  Ho  Ho1  1  0.994875  0.671328  0.250000  1
  Tm  Tm2  1  0.005394  0.328316  0.750000  1
  Tm  Tm3  1  0.328412  0.005464  0.750000  1
  Al  Al4  1  0.129740  0.129174  0.250000  1
  Al  Al5  1  0.871412  0.871477  0.750000  1
  Al  Al6  1  0.001534  0.335857  0.073127  1
  Al  Al7  1  0.999389  0.664700  0.925095  1
  Al  Al8  1  0.999389  0.664700  0.574905  1
  Al  Al9  1  0.334560  0.000887  0.426892  1
  Al  Al10  1  0.001534  0.335857  0.426873  1
  Al  Al11  1  0.664715  0.999450  0.575401  1
  Al  Al12  1  0.664715  0.999450  0.924599  1
  Al  Al13  1  0.334560  0.000887  0.073108  1
  Al  Al14  1  0.332993  0.332994  0.552704  1
  Al  Al15  1  0.666883  0.666257  0.449094  1
  Al  Al16  1  0.666883  0.666257  0.050906  1
  Al  Al17  1  0.332993  0.332994  0.947296  1
  Al  Al18  1  0.338601  0.547886  0.250000  1
  Al  Al19  1  0.660507  0.450739  0.750000  1
  Al  Al20  1  0.548611  0.339873  0.250000  1
  Al  Al21  1  0.450688  0.660504  0.750000  1
  Ir  Ir22  1  0.671972  0.327992  0.999397  1
  Ir  Ir23  1  0.327540  0.671746  0.999429  1
  Ir  Ir24  1  0.327540  0.671746  0.500571  1
  Ir  Ir25  1  0.671972  0.327992  0.500603  1
  Ir  Ir26  1  0.000666  0.000374  0.999270  1
  Ir  Ir27  1  0.000666  0.000374  0.500730  1
