# generated using pymatgen
data_Hf3Si3Mo2Pd
_symmetry_space_group_name_H-M   'P 1'
_cell_length_a   6.91051100
_cell_length_b   6.98981046
_cell_length_c   3.54141300
_cell_angle_alpha   90.00000000
_cell_angle_beta   90.00000000
_cell_angle_gamma   119.62540972
_symmetry_Int_Tables_number   1
_chemical_formula_structural   Hf3Si3Mo2Pd
_chemical_formula_sum   'Hf3 Si3 Mo2 Pd1'
_cell_volume   148.69957346
_cell_formula_units_Z   1
loop_
 _symmetry_equiv_pos_site_id
 _symmetry_equiv_pos_as_xyz
  1  'x, y, z'
loop_
 _atom_site_type_symbol
 _atom_site_label
 _atom_site_symmetry_multiplicity
 _atom_site_fract_x
 _atom_site_fract_y
 _atom_site_fract_z
 _atom_site_occupancy
  Hf  Hf0  1  0.603757  0.000000  0.000000  1
  Hf  Hf1  1  0.405275  0.418348  0.000000  1
  Hf  Hf2  1  0.986927  0.581653  0.000000  1
  Si  Si3  1  0.005697  0.000000  0.000000  1
  Si  Si4  1  0.660916  0.329485  0.499999  1
  Si  Si5  1  0.331431  0.670514  0.499999  1
  Mo  Mo6  1  0.001738  0.252599  0.499999  1
  Mo  Mo7  1  0.749139  0.747401  0.499999  1
  Pd  Pd8  1  0.255119  0.000000  0.499999  1
