# generated using pymatgen
data_KBa3BiO6
_symmetry_space_group_name_H-M   'P 1'
_cell_length_a   7.45487352
_cell_length_b   7.45487332
_cell_length_c   7.45487344
_cell_angle_alpha   89.79443141
_cell_angle_beta   89.79442723
_cell_angle_gamma   89.79443115
_symmetry_Int_Tables_number   1
_chemical_formula_structural   KBa3BiO6
_chemical_formula_sum   'K2 Ba6 Bi2 O12'
_cell_volume   414.29763704
_cell_formula_units_Z   2
loop_
 _symmetry_equiv_pos_site_id
 _symmetry_equiv_pos_as_xyz
  1  'x, y, z'
loop_
 _atom_site_type_symbol
 _atom_site_label
 _atom_site_symmetry_multiplicity
 _atom_site_fract_x
 _atom_site_fract_y
 _atom_site_fract_z
 _atom_site_occupancy
  K  K0  1  0.250000  0.250000  0.250000  1
  K  K1  1  0.750000  0.750000  0.750000  1
  Ba  Ba2  1  0.250000  0.601394  0.898606  1
  Ba  Ba3  1  0.898606  0.250000  0.601394  1
  Ba  Ba4  1  0.601394  0.898606  0.250000  1
  Ba  Ba5  1  0.398606  0.101394  0.750000  1
  Ba  Ba6  1  0.750000  0.398606  0.101394  1
  Ba  Ba7  1  0.101394  0.750000  0.398606  1
  Bi  Bi8  1  0.000000  0.000000  0.000000  1
  Bi  Bi9  1  0.500000  0.500000  0.500000  1
  O  O10  1  0.935734  0.073985  0.276182  1
  O  O11  1  0.276182  0.935734  0.073985  1
  O  O12  1  0.073985  0.276182  0.935734  1
  O  O13  1  0.776182  0.573985  0.435734  1
  O  O14  1  0.435734  0.776182  0.573985  1
  O  O15  1  0.573985  0.435734  0.776182  1
  O  O16  1  0.064266  0.926015  0.723818  1
  O  O17  1  0.723818  0.064266  0.926015  1
  O  O18  1  0.926015  0.723818  0.064266  1
  O  O19  1  0.223818  0.426015  0.564266  1
  O  O20  1  0.564266  0.223818  0.426015  1
  O  O21  1  0.426015  0.564266  0.223818  1
