# generated using pymatgen
data_Y5InSnSb
_symmetry_space_group_name_H-M   'P 1'
_cell_length_a   6.59249400
_cell_length_b   8.98599567
_cell_length_c   8.98634200
_cell_angle_alpha   120.00185581
_cell_angle_beta   89.99943611
_cell_angle_gamma   90.00007737
_symmetry_Int_Tables_number   1
_chemical_formula_structural   Y5InSnSb
_chemical_formula_sum   'Y10 In2 Sn2 Sb2'
_cell_volume   461.02173542
_cell_formula_units_Z   2
loop_
 _symmetry_equiv_pos_site_id
 _symmetry_equiv_pos_as_xyz
  1  'x, y, z'
loop_
 _atom_site_type_symbol
 _atom_site_label
 _atom_site_symmetry_multiplicity
 _atom_site_fract_x
 _atom_site_fract_y
 _atom_site_fract_z
 _atom_site_occupancy
  Y  Y0  1  0.500758  0.336785  0.668010  1
  Y  Y1  1  0.500760  0.663211  0.331228  1
  Y  Y2  1  0.999240  0.663208  0.331218  1
  Y  Y3  1  0.999242  0.336791  0.668019  1
  Y  Y4  1  0.750002  0.241375  0.005128  1
  Y  Y5  1  0.750004  0.758626  0.763760  1
  Y  Y6  1  0.750004  0.000015  0.240016  1
  Y  Y7  1  0.250001  0.758355  0.995769  1
  Y  Y8  1  0.250001  0.241618  0.237407  1
  Y  Y9  1  0.250002  0.999997  0.758781  1
  In  In10  1  0.749969  0.603965  0.001373  1
  In  In11  1  0.750003  0.396062  0.397417  1
  Sn  Sn12  1  0.250003  0.393806  0.997632  1
  Sn  Sn13  1  0.250003  0.606195  0.603801  1
  Sb  Sb14  1  0.750004  0.999999  0.608721  1
  Sb  Sb15  1  0.250004  0.999992  0.391723  1
