# generated using pymatgen
data_KLiCrF6
_symmetry_space_group_name_H-M   'P 1'
_cell_length_a   10.73926700
_cell_length_b   5.55282888
_cell_length_c   8.72625679
_cell_angle_alpha   90.51080792
_cell_angle_beta   90.00000000
_cell_angle_gamma   90.00000000
_symmetry_Int_Tables_number   1
_chemical_formula_structural   KLiCrF6
_chemical_formula_sum   'K4 Li4 Cr4 F24'
_cell_volume   520.35491338
_cell_formula_units_Z   4
loop_
 _symmetry_equiv_pos_site_id
 _symmetry_equiv_pos_as_xyz
  1  'x, y, z'
loop_
 _atom_site_type_symbol
 _atom_site_label
 _atom_site_symmetry_multiplicity
 _atom_site_fract_x
 _atom_site_fract_y
 _atom_site_fract_z
 _atom_site_occupancy
  K  K0  1  0.687744  0.299368  0.993495  1
  K  K1  1  0.187744  0.700632  0.506505  1
  K  K2  1  0.312256  0.700632  0.006505  1
  K  K3  1  0.812256  0.299368  0.493495  1
  Li  Li4  1  0.592830  0.757785  0.681664  1
  Li  Li5  1  0.092830  0.242215  0.818336  1
  Li  Li6  1  0.407170  0.242215  0.318336  1
  Li  Li7  1  0.907170  0.757785  0.181664  1
  Cr  Cr8  1  0.909894  0.763741  0.766381  1
  Cr  Cr9  1  0.409894  0.236259  0.733619  1
  Cr  Cr10  1  0.090106  0.236259  0.233619  1
  Cr  Cr11  1  0.590106  0.763741  0.266381  1
  F  F12  1  0.749309  0.621522  0.739389  1
  F  F13  1  0.249309  0.378478  0.760611  1
  F  F14  1  0.250691  0.378478  0.260611  1
  F  F15  1  0.750691  0.621522  0.239389  1
  F  F16  1  0.903871  0.676810  0.969730  1
  F  F17  1  0.403871  0.323190  0.530270  1
  F  F18  1  0.096129  0.323190  0.030270  1
  F  F19  1  0.596129  0.676810  0.469730  1
  F  F20  1  0.069954  0.905324  0.791710  1
  F  F21  1  0.569954  0.094676  0.708290  1
  F  F22  1  0.930046  0.094676  0.208290  1
  F  F23  1  0.430046  0.905324  0.291710  1
  F  F24  1  0.912666  0.830134  0.561658  1
  F  F25  1  0.412666  0.169866  0.938342  1
  F  F26  1  0.087334  0.169866  0.438342  1
  F  F27  1  0.587334  0.830134  0.061658  1
  F  F28  1  0.839045  0.054665  0.808816  1
  F  F29  1  0.339045  0.945335  0.691184  1
  F  F30  1  0.160955  0.945335  0.191184  1
  F  F31  1  0.660955  0.054665  0.308816  1
  F  F32  1  0.985150  0.468479  0.717821  1
  F  F33  1  0.485150  0.531521  0.782179  1
  F  F34  1  0.014850  0.531521  0.282179  1
  F  F35  1  0.514850  0.468479  0.217821  1
