# generated using pymatgen
data_Ca12Si8Ir5Pd3
_symmetry_space_group_name_H-M   'P 1'
_cell_length_a   5.77610088
_cell_length_b   7.75901984
_cell_length_c   13.39395992
_cell_angle_alpha   89.87458427
_cell_angle_beta   90.07671031
_cell_angle_gamma   90.09408087
_symmetry_Int_Tables_number   1
_chemical_formula_structural   Ca12Si8Ir5Pd3
_chemical_formula_sum   'Ca12 Si8 Ir5 Pd3'
_cell_volume   600.27272931
_cell_formula_units_Z   1
loop_
 _symmetry_equiv_pos_site_id
 _symmetry_equiv_pos_as_xyz
  1  'x, y, z'
loop_
 _atom_site_type_symbol
 _atom_site_label
 _atom_site_symmetry_multiplicity
 _atom_site_fract_x
 _atom_site_fract_y
 _atom_site_fract_z
 _atom_site_occupancy
  Ca  Ca0  1  0.137189  0.607644  0.101353  1
  Ca  Ca1  1  0.137363  0.888363  0.896834  1
  Ca  Ca2  1  0.862109  0.106954  0.396158  1
  Ca  Ca3  1  0.862776  0.392981  0.604825  1
  Ca  Ca4  1  0.871178  0.392939  0.898689  1
  Ca  Ca5  1  0.871122  0.113087  0.100018  1
  Ca  Ca6  1  0.125624  0.885692  0.601158  1
  Ca  Ca7  1  0.127466  0.612141  0.399352  1
  Ca  Ca8  1  0.358492  0.264320  0.248830  1
  Ca  Ca9  1  0.363667  0.235281  0.753481  1
  Ca  Ca10  1  0.640778  0.762003  0.249093  1
  Ca  Ca11  1  0.642746  0.734771  0.750629  1
  Si  Si12  1  0.416379  0.257070  0.995081  1
  Si  Si13  1  0.587194  0.750890  0.500840  1
  Si  Si14  1  0.604254  0.745578  0.996113  1
  Si  Si15  1  0.378873  0.249729  0.500320  1
  Si  Si16  1  0.840398  0.409854  0.246348  1
  Si  Si17  1  0.842535  0.087889  0.755353  1
  Si  Si18  1  0.162733  0.911225  0.254502  1
  Si  Si19  1  0.169196  0.583948  0.747449  1
  Ir  Ir20  1  0.634087  0.474887  0.090490  1
  Ir  Ir21  1  0.634486  0.024871  0.912711  1
  Ir  Ir22  1  0.367973  0.975242  0.412393  1
  Ir  Ir23  1  0.368552  0.524704  0.588285  1
  Ir  Ir24  1  0.366514  0.532590  0.907012  1
  Pd  Pd25  1  0.367081  0.974486  0.091723  1
  Pd  Pd26  1  0.628830  0.032876  0.593330  1
  Pd  Pd27  1  0.630407  0.467983  0.407628  1
