# generated using pymatgen
data_Pr3Zn(Pt2O7)2
_symmetry_space_group_name_H-M   'P 1'
_cell_length_a   7.28872706
_cell_length_b   7.28872745
_cell_length_c   7.28872537
_cell_angle_alpha   61.70157121
_cell_angle_beta   61.70157111
_cell_angle_gamma   61.70156284
_symmetry_Int_Tables_number   1
_chemical_formula_structural   Pr3Zn(Pt2O7)2
_chemical_formula_sum   'Pr3 Zn1 Pt4 O14'
_cell_volume   284.24744136
_cell_formula_units_Z   1
loop_
 _symmetry_equiv_pos_site_id
 _symmetry_equiv_pos_as_xyz
  1  'x, y, z'
loop_
 _atom_site_type_symbol
 _atom_site_label
 _atom_site_symmetry_multiplicity
 _atom_site_fract_x
 _atom_site_fract_y
 _atom_site_fract_z
 _atom_site_occupancy
  Pr  Pr0  1  0.625000  0.625000  0.125000  1
  Pr  Pr1  1  0.625000  0.125000  0.625000  1
  Pr  Pr2  1  0.125000  0.625000  0.625000  1
  Zn  Zn3  1  0.625000  0.625000  0.625000  1
  Pt  Pt4  1  0.125000  0.125000  0.625000  1
  Pt  Pt5  1  0.125000  0.625000  0.125000  1
  Pt  Pt6  1  0.625000  0.125000  0.125000  1
  Pt  Pt7  1  0.125000  0.125000  0.125000  1
  O  O8  1  0.514814  0.514814  0.514814  1
  O  O9  1  0.735186  0.735186  0.735186  1
  O  O10  1  0.452365  0.050305  0.452365  1
  O  O11  1  0.212858  0.790356  0.212858  1
  O  O12  1  0.452365  0.452365  0.050305  1
  O  O13  1  0.050305  0.452365  0.452365  1
  O  O14  1  0.459644  0.037142  0.037142  1
  O  O15  1  0.037142  0.037142  0.459644  1
  O  O16  1  0.037142  0.459644  0.037142  1
  O  O17  1  0.790356  0.212858  0.212858  1
  O  O18  1  0.199695  0.797635  0.797635  1
  O  O19  1  0.797635  0.199695  0.797635  1
  O  O20  1  0.212858  0.212858  0.790356  1
  O  O21  1  0.797635  0.797635  0.199695  1
