# generated using pymatgen
data_Tm2LuSn3RuPt2
_symmetry_space_group_name_H-M   'P 1'
_cell_length_a   7.71280435
_cell_length_b   7.72072066
_cell_length_c   3.65393000
_cell_angle_alpha   90.00000000
_cell_angle_beta   90.00000000
_cell_angle_gamma   120.03394498
_symmetry_Int_Tables_number   1
_chemical_formula_structural   Tm2LuSn3RuPt2
_chemical_formula_sum   'Tm2 Lu1 Sn3 Ru1 Pt2'
_cell_volume   188.37026851
_cell_formula_units_Z   1
loop_
 _symmetry_equiv_pos_site_id
 _symmetry_equiv_pos_as_xyz
  1  'x, y, z'
loop_
 _atom_site_type_symbol
 _atom_site_label
 _atom_site_symmetry_multiplicity
 _atom_site_fract_x
 _atom_site_fract_y
 _atom_site_fract_z
 _atom_site_occupancy
  Tm  Tm0  1  0.398392  0.398374  0.500000  1
  Tm  Tm1  1  0.601608  0.999983  0.500000  1
  Lu  Lu2  1  0.000000  0.601742  0.500000  1
  Sn  Sn3  1  0.735013  0.734448  0.000000  1
  Sn  Sn4  1  0.264987  0.999435  0.000000  1
  Sn  Sn5  1  0.000000  0.265697  0.000000  1
  Ru  Ru6  1  0.000000  0.999494  0.500000  1
  Pt  Pt7  1  0.667952  0.334389  0.000000  1
  Pt  Pt8  1  0.332048  0.666438  0.000000  1
