# generated using pymatgen
data_Sc24Co5Tc2Ru
_symmetry_space_group_name_H-M   'P 1'
_cell_length_a   5.85052241
_cell_length_b   8.57215300
_cell_length_c   13.23048617
_cell_angle_alpha   90.00000000
_cell_angle_beta   89.92062008
_cell_angle_gamma   90.00000000
_symmetry_Int_Tables_number   1
_chemical_formula_structural   Sc24Co5Tc2Ru
_chemical_formula_sum   'Sc24 Co5 Tc2 Ru1'
_cell_volume   663.52905871
_cell_formula_units_Z   1
loop_
 _symmetry_equiv_pos_site_id
 _symmetry_equiv_pos_as_xyz
  1  'x, y, z'
loop_
 _atom_site_type_symbol
 _atom_site_label
 _atom_site_symmetry_multiplicity
 _atom_site_fract_x
 _atom_site_fract_y
 _atom_site_fract_z
 _atom_site_occupancy
  Sc  Sc0  1  0.530740  0.750000  0.351889  1
  Sc  Sc1  1  0.030149  0.250000  0.146988  1
  Sc  Sc2  1  0.463682  0.250000  0.648862  1
  Sc  Sc3  1  0.953823  0.750000  0.853402  1
  Sc  Sc4  1  0.779410  0.750000  0.106298  1
  Sc  Sc5  1  0.283287  0.250000  0.389690  1
  Sc  Sc6  1  0.209475  0.250000  0.884472  1
  Sc  Sc7  1  0.709604  0.750000  0.615881  1
  Sc  Sc8  1  0.407265  0.933221  0.790720  1
  Sc  Sc9  1  0.907533  0.063313  0.712446  1
  Sc  Sc10  1  0.588592  0.434567  0.216187  1
  Sc  Sc11  1  0.086747  0.565661  0.282855  1
  Sc  Sc12  1  0.588592  0.065433  0.216187  1
  Sc  Sc13  1  0.086747  0.934339  0.282855  1
  Sc  Sc14  1  0.407265  0.566779  0.790720  1
  Sc  Sc15  1  0.907533  0.436687  0.712446  1
  Sc  Sc16  1  0.253802  0.936382  0.537809  1
  Sc  Sc17  1  0.755380  0.063110  0.962518  1
  Sc  Sc18  1  0.759638  0.441380  0.462546  1
  Sc  Sc19  1  0.263124  0.561767  0.036161  1
  Sc  Sc20  1  0.759638  0.058620  0.462546  1
  Sc  Sc21  1  0.263124  0.938233  0.036161  1
  Sc  Sc22  1  0.253802  0.563618  0.537809  1
  Sc  Sc23  1  0.755380  0.436890  0.962518  1
  Co  Co24  1  0.559199  0.750000  0.939137  1
  Co  Co25  1  0.372098  0.750000  0.179982  1
  Co  Co26  1  0.872284  0.250000  0.319396  1
  Co  Co27  1  0.631189  0.250000  0.819619  1
  Co  Co28  1  0.130021  0.750000  0.681752  1
  Tc  Tc29  1  0.934417  0.750000  0.442404  1
  Tc  Tc30  1  0.435641  0.250000  0.057085  1
  Ru  Ru31  1  0.060818  0.250000  0.560661  1
