# generated using pymatgen
data_HoEr3TcPt3F28
_symmetry_space_group_name_H-M   'P 1'
_cell_length_a   5.52963381
_cell_length_b   8.83008504
_cell_length_c   11.93219229
_cell_angle_alpha   62.57615900
_cell_angle_beta   89.97843396
_cell_angle_gamma   89.98115853
_symmetry_Int_Tables_number   1
_chemical_formula_structural   HoEr3TcPt3F28
_chemical_formula_sum   'Ho1 Er3 Tc1 Pt3 F28'
_cell_volume   517.14271544
_cell_formula_units_Z   1
loop_
 _symmetry_equiv_pos_site_id
 _symmetry_equiv_pos_as_xyz
  1  'x, y, z'
loop_
 _atom_site_type_symbol
 _atom_site_label
 _atom_site_symmetry_multiplicity
 _atom_site_fract_x
 _atom_site_fract_y
 _atom_site_fract_z
 _atom_site_occupancy
  Ho  Ho0  1  0.739527  0.814158  0.264325  1
  Er  Er1  1  0.761279  0.815700  0.763511  1
  Er  Er2  1  0.259788  0.185926  0.734415  1
  Er  Er3  1  0.239547  0.185909  0.236041  1
  Tc  Tc4  1  0.757557  0.273948  0.956369  1
  Pt  Pt5  1  0.259257  0.727877  0.543303  1
  Pt  Pt6  1  0.240857  0.727535  0.042728  1
  Pt  Pt7  1  0.740835  0.272360  0.456639  1
  F  F8  1  0.438435  0.702357  0.915511  1
  F  F9  1  0.936588  0.297905  0.584369  1
  F  F10  1  0.552450  0.293110  0.082776  1
  F  F11  1  0.063129  0.701940  0.416019  1
  F  F12  1  0.438451  0.278717  0.542264  1
  F  F13  1  0.939417  0.722452  0.956188  1
  F  F14  1  0.560544  0.721620  0.457313  1
  F  F15  1  0.054432  0.277236  0.046940  1
  F  F16  1  0.773670  0.523472  0.858356  1
  F  F17  1  0.274318  0.477725  0.641728  1
  F  F18  1  0.224868  0.477898  0.142782  1
  F  F19  1  0.725676  0.522149  0.357695  1
  F  F20  1  0.755849  0.025066  0.053272  1
  F  F21  1  0.255349  0.978001  0.449707  1
  F  F22  1  0.245819  0.977746  0.948650  1
  F  F23  1  0.745475  0.022383  0.550340  1
  F  F24  1  0.965829  0.725425  0.637021  1
  F  F25  1  0.472679  0.271208  0.859305  1
  F  F26  1  0.035269  0.275070  0.363358  1
  F  F27  1  0.533509  0.724974  0.136625  1
  F  F28  1  0.051350  0.745781  0.175576  1
  F  F29  1  0.551183  0.254527  0.323505  1
  F  F30  1  0.957226  0.253127  0.827046  1
  F  F31  1  0.450950  0.746272  0.675627  1
  F  F32  1  0.415055  0.970744  0.232916  1
  F  F33  1  0.917586  0.029810  0.268947  1
  F  F34  1  0.582501  0.029447  0.766998  1
  F  F35  1  0.083745  0.970425  0.731835  1
