# generated using pymatgen
data_CaNdMg(Si3Pd10)2
_symmetry_space_group_name_H-M   'P 1'
_cell_length_a   8.71779512
_cell_length_b   8.71918865
_cell_length_c   8.71892502
_cell_angle_alpha   59.99056188
_cell_angle_beta   59.99415075
_cell_angle_gamma   59.99470650
_symmetry_Int_Tables_number   1
_chemical_formula_structural   CaNdMg(Si3Pd10)2
_chemical_formula_sum   'Ca1 Nd1 Mg1 Si6 Pd20'
_cell_volume   468.55774162
_cell_formula_units_Z   1
loop_
 _symmetry_equiv_pos_site_id
 _symmetry_equiv_pos_as_xyz
  1  'x, y, z'
loop_
 _atom_site_type_symbol
 _atom_site_label
 _atom_site_symmetry_multiplicity
 _atom_site_fract_x
 _atom_site_fract_y
 _atom_site_fract_z
 _atom_site_occupancy
  Ca  Ca0  1  0.249989  0.250006  0.250000  1
  Nd  Nd1  1  0.750008  0.749998  0.750004  1
  Mg  Mg2  1  0.999997  0.000000  0.999999  1
  Si  Si3  1  0.733109  0.266892  0.266873  1
  Si  Si4  1  0.266894  0.733105  0.733127  1
  Si  Si5  1  0.266918  0.733102  0.266880  1
  Si  Si6  1  0.733076  0.266906  0.733119  1
  Si  Si7  1  0.266908  0.266892  0.733110  1
  Si  Si8  1  0.733090  0.733110  0.266893  1
  Pd  Pd9  1  0.343677  0.999374  0.999365  1
  Pd  Pd10  1  0.657617  0.999333  0.999340  1
  Pd  Pd11  1  0.999369  0.343680  0.657594  1
  Pd  Pd12  1  0.999336  0.657614  0.343706  1
  Pd  Pd13  1  0.999439  0.343667  0.999304  1
  Pd  Pd14  1  0.657672  0.999267  0.343660  1
  Pd  Pd15  1  0.999261  0.657631  0.999399  1
  Pd  Pd16  1  0.343645  0.999414  0.657660  1
  Pd  Pd17  1  0.999415  0.999305  0.343654  1
  Pd  Pd18  1  0.999283  0.999395  0.657647  1
  Pd  Pd19  1  0.657647  0.343648  0.999299  1
  Pd  Pd20  1  0.343657  0.657654  0.999398  1
  Pd  Pd21  1  0.384732  0.384618  0.384610  1
  Pd  Pd22  1  0.614802  0.614876  0.614864  1
  Pd  Pd23  1  0.384644  0.384726  0.845974  1
  Pd  Pd24  1  0.384654  0.846019  0.384697  1
  Pd  Pd25  1  0.614847  0.614813  0.155507  1
  Pd  Pd26  1  0.614824  0.155475  0.614837  1
  Pd  Pd27  1  0.846033  0.384639  0.384597  1
  Pd  Pd28  1  0.155458  0.614840  0.614885  1
