# generated using pymatgen
data_DyY(B2Rh3)3
_symmetry_space_group_name_H-M   'P 1'
_cell_length_a   5.61461800
_cell_length_b   5.61461816
_cell_length_c   8.57893400
_cell_angle_alpha   90.00000000
_cell_angle_beta   90.00000000
_cell_angle_gamma   119.99999908
_symmetry_Int_Tables_number   1
_chemical_formula_structural   DyY(B2Rh3)3
_chemical_formula_sum   'Dy1 Y1 B6 Rh9'
_cell_volume   234.20944325
_cell_formula_units_Z   1
loop_
 _symmetry_equiv_pos_site_id
 _symmetry_equiv_pos_as_xyz
  1  'x, y, z'
loop_
 _atom_site_type_symbol
 _atom_site_label
 _atom_site_symmetry_multiplicity
 _atom_site_fract_x
 _atom_site_fract_y
 _atom_site_fract_z
 _atom_site_occupancy
  Dy  Dy0  1  0.000000  0.000000  0.706669  1
  Y  Y1  1  0.000000  0.000000  0.293639  1
  B  B2  1  0.666667  0.333333  0.000030  1
  B  B3  1  0.333333  0.666667  0.000030  1
  B  B4  1  0.666667  0.333333  0.667446  1
  B  B5  1  0.333333  0.666667  0.667446  1
  B  B6  1  0.333333  0.666667  0.332547  1
  B  B7  1  0.666667  0.333333  0.332547  1
  Rh  Rh8  1  0.500000  0.500000  0.835458  1
  Rh  Rh9  1  0.500000  0.000000  0.835458  1
  Rh  Rh10  1  0.000000  0.500000  0.835458  1
  Rh  Rh11  1  0.500000  0.500000  0.164447  1
  Rh  Rh12  1  0.500000  0.000000  0.164447  1
  Rh  Rh13  1  0.000000  0.500000  0.164447  1
  Rh  Rh14  1  0.500000  0.500000  0.499977  1
  Rh  Rh15  1  0.500000  0.000000  0.499977  1
  Rh  Rh16  1  0.000000  0.500000  0.499977  1
