# generated using pymatgen
data_Tb2UGa3FeRu2
_symmetry_space_group_name_H-M   'P 1'
_cell_length_a   6.83851162
_cell_length_b   6.83851249
_cell_length_c   4.00160500
_cell_angle_alpha   90.00000000
_cell_angle_beta   90.00000000
_cell_angle_gamma   117.20418279
_symmetry_Int_Tables_number   1
_chemical_formula_structural   Tb2UGa3FeRu2
_chemical_formula_sum   'Tb2 U1 Ga3 Fe1 Ru2'
_cell_volume   166.43561901
_cell_formula_units_Z   1
loop_
 _symmetry_equiv_pos_site_id
 _symmetry_equiv_pos_as_xyz
  1  'x, y, z'
loop_
 _atom_site_type_symbol
 _atom_site_label
 _atom_site_symmetry_multiplicity
 _atom_site_fract_x
 _atom_site_fract_y
 _atom_site_fract_z
 _atom_site_occupancy
  Tb  Tb0  1  0.412460  0.011112  0.500000  1
  Tb  Tb1  1  0.011112  0.412460  0.500000  1
  U  U2  1  0.641252  0.641252  0.500000  1
  Ga  Ga3  1  0.750206  0.035939  0.000000  1
  Ga  Ga4  1  0.035939  0.750206  0.000000  1
  Ga  Ga5  1  0.195084  0.195084  0.000000  1
  Fe  Fe6  1  0.941627  0.941627  0.500000  1
  Ru  Ru7  1  0.380858  0.631461  0.000000  1
  Ru  Ru8  1  0.631461  0.380858  0.000000  1
