# generated using pymatgen
data_Ho3In3GaRu2
_symmetry_space_group_name_H-M   'P 1'
_cell_length_a   7.88325600
_cell_length_b   7.88325690
_cell_length_c   3.62535600
_cell_angle_alpha   90.00000000
_cell_angle_beta   90.00000000
_cell_angle_gamma   119.99999622
_symmetry_Int_Tables_number   1
_chemical_formula_structural   Ho3In3GaRu2
_chemical_formula_sum   'Ho3 In3 Ga1 Ru2'
_cell_volume   195.11588018
_cell_formula_units_Z   1
loop_
 _symmetry_equiv_pos_site_id
 _symmetry_equiv_pos_as_xyz
  1  'x, y, z'
loop_
 _atom_site_type_symbol
 _atom_site_label
 _atom_site_symmetry_multiplicity
 _atom_site_fract_x
 _atom_site_fract_y
 _atom_site_fract_z
 _atom_site_occupancy
  Ho  Ho0  1  0.620373  0.029837  0.500000  1
  Ho  Ho1  1  0.409465  0.379627  0.500000  1
  Ho  Ho2  1  0.970163  0.590535  0.500000  1
  In  In3  1  0.728371  0.733074  0.000000  1
  In  In4  1  0.004702  0.271629  0.000000  1
  In  In5  1  0.266926  0.995298  0.000000  1
  Ga  Ga6  1  0.333333  0.666667  0.000000  1
  Ru  Ru7  1  0.666667  0.333333  0.000000  1
  Ru  Ru8  1  0.000000  0.000000  0.500000  1
