# generated using pymatgen
data_Y2ErTm2P12Ru19
_symmetry_space_group_name_H-M   'P 1'
_cell_length_a   12.53157937
_cell_length_b   12.53681861
_cell_length_c   3.97755600
_cell_angle_alpha   90.00000000
_cell_angle_beta   90.00000000
_cell_angle_gamma   120.01383430
_symmetry_Int_Tables_number   1
_chemical_formula_structural   Y2ErTm2P12Ru19
_chemical_formula_sum   'Y2 Er1 Tm2 P12 Ru19'
_cell_volume   541.10248283
_cell_formula_units_Z   1
loop_
 _symmetry_equiv_pos_site_id
 _symmetry_equiv_pos_as_xyz
  1  'x, y, z'
loop_
 _atom_site_type_symbol
 _atom_site_label
 _atom_site_symmetry_multiplicity
 _atom_site_fract_x
 _atom_site_fract_y
 _atom_site_fract_z
 _atom_site_occupancy
  Y  Y0  1  0.183481  0.183478  0.500000  1
  Y  Y1  1  0.816519  0.999997  0.500000  1
  Er  Er2  1  0.000000  0.816734  0.500000  1
  Tm  Tm3  1  0.333375  0.666753  0.000000  1
  Tm  Tm4  1  0.666625  0.333377  0.000000  1
  P  P5  1  0.815542  0.814942  0.000000  1
  P  P6  1  0.184458  0.999400  0.000000  1
  P  P7  1  0.000000  0.184550  0.000000  1
  P  P8  1  0.172061  0.478707  0.500000  1
  P  P9  1  0.521656  0.693594  0.500000  1
  P  P10  1  0.306402  0.827922  0.500000  1
  P  P11  1  0.693598  0.521520  0.500000  1
  P  P12  1  0.827939  0.306646  0.500000  1
  P  P13  1  0.478344  0.171938  0.500000  1
  P  P14  1  0.372616  0.372588  0.000000  1
  P  P15  1  0.627384  0.999972  0.000000  1
  P  P16  1  0.000000  0.627877  0.000000  1
  Ru  Ru17  1  0.554475  0.554340  0.000000  1
  Ru  Ru18  1  0.445525  0.999865  0.000000  1
  Ru  Ru19  1  0.000000  0.445940  0.000000  1
  Ru  Ru20  1  0.716769  0.716377  0.500000  1
  Ru  Ru21  1  0.283231  0.999608  0.500000  1
  Ru  Ru22  1  0.000000  0.283847  0.500000  1
  Ru  Ru23  1  0.185124  0.378380  0.000000  1
  Ru  Ru24  1  0.621758  0.806690  0.000000  1
  Ru  Ru25  1  0.192271  0.814811  0.000000  1
  Ru  Ru26  1  0.807729  0.622540  0.000000  1
  Ru  Ru27  1  0.814876  0.193256  0.000000  1
  Ru  Ru28  1  0.378242  0.184932  0.000000  1
  Ru  Ru29  1  0.366149  0.492654  0.500000  1
  Ru  Ru30  1  0.507474  0.873526  0.500000  1
  Ru  Ru31  1  0.126470  0.634142  0.500000  1
  Ru  Ru32  1  0.873530  0.507674  0.500000  1
  Ru  Ru33  1  0.633851  0.126507  0.500000  1
  Ru  Ru34  1  0.492526  0.366053  0.500000  1
  Ru  Ru35  1  0.000000  0.998862  0.000000  1
