# generated using pymatgen
data_Tb7Dy3(InSb2)2
_symmetry_space_group_name_H-M   'P 1'
_cell_length_a   6.50880602
_cell_length_b   9.01158234
_cell_length_c   9.02574500
_cell_angle_alpha   120.05443977
_cell_angle_beta   90.00071018
_cell_angle_gamma   89.99197857
_symmetry_Int_Tables_number   1
_chemical_formula_structural   Tb7Dy3(InSb2)2
_chemical_formula_sum   'Tb7 Dy3 In2 Sb4'
_cell_volume   458.22372006
_cell_formula_units_Z   1
loop_
 _symmetry_equiv_pos_site_id
 _symmetry_equiv_pos_as_xyz
  1  'x, y, z'
loop_
 _atom_site_type_symbol
 _atom_site_label
 _atom_site_symmetry_multiplicity
 _atom_site_fract_x
 _atom_site_fract_y
 _atom_site_fract_z
 _atom_site_occupancy
  Tb  Tb0  1  0.499212  0.336074  0.667673  1
  Tb  Tb1  1  0.750005  0.241869  0.004376  1
  Tb  Tb2  1  0.750054  0.758168  0.762453  1
  Tb  Tb3  1  0.750042  0.999957  0.239935  1
  Tb  Tb4  1  0.249901  0.759182  0.997898  1
  Tb  Tb5  1  0.249899  0.240791  0.238727  1
  Tb  Tb6  1  0.249954  0.000038  0.757177  1
  Dy  Dy7  1  0.499464  0.663815  0.331517  1
  Dy  Dy8  1  0.000593  0.663907  0.331564  1
  Dy  Dy9  1  0.000676  0.336128  0.667700  1
  In  In10  1  0.750303  0.605006  0.001260  1
  In  In11  1  0.750397  0.395315  0.395946  1
  Sb  Sb12  1  0.750259  0.999718  0.608405  1
  Sb  Sb13  1  0.249710  0.392560  0.998718  1
  Sb  Sb14  1  0.249750  0.607779  0.605837  1
  Sb  Sb15  1  0.249787  0.999694  0.390816  1
