# generated using pymatgen
data_Fe2Bi3Sb3O14
_symmetry_space_group_name_H-M   'P 1'
_cell_length_a   7.35749782
_cell_length_b   7.33730403
_cell_length_c   7.34846505
_cell_angle_alpha   61.86727568
_cell_angle_beta   62.02545654
_cell_angle_gamma   61.94679128
_symmetry_Int_Tables_number   1
_chemical_formula_structural   Fe2Bi3Sb3O14
_chemical_formula_sum   'Fe2 Bi3 Sb3 O14'
_cell_volume   292.72666372
_cell_formula_units_Z   1
loop_
 _symmetry_equiv_pos_site_id
 _symmetry_equiv_pos_as_xyz
  1  'x, y, z'
loop_
 _atom_site_type_symbol
 _atom_site_label
 _atom_site_symmetry_multiplicity
 _atom_site_fract_x
 _atom_site_fract_y
 _atom_site_fract_z
 _atom_site_occupancy
  Fe  Fe0  1  0.999952  0.500019  0.000035  1
  Fe  Fe1  1  0.500019  0.999980  0.500072  1
  Bi  Bi2  1  0.999970  0.000013  0.499986  1
  Bi  Bi3  1  0.500032  0.999990  0.999993  1
  Bi  Bi4  1  0.500022  0.499977  0.499968  1
  Sb  Sb5  1  0.500021  0.500011  0.999994  1
  Sb  Sb6  1  0.999978  0.500012  0.499995  1
  Sb  Sb7  1  0.999998  0.000001  0.000012  1
  O  O8  1  0.613427  0.111150  0.611118  1
  O  O9  1  0.386523  0.888825  0.388898  1
  O  O10  1  0.072352  0.181387  0.681544  1
  O  O11  1  0.680286  0.179120  0.080334  1
  O  O12  1  0.679899  0.582580  0.678891  1
  O  O13  1  0.927672  0.818606  0.318447  1
  O  O14  1  0.319706  0.820893  0.919621  1
  O  O15  1  0.320087  0.417442  0.321109  1
  O  O16  1  0.651167  0.589679  0.090241  1
  O  O17  1  0.090525  0.588416  0.652491  1
  O  O18  1  0.090012  0.153003  0.088482  1
  O  O19  1  0.348855  0.410317  0.909760  1
  O  O20  1  0.909494  0.411583  0.347485  1
  O  O21  1  0.910002  0.846993  0.911524  1
