# generated using pymatgen
data_Tb3Ho(Lu3Sn4)2
_symmetry_space_group_name_H-M   'P 1'
_cell_length_a   7.95029500
_cell_length_b   8.08262308
_cell_length_c   15.26336914
_cell_angle_alpha   90.01569647
_cell_angle_beta   90.00000000
_cell_angle_gamma   90.00000000
_symmetry_Int_Tables_number   1
_chemical_formula_structural   Tb3Ho(Lu3Sn4)2
_chemical_formula_sum   'Tb6 Ho2 Lu12 Sn16'
_cell_volume   980.81243100
_cell_formula_units_Z   2
loop_
 _symmetry_equiv_pos_site_id
 _symmetry_equiv_pos_as_xyz
  1  'x, y, z'
loop_
 _atom_site_type_symbol
 _atom_site_label
 _atom_site_symmetry_multiplicity
 _atom_site_fract_x
 _atom_site_fract_y
 _atom_site_fract_z
 _atom_site_occupancy
  Tb  Tb0  1  0.478837  0.679781  0.402869  1
  Tb  Tb1  1  0.978837  0.820219  0.097131  1
  Tb  Tb2  1  0.478830  0.679756  0.097091  1
  Tb  Tb3  1  0.978830  0.820244  0.402909  1
  Tb  Tb4  1  0.521102  0.320175  0.597086  1
  Tb  Tb5  1  0.021102  0.179825  0.902914  1
  Ho  Ho6  1  0.521220  0.320159  0.902763  1
  Ho  Ho7  1  0.021220  0.179841  0.597237  1
  Lu  Lu8  1  0.367241  0.836160  0.877425  1
  Lu  Lu9  1  0.867241  0.663840  0.622575  1
  Lu  Lu10  1  0.632739  0.163926  0.377456  1
  Lu  Lu11  1  0.132739  0.336074  0.122544  1
  Lu  Lu12  1  0.632715  0.163969  0.122484  1
  Lu  Lu13  1  0.132715  0.336031  0.377516  1
  Lu  Lu14  1  0.367223  0.836205  0.622599  1
  Lu  Lu15  1  0.867223  0.663795  0.877401  1
  Lu  Lu16  1  0.197534  0.504345  0.750013  1
  Lu  Lu17  1  0.697534  0.995655  0.749987  1
  Lu  Lu18  1  0.802515  0.495468  0.250023  1
  Lu  Lu19  1  0.302515  0.004532  0.249977  1
  Sn  Sn20  1  0.294794  0.037062  0.041828  1
  Sn  Sn21  1  0.794794  0.462938  0.458172  1
  Sn  Sn22  1  0.705658  0.963265  0.541935  1
  Sn  Sn23  1  0.205658  0.536735  0.958065  1
  Sn  Sn24  1  0.705051  0.963195  0.958109  1
  Sn  Sn25  1  0.205051  0.536805  0.541891  1
  Sn  Sn26  1  0.294476  0.037184  0.458315  1
  Sn  Sn27  1  0.794476  0.462816  0.041685  1
  Sn  Sn28  1  0.563814  0.621762  0.750022  1
  Sn  Sn29  1  0.063814  0.878238  0.749978  1
  Sn  Sn30  1  0.436152  0.378090  0.249987  1
  Sn  Sn31  1  0.936152  0.121910  0.250013  1
  Sn  Sn32  1  0.329793  0.146623  0.750122  1
  Sn  Sn33  1  0.829793  0.353377  0.749878  1
  Sn  Sn34  1  0.670305  0.853701  0.249994  1
  Sn  Sn35  1  0.170305  0.646299  0.250006  1
