# generated using pymatgen
data_Tb5Y3Cd2RuPt
_symmetry_space_group_name_H-M   'P 1'
_cell_length_a   9.68955591
_cell_length_b   9.68955714
_cell_length_c   9.72013800
_cell_angle_alpha   59.89555007
_cell_angle_beta   59.89554583
_cell_angle_gamma   59.84581916
_symmetry_Int_Tables_number   1
_chemical_formula_structural   Tb5Y3Cd2RuPt
_chemical_formula_sum   'Tb10 Y6 Cd4 Ru2 Pt2'
_cell_volume   643.53290815
_cell_formula_units_Z   2
loop_
 _symmetry_equiv_pos_site_id
 _symmetry_equiv_pos_as_xyz
  1  'x, y, z'
loop_
 _atom_site_type_symbol
 _atom_site_label
 _atom_site_symmetry_multiplicity
 _atom_site_fract_x
 _atom_site_fract_y
 _atom_site_fract_z
 _atom_site_occupancy
  Tb  Tb0  1  0.349197  0.349197  0.352615  1
  Tb  Tb1  1  0.349197  0.349197  0.948990  1
  Tb  Tb2  1  0.346306  0.954361  0.349667  1
  Tb  Tb3  1  0.954361  0.346306  0.349667  1
  Tb  Tb4  1  0.814689  0.188557  0.190600  1
  Tb  Tb5  1  0.188557  0.814689  0.806156  1
  Tb  Tb6  1  0.188557  0.814689  0.190600  1
  Tb  Tb7  1  0.814689  0.188557  0.806156  1
  Tb  Tb8  1  0.188301  0.188301  0.811699  1
  Tb  Tb9  1  0.808049  0.808049  0.191951  1
  Y  Y10  1  0.937027  0.559477  0.566485  1
  Y  Y11  1  0.559477  0.937027  0.937010  1
  Y  Y12  1  0.559477  0.937027  0.566485  1
  Y  Y13  1  0.937027  0.559477  0.937010  1
  Y  Y14  1  0.563337  0.563337  0.936663  1
  Y  Y15  1  0.937759  0.937759  0.562241  1
  Cd  Cd16  1  0.580105  0.580105  0.581219  1
  Cd  Cd17  1  0.580105  0.580105  0.258570  1
  Cd  Cd18  1  0.581290  0.255266  0.581722  1
  Cd  Cd19  1  0.255266  0.581290  0.581722  1
  Ru  Ru20  1  0.144120  0.144120  0.137293  1
  Ru  Ru21  1  0.144120  0.144120  0.574468  1
  Pt  Pt22  1  0.145029  0.573959  0.140506  1
  Pt  Pt23  1  0.573959  0.145029  0.140506  1
