# generated using pymatgen
data_Hf20Cu4As5P7
_symmetry_space_group_name_H-M   'P 1'
_cell_length_a   3.63982000
_cell_length_b   10.22908006
_cell_length_c   17.34341610
_cell_angle_alpha   89.98766963
_cell_angle_beta   90.00000000
_cell_angle_gamma   90.00000000
_symmetry_Int_Tables_number   1
_chemical_formula_structural   Hf20Cu4As5P7
_chemical_formula_sum   'Hf20 Cu4 As5 P7'
_cell_volume   645.73022987
_cell_formula_units_Z   1
loop_
 _symmetry_equiv_pos_site_id
 _symmetry_equiv_pos_as_xyz
  1  'x, y, z'
loop_
 _atom_site_type_symbol
 _atom_site_label
 _atom_site_symmetry_multiplicity
 _atom_site_fract_x
 _atom_site_fract_y
 _atom_site_fract_z
 _atom_site_occupancy
  Hf  Hf0  1  0.250000  0.120718  0.474990  1
  Hf  Hf1  1  0.750000  0.877142  0.519380  1
  Hf  Hf2  1  0.750000  0.619712  0.023448  1
  Hf  Hf3  1  0.250000  0.380655  0.977323  1
  Hf  Hf4  1  0.250000  0.068834  0.077861  1
  Hf  Hf5  1  0.750000  0.931089  0.923022  1
  Hf  Hf6  1  0.750000  0.568554  0.421432  1
  Hf  Hf7  1  0.250000  0.430950  0.577644  1
  Hf  Hf8  1  0.250000  0.485826  0.268925  1
  Hf  Hf9  1  0.750000  0.513777  0.731172  1
  Hf  Hf10  1  0.750000  0.986040  0.230106  1
  Hf  Hf11  1  0.250000  0.013684  0.773109  1
  Hf  Hf12  1  0.250000  0.820670  0.370716  1
  Hf  Hf13  1  0.750000  0.186169  0.628229  1
  Hf  Hf14  1  0.750000  0.321387  0.128361  1
  Hf  Hf15  1  0.250000  0.678899  0.872305  1
  Hf  Hf16  1  0.250000  0.751689  0.167270  1
  Hf  Hf17  1  0.750000  0.248986  0.833535  1
  Hf  Hf18  1  0.750000  0.252094  0.332010  1
  Hf  Hf19  1  0.250000  0.743016  0.668585  1
  Cu  Cu20  1  0.250000  0.374194  0.415465  1
  Cu  Cu21  1  0.750000  0.625762  0.583541  1
  Cu  Cu22  1  0.750000  0.873666  0.083897  1
  Cu  Cu23  1  0.250000  0.126941  0.917149  1
  As  As24  1  0.250000  0.990151  0.616468  1
  As  As25  1  0.250000  0.192606  0.220009  1
  As  As26  1  0.750000  0.807087  0.780161  1
  As  As27  1  0.750000  0.691994  0.279099  1
  As  As28  1  0.250000  0.308448  0.721297  1
  P  P29  1  0.250000  0.810219  0.008402  1
  P  P30  1  0.750000  0.189995  0.992652  1
  P  P31  1  0.750000  0.311505  0.490966  1
  P  P32  1  0.250000  0.687992  0.507462  1
  P  P33  1  0.250000  0.509195  0.115352  1
  P  P34  1  0.750000  0.490957  0.885232  1
  P  P35  1  0.750000  0.009395  0.383423  1
