# generated using pymatgen
data_CeHo6Zr(CdIr)2
_symmetry_space_group_name_H-M   'P 1'
_cell_length_a   9.56101898
_cell_length_b   9.56101811
_cell_length_c   9.55922900
_cell_angle_alpha   60.00619331
_cell_angle_beta   60.00619635
_cell_angle_gamma   60.14381266
_symmetry_Int_Tables_number   1
_chemical_formula_structural   CeHo6Zr(CdIr)2
_chemical_formula_sum   'Ce2 Ho12 Zr2 Cd4 Ir4'
_cell_volume   618.62395492
_cell_formula_units_Z   2
loop_
 _symmetry_equiv_pos_site_id
 _symmetry_equiv_pos_as_xyz
  1  'x, y, z'
loop_
 _atom_site_type_symbol
 _atom_site_label
 _atom_site_symmetry_multiplicity
 _atom_site_fract_x
 _atom_site_fract_y
 _atom_site_fract_z
 _atom_site_occupancy
  Ce  Ce0  1  0.596279  0.596279  0.599239  1
  Ce  Ce1  1  0.596279  0.596279  0.208206  1
  Ho  Ho2  1  0.060883  0.440553  0.440980  1
  Ho  Ho3  1  0.440553  0.060883  0.057585  1
  Ho  Ho4  1  0.440553  0.060883  0.440980  1
  Ho  Ho5  1  0.060883  0.440553  0.057585  1
  Ho  Ho6  1  0.438176  0.438176  0.061824  1
  Ho  Ho7  1  0.058543  0.058543  0.441457  1
  Ho  Ho8  1  0.188838  0.811760  0.810953  1
  Ho  Ho9  1  0.811760  0.188838  0.188449  1
  Ho  Ho10  1  0.811760  0.188838  0.810953  1
  Ho  Ho11  1  0.188838  0.811760  0.188449  1
  Ho  Ho12  1  0.813451  0.813451  0.186549  1
  Ho  Ho13  1  0.192570  0.192570  0.807430  1
  Zr  Zr14  1  0.599173  0.203198  0.598815  1
  Zr  Zr15  1  0.203198  0.599173  0.598815  1
  Cd  Cd16  1  0.833119  0.833119  0.825382  1
  Cd  Cd17  1  0.833119  0.833119  0.508380  1
  Cd  Cd18  1  0.834784  0.505047  0.830084  1
  Cd  Cd19  1  0.505047  0.834784  0.830084  1
  Ir  Ir20  1  0.392111  0.392111  0.402297  1
  Ir  Ir21  1  0.392111  0.392111  0.813482  1
  Ir  Ir22  1  0.389965  0.818012  0.396012  1
  Ir  Ir23  1  0.818012  0.389965  0.396012  1
