# generated using pymatgen
data_Tb2Er6Sc12Si7Ge9
_symmetry_space_group_name_H-M   'P 1'
_cell_length_a   7.17377694
_cell_length_b   7.40096956
_cell_length_c   14.03904437
_cell_angle_alpha   89.99696107
_cell_angle_beta   89.66198835
_cell_angle_gamma   90.34725035
_symmetry_Int_Tables_number   1
_chemical_formula_structural   Tb2Er6Sc12Si7Ge9
_chemical_formula_sum   'Tb2 Er6 Sc12 Si7 Ge9'
_cell_volume   745.34698350
_cell_formula_units_Z   1
loop_
 _symmetry_equiv_pos_site_id
 _symmetry_equiv_pos_as_xyz
  1  'x, y, z'
loop_
 _atom_site_type_symbol
 _atom_site_label
 _atom_site_symmetry_multiplicity
 _atom_site_fract_x
 _atom_site_fract_y
 _atom_site_fract_z
 _atom_site_occupancy
  Tb  Tb0  1  0.002453  0.178043  0.098509  1
  Tb  Tb1  1  0.998227  0.820382  0.901832  1
  Er  Er2  1  0.499982  0.675678  0.901485  1
  Er  Er3  1  0.001386  0.819922  0.598313  1
  Er  Er4  1  0.500101  0.323773  0.099349  1
  Er  Er5  1  0.999416  0.178417  0.401273  1
  Er  Er6  1  0.499271  0.322154  0.401818  1
  Er  Er7  1  0.501005  0.677213  0.597240  1
  Sc  Sc8  1  0.177989  0.502736  0.748865  1
  Sc  Sc9  1  0.822472  0.499362  0.251144  1
  Sc  Sc10  1  0.323294  0.999988  0.251431  1
  Sc  Sc11  1  0.674292  0.998875  0.748600  1
  Sc  Sc12  1  0.348909  0.170746  0.625757  1
  Sc  Sc13  1  0.652667  0.829089  0.373996  1
  Sc  Sc14  1  0.153226  0.670521  0.374767  1
  Sc  Sc15  1  0.655411  0.826709  0.127695  1
  Sc  Sc16  1  0.844286  0.331623  0.623642  1
  Sc  Sc17  1  0.346368  0.173147  0.872653  1
  Sc  Sc18  1  0.840939  0.331489  0.875742  1
  Sc  Sc19  1  0.156202  0.670814  0.125831  1
  Si  Si20  1  0.953196  0.882292  0.249836  1
  Si  Si21  1  0.451087  0.616106  0.250512  1
  Si  Si22  1  0.548578  0.383273  0.749402  1
  Si  Si23  1  0.303262  0.866499  0.749453  1
  Si  Si24  1  0.700844  0.129661  0.250528  1
  Si  Si25  1  0.201823  0.371539  0.250552  1
  Si  Si26  1  0.798619  0.628677  0.749435  1
  Ge  Ge27  1  0.043706  0.121848  0.750231  1
  Ge  Ge28  1  0.182837  0.458493  0.540894  1
  Ge  Ge29  1  0.817285  0.541376  0.458358  1
  Ge  Ge30  1  0.317960  0.960482  0.459349  1
  Ge  Ge31  1  0.819131  0.540710  0.041713  1
  Ge  Ge32  1  0.682701  0.039235  0.540425  1
  Ge  Ge33  1  0.180469  0.459175  0.959064  1
  Ge  Ge34  1  0.672400  0.039033  0.959896  1
  Ge  Ge35  1  0.328204  0.960920  0.040409  1
