# generated using pymatgen
data_Ho7Th(WC2)4
_symmetry_space_group_name_H-M   'P 1'
_cell_length_a   5.73478340
_cell_length_b   5.73478364
_cell_length_c   9.95692933
_cell_angle_alpha   89.45207608
_cell_angle_beta   89.45207734
_cell_angle_gamma   89.63947846
_symmetry_Int_Tables_number   1
_chemical_formula_structural   Ho7Th(WC2)4
_chemical_formula_sum   'Ho7 Th1 W4 C8'
_cell_volume   327.42468093
_cell_formula_units_Z   1
loop_
 _symmetry_equiv_pos_site_id
 _symmetry_equiv_pos_as_xyz
  1  'x, y, z'
loop_
 _atom_site_type_symbol
 _atom_site_label
 _atom_site_symmetry_multiplicity
 _atom_site_fract_x
 _atom_site_fract_y
 _atom_site_fract_z
 _atom_site_occupancy
  Ho  Ho0  1  0.198271  0.198271  0.341385  1
  Ho  Ho1  1  0.304543  0.700458  0.845102  1
  Ho  Ho2  1  0.700458  0.304543  0.845102  1
  Ho  Ho3  1  0.701183  0.300110  0.158298  1
  Ho  Ho4  1  0.300110  0.701183  0.158298  1
  Ho  Ho5  1  0.202026  0.202026  0.658654  1
  Ho  Ho6  1  0.796131  0.796131  0.338247  1
  Th  Th7  1  0.802543  0.802543  0.660911  1
  W  W8  1  0.316301  0.675723  0.496642  1
  W  W9  1  0.823662  0.823662  0.002575  1
  W  W10  1  0.180438  0.180438  0.002227  1
  W  W11  1  0.675723  0.316301  0.496642  1
  C  C12  1  0.001344  0.001344  0.155400  1
  C  C13  1  0.496465  0.496465  0.651625  1
  C  C14  1  0.493419  0.997336  0.494666  1
  C  C15  1  0.497049  0.497049  0.342863  1
  C  C16  1  0.007000  0.007000  0.850823  1
  C  C17  1  0.502489  0.003511  0.002936  1
  C  C18  1  0.003511  0.502489  0.002936  1
  C  C19  1  0.997336  0.493419  0.494666  1
