# generated using pymatgen
data_Ce4Ni4As3PH4
_symmetry_space_group_name_H-M   'P 1'
_cell_length_a   4.01068500
_cell_length_b   8.25245214
_cell_length_c   7.07111387
_cell_angle_alpha   89.91701487
_cell_angle_beta   90.00000000
_cell_angle_gamma   90.00000000
_symmetry_Int_Tables_number   1
_chemical_formula_structural   Ce4Ni4As3PH4
_chemical_formula_sum   'Ce4 Ni4 As3 P1 H4'
_cell_volume   234.03938263
_cell_formula_units_Z   1
loop_
 _symmetry_equiv_pos_site_id
 _symmetry_equiv_pos_as_xyz
  1  'x, y, z'
loop_
 _atom_site_type_symbol
 _atom_site_label
 _atom_site_symmetry_multiplicity
 _atom_site_fract_x
 _atom_site_fract_y
 _atom_site_fract_z
 _atom_site_occupancy
  Ce  Ce0  1  0.750000  0.504333  0.755778  1
  Ce  Ce1  1  0.250000  0.492425  0.245224  1
  Ce  Ce2  1  0.250000  0.999707  0.250215  1
  Ce  Ce3  1  0.750000  0.007389  0.748775  1
  Ni  Ni4  1  0.750000  0.235183  0.399188  1
  Ni  Ni5  1  0.250000  0.766062  0.588845  1
  Ni  Ni6  1  0.250000  0.261080  0.922332  1
  Ni  Ni7  1  0.750000  0.735301  0.089146  1
  As  As8  1  0.250000  0.772998  0.920795  1
  As  As9  1  0.250000  0.271103  0.580982  1
  As  As10  1  0.750000  0.727296  0.421502  1
  P  P11  1  0.750000  0.228263  0.077027  1
  H  H12  1  0.250000  0.961177  0.579478  1
  H  H13  1  0.750000  0.039895  0.421341  1
  H  H14  1  0.750000  0.539613  0.080003  1
  H  H15  1  0.250000  0.458175  0.919369  1
