# generated using pymatgen
data_Eu3Mg3HgPb2
_symmetry_space_group_name_H-M   'P 1'
_cell_length_a   7.97727100
_cell_length_b   7.97727132
_cell_length_c   4.73637900
_cell_angle_alpha   90.00000000
_cell_angle_beta   90.00000000
_cell_angle_gamma   119.99999452
_symmetry_Int_Tables_number   1
_chemical_formula_structural   Eu3Mg3HgPb2
_chemical_formula_sum   'Eu3 Mg3 Hg1 Pb2'
_cell_volume   261.02722840
_cell_formula_units_Z   1
loop_
 _symmetry_equiv_pos_site_id
 _symmetry_equiv_pos_as_xyz
  1  'x, y, z'
loop_
 _atom_site_type_symbol
 _atom_site_label
 _atom_site_symmetry_multiplicity
 _atom_site_fract_x
 _atom_site_fract_y
 _atom_site_fract_z
 _atom_site_occupancy
  Eu  Eu0  1  0.417162  0.000000  0.000000  1
  Eu  Eu1  1  0.000000  0.417162  0.000000  1
  Eu  Eu2  1  0.582838  0.582838  0.000000  1
  Mg  Mg3  1  0.763676  0.000000  0.500000  1
  Mg  Mg4  1  0.236325  0.236324  0.500000  1
  Mg  Mg5  1  0.000000  0.763675  0.500000  1
  Hg  Hg6  1  0.000000  0.000000  0.000000  1
  Pb  Pb7  1  0.666667  0.333333  0.500000  1
  Pb  Pb8  1  0.333333  0.666666  0.500000  1
