# generated using pymatgen
data_Dy4Ga20FePt10
_symmetry_space_group_name_H-M   'P 1'
_cell_length_a   4.14907042
_cell_length_b   11.01381166
_cell_length_c   13.66410004
_cell_angle_alpha   82.03370781
_cell_angle_beta   81.26738311
_cell_angle_gamma   79.14305409
_symmetry_Int_Tables_number   1
_chemical_formula_structural   Dy4Ga20FePt10
_chemical_formula_sum   'Dy4 Ga20 Fe1 Pt10'
_cell_volume   602.22030108
_cell_formula_units_Z   1
loop_
 _symmetry_equiv_pos_site_id
 _symmetry_equiv_pos_as_xyz
  1  'x, y, z'
loop_
 _atom_site_type_symbol
 _atom_site_label
 _atom_site_symmetry_multiplicity
 _atom_site_fract_x
 _atom_site_fract_y
 _atom_site_fract_z
 _atom_site_occupancy
  Dy  Dy0  1  0.124134  0.086197  0.665535  1
  Dy  Dy1  1  0.875866  0.913803  0.334465  1
  Dy  Dy2  1  0.774814  0.629767  0.820604  1
  Dy  Dy3  1  0.225186  0.370233  0.179396  1
  Ga  Ga4  1  0.009506  0.069629  0.911361  1
  Ga  Ga5  1  0.990494  0.930371  0.088639  1
  Ga  Ga6  1  0.064570  0.672285  0.198575  1
  Ga  Ga7  1  0.935430  0.327715  0.801425  1
  Ga  Ga8  1  0.104954  0.337250  0.452840  1
  Ga  Ga9  1  0.895046  0.662750  0.547160  1
  Ga  Ga10  1  0.202516  0.603252  0.991717  1
  Ga  Ga11  1  0.797484  0.396748  0.008283  1
  Ga  Ga12  1  0.259788  0.779831  0.700593  1
  Ga  Ga13  1  0.740212  0.220169  0.299407  1
  Ga  Ga14  1  0.303209  0.898746  0.494835  1
  Ga  Ga15  1  0.696791  0.101254  0.505165  1
  Ga  Ga16  1  0.387488  0.524142  0.700882  1
  Ga  Ga17  1  0.612512  0.475858  0.299118  1
  Ga  Ga18  1  0.396964  0.204701  0.001371  1
  Ga  Ga19  1  0.603036  0.795299  0.998629  1
  Ga  Ga20  1  0.543549  0.282908  0.629994  1
  Ga  Ga21  1  0.456451  0.717092  0.370006  1
  Ga  Ga22  1  0.636169  0.934350  0.793313  1
  Ga  Ga23  1  0.363831  0.065650  0.206687  1
  Fe  Fe24  1  0.500000  0.500000  0.500000  1
  Pt  Pt25  1  0.025797  0.570088  0.378318  1
  Pt  Pt26  1  0.974203  0.429912  0.621682  1
  Pt  Pt27  1  0.139124  0.833350  0.888403  1
  Pt  Pt28  1  0.860876  0.166650  0.111597  1
  Pt  Pt29  1  0.241921  0.125056  0.391101  1
  Pt  Pt30  1  0.758079  0.874944  0.608899  1
  Pt  Pt31  1  0.345590  0.417780  0.891039  1
  Pt  Pt32  1  0.654410  0.582220  0.108961  1
  Pt  Pt33  1  0.505912  0.169785  0.818391  1
  Pt  Pt34  1  0.494088  0.830215  0.181609  1
