# generated using pymatgen
data_Li4Nd2TmPb4
_symmetry_space_group_name_H-M   'P 1'
_cell_length_a   4.80202020
_cell_length_b   7.06403225
_cell_length_c   8.87013641
_cell_angle_alpha   113.46519037
_cell_angle_beta   105.70501475
_cell_angle_gamma   90.00000194
_symmetry_Int_Tables_number   1
_chemical_formula_structural   Li4Nd2TmPb4
_chemical_formula_sum   'Li4 Nd2 Tm1 Pb4'
_cell_volume   263.71600330
_cell_formula_units_Z   1
loop_
 _symmetry_equiv_pos_site_id
 _symmetry_equiv_pos_as_xyz
  1  'x, y, z'
loop_
 _atom_site_type_symbol
 _atom_site_label
 _atom_site_symmetry_multiplicity
 _atom_site_fract_x
 _atom_site_fract_y
 _atom_site_fract_z
 _atom_site_occupancy
  Li  Li0  1  0.672776  0.981953  0.345554  1
  Li  Li1  1  0.327224  0.018047  0.654446  1
  Li  Li2  1  0.327224  0.636399  0.654446  1
  Li  Li3  1  0.672776  0.363601  0.345554  1
  Nd  Nd4  1  0.129069  0.629069  0.258137  1
  Nd  Nd5  1  0.870931  0.370931  0.741863  1
  Tm  Tm6  1  0.000000  0.000000  0.000000  1
  Pb  Pb7  1  0.500000  0.712859  0.000000  1
  Pb  Pb8  1  0.500000  0.287141  0.000000  1
  Pb  Pb9  1  0.789771  0.789771  0.579543  1
  Pb  Pb10  1  0.210229  0.210229  0.420457  1
