# generated using pymatgen
data_Ho4Sc4Ga3Os
_symmetry_space_group_name_H-M   'P 1'
_cell_length_a   9.57623700
_cell_length_b   9.57623680
_cell_length_c   6.97603100
_cell_angle_alpha   90.00000000
_cell_angle_beta   90.00000000
_cell_angle_gamma   120.00000413
_symmetry_Int_Tables_number   1
_chemical_formula_structural   Ho4Sc4Ga3Os
_chemical_formula_sum   'Ho8 Sc8 Ga6 Os2'
_cell_volume   554.02425466
_cell_formula_units_Z   2
loop_
 _symmetry_equiv_pos_site_id
 _symmetry_equiv_pos_as_xyz
  1  'x, y, z'
loop_
 _atom_site_type_symbol
 _atom_site_label
 _atom_site_symmetry_multiplicity
 _atom_site_fract_x
 _atom_site_fract_y
 _atom_site_fract_z
 _atom_site_occupancy
  Ho  Ho0  1  0.468990  0.531010  0.209076  1
  Ho  Ho1  1  0.062019  0.531010  0.209076  1
  Ho  Ho2  1  0.468990  0.937981  0.209076  1
  Ho  Ho3  1  0.531010  0.468990  0.709076  1
  Ho  Ho4  1  0.937981  0.468990  0.709076  1
  Ho  Ho5  1  0.531010  0.062019  0.709076  1
  Ho  Ho6  1  0.000000  0.000000  0.231642  1
  Ho  Ho7  1  0.000000  0.000000  0.731642  1
  Sc  Sc8  1  0.172343  0.827657  0.511285  1
  Sc  Sc9  1  0.655314  0.827657  0.511285  1
  Sc  Sc10  1  0.172343  0.344686  0.511285  1
  Sc  Sc11  1  0.827657  0.172343  0.011285  1
  Sc  Sc12  1  0.344686  0.172343  0.011285  1
  Sc  Sc13  1  0.827657  0.655314  0.011285  1
  Sc  Sc14  1  0.333333  0.666667  0.837144  1
  Sc  Sc15  1  0.666667  0.333333  0.337144  1
  Ga  Ga16  1  0.164064  0.835936  0.949536  1
  Ga  Ga17  1  0.671872  0.835936  0.949536  1
  Ga  Ga18  1  0.164064  0.328128  0.949536  1
  Ga  Ga19  1  0.835936  0.164064  0.449536  1
  Ga  Ga20  1  0.328128  0.164064  0.449536  1
  Ga  Ga21  1  0.835936  0.671872  0.449536  1
  Os  Os22  1  0.333333  0.666667  0.458545  1
  Os  Os23  1  0.666667  0.333333  0.958545  1
