# generated using pymatgen
data_Tm3Lu(ScSe3)4
_symmetry_space_group_name_H-M   'P 1'
_cell_length_a   12.96868112
_cell_length_b   12.36230613
_cell_length_c   6.90418929
_cell_angle_alpha   79.09023817
_cell_angle_beta   69.39270254
_cell_angle_gamma   31.53989447
_symmetry_Int_Tables_number   1
_chemical_formula_structural   Tm3Lu(ScSe3)4
_chemical_formula_sum   'Tm3 Lu1 Sc4 Se12'
_cell_volume   527.92701426
_cell_formula_units_Z   1
loop_
 _symmetry_equiv_pos_site_id
 _symmetry_equiv_pos_as_xyz
  1  'x, y, z'
loop_
 _atom_site_type_symbol
 _atom_site_label
 _atom_site_symmetry_multiplicity
 _atom_site_fract_x
 _atom_site_fract_y
 _atom_site_fract_z
 _atom_site_occupancy
  Tm  Tm0  1  0.503090  0.503090  0.996910  1
  Tm  Tm1  1  0.253077  0.253077  0.746923  1
  Tm  Tm2  1  0.746910  0.746910  0.253090  1
  Lu  Lu3  1  0.997029  0.997029  0.502971  1
  Sc  Sc4  1  0.333305  0.333305  0.166695  1
  Sc  Sc5  1  0.166687  0.166687  0.333313  1
  Sc  Sc6  1  0.916719  0.916719  0.083281  1
  Sc  Sc7  1  0.083287  0.083287  0.916713  1
  Se  Se8  1  0.013104  0.486897  0.487004  1
  Se  Se9  1  0.486897  0.013104  0.012995  1
  Se  Se10  1  0.236415  0.763542  0.762316  1
  Se  Se11  1  0.763542  0.236415  0.237727  1
  Se  Se12  1  0.665598  0.166664  0.848199  1
  Se  Se13  1  0.849394  0.318323  0.664376  1
  Se  Se14  1  0.318323  0.849394  0.167907  1
  Se  Se15  1  0.166664  0.665598  0.319538  1
  Se  Se16  1  0.585197  0.082955  0.400947  1
  Se  Se17  1  0.400883  0.930925  0.585260  1
  Se  Se18  1  0.930925  0.400883  0.082933  1
  Se  Se19  1  0.082955  0.585197  0.930900  1
