# generated using pymatgen
data_Pr3Nd2(PdO6)2
_symmetry_space_group_name_H-M   'P 1'
_cell_length_a   7.15459049
_cell_length_b   7.15459129
_cell_length_c   7.59902670
_cell_angle_alpha   74.51083561
_cell_angle_beta   74.51082556
_cell_angle_gamma   50.51271682
_symmetry_Int_Tables_number   1
_chemical_formula_structural   Pr3Nd2(PdO6)2
_chemical_formula_sum   'Pr3 Nd2 Pd2 O12'
_cell_volume   286.81561327
_cell_formula_units_Z   1
loop_
 _symmetry_equiv_pos_site_id
 _symmetry_equiv_pos_as_xyz
  1  'x, y, z'
loop_
 _atom_site_type_symbol
 _atom_site_label
 _atom_site_symmetry_multiplicity
 _atom_site_fract_x
 _atom_site_fract_y
 _atom_site_fract_z
 _atom_site_occupancy
  Pr  Pr0  1  0.695030  0.695030  0.164216  1
  Pr  Pr1  1  0.304970  0.304970  0.835784  1
  Pr  Pr2  1  0.000000  0.000000  0.500000  1
  Nd  Nd3  1  0.303531  0.303531  0.357996  1
  Nd  Nd4  1  0.696469  0.696469  0.642004  1
  Pd  Pd5  1  0.753183  0.246817  0.000000  1
  Pd  Pd6  1  0.246817  0.753183  0.000000  1
  O  O7  1  0.095120  0.597601  0.574842  1
  O  O8  1  0.999631  0.999631  0.175359  1
  O  O9  1  0.402399  0.904880  0.425158  1
  O  O10  1  0.499679  0.499679  0.177986  1
  O  O11  1  0.101212  0.573815  0.081795  1
  O  O12  1  0.904880  0.402399  0.425158  1
  O  O13  1  0.000369  0.000369  0.824641  1
  O  O14  1  0.597601  0.095119  0.574842  1
  O  O15  1  0.500321  0.500321  0.822014  1
  O  O16  1  0.573815  0.101212  0.081795  1
  O  O17  1  0.426185  0.898788  0.918205  1
  O  O18  1  0.898788  0.426185  0.918205  1
