# generated using pymatgen
data_LaTlI
_symmetry_space_group_name_H-M   'P 1'
_cell_length_a   4.79292600
_cell_length_b   4.79292592
_cell_length_c   12.42299600
_cell_angle_alpha   90.00000000
_cell_angle_beta   90.00000000
_cell_angle_gamma   120.00001438
_symmetry_Int_Tables_number   1
_chemical_formula_structural   LaTlI
_chemical_formula_sum   'La2 Tl2 I2'
_cell_volume   247.14871347
_cell_formula_units_Z   2
loop_
 _symmetry_equiv_pos_site_id
 _symmetry_equiv_pos_as_xyz
  1  'x, y, z'
loop_
 _atom_site_type_symbol
 _atom_site_label
 _atom_site_symmetry_multiplicity
 _atom_site_fract_x
 _atom_site_fract_y
 _atom_site_fract_z
 _atom_site_occupancy
  La  La0  1  0.000000  0.000000  0.178910  1
  La  La1  1  0.000000  0.000000  0.821089  1
  Tl  Tl2  1  0.666667  0.333333  0.046213  1
  Tl  Tl3  1  0.333334  0.666668  0.953787  1
  I  I4  1  0.333334  0.666668  0.331763  1
  I  I5  1  0.666667  0.333333  0.668237  1
