# generated using pymatgen
data_Nd20GaSi3Sb8
_symmetry_space_group_name_H-M   'P 1'
_cell_length_a   8.26486045
_cell_length_b   9.43084400
_cell_length_c   12.31844200
_cell_angle_alpha   90.00000000
_cell_angle_beta   89.98111599
_cell_angle_gamma   90.00000000
_symmetry_Int_Tables_number   1
_chemical_formula_structural   Nd20GaSi3Sb8
_chemical_formula_sum   'Nd20 Ga1 Si3 Sb8'
_cell_volume   960.15610012
_cell_formula_units_Z   1
loop_
 _symmetry_equiv_pos_site_id
 _symmetry_equiv_pos_as_xyz
  1  'x, y, z'
loop_
 _atom_site_type_symbol
 _atom_site_label
 _atom_site_symmetry_multiplicity
 _atom_site_fract_x
 _atom_site_fract_y
 _atom_site_fract_z
 _atom_site_occupancy
  Nd  Nd0  1  0.814909  0.951950  0.063432  1
  Nd  Nd1  1  0.313697  0.042982  0.435436  1
  Nd  Nd2  1  0.183920  0.451647  0.936691  1
  Nd  Nd3  1  0.686794  0.550146  0.564294  1
  Nd  Nd4  1  0.183920  0.048353  0.936691  1
  Nd  Nd5  1  0.686794  0.949854  0.564294  1
  Nd  Nd6  1  0.814909  0.548050  0.063432  1
  Nd  Nd7  1  0.313697  0.457018  0.435436  1
  Nd  Nd8  1  0.535330  0.250000  0.998263  1
  Nd  Nd9  1  0.037192  0.750000  0.501836  1
  Nd  Nd10  1  0.462539  0.750000  0.000679  1
  Nd  Nd11  1  0.964715  0.250000  0.497994  1
  Nd  Nd12  1  0.166158  0.750000  0.213900  1
  Nd  Nd13  1  0.669067  0.250000  0.281164  1
  Nd  Nd14  1  0.833694  0.250000  0.785511  1
  Nd  Nd15  1  0.332656  0.750000  0.715822  1
  Nd  Nd16  1  0.639389  0.750000  0.293593  1
  Nd  Nd17  1  0.140910  0.250000  0.206493  1
  Nd  Nd18  1  0.357246  0.250000  0.708746  1
  Nd  Nd19  1  0.859430  0.750000  0.793535  1
  Ga  Ga20  1  0.585323  0.250000  0.521884  1
  Si  Si21  1  0.914068  0.250000  0.022208  1
  Si  Si22  1  0.418632  0.750000  0.481188  1
  Si  Si23  1  0.084404  0.750000  0.978965  1
  Sb  Sb24  1  0.931940  0.989734  0.325386  1
  Sb  Sb25  1  0.431628  0.009185  0.173683  1
  Sb  Sb26  1  0.068447  0.490242  0.674339  1
  Sb  Sb27  1  0.568288  0.509714  0.825846  1
  Sb  Sb28  1  0.068447  0.009758  0.674339  1
  Sb  Sb29  1  0.568288  0.990286  0.825846  1
  Sb  Sb30  1  0.931940  0.510266  0.325386  1
  Sb  Sb31  1  0.431628  0.490815  0.173683  1
