# generated using pymatgen
data_HoEr2Fe2Co7P6
_symmetry_space_group_name_H-M   'P 1'
_cell_length_a   3.68653600
_cell_length_b   10.53618300
_cell_length_c   12.07122500
_cell_angle_alpha   90.00000000
_cell_angle_beta   90.00000000
_cell_angle_gamma   90.00000000
_symmetry_Int_Tables_number   1
_chemical_formula_structural   HoEr2Fe2Co7P6
_chemical_formula_sum   'Ho2 Er4 Fe4 Co14 P12'
_cell_volume   468.87073791
_cell_formula_units_Z   2
loop_
 _symmetry_equiv_pos_site_id
 _symmetry_equiv_pos_as_xyz
  1  'x, y, z'
loop_
 _atom_site_type_symbol
 _atom_site_label
 _atom_site_symmetry_multiplicity
 _atom_site_fract_x
 _atom_site_fract_y
 _atom_site_fract_z
 _atom_site_occupancy
  Ho  Ho0  1  0.750000  0.250000  0.477282  1
  Ho  Ho1  1  0.250000  0.750000  0.522718  1
  Er  Er2  1  0.250000  0.931009  0.795851  1
  Er  Er3  1  0.250000  0.568991  0.795851  1
  Er  Er4  1  0.750000  0.068991  0.204149  1
  Er  Er5  1  0.750000  0.431009  0.204149  1
  Fe  Fe6  1  0.250000  0.250000  0.844005  1
  Fe  Fe7  1  0.750000  0.750000  0.155995  1
  Fe  Fe8  1  0.750000  0.250000  0.011793  1
  Fe  Fe9  1  0.250000  0.750000  0.988207  1
  Co  Co10  1  0.250000  0.250000  0.298695  1
  Co  Co11  1  0.750000  0.750000  0.701305  1
  Co  Co12  1  0.250000  0.418154  0.005757  1
  Co  Co13  1  0.250000  0.081846  0.005757  1
  Co  Co14  1  0.750000  0.581846  0.994243  1
  Co  Co15  1  0.750000  0.918154  0.994243  1
  Co  Co16  1  0.250000  0.453261  0.569620  1
  Co  Co17  1  0.250000  0.046739  0.569620  1
  Co  Co18  1  0.750000  0.546739  0.430380  1
  Co  Co19  1  0.750000  0.953261  0.430380  1
  Co  Co20  1  0.250000  0.871262  0.290876  1
  Co  Co21  1  0.250000  0.628738  0.290876  1
  Co  Co22  1  0.750000  0.128738  0.709124  1
  Co  Co23  1  0.750000  0.371262  0.709124  1
  P  P24  1  0.250000  0.250000  0.116281  1
  P  P25  1  0.750000  0.750000  0.883719  1
  P  P26  1  0.250000  0.250000  0.657443  1
  P  P27  1  0.750000  0.750000  0.342557  1
  P  P28  1  0.250000  0.439534  0.383156  1
  P  P29  1  0.250000  0.060466  0.383156  1
  P  P30  1  0.750000  0.560466  0.616844  1
  P  P31  1  0.750000  0.939534  0.616844  1
  P  P32  1  0.250000  0.902521  0.106990  1
  P  P33  1  0.250000  0.597479  0.106990  1
  P  P34  1  0.750000  0.097479  0.893010  1
  P  P35  1  0.750000  0.402521  0.893010  1
