# generated using pymatgen
data_Y7Th(WC2)4
_symmetry_space_group_name_H-M   'P 1'
_cell_length_a   5.75682281
_cell_length_b   5.75682310
_cell_length_c   10.03389215
_cell_angle_alpha   90.48800055
_cell_angle_beta   89.51199911
_cell_angle_gamma   90.36737375
_symmetry_Int_Tables_number   1
_chemical_formula_structural   Y7Th(WC2)4
_chemical_formula_sum   'Y7 Th1 W4 C8'
_cell_volume   332.50252126
_cell_formula_units_Z   1
loop_
 _symmetry_equiv_pos_site_id
 _symmetry_equiv_pos_as_xyz
  1  'x, y, z'
loop_
 _atom_site_type_symbol
 _atom_site_label
 _atom_site_symmetry_multiplicity
 _atom_site_fract_x
 _atom_site_fract_y
 _atom_site_fract_z
 _atom_site_occupancy
  Y  Y0  1  0.200562  0.195463  0.344980  1
  Y  Y1  1  0.800348  0.798975  0.658161  1
  Y  Y2  1  0.296247  0.703753  0.838076  1
  Y  Y3  1  0.804537  0.799438  0.344980  1
  Y  Y4  1  0.201025  0.199652  0.658161  1
  Y  Y5  1  0.702068  0.297932  0.158731  1
  Y  Y6  1  0.697622  0.302378  0.841647  1
  Th  Th7  1  0.302538  0.697462  0.160681  1
  W  W8  1  0.175072  0.183180  0.996828  1
  W  W9  1  0.816820  0.824928  0.996828  1
  W  W10  1  0.324312  0.675688  0.501967  1
  W  W11  1  0.679516  0.320484  0.501901  1
  C  C12  1  0.998329  0.001671  0.149840  1
  C  C13  1  0.506384  0.493616  0.351525  1
  C  C14  1  0.501142  0.498858  0.653510  1
  C  C15  1  0.496443  0.005442  0.995752  1
  C  C16  1  0.994558  0.503557  0.995752  1
  C  C17  1  0.996674  0.003326  0.844942  1
  C  C18  1  0.503531  0.997729  0.502869  1
  C  C19  1  0.002271  0.496469  0.502869  1
