# generated using pymatgen
data_La2Pa2Cu3Sb8
_symmetry_space_group_name_H-M   'P 1'
_cell_length_a   10.65717779
_cell_length_b   10.67357856
_cell_length_c   10.66636263
_cell_angle_alpha   146.03791691
_cell_angle_beta   146.01061742
_cell_angle_gamma   48.82929357
_symmetry_Int_Tables_number   1
_chemical_formula_structural   La2Pa2Cu3Sb8
_chemical_formula_sum   'La2 Pa2 Cu3 Sb8'
_cell_volume   377.23707037
_cell_formula_units_Z   1
loop_
 _symmetry_equiv_pos_site_id
 _symmetry_equiv_pos_as_xyz
  1  'x, y, z'
loop_
 _atom_site_type_symbol
 _atom_site_label
 _atom_site_symmetry_multiplicity
 _atom_site_fract_x
 _atom_site_fract_y
 _atom_site_fract_z
 _atom_site_occupancy
  La  La0  1  0.628664  0.628647  0.504507  1
  La  La1  1  0.124159  0.124139  0.495507  1
  Pa  Pa2  1  0.365108  0.870782  0.999966  1
  Pa  Pa3  1  0.870752  0.365076  0.999992  1
  Cu  Cu4  1  0.003751  0.003664  0.000039  1
  Cu  Cu5  1  0.005007  0.505088  0.500013  1
  Cu  Cu6  1  0.505003  0.005079  0.499967  1
  Sb  Sb7  1  0.337324  0.337319  0.510261  1
  Sb  Sb8  1  0.827060  0.827060  0.489739  1
  Sb  Sb9  1  0.676557  0.185574  0.000000  1
  Sb  Sb10  1  0.185612  0.676615  0.000023  1
  Sb  Sb11  1  0.242761  0.242703  0.000011  1
  Sb  Sb12  1  0.742749  0.742766  0.000002  1
  Sb  Sb13  1  0.742718  0.242716  0.499935  1
  Sb  Sb14  1  0.242773  0.742773  0.500038  1
