# generated using pymatgen
data_Er7LuSc11Si16Mo
_symmetry_space_group_name_H-M   'P 1'
_cell_length_a   7.03690076
_cell_length_b   7.29161031
_cell_length_c   13.83359685
_cell_angle_alpha   90.14233705
_cell_angle_beta   89.67619592
_cell_angle_gamma   89.68743984
_symmetry_Int_Tables_number   1
_chemical_formula_structural   Er7LuSc11Si16Mo
_chemical_formula_sum   'Er7 Lu1 Sc11 Si16 Mo1'
_cell_volume   709.78239052
_cell_formula_units_Z   1
loop_
 _symmetry_equiv_pos_site_id
 _symmetry_equiv_pos_as_xyz
  1  'x, y, z'
loop_
 _atom_site_type_symbol
 _atom_site_label
 _atom_site_symmetry_multiplicity
 _atom_site_fract_x
 _atom_site_fract_y
 _atom_site_fract_z
 _atom_site_occupancy
  Er  Er0  1  0.511392  0.322931  0.095893  1
  Er  Er1  1  0.007527  0.175368  0.404239  1
  Er  Er2  1  0.489495  0.676056  0.595597  1
  Er  Er3  1  0.991503  0.825511  0.899406  1
  Er  Er4  1  0.489415  0.678851  0.900079  1
  Er  Er5  1  0.994274  0.828488  0.595568  1
  Er  Er6  1  0.505542  0.322671  0.410024  1
  Lu  Lu7  1  0.010157  0.175408  0.097085  1
  Sc  Sc8  1  0.835027  0.323085  0.623816  1
  Sc  Sc9  1  0.334817  0.176564  0.874711  1
  Sc  Sc10  1  0.168026  0.677398  0.125985  1
  Sc  Sc11  1  0.663222  0.825189  0.378512  1
  Sc  Sc12  1  0.166141  0.678475  0.378016  1
  Sc  Sc13  1  0.666963  0.824289  0.124769  1
  Sc  Sc14  1  0.832934  0.322341  0.872130  1
  Sc  Sc15  1  0.660716  0.001763  0.747122  1
  Sc  Sc16  1  0.165798  0.496590  0.745201  1
  Sc  Sc17  1  0.333983  0.003363  0.252412  1
  Sc  Sc18  1  0.835904  0.497326  0.251608  1
  Si  Si19  1  0.649196  0.034758  0.544196  1
  Si  Si20  1  0.157115  0.466275  0.959509  1
  Si  Si21  1  0.337436  0.964080  0.038410  1
  Si  Si22  1  0.840057  0.532210  0.460905  1
  Si  Si23  1  0.331429  0.969715  0.471514  1
  Si  Si24  1  0.843695  0.534010  0.038925  1
  Si  Si25  1  0.664210  0.035852  0.959354  1
  Si  Si26  1  0.176714  0.451286  0.540446  1
  Si  Si27  1  0.533751  0.377470  0.745955  1
  Si  Si28  1  0.044888  0.118758  0.745139  1
  Si  Si29  1  0.464801  0.614516  0.250861  1
  Si  Si30  1  0.961457  0.887791  0.251211  1
  Si  Si31  1  0.786204  0.625720  0.746793  1
  Si  Si32  1  0.288892  0.877794  0.745852  1
  Si  Si33  1  0.212785  0.370939  0.250294  1
  Si  Si34  1  0.709303  0.129027  0.250426  1
  Mo  Mo35  1  0.335228  0.178135  0.628039  1
