# generated using pymatgen
data_Er12Ga7Si
_symmetry_space_group_name_H-M   'P 1'
_cell_length_a   10.96145557
_cell_length_b   10.96145489
_cell_length_c   10.96145500
_cell_angle_alpha   117.25707764
_cell_angle_beta   117.25707581
_cell_angle_gamma   94.82039878
_symmetry_Int_Tables_number   1
_chemical_formula_structural   Er12Ga7Si
_chemical_formula_sum   'Er24 Ga14 Si2'
_cell_volume   966.21098633
_cell_formula_units_Z   2
loop_
 _symmetry_equiv_pos_site_id
 _symmetry_equiv_pos_as_xyz
  1  'x, y, z'
loop_
 _atom_site_type_symbol
 _atom_site_label
 _atom_site_symmetry_multiplicity
 _atom_site_fract_x
 _atom_site_fract_y
 _atom_site_fract_z
 _atom_site_occupancy
  Er  Er0  1  0.146158  0.646158  0.500000  1
  Er  Er1  1  0.853842  0.353842  0.500000  1
  Er  Er2  1  0.646158  0.146158  0.500000  1
  Er  Er3  1  0.353842  0.853842  0.500000  1
  Er  Er4  1  0.838265  0.701980  0.267232  1
  Er  Er5  1  0.161735  0.298020  0.732768  1
  Er  Er6  1  0.434749  0.571034  0.732768  1
  Er  Er7  1  0.701980  0.434749  0.863715  1
  Er  Er8  1  0.065251  0.798020  0.136285  1
  Er  Er9  1  0.565251  0.428966  0.267232  1
  Er  Er10  1  0.298020  0.565251  0.136285  1
  Er  Er11  1  0.934749  0.201980  0.863715  1
  Er  Er12  1  0.571034  0.838265  0.136285  1
  Er  Er13  1  0.661735  0.928966  0.863715  1
  Er  Er14  1  0.428966  0.161735  0.863715  1
  Er  Er15  1  0.338265  0.071034  0.136285  1
  Er  Er16  1  0.928966  0.065251  0.267232  1
  Er  Er17  1  0.071034  0.934749  0.732768  1
  Er  Er18  1  0.798020  0.661735  0.732768  1
  Er  Er19  1  0.201980  0.338265  0.267232  1
  Er  Er20  1  0.170480  0.670480  0.840961  1
  Er  Er21  1  0.829520  0.329520  0.159039  1
  Er  Er22  1  0.670480  0.829520  0.500000  1
  Er  Er23  1  0.329520  0.170480  0.500000  1
  Ga  Ga24  1  0.618794  0.118794  0.737588  1
  Ga  Ga25  1  0.381206  0.881206  0.262412  1
  Ga  Ga26  1  0.118794  0.381206  0.500000  1
  Ga  Ga27  1  0.881206  0.618794  0.500000  1
  Ga  Ga28  1  0.500000  0.500000  0.000000  1
  Ga  Ga29  1  0.000000  0.000000  0.000000  1
  Ga  Ga30  1  0.379394  0.879394  0.854939  1
  Ga  Ga31  1  0.620606  0.120606  0.145061  1
  Ga  Ga32  1  0.024455  0.524455  0.145061  1
  Ga  Ga33  1  0.879394  0.024455  0.500000  1
  Ga  Ga34  1  0.475545  0.620606  0.500000  1
  Ga  Ga35  1  0.975545  0.475545  0.854939  1
  Ga  Ga36  1  0.120606  0.975545  0.500000  1
  Ga  Ga37  1  0.524455  0.379394  0.500000  1
  Si  Si38  1  0.750000  0.750000  0.000000  1
  Si  Si39  1  0.250000  0.250000  0.000000  1
