# generated using pymatgen
data_Tb6GaCoTc
_symmetry_space_group_name_H-M   'P 1'
_cell_length_a   8.39302443
_cell_length_b   8.39302451
_cell_length_c   8.39302409
_cell_angle_alpha   112.31455507
_cell_angle_beta   111.37663435
_cell_angle_gamma   104.82169287
_symmetry_Int_Tables_number   1
_chemical_formula_structural   Tb6GaCoTc
_chemical_formula_sum   'Tb12 Ga2 Co2 Tc2'
_cell_volume   452.87108972
_cell_formula_units_Z   2
loop_
 _symmetry_equiv_pos_site_id
 _symmetry_equiv_pos_as_xyz
  1  'x, y, z'
loop_
 _atom_site_type_symbol
 _atom_site_label
 _atom_site_symmetry_multiplicity
 _atom_site_fract_x
 _atom_site_fract_y
 _atom_site_fract_z
 _atom_site_occupancy
  Tb  Tb0  1  0.054925  0.746411  0.308514  1
  Tb  Tb1  1  0.945075  0.253589  0.691486  1
  Tb  Tb2  1  0.562103  0.253589  0.308514  1
  Tb  Tb3  1  0.437897  0.746411  0.691486  1
  Tb  Tb4  1  0.672904  0.853881  0.180977  1
  Tb  Tb5  1  0.327096  0.508072  0.180977  1
  Tb  Tb6  1  0.327096  0.146119  0.819023  1
  Tb  Tb7  1  0.672904  0.491928  0.819023  1
  Tb  Tb8  1  0.180876  0.218945  0.399821  1
  Tb  Tb9  1  0.819124  0.218945  0.038069  1
  Tb  Tb10  1  0.180876  0.781055  0.961931  1
  Tb  Tb11  1  0.819124  0.781055  0.600179  1
  Ga  Ga12  1  0.000000  0.500000  0.500000  1
  Ga  Ga13  1  0.500000  0.000000  0.500000  1
  Co  Co14  1  0.889723  0.889723  0.000000  1
  Co  Co15  1  0.110277  0.110277  0.000000  1
  Tc  Tc16  1  0.683485  0.500000  0.183485  1
  Tc  Tc17  1  0.316515  0.500000  0.816515  1
