# generated using pymatgen
data_Ba4LaU7S20
_symmetry_space_group_name_H-M   'P 1'
_cell_length_a   7.60530377
_cell_length_b   8.37355265
_cell_length_c   11.83591000
_cell_angle_alpha   89.49964489
_cell_angle_beta   90.36906153
_cell_angle_gamma   90.26642767
_symmetry_Int_Tables_number   1
_chemical_formula_structural   Ba4LaU7S20
_chemical_formula_sum   'Ba4 La1 U7 S20'
_cell_volume   753.69879695
_cell_formula_units_Z   1
loop_
 _symmetry_equiv_pos_site_id
 _symmetry_equiv_pos_as_xyz
  1  'x, y, z'
loop_
 _atom_site_type_symbol
 _atom_site_label
 _atom_site_symmetry_multiplicity
 _atom_site_fract_x
 _atom_site_fract_y
 _atom_site_fract_z
 _atom_site_occupancy
  Ba  Ba0  1  0.051610  0.488156  0.331337  1
  Ba  Ba1  1  0.553795  0.506358  0.166792  1
  Ba  Ba2  1  0.945994  0.507490  0.671171  1
  Ba  Ba3  1  0.445858  0.492093  0.832190  1
  La  La4  1  0.027264  0.997306  0.321801  1
  U  U5  1  0.521983  0.001743  0.178792  1
  U  U6  1  0.978010  0.000528  0.681590  1
  U  U7  1  0.478519  0.998592  0.819641  1
  U  U8  1  0.065767  0.758362  0.007360  1
  U  U9  1  0.564551  0.245610  0.496062  1
  U  U10  1  0.933964  0.243265  0.990898  1
  U  U11  1  0.434145  0.756758  0.506850  1
  S  S12  1  0.652810  0.962002  0.402192  1
  S  S13  1  0.166776  0.045397  0.090875  1
  S  S14  1  0.336631  0.043585  0.599872  1
  S  S15  1  0.837600  0.956818  0.899863  1
  S  S16  1  0.448402  0.793245  0.001072  1
  S  S17  1  0.940054  0.211386  0.506011  1
  S  S18  1  0.552070  0.203933  0.996158  1
  S  S19  1  0.057065  0.785791  0.511386  1
  S  S20  1  0.835625  0.779556  0.179192  1
  S  S21  1  0.352756  0.225252  0.309210  1
  S  S22  1  0.157349  0.216406  0.811023  1
  S  S23  1  0.656856  0.785304  0.688792  1
  S  S24  1  0.319660  0.769432  0.284875  1
  S  S25  1  0.812363  0.226952  0.206953  1
  S  S26  1  0.684571  0.222956  0.717184  1
  S  S27  1  0.186582  0.778253  0.790400  1
  S  S28  1  0.173785  0.462848  0.069066  1
  S  S29  1  0.674961  0.536539  0.431113  1
  S  S30  1  0.825692  0.534418  0.926310  1
  S  S31  1  0.326931  0.463666  0.573968  1
