# generated using pymatgen
data_DyZr(Re2Si)4
_symmetry_space_group_name_H-M   'P 1'
_cell_length_a   7.39310100
_cell_length_b   7.39310118
_cell_length_c   4.10851500
_cell_angle_alpha   90.00000000
_cell_angle_beta   90.00000000
_cell_angle_gamma   91.01213538
_symmetry_Int_Tables_number   1
_chemical_formula_structural   DyZr(Re2Si)4
_chemical_formula_sum   'Dy1 Zr1 Re8 Si4'
_cell_volume   224.52794481
_cell_formula_units_Z   1
loop_
 _symmetry_equiv_pos_site_id
 _symmetry_equiv_pos_as_xyz
  1  'x, y, z'
loop_
 _atom_site_type_symbol
 _atom_site_label
 _atom_site_symmetry_multiplicity
 _atom_site_fract_x
 _atom_site_fract_y
 _atom_site_fract_z
 _atom_site_occupancy
  Dy  Dy0  1  0.000000  0.000000  0.500000  1
  Zr  Zr1  1  0.500000  0.500000  0.000000  1
  Re  Re2  1  0.655236  0.902202  0.000000  1
  Re  Re3  1  0.159913  0.587819  0.500000  1
  Re  Re4  1  0.097798  0.344764  0.000000  1
  Re  Re5  1  0.902202  0.655236  0.000000  1
  Re  Re6  1  0.412181  0.840087  0.500000  1
  Re  Re7  1  0.587819  0.159913  0.500000  1
  Re  Re8  1  0.344764  0.097798  0.000000  1
  Re  Re9  1  0.840087  0.412181  0.500000  1
  Si  Si10  1  0.211239  0.788761  0.000000  1
  Si  Si11  1  0.788761  0.211239  0.000000  1
  Si  Si12  1  0.703765  0.703765  0.500000  1
  Si  Si13  1  0.296235  0.296235  0.500000  1
