# generated using pymatgen
data_SmTm7(Si4Mo3)4
_symmetry_space_group_name_H-M   'P 1'
_cell_length_a   6.74276355
_cell_length_b   6.93266650
_cell_length_c   12.89337059
_cell_angle_alpha   90.08242408
_cell_angle_beta   90.01820039
_cell_angle_gamma   90.03549336
_symmetry_Int_Tables_number   1
_chemical_formula_structural   SmTm7(Si4Mo3)4
_chemical_formula_sum   'Sm1 Tm7 Si16 Mo12'
_cell_volume   602.70410657
_cell_formula_units_Z   1
loop_
 _symmetry_equiv_pos_site_id
 _symmetry_equiv_pos_as_xyz
  1  'x, y, z'
loop_
 _atom_site_type_symbol
 _atom_site_label
 _atom_site_symmetry_multiplicity
 _atom_site_fract_x
 _atom_site_fract_y
 _atom_site_fract_z
 _atom_site_occupancy
  Sm  Sm0  1  0.997932  0.166377  0.092794  1
  Tm  Tm1  1  0.496754  0.332601  0.093776  1
  Tm  Tm2  1  0.996886  0.167833  0.406131  1
  Tm  Tm3  1  0.503181  0.667876  0.593965  1
  Tm  Tm4  1  0.003379  0.832144  0.905398  1
  Tm  Tm5  1  0.503334  0.667470  0.905663  1
  Tm  Tm6  1  0.003028  0.832092  0.593945  1
  Tm  Tm7  1  0.496889  0.332282  0.406739  1
  Si  Si8  1  0.660039  0.040659  0.547199  1
  Si  Si9  1  0.160747  0.461003  0.951927  1
  Si  Si10  1  0.343651  0.957017  0.046597  1
  Si  Si11  1  0.839910  0.540517  0.453104  1
  Si  Si12  1  0.339838  0.959357  0.453216  1
  Si  Si13  1  0.838627  0.544079  0.046549  1
  Si  Si14  1  0.658321  0.040340  0.951755  1
  Si  Si15  1  0.160094  0.459274  0.547200  1
  Si  Si16  1  0.534114  0.367767  0.749702  1
  Si  Si17  1  0.034335  0.132350  0.749938  1
  Si  Si18  1  0.465504  0.632160  0.250185  1
  Si  Si19  1  0.965218  0.865566  0.251092  1
  Si  Si20  1  0.801943  0.631453  0.749735  1
  Si  Si21  1  0.302219  0.868755  0.749883  1
  Si  Si22  1  0.199731  0.370923  0.251463  1
  Si  Si23  1  0.695411  0.130804  0.251289  1
  Mo  Mo24  1  0.830155  0.334944  0.624724  1
  Mo  Mo25  1  0.330551  0.165534  0.874513  1
  Mo  Mo26  1  0.170224  0.665000  0.124967  1
  Mo  Mo27  1  0.669732  0.834287  0.375713  1
  Mo  Mo28  1  0.170113  0.665408  0.375705  1
  Mo  Mo29  1  0.668543  0.833684  0.125558  1
  Mo  Mo30  1  0.829205  0.335780  0.874069  1
  Mo  Mo31  1  0.329811  0.165152  0.624852  1
  Mo  Mo32  1  0.666382  0.997502  0.749581  1
  Mo  Mo33  1  0.166278  0.502711  0.749741  1
  Mo  Mo34  1  0.334580  0.000982  0.250810  1
  Mo  Mo35  1  0.833343  0.498321  0.250521  1
