# generated using pymatgen
data_La16Cd4TcNiPd2
_symmetry_space_group_name_H-M   'P 1'
_cell_length_a   10.19349635
_cell_length_b   10.19349607
_cell_length_c   10.17219076
_cell_angle_alpha   59.43774582
_cell_angle_beta   59.43775410
_cell_angle_gamma   59.29742859
_symmetry_Int_Tables_number   1
_chemical_formula_structural   La16Cd4TcNiPd2
_chemical_formula_sum   'La16 Cd4 Tc1 Ni1 Pd2'
_cell_volume   737.02573752
_cell_formula_units_Z   1
loop_
 _symmetry_equiv_pos_site_id
 _symmetry_equiv_pos_as_xyz
  1  'x, y, z'
loop_
 _atom_site_type_symbol
 _atom_site_label
 _atom_site_symmetry_multiplicity
 _atom_site_fract_x
 _atom_site_fract_y
 _atom_site_fract_z
 _atom_site_occupancy
  La  La0  1  0.345415  0.345415  0.360552  1
  La  La1  1  0.345689  0.345689  0.956562  1
  La  La2  1  0.341102  0.961045  0.350371  1
  La  La3  1  0.961045  0.341102  0.350371  1
  La  La4  1  0.818243  0.189452  0.187004  1
  La  La5  1  0.191894  0.812380  0.797230  1
  La  La6  1  0.189452  0.818243  0.187004  1
  La  La7  1  0.812380  0.191894  0.797230  1
  La  La8  1  0.187426  0.187426  0.811961  1
  La  La9  1  0.804081  0.804081  0.190988  1
  La  La10  1  0.934156  0.566903  0.565074  1
  La  La11  1  0.551344  0.940904  0.940482  1
  La  La12  1  0.566903  0.934156  0.565074  1
  La  La13  1  0.940904  0.551344  0.940482  1
  La  La14  1  0.563921  0.563921  0.939065  1
  La  La15  1  0.939041  0.939041  0.551922  1
  Cd  Cd16  1  0.578757  0.578757  0.578630  1
  Cd  Cd17  1  0.579178  0.579178  0.261401  1
  Cd  Cd18  1  0.579549  0.260559  0.579751  1
  Cd  Cd19  1  0.260559  0.579549  0.579751  1
  Tc  Tc20  1  0.140126  0.140126  0.143616  1
  Ni  Ni21  1  0.145549  0.145549  0.577416  1
  Pd  Pd22  1  0.145959  0.577329  0.144032  1
  Pd  Pd23  1  0.577329  0.145959  0.144032  1
