# generated using pymatgen
data_PuNp(WN2)2
_symmetry_space_group_name_H-M   'P 1'
_cell_length_a   3.15835000
_cell_length_b   5.58369400
_cell_length_c   10.88908800
_cell_angle_alpha   90.00000000
_cell_angle_beta   90.00000000
_cell_angle_gamma   90.00000000
_symmetry_Int_Tables_number   1
_chemical_formula_structural   PuNp(WN2)2
_chemical_formula_sum   'Pu2 Np2 W4 N8'
_cell_volume   192.03189744
_cell_formula_units_Z   2
loop_
 _symmetry_equiv_pos_site_id
 _symmetry_equiv_pos_as_xyz
  1  'x, y, z'
loop_
 _atom_site_type_symbol
 _atom_site_label
 _atom_site_symmetry_multiplicity
 _atom_site_fract_x
 _atom_site_fract_y
 _atom_site_fract_z
 _atom_site_occupancy
  Pu  Pu0  1  0.750000  0.925286  0.143512  1
  Pu  Pu1  1  0.750000  0.425286  0.356488  1
  Np  Np2  1  0.250000  0.076810  0.858025  1
  Np  Np3  1  0.250000  0.576810  0.641975  1
  W  W4  1  0.250000  0.429051  0.104445  1
  W  W5  1  0.250000  0.929051  0.395555  1
  W  W6  1  0.750000  0.571126  0.897532  1
  W  W7  1  0.750000  0.071126  0.602468  1
  N  N8  1  0.250000  0.165087  0.245364  1
  N  N9  1  0.250000  0.665087  0.254636  1
  N  N10  1  0.750000  0.834135  0.754297  1
  N  N11  1  0.750000  0.334135  0.745703  1
  N  N12  1  0.250000  0.755801  0.997551  1
  N  N13  1  0.250000  0.255801  0.502449  1
  N  N14  1  0.750000  0.242705  0.006106  1
  N  N15  1  0.750000  0.742705  0.493894  1
