# generated using pymatgen
data_Dy12Ho4MgTl3Rh4
_symmetry_space_group_name_H-M   'P 1'
_cell_length_a   9.65136436
_cell_length_b   9.67998455
_cell_length_c   9.67998500
_cell_angle_alpha   59.99999506
_cell_angle_beta   59.90185168
_cell_angle_gamma   59.90185052
_symmetry_Int_Tables_number   1
_chemical_formula_structural   Dy12Ho4MgTl3Rh4
_chemical_formula_sum   'Dy12 Ho4 Mg1 Tl3 Rh4'
_cell_volume   638.52391224
_cell_formula_units_Z   1
loop_
 _symmetry_equiv_pos_site_id
 _symmetry_equiv_pos_as_xyz
  1  'x, y, z'
loop_
 _atom_site_type_symbol
 _atom_site_label
 _atom_site_symmetry_multiplicity
 _atom_site_fract_x
 _atom_site_fract_y
 _atom_site_fract_z
 _atom_site_occupancy
  Dy  Dy0  1  0.810621  0.188973  0.188973  1
  Dy  Dy1  1  0.185104  0.813560  0.813560  1
  Dy  Dy2  1  0.185104  0.813560  0.187775  1
  Dy  Dy3  1  0.810621  0.188973  0.811433  1
  Dy  Dy4  1  0.185104  0.187775  0.813560  1
  Dy  Dy5  1  0.810621  0.811433  0.188973  1
  Dy  Dy6  1  0.938190  0.563460  0.563460  1
  Dy  Dy7  1  0.562781  0.937599  0.937599  1
  Dy  Dy8  1  0.562781  0.937599  0.562022  1
  Dy  Dy9  1  0.938190  0.563460  0.934889  1
  Dy  Dy10  1  0.562781  0.562022  0.937599  1
  Dy  Dy11  1  0.938190  0.934889  0.563460  1
  Ho  Ho12  1  0.349845  0.348436  0.348436  1
  Ho  Ho13  1  0.349845  0.348436  0.953282  1
  Ho  Ho14  1  0.349845  0.953282  0.348436  1
  Ho  Ho15  1  0.945694  0.351435  0.351435  1
  Mg  Mg16  1  0.274576  0.575141  0.575141  1
  Tl  Tl17  1  0.582257  0.587058  0.587058  1
  Tl  Tl18  1  0.582257  0.587058  0.243628  1
  Tl  Tl19  1  0.582257  0.243628  0.587058  1
  Rh  Rh20  1  0.140935  0.144021  0.144021  1
  Rh  Rh21  1  0.140935  0.144021  0.571022  1
  Rh  Rh22  1  0.140935  0.571022  0.144021  1
  Rh  Rh23  1  0.570532  0.143156  0.143156  1
