# generated using pymatgen
data_KSmU2(NiAs)4
_symmetry_space_group_name_H-M   'P 1'
_cell_length_a   4.08136500
_cell_length_b   4.08136508
_cell_length_c   16.38970800
_cell_angle_alpha   90.00000000
_cell_angle_beta   90.00000000
_cell_angle_gamma   120.00002366
_symmetry_Int_Tables_number   1
_chemical_formula_structural   KSmU2(NiAs)4
_chemical_formula_sum   'K1 Sm1 U2 Ni4 As4'
_cell_volume   236.43546721
_cell_formula_units_Z   1
loop_
 _symmetry_equiv_pos_site_id
 _symmetry_equiv_pos_as_xyz
  1  'x, y, z'
loop_
 _atom_site_type_symbol
 _atom_site_label
 _atom_site_symmetry_multiplicity
 _atom_site_fract_x
 _atom_site_fract_y
 _atom_site_fract_z
 _atom_site_occupancy
  K  K0  1  0.000000  0.000000  0.000000  1
  Sm  Sm1  1  0.000000  0.000000  0.500000  1
  U  U2  1  0.000000  0.000000  0.261923  1
  U  U3  1  0.000000  0.000000  0.738077  1
  Ni  Ni4  1  0.333333  0.666667  0.174345  1
  Ni  Ni5  1  0.666667  0.333333  0.825655  1
  Ni  Ni6  1  0.666667  0.333333  0.639395  1
  Ni  Ni7  1  0.333333  0.666667  0.360605  1
  As  As8  1  0.333333  0.666667  0.614288  1
  As  As9  1  0.666667  0.333333  0.385712  1
  As  As10  1  0.666667  0.333333  0.148183  1
  As  As11  1  0.333333  0.666667  0.851817  1
