# generated using pymatgen
data_Mn5CoIr2
_symmetry_space_group_name_H-M   'P 1'
_cell_length_a   5.14331200
_cell_length_b   5.17809369
_cell_length_c   4.05585600
_cell_angle_alpha   90.00000000
_cell_angle_beta   90.00000000
_cell_angle_gamma   119.77803554
_symmetry_Int_Tables_number   1
_chemical_formula_structural   Mn5CoIr2
_chemical_formula_sum   'Mn5 Co1 Ir2'
_cell_volume   93.75468177
_cell_formula_units_Z   1
loop_
 _symmetry_equiv_pos_site_id
 _symmetry_equiv_pos_as_xyz
  1  'x, y, z'
loop_
 _atom_site_type_symbol
 _atom_site_label
 _atom_site_symmetry_multiplicity
 _atom_site_fract_x
 _atom_site_fract_y
 _atom_site_fract_z
 _atom_site_occupancy
  Mn  Mn0  1  0.681445  0.843957  0.250000  1
  Mn  Mn1  1  0.162512  0.843957  0.250000  1
  Mn  Mn2  1  0.840368  0.680736  0.750000  1
  Mn  Mn3  1  0.316653  0.160727  0.750000  1
  Mn  Mn4  1  0.844074  0.160727  0.750000  1
  Co  Co5  1  0.158862  0.317724  0.250000  1
  Ir  Ir6  1  0.664606  0.329210  0.250000  1
  Ir  Ir7  1  0.331480  0.662961  0.750000  1
