# generated using pymatgen
data_CaSm6RhI12
_symmetry_space_group_name_H-M   'P 1'
_cell_length_a   9.96579995
_cell_length_b   9.96579999
_cell_length_c   9.96579925
_cell_angle_alpha   107.27119482
_cell_angle_beta   107.27119828
_cell_angle_gamma   107.27119253
_symmetry_Int_Tables_number   1
_chemical_formula_structural   CaSm6RhI12
_chemical_formula_sum   'Ca1 Sm6 Rh1 I12'
_cell_volume   818.11942298
_cell_formula_units_Z   1
loop_
 _symmetry_equiv_pos_site_id
 _symmetry_equiv_pos_as_xyz
  1  'x, y, z'
loop_
 _atom_site_type_symbol
 _atom_site_label
 _atom_site_symmetry_multiplicity
 _atom_site_fract_x
 _atom_site_fract_y
 _atom_site_fract_z
 _atom_site_occupancy
  Ca  Ca0  1  0.500000  0.500000  0.500000  1
  Sm  Sm1  1  0.902742  0.976249  0.698279  1
  Sm  Sm2  1  0.976249  0.698279  0.902742  1
  Sm  Sm3  1  0.698279  0.902742  0.976249  1
  Sm  Sm4  1  0.097258  0.023751  0.301721  1
  Sm  Sm5  1  0.023751  0.301721  0.097258  1
  Sm  Sm6  1  0.301721  0.097258  0.023751  1
  Rh  Rh7  1  0.000000  0.000000  0.000000  1
  I  I8  1  0.539551  0.844114  0.618145  1
  I  I9  1  0.844114  0.618145  0.539551  1
  I  I10  1  0.618145  0.539551  0.844114  1
  I  I11  1  0.460449  0.155886  0.381855  1
  I  I12  1  0.155886  0.381855  0.460449  1
  I  I13  1  0.381855  0.460449  0.155886  1
  I  I14  1  0.678813  0.224900  0.071196  1
  I  I15  1  0.224900  0.071196  0.678813  1
  I  I16  1  0.071196  0.678813  0.224900  1
  I  I17  1  0.321187  0.775100  0.928804  1
  I  I18  1  0.775100  0.928804  0.321187  1
  I  I19  1  0.928804  0.321187  0.775100  1
