# generated using pymatgen
data_Pr3Dy2Ho3(CdIr)2
_symmetry_space_group_name_H-M   'P 1'
_cell_length_a   9.76297716
_cell_length_b   9.76297788
_cell_length_c   9.76297700
_cell_angle_alpha   59.99999958
_cell_angle_beta   59.99999717
_cell_angle_gamma   59.99999857
_symmetry_Int_Tables_number   1
_chemical_formula_structural   Pr3Dy2Ho3(CdIr)2
_chemical_formula_sum   'Pr6 Dy4 Ho6 Cd4 Ir4'
_cell_volume   658.00899672
_cell_formula_units_Z   2
loop_
 _symmetry_equiv_pos_site_id
 _symmetry_equiv_pos_as_xyz
  1  'x, y, z'
loop_
 _atom_site_type_symbol
 _atom_site_label
 _atom_site_symmetry_multiplicity
 _atom_site_fract_x
 _atom_site_fract_y
 _atom_site_fract_z
 _atom_site_occupancy
  Pr  Pr0  1  0.941205  0.558795  0.558795  1
  Pr  Pr1  1  0.558795  0.941205  0.941205  1
  Pr  Pr2  1  0.558795  0.941205  0.558795  1
  Pr  Pr3  1  0.941205  0.558795  0.941205  1
  Pr  Pr4  1  0.558795  0.558795  0.941205  1
  Pr  Pr5  1  0.941205  0.941205  0.558795  1
  Dy  Dy6  1  0.347093  0.347093  0.347093  1
  Dy  Dy7  1  0.347093  0.347093  0.958719  1
  Dy  Dy8  1  0.347093  0.958719  0.347093  1
  Dy  Dy9  1  0.958719  0.347093  0.347093  1
  Ho  Ho10  1  0.813030  0.186970  0.186970  1
  Ho  Ho11  1  0.186970  0.813030  0.813030  1
  Ho  Ho12  1  0.186970  0.813030  0.186970  1
  Ho  Ho13  1  0.813030  0.186970  0.813030  1
  Ho  Ho14  1  0.186970  0.186970  0.813030  1
  Ho  Ho15  1  0.813030  0.813030  0.186970  1
  Cd  Cd16  1  0.579195  0.579195  0.579195  1
  Cd  Cd17  1  0.579195  0.579195  0.262414  1
  Cd  Cd18  1  0.579195  0.262414  0.579195  1
  Cd  Cd19  1  0.262414  0.579195  0.579195  1
  Ir  Ir20  1  0.141028  0.141028  0.141028  1
  Ir  Ir21  1  0.141028  0.141028  0.576916  1
  Ir  Ir22  1  0.141028  0.576916  0.141028  1
  Ir  Ir23  1  0.576916  0.141028  0.141028  1
