# generated using pymatgen
data_Tm3Si3Rh2
_symmetry_space_group_name_H-M   'P 1'
_cell_length_a   5.65724454
_cell_length_b   5.65724417
_cell_length_c   13.59218100
_cell_angle_alpha   90.00000000
_cell_angle_beta   90.00000000
_cell_angle_gamma   136.87414093
_symmetry_Int_Tables_number   1
_chemical_formula_structural   Tm3Si3Rh2
_chemical_formula_sum   'Tm6 Si6 Rh4'
_cell_volume   297.37409996
_cell_formula_units_Z   2
loop_
 _symmetry_equiv_pos_site_id
 _symmetry_equiv_pos_as_xyz
  1  'x, y, z'
loop_
 _atom_site_type_symbol
 _atom_site_label
 _atom_site_symmetry_multiplicity
 _atom_site_fract_x
 _atom_site_fract_y
 _atom_site_fract_z
 _atom_site_occupancy
  Tm  Tm0  1  0.920480  0.079520  0.385628  1
  Tm  Tm1  1  0.079520  0.920480  0.614372  1
  Tm  Tm2  1  0.920480  0.079520  0.114372  1
  Tm  Tm3  1  0.079520  0.920480  0.885628  1
  Tm  Tm4  1  0.644000  0.356000  0.250000  1
  Tm  Tm5  1  0.356000  0.644000  0.750000  1
  Si  Si6  1  0.608041  0.391959  0.461572  1
  Si  Si7  1  0.391959  0.608041  0.538428  1
  Si  Si8  1  0.608041  0.391959  0.038428  1
  Si  Si9  1  0.391959  0.608041  0.961572  1
  Si  Si10  1  0.337021  0.662979  0.250000  1
  Si  Si11  1  0.662979  0.337021  0.750000  1
  Rh  Rh12  1  0.788027  0.211973  0.916064  1
  Rh  Rh13  1  0.211973  0.788027  0.083936  1
  Rh  Rh14  1  0.788027  0.211973  0.583936  1
  Rh  Rh15  1  0.211973  0.788027  0.416064  1
