# generated using pymatgen
data_Ti8Mn(Al5Pt2)3
_symmetry_space_group_name_H-M   'P 1'
_cell_length_a   8.66559154
_cell_length_b   8.66559293
_cell_length_c   8.66559211
_cell_angle_alpha   120.32427927
_cell_angle_beta   119.66408209
_cell_angle_gamma   90.01103260
_symmetry_Int_Tables_number   1
_chemical_formula_structural   Ti8Mn(Al5Pt2)3
_chemical_formula_sum   'Ti8 Mn1 Al15 Pt6'
_cell_volume   460.15051150
_cell_formula_units_Z   1
loop_
 _symmetry_equiv_pos_site_id
 _symmetry_equiv_pos_as_xyz
  1  'x, y, z'
loop_
 _atom_site_type_symbol
 _atom_site_label
 _atom_site_symmetry_multiplicity
 _atom_site_fract_x
 _atom_site_fract_y
 _atom_site_fract_z
 _atom_site_occupancy
  Ti  Ti0  1  0.789270  0.289970  0.076654  1
  Ti  Ti1  1  0.213315  0.289970  0.500700  1
  Ti  Ti2  1  0.210867  0.710867  0.500000  1
  Ti  Ti3  1  0.213315  0.712615  0.923346  1
  Ti  Ti4  1  0.789270  0.712615  0.499300  1
  Ti  Ti5  1  0.787224  0.287224  0.500000  1
  Ti  Ti6  1  0.383925  0.117092  0.733167  1
  Ti  Ti7  1  0.383925  0.650759  0.266833  1
  Mn  Mn8  1  0.494389  0.994389  0.500000  1
  Al  Al9  1  0.998941  0.498941  0.500000  1
  Al  Al10  1  0.158281  0.344676  0.186394  1
  Al  Al11  1  0.158281  0.971887  0.813606  1
  Al  Al12  1  0.158715  0.342503  0.816212  1
  Al  Al13  1  0.526291  0.342503  0.183788  1
  Al  Al14  1  0.843927  0.655917  0.811990  1
  Al  Al15  1  0.843927  0.031937  0.188010  1
  Al  Al16  1  0.842564  0.656950  0.185613  1
  Al  Al17  1  0.471337  0.656950  0.814387  1
  Al  Al18  1  0.384175  0.116690  0.267485  1
  Al  Al19  1  0.849206  0.116690  0.732515  1
  Al  Al20  1  0.617342  0.883703  0.266362  1
  Al  Al21  1  0.617342  0.350979  0.733638  1
  Al  Al22  1  0.619073  0.882193  0.736880  1
  Al  Al23  1  0.145312  0.882193  0.263120  1
  Pt  Pt24  1  0.997957  0.999503  0.498767  1
  Pt  Pt25  1  0.500736  0.999503  0.001546  1
  Pt  Pt26  1  0.501255  0.501255  0.000000  1
  Pt  Pt27  1  0.500736  0.499191  0.501233  1
  Pt  Pt28  1  0.997957  0.499191  0.998454  1
  Pt  Pt29  1  0.001142  0.001142  0.000000  1
