# generated using pymatgen
data_CeY3(CdPt)4
_symmetry_space_group_name_H-M   'P 1'
_cell_length_a   7.31409672
_cell_length_b   4.09828200
_cell_length_c   8.89463648
_cell_angle_alpha   90.00000000
_cell_angle_beta   89.63974271
_cell_angle_gamma   90.00000000
_symmetry_Int_Tables_number   1
_chemical_formula_structural   CeY3(CdPt)4
_chemical_formula_sum   'Ce1 Y3 Cd4 Pt4'
_cell_volume   266.61351209
_cell_formula_units_Z   1
loop_
 _symmetry_equiv_pos_site_id
 _symmetry_equiv_pos_as_xyz
  1  'x, y, z'
loop_
 _atom_site_type_symbol
 _atom_site_label
 _atom_site_symmetry_multiplicity
 _atom_site_fract_x
 _atom_site_fract_y
 _atom_site_fract_z
 _atom_site_occupancy
  Ce  Ce0  1  0.450966  0.750000  0.180177  1
  Y  Y1  1  0.947020  0.750000  0.322096  1
  Y  Y2  1  0.054139  0.249999  0.681956  1
  Y  Y3  1  0.553067  0.249999  0.813658  1
  Cd  Cd4  1  0.127638  0.249999  0.057882  1
  Cd  Cd5  1  0.636037  0.249999  0.444103  1
  Cd  Cd6  1  0.367138  0.750000  0.559843  1
  Cd  Cd7  1  0.865268  0.750000  0.939689  1
  Pt  Pt8  1  0.728628  0.249999  0.135430  1
  Pt  Pt9  1  0.232255  0.249999  0.364094  1
  Pt  Pt10  1  0.769860  0.750000  0.633747  1
  Pt  Pt11  1  0.267986  0.750000  0.867324  1
