# generated using pymatgen
data_Dy4HgPt3Pb2
_symmetry_space_group_name_H-M   'P 1'
_cell_length_a   8.17312442
_cell_length_b   8.17312442
_cell_length_c   3.57148600
_cell_angle_alpha   90.00000000
_cell_angle_beta   90.00000000
_cell_angle_gamma   89.15459626
_symmetry_Int_Tables_number   1
_chemical_formula_structural   Dy4HgPt3Pb2
_chemical_formula_sum   'Dy4 Hg1 Pt3 Pb2'
_cell_volume   238.54916214
_cell_formula_units_Z   1
loop_
 _symmetry_equiv_pos_site_id
 _symmetry_equiv_pos_as_xyz
  1  'x, y, z'
loop_
 _atom_site_type_symbol
 _atom_site_label
 _atom_site_symmetry_multiplicity
 _atom_site_fract_x
 _atom_site_fract_y
 _atom_site_fract_z
 _atom_site_occupancy
  Dy  Dy0  1  0.307789  0.158397  0.500000  1
  Dy  Dy1  1  0.854658  0.354659  0.500000  1
  Dy  Dy2  1  0.168745  0.668744  0.500000  1
  Dy  Dy3  1  0.658396  0.807788  0.500000  1
  Hg  Hg4  1  0.629576  0.129576  0.000000  1
  Pt  Pt5  1  0.133298  0.377434  0.000000  1
  Pt  Pt6  1  0.877435  0.633298  0.000000  1
  Pt  Pt7  1  0.376890  0.876891  0.000000  1
  Pb  Pb8  1  0.999169  0.994046  0.000000  1
  Pb  Pb9  1  0.494046  0.499169  0.000000  1
