# generated using pymatgen
data_La2Tb5Tm13Si15Pt
_symmetry_space_group_name_H-M   'P 1'
_cell_length_a   7.37083694
_cell_length_b   7.72606132
_cell_length_c   14.53569038
_cell_angle_alpha   89.64369747
_cell_angle_beta   89.97474557
_cell_angle_gamma   90.00720343
_symmetry_Int_Tables_number   1
_chemical_formula_structural   La2Tb5Tm13Si15Pt
_chemical_formula_sum   'La2 Tb5 Tm13 Si15 Pt1'
_cell_volume   827.75568972
_cell_formula_units_Z   1
loop_
 _symmetry_equiv_pos_site_id
 _symmetry_equiv_pos_as_xyz
  1  'x, y, z'
loop_
 _atom_site_type_symbol
 _atom_site_label
 _atom_site_symmetry_multiplicity
 _atom_site_fract_x
 _atom_site_fract_y
 _atom_site_fract_z
 _atom_site_occupancy
  La  La0  1  0.520762  0.571494  0.342664  1
  La  La1  1  0.021777  0.426035  0.657302  1
  Tb  Tb2  1  0.977761  0.069324  0.152497  1
  Tb  Tb3  1  0.477634  0.932119  0.152718  1
  Tb  Tb4  1  0.976009  0.069379  0.847815  1
  Tb  Tb5  1  0.524196  0.567505  0.652754  1
  Tb  Tb6  1  0.023773  0.431493  0.347508  1
  Tm  Tm7  1  0.810254  0.577999  0.875868  1
  Tm  Tm8  1  0.321065  0.427548  0.123878  1
  Tm  Tm9  1  0.182111  0.925908  0.373980  1
  Tm  Tm10  1  0.680799  0.069593  0.627070  1
  Tm  Tm11  1  0.182587  0.925113  0.627322  1
  Tm  Tm12  1  0.681076  0.071760  0.372271  1
  Tm  Tm13  1  0.814201  0.574350  0.124325  1
  Tm  Tm14  1  0.324507  0.431842  0.874856  1
  Tm  Tm15  1  0.647089  0.236598  0.998720  1
  Tm  Tm16  1  0.157270  0.759562  0.000368  1
  Tm  Tm17  1  0.348529  0.260457  0.500049  1
  Tm  Tm18  1  0.848828  0.738484  0.499887  1
  Tm  Tm19  1  0.478825  0.930160  0.848107  1
  Si  Si20  1  0.020659  0.355079  0.999926  1
  Si  Si21  1  0.478380  0.862857  0.501177  1
  Si  Si22  1  0.976983  0.135471  0.499199  1
  Si  Si23  1  0.651311  0.275690  0.791090  1
  Si  Si24  1  0.150372  0.720398  0.209199  1
  Si  Si25  1  0.347330  0.214427  0.286734  1
  Si  Si26  1  0.850230  0.784169  0.712874  1
  Si  Si27  1  0.357003  0.215067  0.712612  1
  Si  Si28  1  0.858178  0.782619  0.287872  1
  Si  Si29  1  0.649443  0.271949  0.207048  1
  Si  Si30  1  0.148992  0.727401  0.793132  1
  Si  Si31  1  0.773782  0.882293  0.000120  1
  Si  Si32  1  0.264114  0.126047  0.999097  1
  Si  Si33  1  0.228273  0.624211  0.501815  1
  Si  Si34  1  0.727886  0.374606  0.499105  1
  Pt  Pt35  1  0.518011  0.650990  0.999041  1
