# generated using pymatgen
data_Pu3Th3SeBr15
_symmetry_space_group_name_H-M   'P 1'
_cell_length_a   10.22985281
_cell_length_b   10.24182099
_cell_length_c   10.22985292
_cell_angle_alpha   109.03985485
_cell_angle_beta   109.76201170
_cell_angle_gamma   109.56565799
_symmetry_Int_Tables_number   1
_chemical_formula_structural   Pu3Th3SeBr15
_chemical_formula_sum   'Pu3 Th3 Se1 Br15'
_cell_volume   825.51940239
_cell_formula_units_Z   1
loop_
 _symmetry_equiv_pos_site_id
 _symmetry_equiv_pos_as_xyz
  1  'x, y, z'
loop_
 _atom_site_type_symbol
 _atom_site_label
 _atom_site_symmetry_multiplicity
 _atom_site_fract_x
 _atom_site_fract_y
 _atom_site_fract_z
 _atom_site_occupancy
  Pu  Pu0  1  0.002317  0.256239  0.258632  1
  Pu  Pu1  1  0.002393  0.743761  0.746078  1
  Pu  Pu2  1  0.251732  0.000000  0.251732  1
  Th  Th3  1  0.753649  0.000000  0.753649  1
  Th  Th4  1  0.246254  0.246486  0.999742  1
  Th  Th5  1  0.753256  0.753514  0.999768  1
  Se  Se6  1  0.004792  0.000000  0.004792  1
  Br  Br7  1  0.493272  0.249536  0.243733  1
  Br  Br8  1  0.502696  0.751947  0.750786  1
  Br  Br9  1  0.998839  0.248053  0.750749  1
  Br  Br10  1  0.994197  0.750464  0.243736  1
  Br  Br11  1  0.247533  0.490156  0.240765  1
  Br  Br12  1  0.750584  0.993234  0.240814  1
  Br  Br13  1  0.750610  0.509844  0.757378  1
  Br  Br14  1  0.247579  0.006766  0.757350  1
  Br  Br15  1  0.245520  0.243347  0.488903  1
  Br  Br16  1  0.751804  0.758431  0.510193  1
  Br  Br17  1  0.751762  0.241569  0.993373  1
  Br  Br18  1  0.245556  0.756653  0.002174  1
  Br  Br19  1  0.999144  0.500000  0.499144  1
  Br  Br20  1  0.506872  0.000000  0.506872  1
  Br  Br21  1  0.499641  0.500000  0.999641  1
