# generated using pymatgen
data_DyEr8Tm7(Ga3Co)2
_symmetry_space_group_name_H-M   'P 1'
_cell_length_a   9.88224900
_cell_length_b   9.88226495
_cell_length_c   6.89037700
_cell_angle_alpha   89.99992950
_cell_angle_beta   89.99987802
_cell_angle_gamma   119.99983754
_symmetry_Int_Tables_number   1
_chemical_formula_structural   DyEr8Tm7(Ga3Co)2
_chemical_formula_sum   'Dy1 Er8 Tm7 Ga6 Co2'
_cell_volume   582.75581111
_cell_formula_units_Z   1
loop_
 _symmetry_equiv_pos_site_id
 _symmetry_equiv_pos_as_xyz
  1  'x, y, z'
loop_
 _atom_site_type_symbol
 _atom_site_label
 _atom_site_symmetry_multiplicity
 _atom_site_fract_x
 _atom_site_fract_y
 _atom_site_fract_z
 _atom_site_occupancy
  Dy  Dy0  1  0.000002  0.000000  0.731201  1
  Er  Er1  1  0.666666  0.333336  0.327631  1
  Er  Er2  1  0.463286  0.536713  0.207538  1
  Er  Er3  1  0.073430  0.536716  0.207540  1
  Er  Er4  1  0.463287  0.926571  0.207541  1
  Er  Er5  1  0.536368  0.463631  0.708109  1
  Er  Er6  1  0.927265  0.463635  0.708108  1
  Er  Er7  1  0.536366  0.072737  0.708104  1
  Er  Er8  1  0.000000  0.999998  0.232485  1
  Tm  Tm9  1  0.173595  0.826410  0.511853  1
  Tm  Tm10  1  0.652811  0.826407  0.511851  1
  Tm  Tm11  1  0.173593  0.347188  0.511853  1
  Tm  Tm12  1  0.826823  0.173172  0.011442  1
  Tm  Tm13  1  0.346350  0.173174  0.011445  1
  Tm  Tm14  1  0.826826  0.653654  0.011442  1
  Tm  Tm15  1  0.333332  0.666667  0.826362  1
  Ga  Ga16  1  0.163726  0.836270  0.958032  1
  Ga  Ga17  1  0.672545  0.836269  0.958041  1
  Ga  Ga18  1  0.163730  0.327455  0.958030  1
  Ga  Ga19  1  0.836955  0.163042  0.458398  1
  Ga  Ga20  1  0.326084  0.163043  0.458392  1
  Ga  Ga21  1  0.836956  0.673915  0.458401  1
  Co  Co22  1  0.333334  0.666667  0.445256  1
  Co  Co23  1  0.666667  0.333333  0.945780  1
