# generated using pymatgen
data_CsPuCdSe3
_symmetry_space_group_name_H-M   'P 1'
_cell_length_a   8.41092503
_cell_length_b   8.41092457
_cell_length_c   11.33660600
_cell_angle_alpha   90.00000000
_cell_angle_beta   90.00000000
_cell_angle_gamma   149.82953920
_symmetry_Int_Tables_number   1
_chemical_formula_structural   CsPuCdSe3
_chemical_formula_sum   'Cs2 Pu2 Cd2 Se6'
_cell_volume   403.06104620
_cell_formula_units_Z   2
loop_
 _symmetry_equiv_pos_site_id
 _symmetry_equiv_pos_as_xyz
  1  'x, y, z'
loop_
 _atom_site_type_symbol
 _atom_site_label
 _atom_site_symmetry_multiplicity
 _atom_site_fract_x
 _atom_site_fract_y
 _atom_site_fract_z
 _atom_site_occupancy
  Cs  Cs0  1  0.743576  0.256424  0.250000  1
  Cs  Cs1  1  0.256424  0.743576  0.750000  1
  Pu  Pu2  1  0.000000  0.000000  0.500000  1
  Pu  Pu3  1  0.000000  0.000000  0.000000  1
  Cd  Cd4  1  0.461677  0.538323  0.250000  1
  Cd  Cd5  1  0.538323  0.461677  0.750000  1
  Se  Se6  1  0.060199  0.939801  0.250000  1
  Se  Se7  1  0.939801  0.060199  0.750000  1
  Se  Se8  1  0.616521  0.383479  0.547004  1
  Se  Se9  1  0.616521  0.383479  0.952996  1
  Se  Se10  1  0.383479  0.616521  0.047004  1
  Se  Se11  1  0.383479  0.616521  0.452996  1
