# generated using pymatgen
data_Ho5Er(Ga2Si3)2
_symmetry_space_group_name_H-M   'P 1'
_cell_length_a   5.89226026
_cell_length_b   5.89225928
_cell_length_c   9.35567300
_cell_angle_alpha   90.00000000
_cell_angle_beta   90.00000000
_cell_angle_gamma   102.73866901
_symmetry_Int_Tables_number   1
_chemical_formula_structural   Ho5Er(Ga2Si3)2
_chemical_formula_sum   'Ho5 Er1 Ga4 Si6'
_cell_volume   316.82197619
_cell_formula_units_Z   1
loop_
 _symmetry_equiv_pos_site_id
 _symmetry_equiv_pos_as_xyz
  1  'x, y, z'
loop_
 _atom_site_type_symbol
 _atom_site_label
 _atom_site_symmetry_multiplicity
 _atom_site_fract_x
 _atom_site_fract_y
 _atom_site_fract_z
 _atom_site_occupancy
  Ho  Ho0  1  0.339947  0.339947  0.750000  1
  Ho  Ho1  1  0.801773  0.198176  0.000090  1
  Ho  Ho2  1  0.198176  0.801773  0.000090  1
  Ho  Ho3  1  0.198176  0.801773  0.499910  1
  Ho  Ho4  1  0.801773  0.198176  0.499910  1
  Er  Er5  1  0.659997  0.659997  0.250000  1
  Ga  Ga6  1  0.321587  0.321587  0.053199  1
  Ga  Ga7  1  0.678942  0.678942  0.946528  1
  Ga  Ga8  1  0.678942  0.678942  0.553472  1
  Ga  Ga9  1  0.321587  0.321587  0.446801  1
  Si  Si10  1  0.095158  0.488075  0.250000  1
  Si  Si11  1  0.904339  0.511842  0.750000  1
  Si  Si12  1  0.488075  0.095158  0.250000  1
  Si  Si13  1  0.511842  0.904339  0.750000  1
  Si  Si14  1  0.054627  0.054627  0.250000  1
  Si  Si15  1  0.945059  0.945059  0.750000  1
