# generated using pymatgen
data_Tm3In3CuPd2
_symmetry_space_group_name_H-M   'P 1'
_cell_length_a   7.75387300
_cell_length_b   7.75820289
_cell_length_c   3.63760800
_cell_angle_alpha   90.00000000
_cell_angle_beta   90.00000000
_cell_angle_gamma   119.98543025
_symmetry_Int_Tables_number   1
_chemical_formula_structural   Tm3In3CuPd2
_chemical_formula_sum   'Tm3 In3 Cu1 Pd2'
_cell_volume   189.53529106
_cell_formula_units_Z   1
loop_
 _symmetry_equiv_pos_site_id
 _symmetry_equiv_pos_as_xyz
  1  'x, y, z'
loop_
 _atom_site_type_symbol
 _atom_site_label
 _atom_site_symmetry_multiplicity
 _atom_site_fract_x
 _atom_site_fract_y
 _atom_site_fract_z
 _atom_site_occupancy
  Tm  Tm0  1  0.405890  0.405628  0.500000  1
  Tm  Tm1  1  0.593993  0.000081  0.500000  1
  Tm  Tm2  1  0.000002  0.594155  0.500000  1
  In  In3  1  0.740538  0.740593  0.000000  1
  In  In4  1  0.259448  0.999916  0.000000  1
  In  In5  1  0.000122  0.259547  0.000000  1
  Cu  Cu6  1  0.999991  0.000045  0.500000  1
  Pd  Pd7  1  0.666679  0.333402  0.000000  1
  Pd  Pd8  1  0.333337  0.666632  0.000000  1
