# generated using pymatgen
data_Dy3ErGa18(Co2Pt)2
_symmetry_space_group_name_H-M   'P 1'
_cell_length_a   7.46502523
_cell_length_b   7.46530824
_cell_length_c   9.40383300
_cell_angle_alpha   90.00000000
_cell_angle_beta   90.00000000
_cell_angle_gamma   119.73794316
_symmetry_Int_Tables_number   1
_chemical_formula_structural   Dy3ErGa18(Co2Pt)2
_chemical_formula_sum   'Dy3 Er1 Ga18 Co4 Pt2'
_cell_volume   455.04604192
_cell_formula_units_Z   1
loop_
 _symmetry_equiv_pos_site_id
 _symmetry_equiv_pos_as_xyz
  1  'x, y, z'
loop_
 _atom_site_type_symbol
 _atom_site_label
 _atom_site_symmetry_multiplicity
 _atom_site_fract_x
 _atom_site_fract_y
 _atom_site_fract_z
 _atom_site_occupancy
  Dy  Dy0  1  0.503410  0.823943  0.750000  1
  Dy  Dy1  1  0.496612  0.175987  0.250000  1
  Dy  Dy2  1  0.175959  0.496533  0.250000  1
  Er  Er3  1  0.823991  0.503481  0.750000  1
  Ga  Ga4  1  0.165650  0.942957  0.750000  1
  Ga  Ga5  1  0.834159  0.056684  0.250000  1
  Ga  Ga6  1  0.056648  0.834120  0.250000  1
  Ga  Ga7  1  0.943316  0.166258  0.750000  1
  Ga  Ga8  1  0.642510  0.642467  0.250000  1
  Ga  Ga9  1  0.357743  0.357513  0.750000  1
  Ga  Ga10  1  0.156134  0.156139  0.064419  1
  Ga  Ga11  1  0.843870  0.843515  0.564509  1
  Ga  Ga12  1  0.843870  0.843515  0.935491  1
  Ga  Ga13  1  0.156134  0.156139  0.435581  1
  Ga  Ga14  1  0.497501  0.845206  0.076355  1
  Ga  Ga15  1  0.502889  0.155210  0.576374  1
  Ga  Ga16  1  0.154325  0.502458  0.923606  1
  Ga  Ga17  1  0.845170  0.497463  0.423937  1
  Ga  Ga18  1  0.502889  0.155210  0.923626  1
  Ga  Ga19  1  0.497501  0.845206  0.423645  1
  Ga  Ga20  1  0.845170  0.497463  0.076063  1
  Ga  Ga21  1  0.154325  0.502458  0.576394  1
  Co  Co22  1  0.170349  0.829505  0.999773  1
  Co  Co23  1  0.829546  0.170430  0.500228  1
  Co  Co24  1  0.829546  0.170430  0.999772  1
  Co  Co25  1  0.170349  0.829505  0.500227  1
  Pt  Pt26  1  0.500216  0.500102  0.500283  1
  Pt  Pt27  1  0.500216  0.500102  0.999717  1
