# generated using pymatgen
data_Tb13Er3(C2Cl3)4
_symmetry_space_group_name_H-M   'P 1'
_cell_length_a   3.66216500
_cell_length_b   10.52671608
_cell_length_c   19.81232896
_cell_angle_alpha   90.05143094
_cell_angle_beta   90.00000000
_cell_angle_gamma   90.00000000
_symmetry_Int_Tables_number   1
_chemical_formula_structural   Tb13Er3(C2Cl3)4
_chemical_formula_sum   'Tb13 Er3 C8 Cl12'
_cell_volume   763.77629031
_cell_formula_units_Z   1
loop_
 _symmetry_equiv_pos_site_id
 _symmetry_equiv_pos_as_xyz
  1  'x, y, z'
loop_
 _atom_site_type_symbol
 _atom_site_label
 _atom_site_symmetry_multiplicity
 _atom_site_fract_x
 _atom_site_fract_y
 _atom_site_fract_z
 _atom_site_occupancy
  Tb  Tb0  1  0.250000  0.139536  0.573583  1
  Tb  Tb1  1  0.250000  0.639634  0.926570  1
  Tb  Tb2  1  0.750000  0.860529  0.426888  1
  Tb  Tb3  1  0.750000  0.361608  0.073177  1
  Tb  Tb4  1  0.250000  0.636384  0.755467  1
  Tb  Tb5  1  0.250000  0.137029  0.744596  1
  Tb  Tb6  1  0.750000  0.362809  0.244490  1
  Tb  Tb7  1  0.750000  0.863514  0.256053  1
  Tb  Tb8  1  0.250000  0.102101  0.332864  1
  Tb  Tb9  1  0.250000  0.601240  0.168133  1
  Tb  Tb10  1  0.750000  0.898383  0.667856  1
  Tb  Tb11  1  0.750000  0.398088  0.832261  1
  Tb  Tb12  1  0.250000  0.124359  0.164651  1
  Er  Er13  1  0.250000  0.626439  0.334294  1
  Er  Er14  1  0.750000  0.873568  0.833965  1
  Er  Er15  1  0.750000  0.373826  0.666080  1
  C  C16  1  0.250000  0.862446  0.347965  1
  C  C17  1  0.250000  0.364805  0.152257  1
  C  C18  1  0.750000  0.136858  0.652640  1
  C  C19  1  0.750000  0.637278  0.847491  1
  C  C20  1  0.250000  0.387046  0.749666  1
  C  C21  1  0.250000  0.886719  0.750414  1
  C  C22  1  0.750000  0.613216  0.250810  1
  C  C23  1  0.750000  0.112565  0.250620  1
  Cl  Cl24  1  0.250000  0.377960  0.952160  1
  Cl  Cl25  1  0.250000  0.877370  0.547714  1
  Cl  Cl26  1  0.750000  0.623066  0.047516  1
  Cl  Cl27  1  0.750000  0.122564  0.452687  1
  Cl  Cl28  1  0.250000  0.889547  0.941321  1
  Cl  Cl29  1  0.250000  0.389333  0.558844  1
  Cl  Cl30  1  0.750000  0.112354  0.055142  1
  Cl  Cl31  1  0.750000  0.610505  0.441770  1
  Cl  Cl32  1  0.250000  0.364207  0.354394  1
  Cl  Cl33  1  0.250000  0.861114  0.145679  1
  Cl  Cl34  1  0.750000  0.636018  0.645496  1
  Cl  Cl35  1  0.750000  0.135982  0.854486  1
