# generated using pymatgen
data_Tm3B4Mo3Ru10
_symmetry_space_group_name_H-M   'P 1'
_cell_length_a   9.54278342
_cell_length_b   9.54278407
_cell_length_c   3.05711200
_cell_angle_alpha   90.00000000
_cell_angle_beta   90.00000000
_cell_angle_gamma   89.79586638
_symmetry_Int_Tables_number   1
_chemical_formula_structural   Tm3B4Mo3Ru10
_chemical_formula_sum   'Tm3 B4 Mo3 Ru10'
_cell_volume   278.39328641
_cell_formula_units_Z   1
loop_
 _symmetry_equiv_pos_site_id
 _symmetry_equiv_pos_as_xyz
  1  'x, y, z'
loop_
 _atom_site_type_symbol
 _atom_site_label
 _atom_site_symmetry_multiplicity
 _atom_site_fract_x
 _atom_site_fract_y
 _atom_site_fract_z
 _atom_site_occupancy
  Tm  Tm0  1  0.175098  0.824902  0.000000  1
  Tm  Tm1  1  0.323918  0.324744  0.000000  1
  Tm  Tm2  1  0.675256  0.676082  0.000000  1
  B  B3  1  0.622986  0.377014  0.000000  1
  B  B4  1  0.381203  0.618797  0.000000  1
  B  B5  1  0.120227  0.121667  0.000000  1
  B  B6  1  0.878333  0.879773  0.000000  1
  Mo  Mo7  1  0.496315  0.997711  0.000000  1
  Mo  Mo8  1  0.002289  0.503685  0.000000  1
  Mo  Mo9  1  0.822920  0.177080  0.000000  1
  Ru  Ru10  1  0.503363  0.496637  0.500000  1
  Ru  Ru11  1  0.990610  0.009390  0.500000  1
  Ru  Ru12  1  0.583460  0.211513  0.500000  1
  Ru  Ru13  1  0.432270  0.783018  0.500000  1
  Ru  Ru14  1  0.057051  0.281080  0.500000  1
  Ru  Ru15  1  0.929082  0.718768  0.500000  1
  Ru  Ru16  1  0.281232  0.070918  0.500000  1
  Ru  Ru17  1  0.718920  0.942949  0.500000  1
  Ru  Ru18  1  0.216982  0.567730  0.500000  1
  Ru  Ru19  1  0.788487  0.416540  0.500000  1
