# generated using pymatgen
data_Nd19HoSi15Br
_symmetry_space_group_name_H-M   'P 1'
_cell_length_a   7.83304883
_cell_length_b   7.92287935
_cell_length_c   15.21254748
_cell_angle_alpha   89.57406420
_cell_angle_beta   85.08497474
_cell_angle_gamma   89.79177552
_symmetry_Int_Tables_number   1
_chemical_formula_structural   Nd19HoSi15Br
_chemical_formula_sum   'Nd19 Ho1 Si15 Br1'
_cell_volume   940.59345604
_cell_formula_units_Z   1
loop_
 _symmetry_equiv_pos_site_id
 _symmetry_equiv_pos_as_xyz
  1  'x, y, z'
loop_
 _atom_site_type_symbol
 _atom_site_label
 _atom_site_symmetry_multiplicity
 _atom_site_fract_x
 _atom_site_fract_y
 _atom_site_fract_z
 _atom_site_occupancy
  Nd  Nd0  1  0.865620  0.331178  0.621133  1
  Nd  Nd1  1  0.464644  0.689845  0.894964  1
  Nd  Nd2  1  0.964427  0.811635  0.896269  1
  Nd  Nd3  1  0.179846  0.676839  0.120603  1
  Nd  Nd4  1  0.680005  0.817607  0.120889  1
  Nd  Nd5  1  0.320850  0.179782  0.879988  1
  Nd  Nd6  1  0.145044  0.666687  0.383809  1
  Nd  Nd7  1  0.035814  0.186600  0.103654  1
  Nd  Nd8  1  0.363069  0.169123  0.616847  1
  Nd  Nd9  1  0.835745  0.491870  0.244002  1
  Nd  Nd10  1  0.333450  0.004033  0.251898  1
  Nd  Nd11  1  0.483559  0.309100  0.394876  1
  Nd  Nd12  1  0.821620  0.322618  0.878781  1
  Nd  Nd13  1  0.014707  0.832389  0.606397  1
  Nd  Nd14  1  0.494364  0.691303  0.607246  1
  Nd  Nd15  1  0.996593  0.169331  0.395905  1
  Nd  Nd16  1  0.634167  0.842324  0.382390  1
  Nd  Nd17  1  0.665812  0.995612  0.746226  1
  Nd  Nd18  1  0.536395  0.308877  0.103685  1
  Ho  Ho19  1  0.168235  0.509463  0.746169  1
  Si  Si20  1  0.454109  0.601272  0.252607  1
  Si  Si21  1  0.223144  0.375171  0.249625  1
  Si  Si22  1  0.543724  0.400493  0.751107  1
  Si  Si23  1  0.636927  0.024865  0.957274  1
  Si  Si24  1  0.046537  0.108132  0.752525  1
  Si  Si25  1  0.778288  0.623038  0.751162  1
  Si  Si26  1  0.723512  0.121190  0.249147  1
  Si  Si27  1  0.290683  0.969845  0.455147  1
  Si  Si28  1  0.953219  0.893727  0.250219  1
  Si  Si29  1  0.366481  0.973027  0.042777  1
  Si  Si30  1  0.716025  0.030567  0.542429  1
  Si  Si31  1  0.136746  0.476573  0.955015  1
  Si  Si32  1  0.208356  0.476978  0.548693  1
  Si  Si33  1  0.866663  0.522916  0.042424  1
  Si  Si34  1  0.273009  0.876344  0.752391  1
  Br  Br35  1  0.778611  0.519646  0.451725  1
