# generated using pymatgen
data_Th2Sc3Sb4
_symmetry_space_group_name_H-M   'P 1'
_cell_length_a   7.95207700
_cell_length_b   7.85378100
_cell_length_c   14.89879500
_cell_angle_alpha   90.00000000
_cell_angle_beta   90.00000000
_cell_angle_gamma   90.00000000
_symmetry_Int_Tables_number   1
_chemical_formula_structural   Th2Sc3Sb4
_chemical_formula_sum   'Th8 Sc12 Sb16'
_cell_volume   930.48742476
_cell_formula_units_Z   4
loop_
 _symmetry_equiv_pos_site_id
 _symmetry_equiv_pos_as_xyz
  1  'x, y, z'
loop_
 _atom_site_type_symbol
 _atom_site_label
 _atom_site_symmetry_multiplicity
 _atom_site_fract_x
 _atom_site_fract_y
 _atom_site_fract_z
 _atom_site_occupancy
  Th  Th0  1  0.521770  0.327895  0.905714  1
  Th  Th1  1  0.021770  0.172105  0.594286  1
  Th  Th2  1  0.478230  0.672105  0.405714  1
  Th  Th3  1  0.978230  0.827895  0.094286  1
  Th  Th4  1  0.478230  0.672105  0.094286  1
  Th  Th5  1  0.978230  0.827895  0.405714  1
  Th  Th6  1  0.521770  0.327895  0.594286  1
  Th  Th7  1  0.021770  0.172105  0.905714  1
  Sc  Sc8  1  0.346093  0.850690  0.876384  1
  Sc  Sc9  1  0.846093  0.649310  0.623616  1
  Sc  Sc10  1  0.653907  0.149310  0.376384  1
  Sc  Sc11  1  0.153907  0.350690  0.123616  1
  Sc  Sc12  1  0.653907  0.149310  0.123616  1
  Sc  Sc13  1  0.153907  0.350690  0.376384  1
  Sc  Sc14  1  0.346093  0.850690  0.623616  1
  Sc  Sc15  1  0.846093  0.649310  0.876384  1
  Sc  Sc16  1  0.178977  0.499606  0.750000  1
  Sc  Sc17  1  0.678977  0.000394  0.750000  1
  Sc  Sc18  1  0.821023  0.500394  0.250000  1
  Sc  Sc19  1  0.321023  0.999606  0.250000  1
  Sb  Sb20  1  0.308426  0.048191  0.047537  1
  Sb  Sb21  1  0.808426  0.451809  0.452463  1
  Sb  Sb22  1  0.691574  0.951809  0.547537  1
  Sb  Sb23  1  0.191574  0.548191  0.952463  1
  Sb  Sb24  1  0.691574  0.951809  0.952463  1
  Sb  Sb25  1  0.191574  0.548191  0.547537  1
  Sb  Sb26  1  0.308426  0.048191  0.452463  1
  Sb  Sb27  1  0.808426  0.451809  0.047537  1
  Sb  Sb28  1  0.539233  0.640218  0.750000  1
  Sb  Sb29  1  0.039233  0.859782  0.750000  1
  Sb  Sb30  1  0.460767  0.359782  0.250000  1
  Sb  Sb31  1  0.960767  0.140218  0.250000  1
  Sb  Sb32  1  0.323255  0.150444  0.750000  1
  Sb  Sb33  1  0.823255  0.349556  0.750000  1
  Sb  Sb34  1  0.676745  0.849556  0.250000  1
  Sb  Sb35  1  0.176745  0.650444  0.250000  1
