# generated using pymatgen
data_Tm3Tl2Au
_symmetry_space_group_name_H-M   'P 1'
_cell_length_a   3.63522400
_cell_length_b   3.63522400
_cell_length_c   11.48431700
_cell_angle_alpha   90.00000000
_cell_angle_beta   90.00000000
_cell_angle_gamma   90.00000000
_symmetry_Int_Tables_number   1
_chemical_formula_structural   Tm3Tl2Au
_chemical_formula_sum   'Tm3 Tl2 Au1'
_cell_volume   151.76356705
_cell_formula_units_Z   1
loop_
 _symmetry_equiv_pos_site_id
 _symmetry_equiv_pos_as_xyz
  1  'x, y, z'
loop_
 _atom_site_type_symbol
 _atom_site_label
 _atom_site_symmetry_multiplicity
 _atom_site_fract_x
 _atom_site_fract_y
 _atom_site_fract_z
 _atom_site_occupancy
  Tm  Tm0  1  0.499999  0.499999  0.000000  1
  Tm  Tm1  1  0.499999  0.499999  0.350492  1
  Tm  Tm2  1  0.499999  0.499999  0.649509  1
  Tl  Tl3  1  0.000000  0.000000  0.173061  1
  Tl  Tl4  1  0.000000  0.000000  0.826939  1
  Au  Au5  1  0.000000  0.000000  0.500000  1
