# generated using pymatgen
data_HfTl2Se3
_symmetry_space_group_name_H-M   'P 1'
_cell_length_a   3.94338000
_cell_length_b   8.26290362
_cell_length_c   10.82424800
_cell_angle_alpha   82.64031318
_cell_angle_beta   90.00000000
_cell_angle_gamma   90.00000000
_symmetry_Int_Tables_number   1
_chemical_formula_structural   HfTl2Se3
_chemical_formula_sum   'Hf2 Tl4 Se6'
_cell_volume   349.78913233
_cell_formula_units_Z   2
loop_
 _symmetry_equiv_pos_site_id
 _symmetry_equiv_pos_as_xyz
  1  'x, y, z'
loop_
 _atom_site_type_symbol
 _atom_site_label
 _atom_site_symmetry_multiplicity
 _atom_site_fract_x
 _atom_site_fract_y
 _atom_site_fract_z
 _atom_site_occupancy
  Hf  Hf0  1  0.250000  0.590528  0.335086  1
  Hf  Hf1  1  0.750000  0.409472  0.664914  1
  Tl  Tl2  1  0.250000  0.936977  0.658279  1
  Tl  Tl3  1  0.750000  0.063023  0.341721  1
  Tl  Tl4  1  0.250000  0.251825  0.999238  1
  Tl  Tl5  1  0.750000  0.748175  0.000762  1
  Se  Se6  1  0.250000  0.867220  0.192404  1
  Se  Se7  1  0.750000  0.132780  0.807596  1
  Se  Se8  1  0.250000  0.546418  0.785724  1
  Se  Se9  1  0.750000  0.453582  0.214276  1
  Se  Se10  1  0.250000  0.311746  0.514869  1
  Se  Se11  1  0.750000  0.688254  0.485131  1
