# generated using pymatgen
data_Ce3Sm(HgPt2)2
_symmetry_space_group_name_H-M   'P 1'
_cell_length_a   7.87597575
_cell_length_b   7.87597575
_cell_length_c   3.73594900
_cell_angle_alpha   90.00000000
_cell_angle_beta   90.00000000
_cell_angle_gamma   90.80586015
_symmetry_Int_Tables_number   1
_chemical_formula_structural   Ce3Sm(HgPt2)2
_chemical_formula_sum   'Ce3 Sm1 Hg2 Pt4'
_cell_volume   231.72170861
_cell_formula_units_Z   1
loop_
 _symmetry_equiv_pos_site_id
 _symmetry_equiv_pos_as_xyz
  1  'x, y, z'
loop_
 _atom_site_type_symbol
 _atom_site_label
 _atom_site_symmetry_multiplicity
 _atom_site_fract_x
 _atom_site_fract_y
 _atom_site_fract_z
 _atom_site_occupancy
  Ce  Ce0  1  0.328955  0.171045  0.499999  1
  Ce  Ce1  1  0.828175  0.328077  0.499999  1
  Ce  Ce2  1  0.171923  0.671825  0.499999  1
  Sm  Sm3  1  0.671458  0.828542  0.499999  1
  Hg  Hg4  1  0.997403  0.999633  0.000000  1
  Hg  Hg5  1  0.500367  0.502597  0.000000  1
  Pt  Pt6  1  0.626751  0.134583  0.000000  1
  Pt  Pt7  1  0.132652  0.367348  0.000000  1
  Pt  Pt8  1  0.876900  0.623100  0.000000  1
  Pt  Pt9  1  0.365417  0.873249  0.000000  1
