# generated using pymatgen
data_Y7Er3In4(HgPd)4
_symmetry_space_group_name_H-M   'P 1'
_cell_length_a   3.63722900
_cell_length_b   8.04437460
_cell_length_c   18.27750622
_cell_angle_alpha   90.10850618
_cell_angle_beta   90.00000000
_cell_angle_gamma   90.00000000
_symmetry_Int_Tables_number   1
_chemical_formula_structural   Y7Er3In4(HgPd)4
_chemical_formula_sum   'Y7 Er3 In4 Hg4 Pd4'
_cell_volume   534.78484618
_cell_formula_units_Z   1
loop_
 _symmetry_equiv_pos_site_id
 _symmetry_equiv_pos_as_xyz
  1  'x, y, z'
loop_
 _atom_site_type_symbol
 _atom_site_label
 _atom_site_symmetry_multiplicity
 _atom_site_fract_x
 _atom_site_fract_y
 _atom_site_fract_z
 _atom_site_occupancy
  Y  Y0  1  0.000000  0.500361  0.500023  1
  Y  Y1  1  0.000000  0.000611  0.999626  1
  Y  Y2  1  0.000000  0.743904  0.286679  1
  Y  Y3  1  0.000000  0.256182  0.713324  1
  Y  Y4  1  0.000000  0.755949  0.786069  1
  Y  Y5  1  0.000000  0.244082  0.214101  1
  Y  Y6  1  0.000000  0.610511  0.083236  1
  Er  Er7  1  0.000000  0.390520  0.915469  1
  Er  Er8  1  0.000000  0.890478  0.584234  1
  Er  Er9  1  0.000000  0.109752  0.416138  1
  In  In10  1  0.500000  0.583212  0.649831  1
  In  In11  1  0.500000  0.416702  0.350405  1
  In  In12  1  0.500000  0.917797  0.150394  1
  In  In13  1  0.500000  0.083559  0.849613  1
  Hg  Hg14  1  0.500000  0.709393  0.934120  1
  Hg  Hg15  1  0.500000  0.289054  0.065410  1
  Hg  Hg16  1  0.500000  0.791785  0.435290  1
  Hg  Hg17  1  0.500000  0.208427  0.564623  1
  Pd  Pd18  1  0.500000  0.532965  0.198780  1
  Pd  Pd19  1  0.500000  0.465370  0.802348  1
  Pd  Pd20  1  0.500000  0.965024  0.697023  1
  Pd  Pd21  1  0.500000  0.034363  0.303263  1
