# generated using pymatgen
data_Yb2Mn3O8
_symmetry_space_group_name_H-M   'P 1'
_cell_length_a   6.21317219
_cell_length_b   6.21317220
_cell_length_c   5.00909306
_cell_angle_alpha   72.47713386
_cell_angle_beta   72.47713599
_cell_angle_gamma   56.93134286
_symmetry_Int_Tables_number   1
_chemical_formula_structural   Yb2Mn3O8
_chemical_formula_sum   'Yb2 Mn3 O8'
_cell_volume   152.24573036
_cell_formula_units_Z   1
loop_
 _symmetry_equiv_pos_site_id
 _symmetry_equiv_pos_as_xyz
  1  'x, y, z'
loop_
 _atom_site_type_symbol
 _atom_site_label
 _atom_site_symmetry_multiplicity
 _atom_site_fract_x
 _atom_site_fract_y
 _atom_site_fract_z
 _atom_site_occupancy
  Yb  Yb0  1  0.724440  0.724440  0.337065  1
  Yb  Yb1  1  0.275560  0.275560  0.662935  1
  Mn  Mn2  1  0.000000  0.000000  0.500000  1
  Mn  Mn3  1  0.741760  0.258240  0.000000  1
  Mn  Mn4  1  0.258240  0.741760  0.000000  1
  O  O5  1  0.394713  0.394713  0.957603  1
  O  O6  1  0.605287  0.605287  0.042397  1
  O  O7  1  0.900749  0.900749  0.905263  1
  O  O8  1  0.099251  0.099251  0.094737  1
  O  O9  1  0.325957  0.881693  0.606216  1
  O  O10  1  0.881693  0.325957  0.606216  1
  O  O11  1  0.118307  0.674043  0.393784  1
  O  O12  1  0.674043  0.118307  0.393784  1
