# generated using pymatgen
data_Sc5Cr2C7
_symmetry_space_group_name_H-M   'P 1'
_cell_length_a   3.19883900
_cell_length_b   7.56411907
_cell_length_c   7.78641633
_cell_angle_alpha   60.93999881
_cell_angle_beta   90.00000000
_cell_angle_gamma   90.00000000
_symmetry_Int_Tables_number   1
_chemical_formula_structural   Sc5Cr2C7
_chemical_formula_sum   'Sc5 Cr2 C7'
_cell_volume   164.68544097
_cell_formula_units_Z   1
loop_
 _symmetry_equiv_pos_site_id
 _symmetry_equiv_pos_as_xyz
  1  'x, y, z'
loop_
 _atom_site_type_symbol
 _atom_site_label
 _atom_site_symmetry_multiplicity
 _atom_site_fract_x
 _atom_site_fract_y
 _atom_site_fract_z
 _atom_site_occupancy
  Sc  Sc0  1  0.000000  0.500000  0.000000  1
  Sc  Sc1  1  0.500000  0.079554  0.259566  1
  Sc  Sc2  1  0.500000  0.660880  0.259566  1
  Sc  Sc3  1  0.500000  0.339121  0.740433  1
  Sc  Sc4  1  0.500000  0.920446  0.740433  1
  Cr  Cr5  1  0.000000  0.288479  0.423040  1
  Cr  Cr6  1  0.000000  0.711521  0.576959  1
  C  C7  1  0.000000  0.000000  0.000000  1
  C  C8  1  0.000000  0.178024  0.000000  1
  C  C9  1  0.000000  0.821976  0.000000  1
  C  C10  1  0.500000  0.377029  0.245943  1
  C  C11  1  0.000000  0.999999  0.500000  1
  C  C12  1  0.000000  0.499999  0.500000  1
  C  C13  1  0.500000  0.622971  0.754058  1
