# generated using pymatgen
data_Ce10CuPb6Se
_symmetry_space_group_name_H-M   'P 1'
_cell_length_a   6.67333749
_cell_length_b   9.65100322
_cell_length_c   9.65100359
_cell_angle_alpha   120.03176420
_cell_angle_beta   89.96155937
_cell_angle_gamma   89.96156396
_symmetry_Int_Tables_number   1
_chemical_formula_structural   Ce10CuPb6Se
_chemical_formula_sum   'Ce10 Cu1 Pb6 Se1'
_cell_volume   538.12004596
_cell_formula_units_Z   1
loop_
 _symmetry_equiv_pos_site_id
 _symmetry_equiv_pos_as_xyz
  1  'x, y, z'
loop_
 _atom_site_type_symbol
 _atom_site_label
 _atom_site_symmetry_multiplicity
 _atom_site_fract_x
 _atom_site_fract_y
 _atom_site_fract_z
 _atom_site_occupancy
  Ce  Ce0  1  0.749693  0.740319  0.740319  1
  Ce  Ce1  1  0.749682  0.259631  0.000055  1
  Ce  Ce2  1  0.749682  0.000055  0.259631  1
  Ce  Ce3  1  0.250307  0.259681  0.259681  1
  Ce  Ce4  1  0.250318  0.740369  0.999945  1
  Ce  Ce5  1  0.250318  0.999945  0.740369  1
  Ce  Ce6  1  0.000000  0.666634  0.333366  1
  Ce  Ce7  1  0.000000  0.333366  0.666634  1
  Ce  Ce8  1  0.500000  0.333409  0.666591  1
  Ce  Ce9  1  0.500000  0.666591  0.333409  1
  Cu  Cu10  1  0.500000  0.000000  0.000000  1
  Pb  Pb11  1  0.748986  0.384294  0.384294  1
  Pb  Pb12  1  0.748979  0.615647  0.000051  1
  Pb  Pb13  1  0.748979  0.000051  0.615647  1
  Pb  Pb14  1  0.251014  0.615706  0.615706  1
  Pb  Pb15  1  0.251021  0.384353  0.999949  1
  Pb  Pb16  1  0.251021  0.999949  0.384353  1
  Se  Se17  1  0.000000  0.000000  0.000000  1
