# generated using pymatgen
data_Sc6Ti4Al12IrRh6
_symmetry_space_group_name_H-M   'P 1'
_cell_length_a   8.81602732
_cell_length_b   8.81602689
_cell_length_c   8.81602800
_cell_angle_alpha   60.00000335
_cell_angle_beta   60.00000495
_cell_angle_gamma   60.00000170
_symmetry_Int_Tables_number   1
_chemical_formula_structural   Sc6Ti4Al12IrRh6
_chemical_formula_sum   'Sc6 Ti4 Al12 Ir1 Rh6'
_cell_volume   484.51120976
_cell_formula_units_Z   1
loop_
 _symmetry_equiv_pos_site_id
 _symmetry_equiv_pos_as_xyz
  1  'x, y, z'
loop_
 _atom_site_type_symbol
 _atom_site_label
 _atom_site_symmetry_multiplicity
 _atom_site_fract_x
 _atom_site_fract_y
 _atom_site_fract_z
 _atom_site_occupancy
  Sc  Sc0  1  0.703772  0.296228  0.296228  1
  Sc  Sc1  1  0.703772  0.296228  0.703772  1
  Sc  Sc2  1  0.703772  0.703772  0.296228  1
  Sc  Sc3  1  0.296228  0.703772  0.703772  1
  Sc  Sc4  1  0.296228  0.703772  0.296228  1
  Sc  Sc5  1  0.296228  0.296228  0.703772  1
  Ti  Ti6  1  0.641152  0.119616  0.119616  1
  Ti  Ti7  1  0.119616  0.641152  0.119616  1
  Ti  Ti8  1  0.119616  0.119616  0.641152  1
  Ti  Ti9  1  0.119616  0.119616  0.119616  1
  Al  Al10  1  0.359625  0.880125  0.880125  1
  Al  Al11  1  0.880125  0.359625  0.880125  1
  Al  Al12  1  0.880125  0.880125  0.359625  1
  Al  Al13  1  0.880125  0.880125  0.880125  1
  Al  Al14  1  0.998164  0.333946  0.333946  1
  Al  Al15  1  0.333946  0.998164  0.333946  1
  Al  Al16  1  0.333946  0.333946  0.998164  1
  Al  Al17  1  0.333946  0.333946  0.333946  1
  Al  Al18  1  0.998413  0.667196  0.667196  1
  Al  Al19  1  0.667196  0.998413  0.667196  1
  Al  Al20  1  0.667196  0.667196  0.998413  1
  Al  Al21  1  0.667196  0.667196  0.667196  1
  Ir  Ir22  1  0.000000  0.000000  0.000000  1
  Rh  Rh23  1  0.498700  0.001300  0.001300  1
  Rh  Rh24  1  0.498700  0.001300  0.498700  1
  Rh  Rh25  1  0.498700  0.498700  0.001300  1
  Rh  Rh26  1  0.001300  0.498700  0.498700  1
  Rh  Rh27  1  0.001300  0.498700  0.001300  1
  Rh  Rh28  1  0.001300  0.001300  0.498700  1
