# generated using pymatgen
data_Pa6FeSi2
_symmetry_space_group_name_H-M   'P 1'
_cell_length_a   8.01389900
_cell_length_b   8.01389915
_cell_length_c   3.57417000
_cell_angle_alpha   90.00000000
_cell_angle_beta   90.00000000
_cell_angle_gamma   120.00000352
_symmetry_Int_Tables_number   1
_chemical_formula_structural   Pa6FeSi2
_chemical_formula_sum   'Pa6 Fe1 Si2'
_cell_volume   198.78955381
_cell_formula_units_Z   1
loop_
 _symmetry_equiv_pos_site_id
 _symmetry_equiv_pos_as_xyz
  1  'x, y, z'
loop_
 _atom_site_type_symbol
 _atom_site_label
 _atom_site_symmetry_multiplicity
 _atom_site_fract_x
 _atom_site_fract_y
 _atom_site_fract_z
 _atom_site_occupancy
  Pa  Pa0  1  0.253794  0.000000  0.000000  1
  Pa  Pa1  1  0.746206  0.746206  0.000000  1
  Pa  Pa2  1  0.000000  0.253794  0.000000  1
  Pa  Pa3  1  0.000000  0.577988  0.500000  1
  Pa  Pa4  1  0.422012  0.422012  0.500000  1
  Pa  Pa5  1  0.577988  0.000000  0.500000  1
  Fe  Fe6  1  0.000000  0.000000  0.500000  1
  Si  Si7  1  0.333333  0.666667  0.000000  1
  Si  Si8  1  0.666667  0.333333  0.000000  1
