# generated using pymatgen
data_NaIO3
_symmetry_space_group_name_H-M   'P 1'
_cell_length_a   5.74978600
_cell_length_b   7.07909000
_cell_length_c   15.12383000
_cell_angle_alpha   90.00000000
_cell_angle_beta   90.00000000
_cell_angle_gamma   90.00000000
_symmetry_Int_Tables_number   1
_chemical_formula_structural   NaIO3
_chemical_formula_sum   'Na8 I8 O24'
_cell_volume   615.58907239
_cell_formula_units_Z   8
loop_
 _symmetry_equiv_pos_site_id
 _symmetry_equiv_pos_as_xyz
  1  'x, y, z'
loop_
 _atom_site_type_symbol
 _atom_site_label
 _atom_site_symmetry_multiplicity
 _atom_site_fract_x
 _atom_site_fract_y
 _atom_site_fract_z
 _atom_site_occupancy
  Na  Na0  1  0.984967  0.609739  0.703664  1
  Na  Na1  1  0.484967  0.390261  0.296336  1
  Na  Na2  1  0.984967  0.390261  0.203664  1
  Na  Na3  1  0.484967  0.609739  0.796336  1
  Na  Na4  1  0.980530  0.127698  0.707742  1
  Na  Na5  1  0.480530  0.872302  0.292258  1
  Na  Na6  1  0.980530  0.872302  0.207742  1
  Na  Na7  1  0.480530  0.127698  0.792258  1
  I  I8  1  0.589954  0.870033  0.590990  1
  I  I9  1  0.089954  0.129967  0.409010  1
  I  I10  1  0.589954  0.129967  0.090990  1
  I  I11  1  0.089954  0.870033  0.909010  1
  I  I12  1  0.519106  0.364916  0.594734  1
  I  I13  1  0.019106  0.635084  0.405266  1
  I  I14  1  0.519106  0.635084  0.094734  1
  I  I15  1  0.019106  0.364916  0.905266  1
  O  O16  1  0.194739  0.374090  0.803353  1
  O  O17  1  0.694739  0.625910  0.196647  1
  O  O18  1  0.194739  0.625910  0.303353  1
  O  O19  1  0.694739  0.374090  0.696647  1
  O  O20  1  0.157438  0.863010  0.790138  1
  O  O21  1  0.657438  0.136990  0.209862  1
  O  O22  1  0.157438  0.136990  0.290138  1
  O  O23  1  0.657438  0.863010  0.709862  1
  O  O24  1  0.289528  0.066355  0.936270  1
  O  O25  1  0.789528  0.933645  0.063730  1
  O  O26  1  0.289528  0.933645  0.436270  1
  O  O27  1  0.789528  0.066355  0.563730  1
  O  O28  1  0.834247  0.165595  0.868711  1
  O  O29  1  0.334247  0.834405  0.131289  1
  O  O30  1  0.834247  0.834405  0.368711  1
  O  O31  1  0.334247  0.165595  0.631289  1
  O  O32  1  0.325305  0.564829  0.621394  1
  O  O33  1  0.825305  0.435171  0.378606  1
  O  O34  1  0.325305  0.435171  0.121394  1
  O  O35  1  0.825305  0.564829  0.878606  1
  O  O36  1  0.787788  0.673952  0.558781  1
  O  O37  1  0.287788  0.326048  0.441219  1
  O  O38  1  0.787788  0.326048  0.058781  1
  O  O39  1  0.287788  0.673952  0.941219  1
