# generated using pymatgen
data_InPtS2
_symmetry_space_group_name_H-M   'P 1'
_cell_length_a   7.52105700
_cell_length_b   7.52105515
_cell_length_c   5.16513100
_cell_angle_alpha   90.00000000
_cell_angle_beta   90.00000000
_cell_angle_gamma   120.00001254
_symmetry_Int_Tables_number   1
_chemical_formula_structural   InPtS2
_chemical_formula_sum   'In3 Pt3 S6'
_cell_volume   253.02857572
_cell_formula_units_Z   3
loop_
 _symmetry_equiv_pos_site_id
 _symmetry_equiv_pos_as_xyz
  1  'x, y, z'
loop_
 _atom_site_type_symbol
 _atom_site_label
 _atom_site_symmetry_multiplicity
 _atom_site_fract_x
 _atom_site_fract_y
 _atom_site_fract_z
 _atom_site_occupancy
  In  In0  1  0.000000  0.000000  0.000000  1
  In  In1  1  0.333333  0.666667  0.635010  1
  In  In2  1  0.666667  0.333333  0.364990  1
  Pt  Pt3  1  0.500000  0.500000  0.000000  1
  Pt  Pt4  1  0.000000  0.500000  0.000000  1
  Pt  Pt5  1  0.500000  0.000000  0.000000  1
  S  S6  1  0.815313  0.630625  0.769497  1
  S  S7  1  0.815313  0.184687  0.769497  1
  S  S8  1  0.369375  0.184687  0.769497  1
  S  S9  1  0.184687  0.369375  0.230503  1
  S  S10  1  0.184687  0.815313  0.230503  1
  S  S11  1  0.630625  0.815313  0.230503  1
