# generated using pymatgen
data_Rb4Pu5O17
_symmetry_space_group_name_H-M   'P 1'
_cell_length_a   6.94152300
_cell_length_b   15.01310600
_cell_length_c   18.56266600
_cell_angle_alpha   90.00000000
_cell_angle_beta   90.00000000
_cell_angle_gamma   90.00000000
_symmetry_Int_Tables_number   1
_chemical_formula_structural   Rb4Pu5O17
_chemical_formula_sum   'Rb16 Pu20 O68'
_cell_volume   1934.48634439
_cell_formula_units_Z   4
loop_
 _symmetry_equiv_pos_site_id
 _symmetry_equiv_pos_as_xyz
  1  'x, y, z'
loop_
 _atom_site_type_symbol
 _atom_site_label
 _atom_site_symmetry_multiplicity
 _atom_site_fract_x
 _atom_site_fract_y
 _atom_site_fract_z
 _atom_site_occupancy
  Rb  Rb0  1  0.297751  0.449275  0.310142  1
  Rb  Rb1  1  0.297751  0.050725  0.689858  1
  Rb  Rb2  1  0.202249  0.949275  0.189858  1
  Rb  Rb3  1  0.202249  0.550725  0.810142  1
  Rb  Rb4  1  0.702249  0.550725  0.689858  1
  Rb  Rb5  1  0.702249  0.949275  0.310142  1
  Rb  Rb6  1  0.797751  0.050725  0.810142  1
  Rb  Rb7  1  0.797751  0.449275  0.189858  1
  Rb  Rb8  1  0.269156  0.475623  0.056328  1
  Rb  Rb9  1  0.269156  0.024377  0.943672  1
  Rb  Rb10  1  0.230844  0.975623  0.443672  1
  Rb  Rb11  1  0.230844  0.524377  0.556328  1
  Rb  Rb12  1  0.730844  0.524377  0.943672  1
  Rb  Rb13  1  0.730844  0.975623  0.056328  1
  Rb  Rb14  1  0.769156  0.024377  0.556328  1
  Rb  Rb15  1  0.769156  0.475623  0.443672  1
  Pu  Pu16  1  0.627773  0.250000  0.000000  1
  Pu  Pu17  1  0.872227  0.750000  0.500000  1
  Pu  Pu18  1  0.372227  0.750000  0.000000  1
  Pu  Pu19  1  0.127773  0.250000  0.500000  1
  Pu  Pu20  1  0.076254  0.212092  0.102976  1
  Pu  Pu21  1  0.076254  0.287908  0.897024  1
  Pu  Pu22  1  0.423746  0.712092  0.397024  1
  Pu  Pu23  1  0.423746  0.787908  0.602976  1
  Pu  Pu24  1  0.923746  0.787908  0.897024  1
  Pu  Pu25  1  0.923746  0.712092  0.102976  1
  Pu  Pu26  1  0.576254  0.287908  0.602976  1
  Pu  Pu27  1  0.576254  0.212092  0.397024  1
  Pu  Pu28  1  0.022805  0.192274  0.310873  1
  Pu  Pu29  1  0.022805  0.307726  0.689127  1
  Pu  Pu30  1  0.477195  0.692274  0.189127  1
  Pu  Pu31  1  0.477195  0.807726  0.810873  1
  Pu  Pu32  1  0.977195  0.807726  0.689127  1
  Pu  Pu33  1  0.977195  0.692274  0.310873  1
  Pu  Pu34  1  0.522805  0.307726  0.810873  1
  Pu  Pu35  1  0.522805  0.192274  0.189127  1
  O  O36  1  0.886117  0.214586  0.418076  1
  O  O37  1  0.886117  0.285414  0.581924  1
  O  O38  1  0.613883  0.714586  0.081924  1
  O  O39  1  0.613883  0.785414  0.918076  1
  O  O40  1  0.113883  0.785414  0.581924  1
  O  O41  1  0.113883  0.714586  0.418076  1
  O  O42  1  0.386117  0.285414  0.918076  1
  O  O43  1  0.386117  0.214586  0.081924  1
  O  O44  1  0.507612  0.312551  0.205311  1
  O  O45  1  0.507612  0.187449  0.794689  1
  O  O46  1  0.992388  0.812551  0.294689  1
  O  O47  1  0.992388  0.687449  0.705311  1
  O  O48  1  0.492388  0.687449  0.794689  1
  O  O49  1  0.492388  0.812551  0.205311  1
  O  O50  1  0.007612  0.187449  0.705311  1
  O  O51  1  0.007612  0.312551  0.294689  1
  O  O52  1  0.536605  0.069770  0.176495  1
  O  O53  1  0.536605  0.430230  0.823505  1
  O  O54  1  0.963395  0.569770  0.323505  1
  O  O55  1  0.963395  0.930230  0.676495  1
  O  O56  1  0.463395  0.930230  0.823505  1
  O  O57  1  0.463395  0.569770  0.176495  1
  O  O58  1  0.036605  0.430230  0.676495  1
  O  O59  1  0.036605  0.069770  0.323505  1
  O  O60  1  0.626722  0.367039  0.028663  1
  O  O61  1  0.230271  0.790099  0.880172  1
  O  O62  1  0.626722  0.132961  0.971337  1
  O  O63  1  0.873278  0.632961  0.528663  1
  O  O64  1  0.373278  0.632961  0.971337  1
  O  O65  1  0.373278  0.867039  0.028663  1
  O  O66  1  0.126722  0.132961  0.528663  1
  O  O67  1  0.126722  0.367039  0.471337  1
  O  O68  1  0.769729  0.209901  0.119828  1
  O  O69  1  0.769729  0.290099  0.880172  1
  O  O70  1  0.730271  0.709901  0.380172  1
  O  O71  1  0.730271  0.790099  0.619828  1
  O  O72  1  0.967507  0.250000  0.000000  1
  O  O73  1  0.532493  0.750000  0.500000  1
  O  O74  1  0.032493  0.750000  0.000000  1
  O  O75  1  0.467507  0.250000  0.500000  1
  O  O76  1  0.071516  0.091686  0.079201  1
  O  O77  1  0.071516  0.408314  0.920799  1
  O  O78  1  0.428484  0.591686  0.420799  1
  O  O79  1  0.428484  0.908314  0.579201  1
  O  O80  1  0.928484  0.908314  0.920799  1
  O  O81  1  0.928484  0.591686  0.079201  1
  O  O82  1  0.571516  0.408314  0.579201  1
  O  O83  1  0.571516  0.091686  0.420799  1
  O  O84  1  0.082502  0.331240  0.127103  1
  O  O85  1  0.082502  0.168760  0.872897  1
  O  O86  1  0.417498  0.831240  0.372897  1
  O  O87  1  0.417498  0.668760  0.627103  1
  O  O88  1  0.917498  0.668760  0.872897  1
  O  O89  1  0.917498  0.831240  0.127103  1
  O  O90  1  0.582502  0.168760  0.627103  1
  O  O91  1  0.582502  0.331240  0.372897  1
  O  O92  1  0.196477  0.177454  0.210208  1
  O  O93  1  0.196477  0.322546  0.789792  1
  O  O94  1  0.303523  0.677454  0.289792  1
  O  O95  1  0.303523  0.822546  0.710208  1
  O  O96  1  0.803523  0.822546  0.789792  1
  O  O97  1  0.803523  0.677454  0.210208  1
  O  O98  1  0.696477  0.322546  0.710208  1
  O  O99  1  0.696477  0.177454  0.289792  1
  O  O100  1  0.269729  0.209901  0.380172  1
  O  O101  1  0.269729  0.290099  0.619828  1
  O  O102  1  0.230271  0.709901  0.119828  1
  O  O103  1  0.873278  0.867039  0.471337  1
