# generated using pymatgen
data_TiNb6SiP3
_symmetry_space_group_name_H-M   'P 1'
_cell_length_a   7.72307845
_cell_length_b   7.72307932
_cell_length_c   13.85921854
_cell_angle_alpha   76.25781297
_cell_angle_beta   76.25781191
_cell_angle_gamma   26.02966034
_symmetry_Int_Tables_number   1
_chemical_formula_structural   TiNb6SiP3
_chemical_formula_sum   'Ti2 Nb12 Si2 P6'
_cell_volume   351.81474198
_cell_formula_units_Z   2
loop_
 _symmetry_equiv_pos_site_id
 _symmetry_equiv_pos_as_xyz
  1  'x, y, z'
loop_
 _atom_site_type_symbol
 _atom_site_label
 _atom_site_symmetry_multiplicity
 _atom_site_fract_x
 _atom_site_fract_y
 _atom_site_fract_z
 _atom_site_occupancy
  Ti  Ti0  1  0.000000  0.000000  0.000000  1
  Ti  Ti1  1  0.500000  0.500000  0.500000  1
  Nb  Nb2  1  0.432033  0.432033  0.173501  1
  Nb  Nb3  1  0.567967  0.567967  0.826499  1
  Nb  Nb4  1  0.196795  0.196795  0.686392  1
  Nb  Nb5  1  0.803205  0.803205  0.313608  1
  Nb  Nb6  1  0.207084  0.207084  0.205181  1
  Nb  Nb7  1  0.792916  0.792916  0.794819  1
  Nb  Nb8  1  0.337052  0.337052  0.967832  1
  Nb  Nb9  1  0.662948  0.662948  0.032168  1
  Nb  Nb10  1  0.002927  0.002927  0.335654  1
  Nb  Nb11  1  0.997073  0.997073  0.664346  1
  Nb  Nb12  1  0.174752  0.174752  0.458439  1
  Nb  Nb13  1  0.825248  0.825248  0.541561  1
  Si  Si14  1  0.174518  0.174518  0.889740  1
  Si  Si15  1  0.825482  0.825482  0.110260  1
  P  P16  1  0.376436  0.376436  0.399403  1
  P  P17  1  0.623564  0.623564  0.600597  1
  P  P18  1  0.372496  0.372496  0.661228  1
  P  P19  1  0.627504  0.627504  0.338772  1
  P  P20  1  0.062138  0.062138  0.149958  1
  P  P21  1  0.937862  0.937862  0.850042  1
