# generated using pymatgen
data_Ho3Th(Al3Rh)6
_symmetry_space_group_name_H-M   'P 1'
_cell_length_a   7.56419601
_cell_length_b   7.58087338
_cell_length_c   9.46165000
_cell_angle_alpha   90.00000000
_cell_angle_beta   90.00000000
_cell_angle_gamma   119.35320696
_symmetry_Int_Tables_number   1
_chemical_formula_structural   Ho3Th(Al3Rh)6
_chemical_formula_sum   'Ho3 Th1 Al18 Rh6'
_cell_volume   472.90435283
_cell_formula_units_Z   1
loop_
 _symmetry_equiv_pos_site_id
 _symmetry_equiv_pos_as_xyz
  1  'x, y, z'
loop_
 _atom_site_type_symbol
 _atom_site_label
 _atom_site_symmetry_multiplicity
 _atom_site_fract_x
 _atom_site_fract_y
 _atom_site_fract_z
 _atom_site_occupancy
  Ho  Ho0  1  0.004082  0.327537  0.750000  1
  Ho  Ho1  1  0.672535  0.994300  0.250000  1
  Ho  Ho2  1  0.327542  0.005210  0.750000  1
  Th  Th3  1  0.994348  0.671488  0.250000  1
  Al  Al4  1  0.131165  0.132815  0.250000  1
  Al  Al5  1  0.872250  0.874782  0.750000  1
  Al  Al6  1  0.001261  0.331060  0.072504  1
  Al  Al7  1  0.999560  0.663989  0.917225  1
  Al  Al8  1  0.999560  0.663989  0.582775  1
  Al  Al9  1  0.340480  0.005150  0.427379  1
  Al  Al10  1  0.001261  0.331060  0.427496  1
  Al  Al11  1  0.664251  0.000946  0.576811  1
  Al  Al12  1  0.664251  0.000946  0.923189  1
  Al  Al13  1  0.340480  0.005150  0.072621  1
  Al  Al14  1  0.331915  0.332097  0.555461  1
  Al  Al15  1  0.663275  0.666711  0.456750  1
  Al  Al16  1  0.663275  0.666711  0.043250  1
  Al  Al17  1  0.331915  0.332097  0.944539  1
  Al  Al18  1  0.344742  0.549242  0.250000  1
  Al  Al19  1  0.657992  0.447443  0.750000  1
  Al  Al20  1  0.545267  0.336181  0.250000  1
  Al  Al21  1  0.448309  0.661056  0.750000  1
  Rh  Rh22  1  0.673099  0.329189  0.999985  1
  Rh  Rh23  1  0.326642  0.671713  0.000167  1
  Rh  Rh24  1  0.326642  0.671713  0.499833  1
  Rh  Rh25  1  0.673099  0.329189  0.500015  1
  Rh  Rh26  1  0.000401  0.999120  0.000083  1
  Rh  Rh27  1  0.000401  0.999120  0.499917  1
