# generated using pymatgen
data_Ho5Co18ReP12
_symmetry_space_group_name_H-M   'P 1'
_cell_length_a   11.95911766
_cell_length_b   11.95911952
_cell_length_c   3.68599100
_cell_angle_alpha   90.00000000
_cell_angle_beta   90.00000000
_cell_angle_gamma   119.71243805
_symmetry_Int_Tables_number   1
_chemical_formula_structural   Ho5Co18ReP12
_chemical_formula_sum   'Ho5 Co18 Re1 P12'
_cell_volume   457.86179651
_cell_formula_units_Z   1
loop_
 _symmetry_equiv_pos_site_id
 _symmetry_equiv_pos_as_xyz
  1  'x, y, z'
loop_
 _atom_site_type_symbol
 _atom_site_label
 _atom_site_symmetry_multiplicity
 _atom_site_fract_x
 _atom_site_fract_y
 _atom_site_fract_z
 _atom_site_occupancy
  Ho  Ho0  1  0.666561  0.334997  0.000000  1
  Ho  Ho1  1  0.334997  0.666561  0.000000  1
  Ho  Ho2  1  0.815690  0.815690  0.500000  1
  Ho  Ho3  1  0.187359  0.999955  0.500000  1
  Ho  Ho4  1  0.999955  0.187359  0.500000  1
  Co  Co5  1  0.875448  0.358527  0.500000  1
  Co  Co6  1  0.642593  0.517472  0.500000  1
  Co  Co7  1  0.485046  0.127506  0.500000  1
  Co  Co8  1  0.358527  0.875448  0.500000  1
  Co  Co9  1  0.517472  0.642593  0.500000  1
  Co  Co10  1  0.127506  0.485046  0.500000  1
  Co  Co11  1  0.552390  0.001000  0.000000  1
  Co  Co12  1  0.001000  0.552390  0.000000  1
  Co  Co13  1  0.799898  0.178425  0.000000  1
  Co  Co14  1  0.823021  0.622509  0.000000  1
  Co  Co15  1  0.374464  0.196166  0.000000  1
  Co  Co16  1  0.178425  0.799898  0.000000  1
  Co  Co17  1  0.622509  0.823021  0.000000  1
  Co  Co18  1  0.196166  0.374464  0.000000  1
  Co  Co19  1  0.281350  0.281350  0.500000  1
  Co  Co20  1  0.714431  0.000449  0.500000  1
  Co  Co21  1  0.000449  0.714431  0.500000  1
  Co  Co22  1  0.997421  0.997421  0.000000  1
  Re  Re23  1  0.445404  0.445404  0.000000  1
  P  P24  1  0.686526  0.167333  0.500000  1
  P  P25  1  0.834924  0.520075  0.500000  1
  P  P26  1  0.479507  0.313985  0.500000  1
  P  P27  1  0.167333  0.686526  0.500000  1
  P  P28  1  0.520075  0.834924  0.500000  1
  P  P29  1  0.313985  0.479507  0.500000  1
  P  P30  1  0.176181  0.176181  0.000000  1
  P  P31  1  0.819274  0.000274  0.000000  1
  P  P32  1  0.000274  0.819274  0.000000  1
  P  P33  1  0.638037  0.638037  0.000000  1
  P  P34  1  0.366865  0.998936  0.000000  1
  P  P35  1  0.998936  0.366865  0.000000  1
