# generated using pymatgen
data_Eu2Al7Cu
_symmetry_space_group_name_H-M   'P 1'
_cell_length_a   4.28323100
_cell_length_b   4.28323100
_cell_length_c   11.02739600
_cell_angle_alpha   90.00000000
_cell_angle_beta   90.00000000
_cell_angle_gamma   90.00000000
_symmetry_Int_Tables_number   1
_chemical_formula_structural   Eu2Al7Cu
_chemical_formula_sum   'Eu2 Al7 Cu1'
_cell_volume   202.30935467
_cell_formula_units_Z   1
loop_
 _symmetry_equiv_pos_site_id
 _symmetry_equiv_pos_as_xyz
  1  'x, y, z'
loop_
 _atom_site_type_symbol
 _atom_site_label
 _atom_site_symmetry_multiplicity
 _atom_site_fract_x
 _atom_site_fract_y
 _atom_site_fract_z
 _atom_site_occupancy
  Eu  Eu0  1  0.000000  0.000000  0.997352  1
  Eu  Eu1  1  0.500000  0.500000  0.496481  1
  Al  Al2  1  0.000000  0.500000  0.237371  1
  Al  Al3  1  0.500000  0.000000  0.754824  1
  Al  Al4  1  0.500000  0.000000  0.237371  1
  Al  Al5  1  0.000000  0.500000  0.754824  1
  Al  Al6  1  0.000000  0.000000  0.613655  1
  Al  Al7  1  0.000000  0.000000  0.382334  1
  Al  Al8  1  0.500000  0.500000  0.903389  1
  Cu  Cu9  1  0.500000  0.500000  0.122397  1
