# generated using pymatgen
data_Dy2Mn4VFe5P6
_symmetry_space_group_name_H-M   'P 1'
_cell_length_a   3.63129300
_cell_length_b   10.38122121
_cell_length_c   12.14487729
_cell_angle_alpha   90.37784802
_cell_angle_beta   90.00000000
_cell_angle_gamma   90.00000000
_symmetry_Int_Tables_number   1
_chemical_formula_structural   Dy2Mn4VFe5P6
_chemical_formula_sum   'Dy4 Mn8 V2 Fe10 P12'
_cell_volume   457.81859163
_cell_formula_units_Z   2
loop_
 _symmetry_equiv_pos_site_id
 _symmetry_equiv_pos_as_xyz
  1  'x, y, z'
loop_
 _atom_site_type_symbol
 _atom_site_label
 _atom_site_symmetry_multiplicity
 _atom_site_fract_x
 _atom_site_fract_y
 _atom_site_fract_z
 _atom_site_occupancy
  Dy  Dy0  1  0.250000  0.585082  0.711707  1
  Dy  Dy1  1  0.250000  0.915663  0.210383  1
  Dy  Dy2  1  0.750000  0.423097  0.289782  1
  Dy  Dy3  1  0.750000  0.076741  0.791220  1
  Mn  Mn4  1  0.250000  0.795834  0.490659  1
  Mn  Mn5  1  0.750000  0.209496  0.511323  1
  Mn  Mn6  1  0.250000  0.412893  0.492048  1
  Mn  Mn7  1  0.250000  0.085842  0.990898  1
  Mn  Mn8  1  0.750000  0.596792  0.508169  1
  Mn  Mn9  1  0.750000  0.903434  0.008535  1
  Mn  Mn10  1  0.250000  0.216151  0.177989  1
  Mn  Mn11  1  0.250000  0.282514  0.674427  1
  V  V12  1  0.250000  0.698276  0.992939  1
  V  V13  1  0.750000  0.296873  0.010222  1
  Fe  Fe14  1  0.750000  0.779999  0.826280  1
  Fe  Fe15  1  0.750000  0.722165  0.327430  1
  Fe  Fe16  1  0.250000  0.878199  0.693980  1
  Fe  Fe17  1  0.250000  0.622019  0.196212  1
  Fe  Fe18  1  0.750000  0.126324  0.302291  1
  Fe  Fe19  1  0.750000  0.373418  0.799217  1
  Fe  Fe20  1  0.250000  0.462366  0.932537  1
  Fe  Fe21  1  0.250000  0.038822  0.434404  1
  Fe  Fe22  1  0.750000  0.534598  0.063883  1
  Fe  Fe23  1  0.750000  0.963873  0.563222  1
  P  P24  1  0.250000  0.425178  0.111637  1
  P  P25  1  0.250000  0.074921  0.612245  1
  P  P26  1  0.750000  0.576039  0.886742  1
  P  P27  1  0.750000  0.924393  0.386550  1
  P  P28  1  0.250000  0.263813  0.868282  1
  P  P29  1  0.250000  0.235877  0.370550  1
  P  P30  1  0.750000  0.728907  0.138313  1
  P  P31  1  0.750000  0.770985  0.637033  1
  P  P32  1  0.250000  0.604253  0.381669  1
  P  P33  1  0.250000  0.893497  0.879819  1
  P  P34  1  0.750000  0.407664  0.613475  1
  P  P35  1  0.750000  0.094000  0.113923  1
