# generated using pymatgen
data_Y3(In2Ni)2
_symmetry_space_group_name_H-M   'P 1'
_cell_length_a   7.83419300
_cell_length_b   7.83419311
_cell_length_c   3.71469600
_cell_angle_alpha   90.00000000
_cell_angle_beta   90.00000000
_cell_angle_gamma   120.00000374
_symmetry_Int_Tables_number   1
_chemical_formula_structural   Y3(In2Ni)2
_chemical_formula_sum   'Y3 In4 Ni2'
_cell_volume   197.44331440
_cell_formula_units_Z   1
loop_
 _symmetry_equiv_pos_site_id
 _symmetry_equiv_pos_as_xyz
  1  'x, y, z'
loop_
 _atom_site_type_symbol
 _atom_site_label
 _atom_site_symmetry_multiplicity
 _atom_site_fract_x
 _atom_site_fract_y
 _atom_site_fract_z
 _atom_site_occupancy
  Y  Y0  1  0.048522  0.298456  0.500000  1
  Y  Y1  1  0.701544  0.750065  0.500000  1
  Y  Y2  1  0.249935  0.951478  0.500000  1
  In  In3  1  0.664857  0.082190  0.000000  1
  In  In4  1  0.917810  0.582668  0.000000  1
  In  In5  1  0.417332  0.335143  0.000000  1
  In  In6  1  0.333333  0.666667  0.000000  1
  Ni  Ni7  1  0.666667  0.333333  0.500000  1
  Ni  Ni8  1  0.000000  0.000000  0.000000  1
