# generated using pymatgen
data_Nd3B(CBr)2
_symmetry_space_group_name_H-M   'P 1'
_cell_length_a   15.04263500
_cell_length_b   3.89343500
_cell_length_c   11.24620600
_cell_angle_alpha   90.00000000
_cell_angle_beta   90.00000000
_cell_angle_gamma   90.00000000
_symmetry_Int_Tables_number   1
_chemical_formula_structural   Nd3B(CBr)2
_chemical_formula_sum   'Nd12 B4 C8 Br8'
_cell_volume   658.66241284
_cell_formula_units_Z   4
loop_
 _symmetry_equiv_pos_site_id
 _symmetry_equiv_pos_as_xyz
  1  'x, y, z'
loop_
 _atom_site_type_symbol
 _atom_site_label
 _atom_site_symmetry_multiplicity
 _atom_site_fract_x
 _atom_site_fract_y
 _atom_site_fract_z
 _atom_site_occupancy
  Nd  Nd0  1  0.329609  0.250001  0.700387  1
  Nd  Nd1  1  0.170391  0.750000  0.200387  1
  Nd  Nd2  1  0.829610  0.250001  0.799612  1
  Nd  Nd3  1  0.670390  0.750000  0.299613  1
  Nd  Nd4  1  0.137649  0.250001  0.877071  1
  Nd  Nd5  1  0.362351  0.750000  0.377072  1
  Nd  Nd6  1  0.637649  0.250001  0.622929  1
  Nd  Nd7  1  0.862351  0.750000  0.122929  1
  Nd  Nd8  1  0.339102  0.250001  0.050716  1
  Nd  Nd9  1  0.160898  0.750000  0.550716  1
  Nd  Nd10  1  0.839103  0.250001  0.449284  1
  Nd  Nd11  1  0.660897  0.750000  0.949284  1
  B  B12  1  0.255529  0.750000  0.874358  1
  B  B13  1  0.244471  0.250001  0.374359  1
  B  B14  1  0.755529  0.750000  0.625641  1
  B  B15  1  0.744471  0.250001  0.125642  1
  C  C16  1  0.275916  0.250001  0.249334  1
  C  C17  1  0.224084  0.750000  0.749334  1
  C  C18  1  0.775916  0.250001  0.250666  1
  C  C19  1  0.724084  0.750000  0.750665  1
  C  C20  1  0.267515  0.250001  0.502087  1
  C  C21  1  0.232485  0.750000  0.002088  1
  C  C22  1  0.767515  0.250001  0.997912  1
  C  C23  1  0.732485  0.750000  0.497913  1
  Br  Br24  1  0.011590  0.250001  0.634273  1
  Br  Br25  1  0.488410  0.750000  0.134272  1
  Br  Br26  1  0.511590  0.250001  0.865728  1
  Br  Br27  1  0.988410  0.750000  0.365728  1
  Br  Br28  1  0.028397  0.250001  0.115192  1
  Br  Br29  1  0.471604  0.750000  0.615193  1
  Br  Br30  1  0.528397  0.250001  0.384808  1
  Br  Br31  1  0.971603  0.750000  0.884807  1
