# generated using pymatgen
data_Be7V3SiRu
_symmetry_space_group_name_H-M   'P 1'
_cell_length_a   4.32491700
_cell_length_b   4.32491639
_cell_length_c   7.12524700
_cell_angle_alpha   90.00000000
_cell_angle_beta   90.00000000
_cell_angle_gamma   120.00001230
_symmetry_Int_Tables_number   1
_chemical_formula_structural   Be7V3SiRu
_chemical_formula_sum   'Be7 V3 Si1 Ru1'
_cell_volume   115.42130898
_cell_formula_units_Z   1
loop_
 _symmetry_equiv_pos_site_id
 _symmetry_equiv_pos_as_xyz
  1  'x, y, z'
loop_
 _atom_site_type_symbol
 _atom_site_label
 _atom_site_symmetry_multiplicity
 _atom_site_fract_x
 _atom_site_fract_y
 _atom_site_fract_z
 _atom_site_occupancy
  Be  Be0  1  0.000000  0.000000  0.999212  1
  Be  Be1  1  0.828229  0.171771  0.241530  1
  Be  Be2  1  0.828229  0.656456  0.241530  1
  Be  Be3  1  0.343544  0.171771  0.241530  1
  Be  Be4  1  0.171427  0.828573  0.758356  1
  Be  Be5  1  0.171427  0.342855  0.758356  1
  Be  Be6  1  0.657145  0.828573  0.758356  1
  V  V7  1  0.333333  0.666667  0.438764  1
  V  V8  1  0.666667  0.333333  0.564176  1
  V  V9  1  0.666667  0.333333  0.937312  1
  Si  Si10  1  0.000000  0.000000  0.498478  1
  Ru  Ru11  1  0.333333  0.666667  0.062400  1
