# generated using pymatgen
data_Zr3PtC
_symmetry_space_group_name_H-M   'P 1'
_cell_length_a   9.05119000
_cell_length_b   6.13574272
_cell_length_c   6.13574272
_cell_angle_alpha   31.72451341
_cell_angle_beta   90.00000000
_cell_angle_gamma   90.00000000
_symmetry_Int_Tables_number   1
_chemical_formula_structural   Zr3PtC
_chemical_formula_sum   'Zr6 Pt2 C2'
_cell_volume   179.18017628
_cell_formula_units_Z   2
loop_
 _symmetry_equiv_pos_site_id
 _symmetry_equiv_pos_as_xyz
  1  'x, y, z'
loop_
 _atom_site_type_symbol
 _atom_site_label
 _atom_site_symmetry_multiplicity
 _atom_site_fract_x
 _atom_site_fract_y
 _atom_site_fract_z
 _atom_site_occupancy
  Zr  Zr0  1  0.000000  0.056487  0.056487  1
  Zr  Zr1  1  0.193218  0.372446  0.372446  1
  Zr  Zr2  1  0.806782  0.372446  0.372446  1
  Zr  Zr3  1  0.306768  0.627518  0.627518  1
  Zr  Zr4  1  0.693232  0.627518  0.627518  1
  Zr  Zr5  1  0.500000  0.943518  0.943518  1
  Pt  Pt6  1  0.500000  0.252118  0.252118  1
  Pt  Pt7  1  0.000000  0.747854  0.747854  1
  C  C8  1  0.250007  0.999993  0.999993  1
  C  C9  1  0.749993  0.999993  0.999993  1
