# generated using pymatgen
data_Np4Co5Si2Ni
_symmetry_space_group_name_H-M   'P 1'
_cell_length_a   5.13689961
_cell_length_b   5.13690007
_cell_length_c   7.42460000
_cell_angle_alpha   90.00000000
_cell_angle_beta   90.00000000
_cell_angle_gamma   119.31640772
_symmetry_Int_Tables_number   1
_chemical_formula_structural   Np4Co5Si2Ni
_chemical_formula_sum   'Np4 Co5 Si2 Ni1'
_cell_volume   170.82696524
_cell_formula_units_Z   1
loop_
 _symmetry_equiv_pos_site_id
 _symmetry_equiv_pos_as_xyz
  1  'x, y, z'
loop_
 _atom_site_type_symbol
 _atom_site_label
 _atom_site_symmetry_multiplicity
 _atom_site_fract_x
 _atom_site_fract_y
 _atom_site_fract_z
 _atom_site_occupancy
  Np  Np0  1  0.336728  0.663272  0.429903  1
  Np  Np1  1  0.661278  0.338722  0.573872  1
  Np  Np2  1  0.661278  0.338722  0.926128  1
  Np  Np3  1  0.336728  0.663272  0.070097  1
  Co  Co4  1  0.835267  0.659918  0.250000  1
  Co  Co5  1  0.340082  0.164733  0.250000  1
  Co  Co6  1  0.167487  0.832513  0.750000  1
  Co  Co7  1  0.163438  0.338989  0.750000  1
  Co  Co8  1  0.661011  0.836562  0.750000  1
  Si  Si9  1  0.001280  0.998720  0.501126  1
  Si  Si10  1  0.001280  0.998720  0.998874  1
  Ni  Ni11  1  0.834143  0.165857  0.250000  1
