# generated using pymatgen
data_Dy4Er6GaSb5
_symmetry_space_group_name_H-M   'P 1'
_cell_length_a   6.34969600
_cell_length_b   8.87596195
_cell_length_c   8.85899901
_cell_angle_alpha   120.06395683
_cell_angle_beta   89.99598541
_cell_angle_gamma   90.00249796
_symmetry_Int_Tables_number   1
_chemical_formula_structural   Dy4Er6GaSb5
_chemical_formula_sum   'Dy4 Er6 Ga1 Sb5'
_cell_volume   432.11903519
_cell_formula_units_Z   1
loop_
 _symmetry_equiv_pos_site_id
 _symmetry_equiv_pos_as_xyz
  1  'x, y, z'
loop_
 _atom_site_type_symbol
 _atom_site_label
 _atom_site_symmetry_multiplicity
 _atom_site_fract_x
 _atom_site_fract_y
 _atom_site_fract_z
 _atom_site_occupancy
  Dy  Dy0  1  0.749999  0.752723  0.763706  1
  Dy  Dy1  1  0.750022  0.989010  0.236291  1
  Dy  Dy2  1  0.250006  0.244823  0.244067  1
  Dy  Dy3  1  0.250019  0.000747  0.755949  1
  Er  Er4  1  0.501309  0.340527  0.675479  1
  Er  Er5  1  0.501308  0.665033  0.324528  1
  Er  Er6  1  0.998672  0.665019  0.324502  1
  Er  Er7  1  0.998712  0.340532  0.675491  1
  Er  Er8  1  0.749991  0.250212  0.000003  1
  Er  Er9  1  0.249975  0.754900  0.999985  1
  Ga  Ga10  1  0.750003  0.605460  0.000001  1
  Sb  Sb11  1  0.750002  0.388002  0.389438  1
  Sb  Sb12  1  0.750005  0.998566  0.610574  1
  Sb  Sb13  1  0.249987  0.391689  0.999996  1
  Sb  Sb14  1  0.250018  0.610360  0.607978  1
  Sb  Sb15  1  0.249978  0.002398  0.392014  1
