# generated using pymatgen
data_CO14
_symmetry_space_group_name_H-M   'P 1'
_cell_length_a   5.82267522
_cell_length_b   5.82267418
_cell_length_c   5.82267544
_cell_angle_alpha   96.68001536
_cell_angle_beta   96.68000745
_cell_angle_gamma   96.68001307
_symmetry_Int_Tables_number   1
_chemical_formula_structural   CO14
_chemical_formula_sum   'C1 O14'
_cell_volume   193.04349434
_cell_formula_units_Z   1
loop_
 _symmetry_equiv_pos_site_id
 _symmetry_equiv_pos_as_xyz
  1  'x, y, z'
loop_
 _atom_site_type_symbol
 _atom_site_label
 _atom_site_symmetry_multiplicity
 _atom_site_fract_x
 _atom_site_fract_y
 _atom_site_fract_z
 _atom_site_occupancy
  C  C0  1  0.500001  0.500001  0.500001  1
  O  O1  1  0.729402  0.270596  0.000000  1
  O  O2  1  0.270596  0.729402  0.000000  1
  O  O3  1  0.794922  0.794922  0.145185  1
  O  O4  1  0.854814  0.205078  0.205078  1
  O  O5  1  0.205078  0.854814  0.205078  1
  O  O6  1  0.729403  0.000000  0.270596  1
  O  O7  1  0.000000  0.729403  0.270596  1
  O  O8  1  0.366913  0.366913  0.366913  1
  O  O9  1  0.633087  0.633087  0.633087  1
  O  O10  1  0.270596  0.000000  0.729403  1
  O  O11  1  0.000000  0.270596  0.729403  1
  O  O12  1  0.794922  0.145186  0.794922  1
  O  O13  1  0.145186  0.794922  0.794922  1
  O  O14  1  0.205078  0.205078  0.854814  1
