# generated using pymatgen
data_Y6LuCo17P12
_symmetry_space_group_name_H-M   'P 1'
_cell_length_a   3.71447700
_cell_length_b   10.59099400
_cell_length_c   12.32703000
_cell_angle_alpha   90.00000000
_cell_angle_beta   90.00000000
_cell_angle_gamma   90.00000000
_symmetry_Int_Tables_number   1
_chemical_formula_structural   Y6LuCo17P12
_chemical_formula_sum   'Y6 Lu1 Co17 P12'
_cell_volume   484.94540483
_cell_formula_units_Z   1
loop_
 _symmetry_equiv_pos_site_id
 _symmetry_equiv_pos_as_xyz
  1  'x, y, z'
loop_
 _atom_site_type_symbol
 _atom_site_label
 _atom_site_symmetry_multiplicity
 _atom_site_fract_x
 _atom_site_fract_y
 _atom_site_fract_z
 _atom_site_occupancy
  Y  Y0  1  0.000000  0.500000  0.530691  1
  Y  Y1  1  0.500000  0.000000  0.477957  1
  Y  Y2  1  0.500000  0.821987  0.207637  1
  Y  Y3  1  0.500000  0.178013  0.207637  1
  Y  Y4  1  0.000000  0.683346  0.795267  1
  Y  Y5  1  0.000000  0.316654  0.795267  1
  Lu  Lu6  1  0.500000  0.500000  0.154285  1
  Co  Co7  1  0.000000  0.000000  0.835418  1
  Co  Co8  1  0.500000  0.500000  0.703286  1
  Co  Co9  1  0.000000  0.000000  0.295540  1
  Co  Co10  1  0.000000  0.500000  0.982190  1
  Co  Co11  1  0.500000  0.000000  0.013178  1
  Co  Co12  1  0.500000  0.324805  0.987031  1
  Co  Co13  1  0.500000  0.675195  0.987031  1
  Co  Co14  1  0.000000  0.159919  0.999465  1
  Co  Co15  1  0.000000  0.840081  0.999465  1
  Co  Co16  1  0.500000  0.293404  0.436081  1
  Co  Co17  1  0.500000  0.706596  0.436081  1
  Co  Co18  1  0.000000  0.201100  0.570968  1
  Co  Co19  1  0.000000  0.798900  0.570968  1
  Co  Co20  1  0.500000  0.880902  0.707353  1
  Co  Co21  1  0.500000  0.119098  0.707353  1
  Co  Co22  1  0.000000  0.622527  0.302268  1
  Co  Co23  1  0.000000  0.377473  0.302268  1
  P  P24  1  0.500000  0.500000  0.881995  1
  P  P25  1  0.000000  0.000000  0.115784  1
  P  P26  1  0.500000  0.500000  0.363292  1
  P  P27  1  0.000000  0.000000  0.654560  1
  P  P28  1  0.500000  0.308064  0.618494  1
  P  P29  1  0.500000  0.691936  0.618494  1
  P  P30  1  0.000000  0.188255  0.387256  1
  P  P31  1  0.000000  0.811745  0.387256  1
  P  P32  1  0.500000  0.853759  0.887520  1
  P  P33  1  0.500000  0.146241  0.887520  1
  P  P34  1  0.000000  0.667190  0.096572  1
  P  P35  1  0.000000  0.332810  0.096572  1
