# generated using pymatgen
data_Pr4NdTmTa2O14
_symmetry_space_group_name_H-M   'P 1'
_cell_length_a   6.67918118
_cell_length_b   6.64971449
_cell_length_c   7.71852800
_cell_angle_alpha   90.00000000
_cell_angle_beta   90.00000000
_cell_angle_gamma   108.81983446
_symmetry_Int_Tables_number   1
_chemical_formula_structural   Pr4NdTmTa2O14
_chemical_formula_sum   'Pr4 Nd1 Tm1 Ta2 O14'
_cell_volume   324.48796747
_cell_formula_units_Z   1
loop_
 _symmetry_equiv_pos_site_id
 _symmetry_equiv_pos_as_xyz
  1  'x, y, z'
loop_
 _atom_site_type_symbol
 _atom_site_label
 _atom_site_symmetry_multiplicity
 _atom_site_fract_x
 _atom_site_fract_y
 _atom_site_fract_z
 _atom_site_occupancy
  Pr  Pr0  1  0.532552  0.525475  0.498301  1
  Pr  Pr1  1  0.532552  0.525475  0.001699  1
  Pr  Pr2  1  0.007470  0.463562  0.750000  1
  Pr  Pr3  1  0.461768  0.003390  0.250000  1
  Nd  Nd4  1  0.533160  0.003531  0.750000  1
  Tm  Tm5  1  0.002919  0.527718  0.250000  1
  Ta  Ta6  1  0.000757  0.001338  0.497194  1
  Ta  Ta7  1  0.000757  0.001338  0.002806  1
  O  O8  1  0.946570  0.056164  0.750000  1
  O  O9  1  0.058495  0.937754  0.250000  1
  O  O10  1  0.349008  0.632312  0.250000  1
  O  O11  1  0.642305  0.369110  0.750000  1
  O  O12  1  0.373481  0.633860  0.750000  1
  O  O13  1  0.650431  0.379215  0.250000  1
  O  O14  1  0.308059  0.072240  0.967983  1
  O  O15  1  0.678350  0.918629  0.474769  1
  O  O16  1  0.308059  0.072240  0.532017  1
  O  O17  1  0.678350  0.918629  0.025231  1
  O  O18  1  0.034696  0.299270  0.454230  1
  O  O19  1  0.932784  0.679740  0.980825  1
  O  O20  1  0.932784  0.679740  0.519175  1
  O  O21  1  0.034696  0.299270  0.045770  1
