# generated using pymatgen
data_NdSn6RuRh3
_symmetry_space_group_name_H-M   'P 1'
_cell_length_a   7.01392103
_cell_length_b   7.01392075
_cell_length_c   6.98140767
_cell_angle_alpha   120.51481587
_cell_angle_beta   120.44587824
_cell_angle_gamma   89.43948067
_symmetry_Int_Tables_number   1
_chemical_formula_structural   NdSn6RuRh3
_chemical_formula_sum   'Nd1 Sn6 Ru1 Rh3'
_cell_volume   240.50091581
_cell_formula_units_Z   1
loop_
 _symmetry_equiv_pos_site_id
 _symmetry_equiv_pos_as_xyz
  1  'x, y, z'
loop_
 _atom_site_type_symbol
 _atom_site_label
 _atom_site_symmetry_multiplicity
 _atom_site_fract_x
 _atom_site_fract_y
 _atom_site_fract_z
 _atom_site_occupancy
  Nd  Nd0  1  0.997882  0.003076  0.000958  1
  Sn  Sn1  1  0.471906  0.467957  0.597480  1
  Sn  Sn2  1  0.129523  0.125574  0.597480  1
  Sn  Sn3  1  0.873813  0.528656  0.402470  1
  Sn  Sn4  1  0.529827  0.874335  0.404162  1
  Sn  Sn5  1  0.996596  0.496156  0.994665  1
  Sn  Sn6  1  0.498509  0.998070  0.994665  1
  Ru  Ru7  1  0.599305  0.243874  0.843179  1
  Rh  Rh8  1  0.399412  0.400938  0.160544  1
  Rh  Rh9  1  0.759605  0.761132  0.160544  1
  Rh  Rh10  1  0.243622  0.600231  0.843853  1
