# generated using pymatgen
data_Dy3Er3Al24Os5Pt3
_symmetry_space_group_name_H-M   'P 1'
_cell_length_a   8.81374405
_cell_length_b   8.83358397
_cell_length_c   9.54403501
_cell_angle_alpha   90.13609918
_cell_angle_beta   89.72961956
_cell_angle_gamma   119.52426326
_symmetry_Int_Tables_number   1
_chemical_formula_structural   Dy3Er3Al24Os5Pt3
_chemical_formula_sum   'Dy3 Er3 Al24 Os5 Pt3'
_cell_volume   646.57250921
_cell_formula_units_Z   1
loop_
 _symmetry_equiv_pos_site_id
 _symmetry_equiv_pos_as_xyz
  1  'x, y, z'
loop_
 _atom_site_type_symbol
 _atom_site_label
 _atom_site_symmetry_multiplicity
 _atom_site_fract_x
 _atom_site_fract_y
 _atom_site_fract_z
 _atom_site_occupancy
  Dy  Dy0  1  0.187740  0.383226  0.250989  1
  Dy  Dy1  1  0.812070  0.616720  0.749028  1
  Dy  Dy2  1  0.614065  0.813953  0.252032  1
  Er  Er3  1  0.387480  0.186056  0.747805  1
  Er  Er4  1  0.196017  0.808689  0.251850  1
  Er  Er5  1  0.803619  0.191296  0.748197  1
  Al  Al6  1  0.335047  0.671306  0.029590  1
  Al  Al7  1  0.664617  0.328665  0.969948  1
  Al  Al8  1  0.668989  0.331266  0.528189  1
  Al  Al9  1  0.330749  0.668726  0.472227  1
  Al  Al10  1  0.158002  0.325290  0.575852  1
  Al  Al11  1  0.842091  0.674553  0.424472  1
  Al  Al12  1  0.673367  0.840807  0.576062  1
  Al  Al13  1  0.837135  0.676220  0.078295  1
  Al  Al14  1  0.326563  0.159204  0.424453  1
  Al  Al15  1  0.163028  0.323566  0.921360  1
  Al  Al16  1  0.163879  0.835230  0.576410  1
  Al  Al17  1  0.325502  0.158680  0.076438  1
  Al  Al18  1  0.836115  0.165007  0.423913  1
  Al  Al19  1  0.674440  0.841334  0.923051  1
  Al  Al20  1  0.831704  0.159488  0.077453  1
  Al  Al21  1  0.168344  0.840856  0.922230  1
  Al  Al22  1  0.560497  0.124720  0.249836  1
  Al  Al23  1  0.439190  0.875394  0.750180  1
  Al  Al24  1  0.874224  0.438158  0.252653  1
  Al  Al25  1  0.125725  0.561818  0.747403  1
  Al  Al26  1  0.562526  0.436465  0.249764  1
  Al  Al27  1  0.437241  0.562982  0.750244  1
  Al  Al28  1  0.999331  0.002147  0.250229  1
  Al  Al29  1  0.001569  0.998430  0.749765  1
  Os  Os30  1  0.499877  0.000205  0.999714  1
  Os  Os31  1  0.499851  0.000211  0.500302  1
  Os  Os32  1  0.999847  0.499904  0.500050  1
  Os  Os33  1  0.999964  0.999977  0.000030  1
  Os  Os34  1  0.999981  0.999992  0.499973  1
  Pt  Pt35  1  0.999886  0.499923  0.999989  1
  Pt  Pt36  1  0.499866  0.499784  0.999857  1
  Pt  Pt37  1  0.499860  0.499753  0.500168  1
