# generated using pymatgen
data_LaNd11Ni6Hg
_symmetry_space_group_name_H-M   'P 1'
_cell_length_a   8.69912131
_cell_length_b   8.69912167
_cell_length_c   8.70621447
_cell_angle_alpha   109.42805039
_cell_angle_beta   109.61616331
_cell_angle_gamma   109.33645870
_symmetry_Int_Tables_number   1
_chemical_formula_structural   LaNd11Ni6Hg
_chemical_formula_sum   'La1 Nd11 Ni6 Hg1'
_cell_volume   507.37952149
_cell_formula_units_Z   1
loop_
 _symmetry_equiv_pos_site_id
 _symmetry_equiv_pos_as_xyz
  1  'x, y, z'
loop_
 _atom_site_type_symbol
 _atom_site_label
 _atom_site_symmetry_multiplicity
 _atom_site_fract_x
 _atom_site_fract_y
 _atom_site_fract_z
 _atom_site_occupancy
  La  La0  1  0.693655  0.186253  0.879909  1
  Nd  Nd1  1  0.814043  0.510213  0.694353  1
  Nd  Nd2  1  0.490203  0.305415  0.187243  1
  Nd  Nd3  1  0.814005  0.119684  0.306567  1
  Nd  Nd4  1  0.508197  0.693315  0.813864  1
  Nd  Nd5  1  0.186883  0.492562  0.306567  1
  Nd  Nd6  1  0.120549  0.305666  0.813864  1
  Nd  Nd7  1  0.881828  0.697039  0.187243  1
  Nd  Nd8  1  0.184140  0.880311  0.694353  1
  Nd  Nd9  1  0.695027  0.812534  0.507561  1
  Nd  Nd10  1  0.302854  0.185526  0.488380  1
  Nd  Nd11  1  0.305718  0.814005  0.119723  1
  Ni  Ni12  1  0.622531  0.122300  0.500020  1
  Ni  Ni13  1  0.877967  0.500701  0.378669  1
  Ni  Ni14  1  0.501288  0.376360  0.877647  1
  Ni  Ni15  1  0.122002  0.499939  0.621941  1
  Ni  Ni16  1  0.500577  0.621173  0.121750  1
  Ni  Ni17  1  0.377720  0.877489  0.500020  1
  Hg  Hg18  1  0.000812  0.999515  0.000327  1
