# generated using pymatgen
data_DyAlCo3B
_symmetry_space_group_name_H-M   'P 1'
_cell_length_a   5.17682000
_cell_length_b   5.17770369
_cell_length_c   6.64862500
_cell_angle_alpha   90.00000000
_cell_angle_beta   90.00000000
_cell_angle_gamma   119.99435437
_symmetry_Int_Tables_number   1
_chemical_formula_structural   DyAlCo3B
_chemical_formula_sum   'Dy2 Al2 Co6 B2'
_cell_volume   154.34317558
_cell_formula_units_Z   2
loop_
 _symmetry_equiv_pos_site_id
 _symmetry_equiv_pos_as_xyz
  1  'x, y, z'
loop_
 _atom_site_type_symbol
 _atom_site_label
 _atom_site_symmetry_multiplicity
 _atom_site_fract_x
 _atom_site_fract_y
 _atom_site_fract_z
 _atom_site_occupancy
  Dy  Dy0  1  0.999975  0.000000  0.000000  1
  Dy  Dy1  1  0.999994  0.000000  0.500000  1
  Al  Al2  1  0.333336  0.666713  0.000000  1
  Al  Al3  1  0.666623  0.333287  0.000000  1
  Co  Co4  1  0.499989  0.000000  0.294715  1
  Co  Co5  1  0.499985  0.500003  0.294714  1
  Co  Co6  1  0.999982  0.499997  0.294714  1
  Co  Co7  1  0.499989  0.000000  0.705285  1
  Co  Co8  1  0.499985  0.500003  0.705286  1
  Co  Co9  1  0.999982  0.499997  0.705286  1
  B  B10  1  0.333343  0.666726  0.500000  1
  B  B11  1  0.666617  0.333274  0.500000  1
