# generated using pymatgen
data_Y6Er7Th3(MgIr)4
_symmetry_space_group_name_H-M   'P 1'
_cell_length_a   9.76643065
_cell_length_b   9.77372261
_cell_length_c   9.77372200
_cell_angle_alpha   60.00000205
_cell_angle_beta   59.97530050
_cell_angle_gamma   59.97529970
_symmetry_Int_Tables_number   1
_chemical_formula_structural   Y6Er7Th3(MgIr)4
_chemical_formula_sum   'Y6 Er7 Th3 Mg4 Ir4'
_cell_volume   659.44507679
_cell_formula_units_Z   1
loop_
 _symmetry_equiv_pos_site_id
 _symmetry_equiv_pos_as_xyz
  1  'x, y, z'
loop_
 _atom_site_type_symbol
 _atom_site_label
 _atom_site_symmetry_multiplicity
 _atom_site_fract_x
 _atom_site_fract_y
 _atom_site_fract_z
 _atom_site_occupancy
  Y  Y0  1  0.186422  0.813669  0.813669  1
  Y  Y1  1  0.814321  0.185422  0.185422  1
  Y  Y2  1  0.814321  0.185422  0.814835  1
  Y  Y3  1  0.186422  0.813669  0.186241  1
  Y  Y4  1  0.814321  0.814835  0.185422  1
  Y  Y5  1  0.186422  0.186241  0.813669  1
  Er  Er6  1  0.206125  0.597959  0.597959  1
  Er  Er7  1  0.063326  0.437535  0.437535  1
  Er  Er8  1  0.436716  0.063680  0.063680  1
  Er  Er9  1  0.436716  0.063680  0.435925  1
  Er  Er10  1  0.063326  0.437535  0.061605  1
  Er  Er11  1  0.436716  0.435925  0.063680  1
  Er  Er12  1  0.063326  0.061605  0.437535  1
  Th  Th13  1  0.595774  0.598502  0.598502  1
  Th  Th14  1  0.595774  0.598502  0.207222  1
  Th  Th15  1  0.595774  0.207222  0.598502  1
  Mg  Mg16  1  0.831172  0.829739  0.829739  1
  Mg  Mg17  1  0.831172  0.829739  0.509351  1
  Mg  Mg18  1  0.831172  0.509351  0.829739  1
  Mg  Mg19  1  0.507444  0.830853  0.830853  1
  Ir  Ir20  1  0.393629  0.391363  0.391363  1
  Ir  Ir21  1  0.393629  0.391363  0.823647  1
  Ir  Ir22  1  0.393629  0.823647  0.391363  1
  Ir  Ir23  1  0.822357  0.392547  0.392547  1
