# generated using pymatgen
data_SrPr4Er2CoI12
_symmetry_space_group_name_H-M   'P 1'
_cell_length_a   9.84588541
_cell_length_b   10.04504354
_cell_length_c   9.91810155
_cell_angle_alpha   105.70139776
_cell_angle_beta   106.58490897
_cell_angle_gamma   106.50201853
_symmetry_Int_Tables_number   1
_chemical_formula_structural   SrPr4Er2CoI12
_chemical_formula_sum   'Sr1 Pr4 Er2 Co1 I12'
_cell_volume   832.75837802
_cell_formula_units_Z   1
loop_
 _symmetry_equiv_pos_site_id
 _symmetry_equiv_pos_as_xyz
  1  'x, y, z'
loop_
 _atom_site_type_symbol
 _atom_site_label
 _atom_site_symmetry_multiplicity
 _atom_site_fract_x
 _atom_site_fract_y
 _atom_site_fract_z
 _atom_site_occupancy
  Sr  Sr0  1  0.500000  0.500000  0.500000  1
  Pr  Pr1  1  0.096516  0.299472  0.016790  1
  Pr  Pr2  1  0.287905  0.021750  0.091814  1
  Pr  Pr3  1  0.903484  0.700528  0.983210  1
  Pr  Pr4  1  0.712095  0.978250  0.908186  1
  Er  Er5  1  0.977923  0.907115  0.708825  1
  Er  Er6  1  0.022077  0.092885  0.291175  1
  Co  Co7  1  0.000000  0.000000  0.000000  1
  I  I8  1  0.539415  0.626271  0.856297  1
  I  I9  1  0.460585  0.373729  0.143703  1
  I  I10  1  0.310409  0.923348  0.765977  1
  I  I11  1  0.365639  0.143086  0.454806  1
  I  I12  1  0.933462  0.790261  0.334242  1
  I  I13  1  0.689591  0.076652  0.234023  1
  I  I14  1  0.066538  0.209739  0.665758  1
  I  I15  1  0.767592  0.319109  0.921614  1
  I  I16  1  0.232408  0.680891  0.078386  1
  I  I17  1  0.866515  0.560262  0.628970  1
  I  I18  1  0.133485  0.439738  0.371030  1
  I  I19  1  0.634361  0.856914  0.545194  1
