# generated using pymatgen
data_NaEuGePt2
_symmetry_space_group_name_H-M   'P 1'
_cell_length_a   5.66836544
_cell_length_b   5.66836574
_cell_length_c   7.87757253
_cell_angle_alpha   80.55182709
_cell_angle_beta   80.55183497
_cell_angle_gamma   62.02527559
_symmetry_Int_Tables_number   1
_chemical_formula_structural   NaEuGePt2
_chemical_formula_sum   'Na2 Eu2 Ge2 Pt4'
_cell_volume   219.39610656
_cell_formula_units_Z   2
loop_
 _symmetry_equiv_pos_site_id
 _symmetry_equiv_pos_as_xyz
  1  'x, y, z'
loop_
 _atom_site_type_symbol
 _atom_site_label
 _atom_site_symmetry_multiplicity
 _atom_site_fract_x
 _atom_site_fract_y
 _atom_site_fract_z
 _atom_site_occupancy
  Na  Na0  1  0.777195  0.525387  0.837032  1
  Na  Na1  1  0.474613  0.222805  0.662968  1
  Eu  Eu2  1  0.222898  0.479528  0.138579  1
  Eu  Eu3  1  0.520472  0.777102  0.361421  1
  Ge  Ge4  1  0.100965  0.899035  0.750000  1
  Ge  Ge5  1  0.881135  0.118865  0.250000  1
  Pt  Pt6  1  0.012122  0.735677  0.497469  1
  Pt  Pt7  1  0.264323  0.987878  0.002531  1
  Pt  Pt8  1  0.005738  0.259458  0.495741  1
  Pt  Pt9  1  0.740542  0.994262  0.004259  1
