# generated using pymatgen
data_TmTa(SnRu2)2
_symmetry_space_group_name_H-M   'P 1'
_cell_length_a   4.57683000
_cell_length_b   6.47521500
_cell_length_c   13.75534300
_cell_angle_alpha   90.00000000
_cell_angle_beta   89.99994164
_cell_angle_gamma   90.00000000
_symmetry_Int_Tables_number   1
_chemical_formula_structural   TmTa(SnRu2)2
_chemical_formula_sum   'Tm3 Ta3 Sn6 Ru12'
_cell_volume   407.65277112
_cell_formula_units_Z   3
loop_
 _symmetry_equiv_pos_site_id
 _symmetry_equiv_pos_as_xyz
  1  'x, y, z'
loop_
 _atom_site_type_symbol
 _atom_site_label
 _atom_site_symmetry_multiplicity
 _atom_site_fract_x
 _atom_site_fract_y
 _atom_site_fract_z
 _atom_site_occupancy
  Tm  Tm0  1  0.999999  0.000000  0.998257  1
  Tm  Tm1  1  0.499980  0.500001  0.166663  1
  Tm  Tm2  1  0.999988  0.000000  0.335062  1
  Ta  Ta3  1  0.499992  0.500001  0.499777  1
  Ta  Ta4  1  0.000014  0.000000  0.666662  1
  Ta  Ta5  1  0.500010  0.500001  0.833541  1
  Sn  Sn6  1  0.999986  0.500001  0.000898  1
  Sn  Sn7  1  0.499990  0.000000  0.166682  1
  Sn  Sn8  1  0.000010  0.500001  0.332439  1
  Sn  Sn9  1  0.499980  0.000000  0.501479  1
  Sn  Sn10  1  0.000023  0.500001  0.666678  1
  Sn  Sn11  1  0.500006  0.000000  0.831862  1
  Ru  Ru12  1  0.500002  0.258980  0.989010  1
  Ru  Ru13  1  0.500002  0.741020  0.989010  1
  Ru  Ru14  1  0.000001  0.247587  0.166663  1
  Ru  Ru15  1  0.000001  0.752414  0.166663  1
  Ru  Ru16  1  0.499998  0.258984  0.344314  1
  Ru  Ru17  1  0.499998  0.741016  0.344314  1
  Ru  Ru18  1  0.999997  0.256958  0.508678  1
  Ru  Ru19  1  0.999997  0.743043  0.508678  1
  Ru  Ru20  1  0.500007  0.247158  0.666675  1
  Ru  Ru21  1  0.500007  0.752842  0.666675  1
  Ru  Ru22  1  0.000007  0.256976  0.824659  1
  Ru  Ru23  1  0.000007  0.743025  0.824659  1
