# generated using pymatgen
data_Tb2Dy5Th(ReB6)4
_symmetry_space_group_name_H-M   'P 1'
_cell_length_a   3.71372700
_cell_length_b   9.20591846
_cell_length_c   11.60727902
_cell_angle_alpha   90.03550768
_cell_angle_beta   90.00000000
_cell_angle_gamma   90.00000000
_symmetry_Int_Tables_number   1
_chemical_formula_structural   Tb2Dy5Th(ReB6)4
_chemical_formula_sum   'Tb2 Dy5 Th1 Re4 B24'
_cell_volume   396.83268915
_cell_formula_units_Z   1
loop_
 _symmetry_equiv_pos_site_id
 _symmetry_equiv_pos_as_xyz
  1  'x, y, z'
loop_
 _atom_site_type_symbol
 _atom_site_label
 _atom_site_symmetry_multiplicity
 _atom_site_fract_x
 _atom_site_fract_y
 _atom_site_fract_z
 _atom_site_occupancy
  Tb  Tb0  1  0.000000  0.677829  0.587161  1
  Tb  Tb1  1  0.000000  0.823242  0.085096  1
  Dy  Dy2  1  0.000000  0.176099  0.914036  1
  Dy  Dy3  1  0.000000  0.941595  0.369318  1
  Dy  Dy4  1  0.000000  0.056564  0.631427  1
  Dy  Dy5  1  0.000000  0.442994  0.128432  1
  Dy  Dy6  1  0.000000  0.557784  0.870418  1
  Th  Th7  1  0.000000  0.322310  0.414128  1
  Re  Re8  1  0.000000  0.638312  0.320603  1
  Re  Re9  1  0.000000  0.362231  0.680120  1
  Re  Re10  1  0.000000  0.138016  0.178356  1
  Re  Re11  1  0.000000  0.862131  0.821003  1
  B  B12  1  0.500000  0.555448  0.432004  1
  B  B13  1  0.500000  0.447029  0.569627  1
  B  B14  1  0.500000  0.053000  0.066467  1
  B  B15  1  0.500000  0.946778  0.932733  1
  B  B16  1  0.500000  0.749456  0.417778  1
  B  B17  1  0.500000  0.251525  0.585251  1
  B  B18  1  0.500000  0.248170  0.080405  1
  B  B19  1  0.500000  0.751471  0.918078  1
  B  B20  1  0.500000  0.791285  0.265123  1
  B  B21  1  0.500000  0.208866  0.736134  1
  B  B22  1  0.500000  0.289713  0.232140  1
  B  B23  1  0.500000  0.708914  0.765893  1
  B  B24  1  0.500000  0.631520  0.184775  1
  B  B25  1  0.500000  0.369937  0.815089  1
  B  B26  1  0.500000  0.128962  0.312065  1
  B  B27  1  0.500000  0.869385  0.686438  1
  B  B28  1  0.500000  0.982104  0.210916  1
  B  B29  1  0.500000  0.017235  0.788714  1
  B  B30  1  0.500000  0.485325  0.286331  1
  B  B31  1  0.500000  0.518010  0.713527  1
  B  B32  1  0.500000  0.601188  0.027750  1
  B  B33  1  0.500000  0.399315  0.971437  1
  B  B34  1  0.500000  0.097163  0.472813  1
  B  B35  1  0.500000  0.899096  0.528411  1
