# generated using pymatgen
data_Fe7CoSi4(Mo3N)4
_symmetry_space_group_name_H-M   'P 1'
_cell_length_a   7.85346364
_cell_length_b   7.85346309
_cell_length_c   7.85346221
_cell_angle_alpha   59.84185270
_cell_angle_beta   59.84185358
_cell_angle_gamma   59.84185664
_symmetry_Int_Tables_number   1
_chemical_formula_structural   Fe7CoSi4(Mo3N)4
_chemical_formula_sum   'Fe7 Co1 Si4 Mo12 N4'
_cell_volume   341.27703972
_cell_formula_units_Z   1
loop_
 _symmetry_equiv_pos_site_id
 _symmetry_equiv_pos_as_xyz
  1  'x, y, z'
loop_
 _atom_site_type_symbol
 _atom_site_label
 _atom_site_symmetry_multiplicity
 _atom_site_fract_x
 _atom_site_fract_y
 _atom_site_fract_z
 _atom_site_occupancy
  Fe  Fe0  1  0.243206  0.918549  0.918549  1
  Fe  Fe1  1  0.918549  0.243206  0.918549  1
  Fe  Fe2  1  0.918734  0.918734  0.918734  1
  Fe  Fe3  1  0.918549  0.918549  0.243206  1
  Fe  Fe4  1  0.005506  0.331358  0.331358  1
  Fe  Fe5  1  0.331358  0.331358  0.005506  1
  Fe  Fe6  1  0.331358  0.005506  0.331358  1
  Co  Co7  1  0.332531  0.332531  0.332531  1
  Si  Si8  1  0.620631  0.127584  0.127584  1
  Si  Si9  1  0.127584  0.127584  0.620631  1
  Si  Si10  1  0.127584  0.620631  0.127584  1
  Si  Si11  1  0.125532  0.125532  0.125532  1
  Mo  Mo12  1  0.695271  0.304538  0.695271  1
  Mo  Mo13  1  0.555533  0.555533  0.944113  1
  Mo  Mo14  1  0.555533  0.944113  0.555533  1
  Mo  Mo15  1  0.945356  0.945356  0.554891  1
  Mo  Mo16  1  0.944113  0.555533  0.555533  1
  Mo  Mo17  1  0.945356  0.554891  0.945356  1
  Mo  Mo18  1  0.696658  0.303498  0.303498  1
  Mo  Mo19  1  0.303498  0.696658  0.303498  1
  Mo  Mo20  1  0.303498  0.303498  0.696658  1
  Mo  Mo21  1  0.304538  0.695271  0.695271  1
  Mo  Mo22  1  0.695271  0.695271  0.304538  1
  Mo  Mo23  1  0.554891  0.945356  0.945356  1
  N  N24  1  0.625018  0.625018  0.625018  1
  N  N25  1  0.125187  0.624579  0.624579  1
  N  N26  1  0.624579  0.125187  0.624579  1
  N  N27  1  0.624579  0.624579  0.125187  1
