# generated using pymatgen
data_YbErRe3Si4
_symmetry_space_group_name_H-M   'P 1'
_cell_length_a   6.79659800
_cell_length_b   6.63810170
_cell_length_c   6.78384800
_cell_angle_alpha   70.57107481
_cell_angle_beta   90.00000000
_cell_angle_gamma   90.00000000
_symmetry_Int_Tables_number   1
_chemical_formula_structural   YbErRe3Si4
_chemical_formula_sum   'Yb2 Er2 Re6 Si8'
_cell_volume   288.63470338
_cell_formula_units_Z   2
loop_
 _symmetry_equiv_pos_site_id
 _symmetry_equiv_pos_as_xyz
  1  'x, y, z'
loop_
 _atom_site_type_symbol
 _atom_site_label
 _atom_site_symmetry_multiplicity
 _atom_site_fract_x
 _atom_site_fract_y
 _atom_site_fract_z
 _atom_site_occupancy
  Yb  Yb0  1  0.666876  0.441973  0.186042  1
  Yb  Yb1  1  0.166876  0.058027  0.813958  1
  Er  Er2  1  0.331237  0.558619  0.807470  1
  Er  Er3  1  0.831237  0.941381  0.192530  1
  Re  Re4  1  0.502850  0.996583  0.498915  1
  Re  Re5  1  0.002850  0.503417  0.501085  1
  Re  Re6  1  0.155707  0.245743  0.235418  1
  Re  Re7  1  0.655707  0.254257  0.764582  1
  Re  Re8  1  0.843736  0.758737  0.762414  1
  Re  Re9  1  0.343736  0.741263  0.237586  1
  Si  Si10  1  0.452525  0.122114  0.100840  1
  Si  Si11  1  0.952525  0.377886  0.899160  1
  Si  Si12  1  0.544862  0.876179  0.900687  1
  Si  Si13  1  0.044862  0.623821  0.099313  1
  Si  Si14  1  0.862347  0.135751  0.508410  1
  Si  Si15  1  0.362347  0.364249  0.491590  1
  Si  Si16  1  0.139860  0.870313  0.491862  1
  Si  Si17  1  0.639860  0.629687  0.508138  1
