# generated using pymatgen
data_YZr2Fe9
_symmetry_space_group_name_H-M   'P 1'
_cell_length_a   5.01122571
_cell_length_b   5.01122602
_cell_length_c   8.47754366
_cell_angle_alpha   72.80894751
_cell_angle_beta   72.80894524
_cell_angle_gamma   60.00000877
_symmetry_Int_Tables_number   1
_chemical_formula_structural   YZr2Fe9
_chemical_formula_sum   'Y1 Zr2 Fe9'
_cell_volume   173.29996325
_cell_formula_units_Z   1
loop_
 _symmetry_equiv_pos_site_id
 _symmetry_equiv_pos_as_xyz
  1  'x, y, z'
loop_
 _atom_site_type_symbol
 _atom_site_label
 _atom_site_symmetry_multiplicity
 _atom_site_fract_x
 _atom_site_fract_y
 _atom_site_fract_z
 _atom_site_occupancy
  Y  Y0  1  0.000000  0.000000  0.000000  1
  Zr  Zr1  1  0.142787  0.142787  0.571638  1
  Zr  Zr2  1  0.857213  0.857213  0.428362  1
  Fe  Fe3  1  0.082476  0.585124  0.747274  1
  Fe  Fe4  1  0.585124  0.585124  0.747274  1
  Fe  Fe5  1  0.585124  0.082476  0.747274  1
  Fe  Fe6  1  0.917524  0.414876  0.252726  1
  Fe  Fe7  1  0.414876  0.414876  0.252726  1
  Fe  Fe8  1  0.414876  0.917524  0.252726  1
  Fe  Fe9  1  0.332786  0.332786  0.001641  1
  Fe  Fe10  1  0.667214  0.667214  0.998359  1
  Fe  Fe11  1  0.500000  0.500000  0.500000  1
