# generated using pymatgen
data_SrHf3(Al3Rh)6
_symmetry_space_group_name_H-M   'P 1'
_cell_length_a   7.49872000
_cell_length_b   7.48588400
_cell_length_c   9.32312600
_cell_angle_alpha   90.00000000
_cell_angle_beta   90.00000000
_cell_angle_gamma   119.69346111
_symmetry_Int_Tables_number   1
_chemical_formula_structural   SrHf3(Al3Rh)6
_chemical_formula_sum   'Sr1 Hf3 Al18 Rh6'
_cell_volume   454.62742765
_cell_formula_units_Z   1
loop_
 _symmetry_equiv_pos_site_id
 _symmetry_equiv_pos_as_xyz
  1  'x, y, z'
loop_
 _atom_site_type_symbol
 _atom_site_label
 _atom_site_symmetry_multiplicity
 _atom_site_fract_x
 _atom_site_fract_y
 _atom_site_fract_z
 _atom_site_occupancy
  Sr  Sr0  1  0.329286  0.007244  0.250000  1
  Hf  Hf1  1  0.994449  0.672945  0.750000  1
  Hf  Hf2  1  0.006492  0.329519  0.250000  1
  Hf  Hf3  1  0.671432  0.994143  0.750000  1
  Al  Al4  1  0.120438  0.122240  0.750000  1
  Al  Al5  1  0.866890  0.875729  0.250000  1
  Al  Al6  1  0.995784  0.334731  0.581302  1
  Al  Al7  1  0.998486  0.660833  0.430467  1
  Al  Al8  1  0.998486  0.660833  0.069533  1
  Al  Al9  1  0.335327  0.997166  0.914883  1
  Al  Al10  1  0.995784  0.334731  0.918698  1
  Al  Al11  1  0.669605  0.002348  0.069940  1
  Al  Al12  1  0.669605  0.002348  0.430060  1
  Al  Al13  1  0.335327  0.997166  0.585117  1
  Al  Al14  1  0.331054  0.335226  0.048437  1
  Al  Al15  1  0.669482  0.669372  0.936301  1
  Al  Al16  1  0.669482  0.669372  0.563699  1
  Al  Al17  1  0.331054  0.335226  0.451563  1
  Al  Al18  1  0.338247  0.553908  0.750000  1
  Al  Al19  1  0.673398  0.456314  0.250000  1
  Al  Al20  1  0.556775  0.339834  0.750000  1
  Al  Al21  1  0.444187  0.649318  0.250000  1
  Rh  Rh22  1  0.674642  0.329215  0.503594  1
  Rh  Rh23  1  0.328099  0.672387  0.504254  1
  Rh  Rh24  1  0.328099  0.672387  0.995746  1
  Rh  Rh25  1  0.674642  0.329215  0.996406  1
  Rh  Rh26  1  0.996724  0.998123  0.503639  1
  Rh  Rh27  1  0.996724  0.998123  0.996361  1
