# generated using pymatgen
data_Y4Si10IrPd2Pt3
_symmetry_space_group_name_H-M   'P 1'
_cell_length_a   8.17134002
_cell_length_b   8.17426596
_cell_length_c   8.17426527
_cell_angle_alpha   137.01509408
_cell_angle_beta   104.27373242
_cell_angle_gamma   91.26106784
_symmetry_Int_Tables_number   1
_chemical_formula_structural   Y4Si10IrPd2Pt3
_chemical_formula_sum   'Y4 Si10 Ir1 Pd2 Pt3'
_cell_volume   343.43491618
_cell_formula_units_Z   1
loop_
 _symmetry_equiv_pos_site_id
 _symmetry_equiv_pos_as_xyz
  1  'x, y, z'
loop_
 _atom_site_type_symbol
 _atom_site_label
 _atom_site_symmetry_multiplicity
 _atom_site_fract_x
 _atom_site_fract_y
 _atom_site_fract_z
 _atom_site_occupancy
  Y  Y0  1  0.859724  0.627953  0.231772  1
  Y  Y1  1  0.139339  0.371535  0.767803  1
  Y  Y2  1  0.396859  0.128270  0.268589  1
  Y  Y3  1  0.602614  0.871930  0.730684  1
  Si  Si4  1  0.500717  0.747971  0.243465  1
  Si  Si5  1  0.500717  0.257252  0.752746  1
  Si  Si6  1  0.227959  0.977473  0.749750  1
  Si  Si7  1  0.768168  0.522286  0.750952  1
  Si  Si8  1  0.768168  0.017216  0.245882  1
  Si  Si9  1  0.227959  0.478208  0.250484  1
  Si  Si10  1  0.039308  0.887407  0.151901  1
  Si  Si11  1  0.961670  0.112188  0.849482  1
  Si  Si12  1  0.736653  0.387454  0.349199  1
  Si  Si13  1  0.267302  0.612954  0.654347  1
  Ir  Ir14  1  0.523974  0.637877  0.886096  1
  Pd  Pd15  1  0.000223  0.749022  0.749985  1
  Pd  Pd16  1  0.000223  0.250238  0.251201  1
  Pt  Pt17  1  0.250481  0.862962  0.387519  1
  Pt  Pt18  1  0.752011  0.137357  0.614653  1
  Pt  Pt19  1  0.475936  0.362449  0.113486  1
