# generated using pymatgen
data_AlSb2(TeBr2)2
_symmetry_space_group_name_H-M   'P 1'
_cell_length_a   10.12410996
_cell_length_b   12.18892038
_cell_length_c   13.23172296
_cell_angle_alpha   65.32329054
_cell_angle_beta   77.72273762
_cell_angle_gamma   72.23696524
_symmetry_Int_Tables_number   1
_chemical_formula_structural   AlSb2(TeBr2)2
_chemical_formula_sum   'Al4 Sb8 Te8 Br16'
_cell_volume   1406.09773089
_cell_formula_units_Z   4
loop_
 _symmetry_equiv_pos_site_id
 _symmetry_equiv_pos_as_xyz
  1  'x, y, z'
loop_
 _atom_site_type_symbol
 _atom_site_label
 _atom_site_symmetry_multiplicity
 _atom_site_fract_x
 _atom_site_fract_y
 _atom_site_fract_z
 _atom_site_occupancy
  Al  Al0  1  0.792777  0.314455  0.547237  1
  Al  Al1  1  0.207223  0.685545  0.452763  1
  Al  Al2  1  0.886206  0.808029  0.021982  1
  Al  Al3  1  0.113794  0.191971  0.978018  1
  Sb  Sb4  1  0.350604  0.987372  0.427228  1
  Sb  Sb5  1  0.649396  0.012628  0.572772  1
  Sb  Sb6  1  0.557042  0.620462  0.679325  1
  Sb  Sb7  1  0.442958  0.379538  0.320675  1
  Sb  Sb8  1  0.568351  0.859699  0.809202  1
  Sb  Sb9  1  0.431649  0.140301  0.190798  1
  Sb  Sb10  1  0.705796  0.432050  0.008176  1
  Sb  Sb11  1  0.294204  0.567950  0.991824  1
  Te  Te12  1  0.628904  0.846583  0.472886  1
  Te  Te13  1  0.371096  0.153417  0.527114  1
  Te  Te14  1  0.345191  0.791729  0.760717  1
  Te  Te15  1  0.654809  0.208271  0.239283  1
  Te  Te16  1  0.765689  0.649174  0.778454  1
  Te  Te17  1  0.234311  0.350826  0.221546  1
  Te  Te18  1  0.505470  0.391733  0.912872  1
  Te  Te19  1  0.494530  0.608267  0.087128  1
  Br  Br20  1  0.713803  0.442904  0.372291  1
  Br  Br21  1  0.286197  0.557096  0.627709  1
  Br  Br22  1  0.609946  0.232713  0.667668  1
  Br  Br23  1  0.390054  0.767287  0.332332  1
  Br  Br24  1  0.853329  0.436398  0.619127  1
  Br  Br25  1  0.146671  0.563602  0.380873  1
  Br  Br26  1  0.981081  0.157081  0.529971  1
  Br  Br27  1  0.018919  0.842919  0.470029  1
  Br  Br28  1  0.887091  0.599719  0.074799  1
  Br  Br29  1  0.112909  0.400281  0.925201  1
  Br  Br30  1  0.866757  0.909062  0.829751  1
  Br  Br31  1  0.133243  0.090938  0.170249  1
  Br  Br32  1  0.104440  0.810479  0.053211  1
  Br  Br33  1  0.895560  0.189521  0.946789  1
  Br  Br34  1  0.706157  0.896874  0.124930  1
  Br  Br35  1  0.293843  0.103126  0.875070  1
