# generated using pymatgen
data_TbGa4(Fe3Ge)2
_symmetry_space_group_name_H-M   'P 1'
_cell_length_a   5.02963285
_cell_length_b   6.55647591
_cell_length_c   6.55647600
_cell_angle_alpha   80.21168635
_cell_angle_beta   67.44547837
_cell_angle_gamma   67.44547943
_symmetry_Int_Tables_number   1
_chemical_formula_structural   TbGa4(Fe3Ge)2
_chemical_formula_sum   'Tb1 Ga4 Fe6 Ge2'
_cell_volume   184.33536217
_cell_formula_units_Z   1
loop_
 _symmetry_equiv_pos_site_id
 _symmetry_equiv_pos_as_xyz
  1  'x, y, z'
loop_
 _atom_site_type_symbol
 _atom_site_label
 _atom_site_symmetry_multiplicity
 _atom_site_fract_x
 _atom_site_fract_y
 _atom_site_fract_z
 _atom_site_occupancy
  Tb  Tb0  1  0.000000  0.000000  0.000000  1
  Ga  Ga1  1  0.341694  0.658306  0.658306  1
  Ga  Ga2  1  0.658306  0.341694  0.341694  1
  Ga  Ga3  1  0.322488  0.177512  0.177512  1
  Ga  Ga4  1  0.677512  0.822488  0.822488  1
  Fe  Fe5  1  0.500000  0.246917  0.753083  1
  Fe  Fe6  1  0.500000  0.753083  0.246917  1
  Fe  Fe7  1  0.000000  0.500000  0.000000  1
  Fe  Fe8  1  0.500000  0.500000  0.000000  1
  Fe  Fe9  1  0.000000  0.000000  0.500000  1
  Fe  Fe10  1  0.500000  0.000000  0.500000  1
  Ge  Ge11  1  0.000000  0.655584  0.344416  1
  Ge  Ge12  1  0.000000  0.344416  0.655584  1
