# generated using pymatgen
data_Dy4Sc4OsPt3
_symmetry_space_group_name_H-M   'P 1'
_cell_length_a   4.47886800
_cell_length_b   7.04163854
_cell_length_c   8.55226708
_cell_angle_alpha   88.62046306
_cell_angle_beta   90.00000000
_cell_angle_gamma   90.00000000
_symmetry_Int_Tables_number   1
_chemical_formula_structural   Dy4Sc4OsPt3
_chemical_formula_sum   'Dy4 Sc4 Os1 Pt3'
_cell_volume   269.64809006
_cell_formula_units_Z   1
loop_
 _symmetry_equiv_pos_site_id
 _symmetry_equiv_pos_as_xyz
  1  'x, y, z'
loop_
 _atom_site_type_symbol
 _atom_site_label
 _atom_site_symmetry_multiplicity
 _atom_site_fract_x
 _atom_site_fract_y
 _atom_site_fract_z
 _atom_site_occupancy
  Dy  Dy0  1  0.250000  0.481807  0.178512  1
  Dy  Dy1  1  0.750000  0.527294  0.817260  1
  Dy  Dy2  1  0.750000  0.008392  0.671300  1
  Dy  Dy3  1  0.250000  0.981977  0.328776  1
  Sc  Sc4  1  0.250000  0.862256  0.927754  1
  Sc  Sc5  1  0.750000  0.140792  0.069484  1
  Sc  Sc6  1  0.750000  0.642779  0.432982  1
  Sc  Sc7  1  0.250000  0.357300  0.574356  1
  Os  Os8  1  0.250000  0.737691  0.604239  1
  Pt  Pt9  1  0.750000  0.257906  0.393147  1
  Pt  Pt10  1  0.750000  0.755410  0.099908  1
  Pt  Pt11  1  0.250000  0.246395  0.902281  1
