# generated using pymatgen
data_Y9HoIr5Pt
_symmetry_space_group_name_H-M   'P 1'
_cell_length_a   10.97587014
_cell_length_b   10.98090100
_cell_length_c   6.36186800
_cell_angle_alpha   90.00000000
_cell_angle_beta   89.95868770
_cell_angle_gamma   90.00000000
_symmetry_Int_Tables_number   1
_chemical_formula_structural   Y9HoIr5Pt
_chemical_formula_sum   'Y18 Ho2 Ir10 Pt2'
_cell_volume   766.76358146
_cell_formula_units_Z   2
loop_
 _symmetry_equiv_pos_site_id
 _symmetry_equiv_pos_as_xyz
  1  'x, y, z'
loop_
 _atom_site_type_symbol
 _atom_site_label
 _atom_site_symmetry_multiplicity
 _atom_site_fract_x
 _atom_site_fract_y
 _atom_site_fract_z
 _atom_site_occupancy
  Y  Y0  1  0.291349  0.088344  0.376084  1
  Y  Y1  1  0.291349  0.911656  0.876084  1
  Y  Y2  1  0.705308  0.090102  0.874006  1
  Y  Y3  1  0.705308  0.909898  0.374006  1
  Y  Y4  1  0.584467  0.790708  0.878622  1
  Y  Y5  1  0.584467  0.209292  0.378622  1
  Y  Y6  1  0.410831  0.791201  0.377794  1
  Y  Y7  1  0.410831  0.208799  0.877794  1
  Y  Y8  1  0.209119  0.411532  0.622082  1
  Y  Y9  1  0.209119  0.588468  0.122082  1
  Y  Y10  1  0.790715  0.414641  0.122606  1
  Y  Y11  1  0.790715  0.585359  0.622606  1
  Y  Y12  1  0.913491  0.707094  0.126547  1
  Y  Y13  1  0.913491  0.292906  0.626547  1
  Y  Y14  1  0.091619  0.706674  0.622446  1
  Y  Y15  1  0.091619  0.293326  0.122446  1
  Y  Y16  1  0.002971  0.999524  0.499958  1
  Y  Y17  1  0.002971  0.000476  0.999958  1
  Ho  Ho18  1  0.499804  0.499585  0.999892  1
  Ho  Ho19  1  0.499804  0.500415  0.499892  1
  Ir  Ir20  1  0.153077  0.153934  0.749995  1
  Ir  Ir21  1  0.153077  0.846066  0.249995  1
  Ir  Ir22  1  0.653960  0.346910  0.749470  1
  Ir  Ir23  1  0.653960  0.653090  0.249470  1
  Ir  Ir24  1  0.347674  0.347249  0.250366  1
  Ir  Ir25  1  0.347674  0.652751  0.750366  1
  Ir  Ir26  1  0.500602  0.999837  0.124186  1
  Ir  Ir27  1  0.500602  0.000163  0.624186  1
  Ir  Ir28  1  0.999605  0.500217  0.876099  1
  Ir  Ir29  1  0.999605  0.499783  0.376099  1
  Pt  Pt30  1  0.845408  0.153442  0.249846  1
  Pt  Pt31  1  0.845408  0.846558  0.749846  1
