# generated using pymatgen
data_Ho3Th5(ZnRh)8
_symmetry_space_group_name_H-M   'P 1'
_cell_length_a   3.89567000
_cell_length_b   7.47670593
_cell_length_c   16.47386667
_cell_angle_alpha   90.35840732
_cell_angle_beta   90.00000000
_cell_angle_gamma   90.00000000
_symmetry_Int_Tables_number   1
_chemical_formula_structural   Ho3Th5(ZnRh)8
_chemical_formula_sum   'Ho3 Th5 Zn8 Rh8'
_cell_volume   479.82128550
_cell_formula_units_Z   1
loop_
 _symmetry_equiv_pos_site_id
 _symmetry_equiv_pos_as_xyz
  1  'x, y, z'
loop_
 _atom_site_type_symbol
 _atom_site_label
 _atom_site_symmetry_multiplicity
 _atom_site_fract_x
 _atom_site_fract_y
 _atom_site_fract_z
 _atom_site_occupancy
  Ho  Ho0  1  0.750000  0.444404  0.213406  1
  Ho  Ho1  1  0.250000  0.053376  0.713296  1
  Ho  Ho2  1  0.250000  0.553952  0.786205  1
  Th  Th3  1  0.250000  0.174940  0.936226  1
  Th  Th4  1  0.250000  0.672923  0.563794  1
  Th  Th5  1  0.750000  0.326079  0.438897  1
  Th  Th6  1  0.750000  0.945036  0.284159  1
  Th  Th7  1  0.750000  0.829115  0.060137  1
  Zn  Zn8  1  0.750000  0.008516  0.563986  1
  Zn  Zn9  1  0.250000  0.611020  0.342263  1
  Zn  Zn10  1  0.750000  0.380697  0.659373  1
  Zn  Zn11  1  0.250000  0.494391  0.064103  1
  Zn  Zn12  1  0.750000  0.508691  0.935857  1
  Zn  Zn13  1  0.250000  0.992145  0.442183  1
  Zn  Zn14  1  0.250000  0.127383  0.153603  1
  Zn  Zn15  1  0.750000  0.880353  0.840793  1
  Rh  Rh16  1  0.750000  0.741619  0.438800  1
  Rh  Rh17  1  0.250000  0.234653  0.317287  1
  Rh  Rh18  1  0.750000  0.250411  0.816800  1
  Rh  Rh19  1  0.750000  0.752300  0.682766  1
  Rh  Rh20  1  0.250000  0.260590  0.562084  1
  Rh  Rh21  1  0.250000  0.754168  0.185703  1
  Rh  Rh22  1  0.750000  0.244555  0.059423  1
  Rh  Rh23  1  0.250000  0.758685  0.938858  1
