# generated using pymatgen
data_Yb5Tm3(Si4Mo3)4
_symmetry_space_group_name_H-M   'P 1'
_cell_length_a   6.70536240
_cell_length_b   6.92684412
_cell_length_c   12.96682512
_cell_angle_alpha   89.90824776
_cell_angle_beta   89.97646427
_cell_angle_gamma   89.93395982
_symmetry_Int_Tables_number   1
_chemical_formula_structural   Yb5Tm3(Si4Mo3)4
_chemical_formula_sum   'Yb5 Tm3 Si16 Mo12'
_cell_volume   602.26890459
_cell_formula_units_Z   1
loop_
 _symmetry_equiv_pos_site_id
 _symmetry_equiv_pos_as_xyz
  1  'x, y, z'
loop_
 _atom_site_type_symbol
 _atom_site_label
 _atom_site_symmetry_multiplicity
 _atom_site_fract_x
 _atom_site_fract_y
 _atom_site_fract_z
 _atom_site_occupancy
  Yb  Yb0  1  0.497895  0.334400  0.090487  1
  Yb  Yb1  1  0.997939  0.167626  0.408384  1
  Yb  Yb2  1  0.501562  0.668012  0.591751  1
  Yb  Yb3  1  0.001664  0.831595  0.908066  1
  Yb  Yb4  1  0.501476  0.667227  0.909313  1
  Tm  Tm5  1  0.000978  0.829337  0.593902  1
  Tm  Tm6  1  0.498945  0.329940  0.406234  1
  Tm  Tm7  1  0.998499  0.169805  0.093610  1
  Si  Si8  1  0.661049  0.041652  0.544685  1
  Si  Si9  1  0.159057  0.457132  0.955076  1
  Si  Si10  1  0.339178  0.958427  0.045924  1
  Si  Si11  1  0.838870  0.541716  0.454727  1
  Si  Si12  1  0.339407  0.958339  0.454721  1
  Si  Si13  1  0.841207  0.542211  0.045816  1
  Si  Si14  1  0.660141  0.041757  0.954871  1
  Si  Si15  1  0.160655  0.458517  0.544678  1
  Si  Si16  1  0.534073  0.371976  0.750142  1
  Si  Si17  1  0.034379  0.127084  0.749132  1
  Si  Si18  1  0.465776  0.630549  0.249883  1
  Si  Si19  1  0.966041  0.870940  0.250006  1
  Si  Si20  1  0.800587  0.630136  0.750435  1
  Si  Si21  1  0.302780  0.868999  0.750553  1
  Si  Si22  1  0.198078  0.369244  0.249984  1
  Si  Si23  1  0.697639  0.131498  0.249957  1
  Mo  Mo24  1  0.832357  0.332737  0.625578  1
  Mo  Mo25  1  0.332121  0.167915  0.873057  1
  Mo  Mo26  1  0.167379  0.666773  0.126497  1
  Mo  Mo27  1  0.668844  0.833389  0.374458  1
  Mo  Mo28  1  0.167628  0.667505  0.374077  1
  Mo  Mo29  1  0.668763  0.834347  0.126996  1
  Mo  Mo30  1  0.834920  0.330352  0.873008  1
  Mo  Mo31  1  0.332820  0.167835  0.625295  1
  Mo  Mo32  1  0.662862  0.006642  0.749121  1
  Mo  Mo33  1  0.161855  0.493185  0.748790  1
  Mo  Mo34  1  0.336230  0.996894  0.250591  1
  Mo  Mo35  1  0.836348  0.504313  0.250195  1
