# generated using pymatgen
data_Tb4Gd6B2Br15
_symmetry_space_group_name_H-M   'P 1'
_cell_length_a   9.25662597
_cell_length_b   9.95751999
_cell_length_c   10.76624000
_cell_angle_alpha   90.96544958
_cell_angle_beta   113.84013031
_cell_angle_gamma   111.36338907
_symmetry_Int_Tables_number   1
_chemical_formula_structural   Tb4Gd6B2Br15
_chemical_formula_sum   'Tb4 Gd6 B2 Br15'
_cell_volume   829.48630277
_cell_formula_units_Z   1
loop_
 _symmetry_equiv_pos_site_id
 _symmetry_equiv_pos_as_xyz
  1  'x, y, z'
loop_
 _atom_site_type_symbol
 _atom_site_label
 _atom_site_symmetry_multiplicity
 _atom_site_fract_x
 _atom_site_fract_y
 _atom_site_fract_z
 _atom_site_occupancy
  Tb  Tb0  1  0.585184  0.040732  0.321844  1
  Tb  Tb1  1  0.414816  0.959268  0.678156  1
  Tb  Tb2  1  0.716905  0.074700  0.045404  1
  Tb  Tb3  1  0.283095  0.925300  0.954596  1
  Gd  Gd4  1  0.800144  0.409459  0.274675  1
  Gd  Gd5  1  0.199856  0.590541  0.725325  1
  Gd  Gd6  1  0.673833  0.748548  0.819783  1
  Gd  Gd7  1  0.326167  0.251452  0.180217  1
  Gd  Gd8  1  0.525088  0.704912  0.094784  1
  Gd  Gd9  1  0.474912  0.295088  0.905216  1
  B  B10  1  0.465774  0.819319  0.875653  1
  B  B11  1  0.534226  0.180681  0.124347  1
  Br  Br12  1  0.000000  0.000000  0.000000  1
  Br  Br13  1  0.634685  0.886329  0.581591  1
  Br  Br14  1  0.365315  0.113671  0.418409  1
  Br  Br15  1  0.882644  0.298025  0.526516  1
  Br  Br16  1  0.117356  0.701975  0.473484  1
  Br  Br17  1  0.293389  0.763502  0.182649  1
  Br  Br18  1  0.706611  0.236498  0.817351  1
  Br  Br19  1  0.048915  0.338963  0.219727  1
  Br  Br20  1  0.168408  0.054279  0.705643  1
  Br  Br21  1  0.831592  0.945721  0.294357  1
  Br  Br22  1  0.232524  0.408695  0.944681  1
  Br  Br23  1  0.767476  0.591305  0.055319  1
  Br  Br24  1  0.408807  0.462798  0.661285  1
  Br  Br25  1  0.591193  0.537202  0.338715  1
  Br  Br26  1  0.951085  0.661037  0.780273  1
