# generated using pymatgen
data_Tm3Lu13(In3Rh)2
_symmetry_space_group_name_H-M   'P 1'
_cell_length_a   10.23510400
_cell_length_b   10.23510394
_cell_length_c   6.89610100
_cell_angle_alpha   90.00000000
_cell_angle_beta   90.00000000
_cell_angle_gamma   120.00000021
_symmetry_Int_Tables_number   1
_chemical_formula_structural   Tm3Lu13(In3Rh)2
_chemical_formula_sum   'Tm3 Lu13 In6 Rh2'
_cell_volume   625.63172256
_cell_formula_units_Z   1
loop_
 _symmetry_equiv_pos_site_id
 _symmetry_equiv_pos_as_xyz
  1  'x, y, z'
loop_
 _atom_site_type_symbol
 _atom_site_label
 _atom_site_symmetry_multiplicity
 _atom_site_fract_x
 _atom_site_fract_y
 _atom_site_fract_z
 _atom_site_occupancy
  Tm  Tm0  1  0.531819  0.063638  0.524469  1
  Tm  Tm1  1  0.936362  0.468181  0.524469  1
  Tm  Tm2  1  0.531819  0.468181  0.524469  1
  Lu  Lu3  1  0.467797  0.935595  0.024401  1
  Lu  Lu4  1  0.064405  0.532203  0.024401  1
  Lu  Lu5  1  0.467797  0.532203  0.024401  1
  Lu  Lu6  1  0.176904  0.353808  0.729714  1
  Lu  Lu7  1  0.646192  0.823096  0.729714  1
  Lu  Lu8  1  0.176904  0.823096  0.729714  1
  Lu  Lu9  1  0.823148  0.646296  0.228808  1
  Lu  Lu10  1  0.353704  0.176852  0.228808  1
  Lu  Lu11  1  0.823148  0.176852  0.228808  1
  Lu  Lu12  1  0.666667  0.333333  0.903728  1
  Lu  Lu13  1  0.333333  0.666667  0.403258  1
  Lu  Lu14  1  0.000000  0.000000  0.507343  1
  Lu  Lu15  1  0.000000  0.000000  0.007604  1
  In  In16  1  0.837409  0.674819  0.769654  1
  In  In17  1  0.325181  0.162591  0.769654  1
  In  In18  1  0.837409  0.162591  0.769654  1
  In  In19  1  0.162744  0.325489  0.269376  1
  In  In20  1  0.674511  0.837256  0.269376  1
  In  In21  1  0.162744  0.837256  0.269376  1
  Rh  Rh22  1  0.666667  0.333333  0.296917  1
  Rh  Rh23  1  0.333333  0.666667  0.797563  1
