# generated using pymatgen
data_La5Nd3(HgRu)2
_symmetry_space_group_name_H-M   'P 1'
_cell_length_a   9.99597723
_cell_length_b   9.99597692
_cell_length_c   9.99597800
_cell_angle_alpha   59.99999644
_cell_angle_beta   59.99999747
_cell_angle_gamma   60.00000302
_symmetry_Int_Tables_number   1
_chemical_formula_structural   La5Nd3(HgRu)2
_chemical_formula_sum   'La10 Nd6 Hg4 Ru4'
_cell_volume   706.25378274
_cell_formula_units_Z   2
loop_
 _symmetry_equiv_pos_site_id
 _symmetry_equiv_pos_as_xyz
  1  'x, y, z'
loop_
 _atom_site_type_symbol
 _atom_site_label
 _atom_site_symmetry_multiplicity
 _atom_site_fract_x
 _atom_site_fract_y
 _atom_site_fract_z
 _atom_site_occupancy
  La  La0  1  0.347636  0.347636  0.347636  1
  La  La1  1  0.347636  0.347636  0.957092  1
  La  La2  1  0.347636  0.957092  0.347636  1
  La  La3  1  0.957092  0.347636  0.347636  1
  La  La4  1  0.809727  0.190273  0.190273  1
  La  La5  1  0.190273  0.809727  0.809727  1
  La  La6  1  0.190273  0.809727  0.190273  1
  La  La7  1  0.809727  0.190273  0.809727  1
  La  La8  1  0.190273  0.190273  0.809727  1
  La  La9  1  0.809727  0.809727  0.190273  1
  Nd  Nd10  1  0.936707  0.563293  0.563293  1
  Nd  Nd11  1  0.563293  0.936707  0.936707  1
  Nd  Nd12  1  0.563293  0.936707  0.563293  1
  Nd  Nd13  1  0.936707  0.563293  0.936707  1
  Nd  Nd14  1  0.563293  0.563293  0.936707  1
  Nd  Nd15  1  0.936707  0.936707  0.563293  1
  Hg  Hg16  1  0.582996  0.582996  0.582996  1
  Hg  Hg17  1  0.582996  0.582996  0.251011  1
  Hg  Hg18  1  0.582996  0.251011  0.582996  1
  Hg  Hg19  1  0.251011  0.582996  0.582996  1
  Ru  Ru20  1  0.136857  0.136857  0.136857  1
  Ru  Ru21  1  0.136857  0.136857  0.589428  1
  Ru  Ru22  1  0.136857  0.589428  0.136857  1
  Ru  Ru23  1  0.589428  0.136857  0.136857  1
