# generated using pymatgen
data_Sr4Ga5Pt9
_symmetry_space_group_name_H-M   'P 1'
_cell_length_a   12.89076221
_cell_length_b   12.89076275
_cell_length_c   12.89076349
_cell_angle_alpha   25.51218808
_cell_angle_beta   25.51218544
_cell_angle_gamma   25.51218256
_symmetry_Int_Tables_number   1
_chemical_formula_structural   Sr4Ga5Pt9
_chemical_formula_sum   'Sr4 Ga5 Pt9'
_cell_volume   349.81140535
_cell_formula_units_Z   1
loop_
 _symmetry_equiv_pos_site_id
 _symmetry_equiv_pos_as_xyz
  1  'x, y, z'
loop_
 _atom_site_type_symbol
 _atom_site_label
 _atom_site_symmetry_multiplicity
 _atom_site_fract_x
 _atom_site_fract_y
 _atom_site_fract_z
 _atom_site_occupancy
  Sr  Sr0  1  0.949394  0.949394  0.949394  1
  Sr  Sr1  1  0.050606  0.050606  0.050606  1
  Sr  Sr2  1  0.852627  0.852627  0.852627  1
  Sr  Sr3  1  0.147373  0.147373  0.147373  1
  Ga  Ga4  1  0.500000  0.500000  0.500000  1
  Ga  Ga5  1  0.721559  0.721559  0.721559  1
  Ga  Ga6  1  0.278441  0.278441  0.278441  1
  Ga  Ga7  1  0.611976  0.611976  0.611976  1
  Ga  Ga8  1  0.388024  0.388024  0.388024  1
  Pt  Pt9  1  0.500000  0.500000  0.000000  1
  Pt  Pt10  1  0.000000  0.500000  0.500000  1
  Pt  Pt11  1  0.500000  0.000000  0.500000  1
  Pt  Pt12  1  0.390323  0.892488  0.390323  1
  Pt  Pt13  1  0.390323  0.390323  0.892488  1
  Pt  Pt14  1  0.892488  0.390323  0.390323  1
  Pt  Pt15  1  0.609677  0.107512  0.609677  1
  Pt  Pt16  1  0.609677  0.609677  0.107512  1
  Pt  Pt17  1  0.107512  0.609677  0.609677  1
