# generated using pymatgen
data_HoTh2(MgAu)3
_symmetry_space_group_name_H-M   'P 1'
_cell_length_a   7.70010842
_cell_length_b   7.70010762
_cell_length_c   4.18173500
_cell_angle_alpha   90.00000000
_cell_angle_beta   90.00000000
_cell_angle_gamma   120.06807375
_symmetry_Int_Tables_number   1
_chemical_formula_structural   HoTh2(MgAu)3
_chemical_formula_sum   'Ho1 Th2 Mg3 Au3'
_cell_volume   214.57664919
_cell_formula_units_Z   1
loop_
 _symmetry_equiv_pos_site_id
 _symmetry_equiv_pos_as_xyz
  1  'x, y, z'
loop_
 _atom_site_type_symbol
 _atom_site_label
 _atom_site_symmetry_multiplicity
 _atom_site_fract_x
 _atom_site_fract_y
 _atom_site_fract_z
 _atom_site_occupancy
  Ho  Ho0  1  0.411281  0.411281  0.000000  1
  Th  Th1  1  0.587057  0.999859  0.000000  1
  Th  Th2  1  0.999859  0.587057  0.000000  1
  Mg  Mg3  1  0.245102  0.006642  0.500000  1
  Mg  Mg4  1  0.006642  0.245102  0.500000  1
  Mg  Mg5  1  0.751155  0.751155  0.500000  1
  Au  Au6  1  0.334745  0.663249  0.500000  1
  Au  Au7  1  0.663249  0.334745  0.500000  1
  Au  Au8  1  0.000911  0.000911  0.000000  1
