# generated using pymatgen
data_CsLaMnS3
_symmetry_space_group_name_H-M   'P 1'
_cell_length_a   4.27089800
_cell_length_b   8.01765662
_cell_length_c   11.28455700
_cell_angle_alpha   90.00000000
_cell_angle_beta   90.00000000
_cell_angle_gamma   74.55322113
_symmetry_Int_Tables_number   1
_chemical_formula_structural   CsLaMnS3
_chemical_formula_sum   'Cs2 La2 Mn2 S6'
_cell_volume   372.45461196
_cell_formula_units_Z   2
loop_
 _symmetry_equiv_pos_site_id
 _symmetry_equiv_pos_as_xyz
  1  'x, y, z'
loop_
 _atom_site_type_symbol
 _atom_site_label
 _atom_site_symmetry_multiplicity
 _atom_site_fract_x
 _atom_site_fract_y
 _atom_site_fract_z
 _atom_site_occupancy
  Cs  Cs0  1  0.739966  0.520068  0.250000  1
  Cs  Cs1  1  0.260033  0.479933  0.750000  1
  La  La2  1  0.000000  0.000000  0.000000  1
  La  La3  1  0.000000  0.000000  0.500000  1
  Mn  Mn4  1  0.461235  0.077527  0.250000  1
  Mn  Mn5  1  0.538765  0.922472  0.750000  1
  S  S6  1  0.383934  0.232131  0.070825  1
  S  S7  1  0.047108  0.905783  0.250000  1
  S  S8  1  0.383934  0.232131  0.429175  1
  S  S9  1  0.616066  0.767868  0.570826  1
  S  S10  1  0.952891  0.094218  0.750000  1
  S  S11  1  0.616066  0.767868  0.929175  1
