# generated using pymatgen
data_Rb8BeHg3H16
_symmetry_space_group_name_H-M   'P 1'
_cell_length_a   6.13271500
_cell_length_b   8.43548085
_cell_length_c   10.88921177
_cell_angle_alpha   90.15048152
_cell_angle_beta   90.00000000
_cell_angle_gamma   90.00000000
_symmetry_Int_Tables_number   1
_chemical_formula_structural   Rb8BeHg3H16
_chemical_formula_sum   'Rb8 Be1 Hg3 H16'
_cell_volume   563.32311496
_cell_formula_units_Z   1
loop_
 _symmetry_equiv_pos_site_id
 _symmetry_equiv_pos_as_xyz
  1  'x, y, z'
loop_
 _atom_site_type_symbol
 _atom_site_label
 _atom_site_symmetry_multiplicity
 _atom_site_fract_x
 _atom_site_fract_y
 _atom_site_fract_z
 _atom_site_occupancy
  Rb  Rb0  1  0.250000  0.668743  0.079525  1
  Rb  Rb1  1  0.250000  0.161422  0.411585  1
  Rb  Rb2  1  0.750000  0.367482  0.910368  1
  Rb  Rb3  1  0.750000  0.832776  0.609503  1
  Rb  Rb4  1  0.250000  0.980967  0.817299  1
  Rb  Rb5  1  0.250000  0.488887  0.689171  1
  Rb  Rb6  1  0.750000  0.005471  0.173026  1
  Rb  Rb7  1  0.750000  0.515318  0.314614  1
  Be  Be8  1  0.750000  0.755764  0.916695  1
  Hg  Hg9  1  0.250000  0.737520  0.415028  1
  Hg  Hg10  1  0.250000  0.241659  0.082440  1
  Hg  Hg11  1  0.750000  0.260283  0.585151  1
  H  H12  1  0.007355  0.817495  0.343194  1
  H  H13  1  0.494861  0.318027  0.153849  1
  H  H14  1  0.507103  0.183325  0.659431  1
  H  H15  1  0.946237  0.691422  0.855450  1
  H  H16  1  0.992897  0.183325  0.659431  1
  H  H17  1  0.553763  0.691422  0.855450  1
  H  H18  1  0.492645  0.817495  0.343194  1
  H  H19  1  0.005139  0.318027  0.153849  1
  H  H20  1  0.250000  0.523027  0.410821  1
  H  H21  1  0.250000  0.026590  0.088908  1
  H  H22  1  0.750000  0.475621  0.594349  1
  H  H23  1  0.750000  0.927899  0.908520  1
  H  H24  1  0.250000  0.310418  0.922431  1
  H  H25  1  0.250000  0.806361  0.576377  1
  H  H26  1  0.750000  0.699390  0.045147  1
  H  H27  1  0.750000  0.193866  0.425196  1
