# generated using pymatgen
data_AcDy(CuP)3
_symmetry_space_group_name_H-M   'P 1'
_cell_length_a   4.08692500
_cell_length_b   11.08391000
_cell_length_c   12.85738100
_cell_angle_alpha   90.00000000
_cell_angle_beta   90.00000000
_cell_angle_gamma   90.00000000
_symmetry_Int_Tables_number   1
_chemical_formula_structural   AcDy(CuP)3
_chemical_formula_sum   'Ac4 Dy4 Cu12 P12'
_cell_volume   582.42790179
_cell_formula_units_Z   4
loop_
 _symmetry_equiv_pos_site_id
 _symmetry_equiv_pos_as_xyz
  1  'x, y, z'
loop_
 _atom_site_type_symbol
 _atom_site_label
 _atom_site_symmetry_multiplicity
 _atom_site_fract_x
 _atom_site_fract_y
 _atom_site_fract_z
 _atom_site_occupancy
  Ac  Ac0  1  0.250000  0.936797  0.799418  1
  Ac  Ac1  1  0.750000  0.436797  0.700582  1
  Ac  Ac2  1  0.250000  0.563203  0.299418  1
  Ac  Ac3  1  0.750000  0.063203  0.200582  1
  Dy  Dy4  1  0.250000  0.849154  0.498626  1
  Dy  Dy5  1  0.750000  0.349154  0.001374  1
  Dy  Dy6  1  0.250000  0.650846  0.998626  1
  Dy  Dy7  1  0.750000  0.150846  0.501374  1
  Cu  Cu8  1  0.250000  0.374151  0.509696  1
  Cu  Cu9  1  0.750000  0.874151  0.990304  1
  Cu  Cu10  1  0.250000  0.125849  0.009696  1
  Cu  Cu11  1  0.750000  0.625849  0.490304  1
  Cu  Cu12  1  0.250000  0.262706  0.333300  1
  Cu  Cu13  1  0.750000  0.762706  0.166700  1
  Cu  Cu14  1  0.250000  0.237294  0.833300  1
  Cu  Cu15  1  0.750000  0.737294  0.666700  1
  Cu  Cu16  1  0.250000  0.854155  0.272961  1
  Cu  Cu17  1  0.750000  0.354155  0.227039  1
  Cu  Cu18  1  0.250000  0.645845  0.772961  1
  Cu  Cu19  1  0.750000  0.145845  0.727039  1
  P  P20  1  0.250000  0.225239  0.647288  1
  P  P21  1  0.750000  0.725239  0.852712  1
  P  P22  1  0.250000  0.274761  0.147288  1
  P  P23  1  0.750000  0.774761  0.352712  1
  P  P24  1  0.250000  0.609951  0.587156  1
  P  P25  1  0.750000  0.109951  0.912844  1
  P  P26  1  0.250000  0.890049  0.087156  1
  P  P27  1  0.750000  0.390049  0.412844  1
  P  P28  1  0.250000  0.057583  0.375442  1
  P  P29  1  0.750000  0.557583  0.124558  1
  P  P30  1  0.250000  0.442417  0.875442  1
  P  P31  1  0.750000  0.942417  0.624558  1
