# generated using pymatgen
data_YbNp2(TlSe2)3
_symmetry_space_group_name_H-M   'P 1'
_cell_length_a   7.48270911
_cell_length_b   7.48270982
_cell_length_c   7.55369900
_cell_angle_alpha   80.25713366
_cell_angle_beta   80.25713274
_cell_angle_gamma   119.89347307
_symmetry_Int_Tables_number   1
_chemical_formula_structural   YbNp2(TlSe2)3
_chemical_formula_sum   'Yb1 Np2 Tl3 Se6'
_cell_volume   345.10025444
_cell_formula_units_Z   1
loop_
 _symmetry_equiv_pos_site_id
 _symmetry_equiv_pos_as_xyz
  1  'x, y, z'
loop_
 _atom_site_type_symbol
 _atom_site_label
 _atom_site_symmetry_multiplicity
 _atom_site_fract_x
 _atom_site_fract_y
 _atom_site_fract_z
 _atom_site_occupancy
  Yb  Yb0  1  0.000000  0.000000  0.000000  1
  Np  Np1  1  0.667235  0.332765  0.000000  1
  Np  Np2  1  0.332765  0.667235  0.000000  1
  Tl  Tl3  1  0.500000  0.500000  0.500000  1
  Tl  Tl4  1  0.837950  0.162050  0.500000  1
  Tl  Tl5  1  0.162050  0.837950  0.500000  1
  Se  Se6  1  0.272902  0.272902  0.205078  1
  Se  Se7  1  0.413568  0.071462  0.790599  1
  Se  Se8  1  0.071462  0.413568  0.790599  1
  Se  Se9  1  0.727098  0.727098  0.794922  1
  Se  Se10  1  0.586432  0.928538  0.209401  1
  Se  Se11  1  0.928538  0.586432  0.209401  1
