# generated using pymatgen
data_Rb2Np(SO5)2
_symmetry_space_group_name_H-M   'P 1'
_cell_length_a   8.93981700
_cell_length_b   10.78343325
_cell_length_c   11.75089100
_cell_angle_alpha   110.24968749
_cell_angle_beta   90.00000000
_cell_angle_gamma   90.00000000
_symmetry_Int_Tables_number   1
_chemical_formula_structural   Rb2Np(SO5)2
_chemical_formula_sum   'Rb8 Np4 S8 O40'
_cell_volume   1062.79321379
_cell_formula_units_Z   4
loop_
 _symmetry_equiv_pos_site_id
 _symmetry_equiv_pos_as_xyz
  1  'x, y, z'
loop_
 _atom_site_type_symbol
 _atom_site_label
 _atom_site_symmetry_multiplicity
 _atom_site_fract_x
 _atom_site_fract_y
 _atom_site_fract_z
 _atom_site_occupancy
  Rb  Rb0  1  0.081632  0.471707  0.200055  1
  Rb  Rb1  1  0.581632  0.028293  0.299945  1
  Rb  Rb2  1  0.399531  0.716884  0.930856  1
  Rb  Rb3  1  0.899531  0.783116  0.569144  1
  Rb  Rb4  1  0.918368  0.528293  0.799945  1
  Rb  Rb5  1  0.600469  0.283116  0.069144  1
  Rb  Rb6  1  0.100469  0.216884  0.430856  1
  Rb  Rb7  1  0.418368  0.971707  0.700055  1
  Np  Np8  1  0.511797  0.639478  0.359674  1
  Np  Np9  1  0.988203  0.139478  0.859674  1
  Np  Np10  1  0.011797  0.860522  0.140326  1
  Np  Np11  1  0.488203  0.360522  0.640326  1
  S  S12  1  0.248808  0.586992  0.563264  1
  S  S13  1  0.811080  0.152635  0.633885  1
  S  S14  1  0.751192  0.413008  0.436736  1
  S  S15  1  0.251192  0.086992  0.063264  1
  S  S16  1  0.188920  0.847365  0.366115  1
  S  S17  1  0.311080  0.347365  0.866115  1
  S  S18  1  0.688920  0.652635  0.133885  1
  S  S19  1  0.748808  0.913008  0.936736  1
  O  O20  1  0.635303  0.931048  0.030694  1
  O  O21  1  0.135303  0.568952  0.469306  1
  O  O22  1  0.788909  0.772967  0.171985  1
  O  O23  1  0.802985  0.337996  0.313851  1
  O  O24  1  0.032718  0.798795  0.328519  1
  O  O25  1  0.701388  0.579882  0.004460  1
  O  O26  1  0.227793  0.929531  0.289794  1
  O  O27  1  0.565967  0.520365  0.721141  1
  O  O28  1  0.885745  0.842931  0.963791  1
  O  O29  1  0.589047  0.800363  0.441506  1
  O  O30  1  0.089047  0.699637  0.058494  1
  O  O31  1  0.201388  0.920118  0.495540  1
  O  O32  1  0.532718  0.701205  0.171481  1
  O  O33  1  0.298612  0.420118  0.995540  1
  O  O34  1  0.967282  0.201205  0.671481  1
  O  O35  1  0.798612  0.079882  0.504460  1
  O  O36  1  0.211091  0.227033  0.828015  1
  O  O37  1  0.410953  0.199637  0.558494  1
  O  O38  1  0.272207  0.429531  0.789794  1
  O  O39  1  0.197035  0.950005  0.056384  1
  O  O40  1  0.864697  0.431048  0.530694  1
  O  O41  1  0.697035  0.549995  0.443616  1
  O  O42  1  0.772207  0.070469  0.710206  1
  O  O43  1  0.727793  0.570469  0.210206  1
  O  O44  1  0.697015  0.837996  0.813851  1
  O  O45  1  0.065967  0.979635  0.778859  1
  O  O46  1  0.197015  0.662004  0.686149  1
  O  O47  1  0.614255  0.342931  0.463791  1
  O  O48  1  0.802965  0.049995  0.943616  1
  O  O49  1  0.434033  0.479635  0.278859  1
  O  O50  1  0.302985  0.162004  0.186149  1
  O  O51  1  0.288909  0.727033  0.328015  1
  O  O52  1  0.934033  0.020365  0.221141  1
  O  O53  1  0.114255  0.157069  0.036209  1
  O  O54  1  0.711091  0.272967  0.671985  1
  O  O55  1  0.364697  0.068953  0.969306  1
  O  O56  1  0.385745  0.657069  0.536209  1
  O  O57  1  0.467282  0.298795  0.828519  1
  O  O58  1  0.910953  0.300363  0.941506  1
  O  O59  1  0.302965  0.450005  0.556384  1
