# generated using pymatgen
data_LiCe8(Si4Os)3
_symmetry_space_group_name_H-M   'P 1'
_cell_length_a   8.27876614
_cell_length_b   8.28069241
_cell_length_c   8.15008514
_cell_angle_alpha   90.00867300
_cell_angle_beta   89.97919274
_cell_angle_gamma   119.98162355
_symmetry_Int_Tables_number   1
_chemical_formula_structural   LiCe8(Si4Os)3
_chemical_formula_sum   'Li1 Ce8 Si12 Os3'
_cell_volume   483.95547342
_cell_formula_units_Z   1
loop_
 _symmetry_equiv_pos_site_id
 _symmetry_equiv_pos_as_xyz
  1  'x, y, z'
loop_
 _atom_site_type_symbol
 _atom_site_label
 _atom_site_symmetry_multiplicity
 _atom_site_fract_x
 _atom_site_fract_y
 _atom_site_fract_z
 _atom_site_occupancy
  Li  Li0  1  0.333305  0.666651  0.012179  1
  Ce  Ce1  1  0.000004  0.999982  0.248212  1
  Ce  Ce2  1  0.999988  0.999981  0.750520  1
  Ce  Ce3  1  0.506360  0.493639  0.254205  1
  Ce  Ce4  1  0.506323  0.012688  0.254223  1
  Ce  Ce5  1  0.987317  0.493660  0.254247  1
  Ce  Ce6  1  0.503714  0.496272  0.746072  1
  Ce  Ce7  1  0.503709  0.007464  0.746003  1
  Ce  Ce8  1  0.992552  0.496292  0.746019  1
  Si  Si9  1  0.166330  0.833618  0.498575  1
  Si  Si10  1  0.166461  0.332819  0.498448  1
  Si  Si11  1  0.667160  0.833501  0.498422  1
  Si  Si12  1  0.835547  0.164515  0.500251  1
  Si  Si13  1  0.835418  0.670940  0.500177  1
  Si  Si14  1  0.329067  0.164620  0.500145  1
  Si  Si15  1  0.834498  0.165538  0.001698  1
  Si  Si16  1  0.834419  0.668893  0.001790  1
  Si  Si17  1  0.331117  0.165611  0.001815  1
  Si  Si18  1  0.164636  0.835276  0.998205  1
  Si  Si19  1  0.164766  0.329427  0.998370  1
  Si  Si20  1  0.670609  0.835206  0.998397  1
  Os  Os21  1  0.333302  0.666628  0.498203  1
  Os  Os22  1  0.666705  0.333398  0.502781  1
  Os  Os23  1  0.666695  0.333382  0.991041  1
