# generated using pymatgen
data_Sm3Er2Nb3(Co4P3)4
_symmetry_space_group_name_H-M   'P 1'
_cell_length_a   12.21792019
_cell_length_b   12.21792120
_cell_length_c   3.70893200
_cell_angle_alpha   90.00000000
_cell_angle_beta   90.00000000
_cell_angle_gamma   120.02033805
_symmetry_Int_Tables_number   1
_chemical_formula_structural   Sm3Er2Nb3(Co4P3)4
_chemical_formula_sum   'Sm3 Er2 Nb3 Co16 P12'
_cell_volume   479.38568987
_cell_formula_units_Z   1
loop_
 _symmetry_equiv_pos_site_id
 _symmetry_equiv_pos_as_xyz
  1  'x, y, z'
loop_
 _atom_site_type_symbol
 _atom_site_label
 _atom_site_symmetry_multiplicity
 _atom_site_fract_x
 _atom_site_fract_y
 _atom_site_fract_z
 _atom_site_occupancy
  Sm  Sm0  1  0.183048  0.183048  0.500000  1
  Sm  Sm1  1  0.333597  0.666483  0.000000  1
  Sm  Sm2  1  0.666483  0.333597  0.000000  1
  Er  Er3  1  0.815663  0.999743  0.500000  1
  Er  Er4  1  0.999743  0.815663  0.500000  1
  Nb  Nb5  1  0.443945  0.999467  0.000000  1
  Nb  Nb6  1  0.999467  0.443945  0.000000  1
  Nb  Nb7  1  0.557549  0.557549  0.000000  1
  Co  Co8  1  0.277711  0.998059  0.500000  1
  Co  Co9  1  0.998059  0.277711  0.500000  1
  Co  Co10  1  0.723014  0.723014  0.500000  1
  Co  Co11  1  0.628626  0.805107  0.000000  1
  Co  Co12  1  0.195362  0.822521  0.000000  1
  Co  Co13  1  0.175789  0.373398  0.000000  1
  Co  Co14  1  0.373398  0.175789  0.000000  1
  Co  Co15  1  0.805107  0.628626  0.000000  1
  Co  Co16  1  0.822521  0.195362  0.000000  1
  Co  Co17  1  0.521818  0.874974  0.500000  1
  Co  Co18  1  0.125380  0.646358  0.500000  1
  Co  Co19  1  0.354217  0.479860  0.500000  1
  Co  Co20  1  0.479860  0.354217  0.500000  1
  Co  Co21  1  0.874974  0.521818  0.500000  1
  Co  Co22  1  0.646358  0.125380  0.500000  1
  Co  Co23  1  0.998756  0.998756  0.000000  1
  P  P24  1  0.176803  0.997053  0.000000  1
  P  P25  1  0.997053  0.176803  0.000000  1
  P  P26  1  0.822780  0.822780  0.000000  1
  P  P27  1  0.523899  0.690365  0.500000  1
  P  P28  1  0.310692  0.832850  0.500000  1
  P  P29  1  0.166152  0.476436  0.500000  1
  P  P30  1  0.476436  0.166152  0.500000  1
  P  P31  1  0.690365  0.523899  0.500000  1
  P  P32  1  0.832850  0.310692  0.500000  1
  P  P33  1  0.644028  0.000058  0.000000  1
  P  P34  1  0.000058  0.644028  0.000000  1
  P  P35  1  0.358436  0.358436  0.000000  1
