# generated using pymatgen
data_YHo3(ScRh)4
_symmetry_space_group_name_H-M   'P 1'
_cell_length_a   4.22733000
_cell_length_b   7.20720586
_cell_length_c   8.70673817
_cell_angle_alpha   90.14658394
_cell_angle_beta   90.00000000
_cell_angle_gamma   90.00000000
_symmetry_Int_Tables_number   1
_chemical_formula_structural   YHo3(ScRh)4
_chemical_formula_sum   'Y1 Ho3 Sc4 Rh4'
_cell_volume   265.26939190
_cell_formula_units_Z   1
loop_
 _symmetry_equiv_pos_site_id
 _symmetry_equiv_pos_as_xyz
  1  'x, y, z'
loop_
 _atom_site_type_symbol
 _atom_site_label
 _atom_site_symmetry_multiplicity
 _atom_site_fract_x
 _atom_site_fract_y
 _atom_site_fract_z
 _atom_site_occupancy
  Y  Y0  1  0.750000  0.517724  0.825360  1
  Ho  Ho1  1  0.250000  0.981265  0.325427  1
  Ho  Ho2  1  0.250000  0.481560  0.173653  1
  Ho  Ho3  1  0.750000  0.018809  0.673652  1
  Sc  Sc4  1  0.250000  0.361178  0.566344  1
  Sc  Sc5  1  0.250000  0.860425  0.932821  1
  Sc  Sc6  1  0.750000  0.639700  0.431881  1
  Sc  Sc7  1  0.750000  0.138948  0.068266  1
  Rh  Rh8  1  0.250000  0.240729  0.901761  1
  Rh  Rh9  1  0.250000  0.745256  0.598159  1
  Rh  Rh10  1  0.750000  0.757619  0.101778  1
  Rh  Rh11  1  0.750000  0.256788  0.400899  1
