# generated using pymatgen
data_ZrU2(GaRu)3
_symmetry_space_group_name_H-M   'P 1'
_cell_length_a   6.85316413
_cell_length_b   7.02686724
_cell_length_c   3.85842300
_cell_angle_alpha   90.00000000
_cell_angle_beta   90.00000000
_cell_angle_gamma   119.16827534
_symmetry_Int_Tables_number   1
_chemical_formula_structural   ZrU2(GaRu)3
_chemical_formula_sum   'Zr1 U2 Ga3 Ru3'
_cell_volume   162.24544105
_cell_formula_units_Z   1
loop_
 _symmetry_equiv_pos_site_id
 _symmetry_equiv_pos_as_xyz
  1  'x, y, z'
loop_
 _atom_site_type_symbol
 _atom_site_label
 _atom_site_symmetry_multiplicity
 _atom_site_fract_x
 _atom_site_fract_y
 _atom_site_fract_z
 _atom_site_occupancy
  Zr  Zr0  1  0.410604  0.999725  0.500000  1
  U  U1  1  0.999025  0.411154  0.500000  1
  U  U2  1  0.587733  0.588620  0.500000  1
  Ga  Ga3  1  0.723979  0.999892  0.000000  1
  Ga  Ga4  1  0.027848  0.775937  0.000000  1
  Ga  Ga5  1  0.252079  0.224104  0.000000  1
  Ru  Ru6  1  0.329130  0.629236  0.000000  1
  Ru  Ru7  1  0.699768  0.370942  0.000000  1
  Ru  Ru8  1  0.969835  0.000390  0.500000  1
