# generated using pymatgen
data_Pr3NdEr12(CdIr)4
_symmetry_space_group_name_H-M   'P 1'
_cell_length_a   9.65656419
_cell_length_b   9.65229010
_cell_length_c   9.64896141
_cell_angle_alpha   60.04070655
_cell_angle_beta   59.95025515
_cell_angle_gamma   59.96255320
_symmetry_Int_Tables_number   1
_chemical_formula_structural   Pr3NdEr12(CdIr)4
_chemical_formula_sum   'Pr3 Nd1 Er12 Cd4 Ir4'
_cell_volume   635.71918483
_cell_formula_units_Z   1
loop_
 _symmetry_equiv_pos_site_id
 _symmetry_equiv_pos_as_xyz
  1  'x, y, z'
loop_
 _atom_site_type_symbol
 _atom_site_label
 _atom_site_symmetry_multiplicity
 _atom_site_fract_x
 _atom_site_fract_y
 _atom_site_fract_z
 _atom_site_occupancy
  Pr  Pr0  1  0.937485  0.562515  0.937485  1
  Pr  Pr1  1  0.562630  0.563052  0.937306  1
  Pr  Pr2  1  0.937306  0.937012  0.562630  1
  Nd  Nd3  1  0.562428  0.937572  0.562428  1
  Er  Er4  1  0.350067  0.345309  0.346851  1
  Er  Er5  1  0.347523  0.350116  0.956405  1
  Er  Er6  1  0.346851  0.957774  0.350067  1
  Er  Er7  1  0.956405  0.345957  0.347523  1
  Er  Er8  1  0.813327  0.186121  0.185654  1
  Er  Er9  1  0.185654  0.814898  0.813327  1
  Er  Er10  1  0.188551  0.811449  0.188551  1
  Er  Er11  1  0.811680  0.188320  0.811680  1
  Er  Er12  1  0.188161  0.188835  0.810988  1
  Er  Er13  1  0.810988  0.812016  0.188161  1
  Er  Er14  1  0.946344  0.553850  0.552696  1
  Er  Er15  1  0.552696  0.947109  0.946344  1
  Cd  Cd16  1  0.582200  0.578678  0.578156  1
  Cd  Cd17  1  0.578364  0.582105  0.261140  1
  Cd  Cd18  1  0.578156  0.260966  0.582200  1
  Cd  Cd19  1  0.261140  0.578390  0.578364  1
  Ir  Ir20  1  0.147140  0.138169  0.139011  1
  Ir  Ir21  1  0.139954  0.145661  0.575938  1
  Ir  Ir22  1  0.139011  0.575679  0.147140  1
  Ir  Ir23  1  0.575938  0.138446  0.139954  1
