# generated using pymatgen
data_Lu2MnRe3
_symmetry_space_group_name_H-M   'P 1'
_cell_length_a   5.28617700
_cell_length_b   5.28617768
_cell_length_c   8.81701900
_cell_angle_alpha   90.00000000
_cell_angle_beta   90.00000000
_cell_angle_gamma   119.98168075
_symmetry_Int_Tables_number   1
_chemical_formula_structural   Lu2MnRe3
_chemical_formula_sum   'Lu4 Mn2 Re6'
_cell_volume   213.41060910
_cell_formula_units_Z   2
loop_
 _symmetry_equiv_pos_site_id
 _symmetry_equiv_pos_as_xyz
  1  'x, y, z'
loop_
 _atom_site_type_symbol
 _atom_site_label
 _atom_site_symmetry_multiplicity
 _atom_site_fract_x
 _atom_site_fract_y
 _atom_site_fract_z
 _atom_site_occupancy
  Lu  Lu0  1  0.666515  0.333485  0.063405  1
  Lu  Lu1  1  0.333485  0.666515  0.936595  1
  Lu  Lu2  1  0.333485  0.666515  0.563405  1
  Lu  Lu3  1  0.666515  0.333485  0.436595  1
  Mn  Mn4  1  0.000000  0.000000  0.000000  1
  Mn  Mn5  1  0.000000  0.000000  0.500000  1
  Re  Re6  1  0.168005  0.337335  0.250000  1
  Re  Re7  1  0.168025  0.831975  0.250000  1
  Re  Re8  1  0.662665  0.831995  0.250000  1
  Re  Re9  1  0.831995  0.662665  0.750000  1
  Re  Re10  1  0.831975  0.168025  0.750000  1
  Re  Re11  1  0.337335  0.168005  0.750000  1
