# generated using pymatgen
data_Tb4Lu6Si5Sn
_symmetry_space_group_name_H-M   'P 1'
_cell_length_a   8.41722976
_cell_length_b   8.47192688
_cell_length_c   6.27961500
_cell_angle_alpha   90.00000000
_cell_angle_beta   90.00000000
_cell_angle_gamma   120.04642448
_symmetry_Int_Tables_number   1
_chemical_formula_structural   Tb4Lu6Si5Sn
_chemical_formula_sum   'Tb4 Lu6 Si5 Sn1'
_cell_volume   387.62490779
_cell_formula_units_Z   1
loop_
 _symmetry_equiv_pos_site_id
 _symmetry_equiv_pos_as_xyz
  1  'x, y, z'
loop_
 _atom_site_type_symbol
 _atom_site_label
 _atom_site_symmetry_multiplicity
 _atom_site_fract_x
 _atom_site_fract_y
 _atom_site_fract_z
 _atom_site_occupancy
  Tb  Tb0  1  0.756623  0.757760  0.250000  1
  Tb  Tb1  1  0.766624  0.000603  0.750000  1
  Tb  Tb2  1  0.240067  0.250806  0.750000  1
  Tb  Tb3  1  0.240035  0.999495  0.250000  1
  Lu  Lu4  1  0.989206  0.745677  0.750000  1
  Lu  Lu5  1  0.998704  0.245673  0.250000  1
  Lu  Lu6  1  0.330613  0.656996  0.497250  1
  Lu  Lu7  1  0.674293  0.342733  0.002647  1
  Lu  Lu8  1  0.674293  0.342733  0.497353  1
  Lu  Lu9  1  0.330613  0.656996  0.002750  1
  Si  Si10  1  0.393050  0.393425  0.250000  1
  Si  Si11  1  0.001471  0.603103  0.250000  1
  Si  Si12  1  0.998413  0.398927  0.750000  1
  Si  Si13  1  0.605110  0.604957  0.750000  1
  Si  Si14  1  0.606207  0.001877  0.250000  1
  Sn  Sn15  1  0.394677  0.998239  0.750000  1
