# generated using pymatgen
data_DyY2Ho5(ReB6)4
_symmetry_space_group_name_H-M   'P 1'
_cell_length_a   3.67872500
_cell_length_b   9.17071101
_cell_length_c   11.55559800
_cell_angle_alpha   89.99686837
_cell_angle_beta   90.00000000
_cell_angle_gamma   90.00000000
_symmetry_Int_Tables_number   1
_chemical_formula_structural   DyY2Ho5(ReB6)4
_chemical_formula_sum   'Dy1 Y2 Ho5 Re4 B24'
_cell_volume   389.84570696
_cell_formula_units_Z   1
loop_
 _symmetry_equiv_pos_site_id
 _symmetry_equiv_pos_as_xyz
  1  'x, y, z'
loop_
 _atom_site_type_symbol
 _atom_site_label
 _atom_site_symmetry_multiplicity
 _atom_site_fract_x
 _atom_site_fract_y
 _atom_site_fract_z
 _atom_site_occupancy
  Dy  Dy0  1  0.000000  0.823585  0.086084  1
  Y  Y1  1  0.000000  0.323422  0.413907  1
  Y  Y2  1  0.000000  0.676552  0.586114  1
  Ho  Ho3  1  0.000000  0.176321  0.913914  1
  Ho  Ho4  1  0.000000  0.943239  0.369993  1
  Ho  Ho5  1  0.000000  0.056826  0.630008  1
  Ho  Ho6  1  0.000000  0.443143  0.129823  1
  Ho  Ho7  1  0.000000  0.556785  0.870139  1
  Re  Re8  1  0.000000  0.638948  0.320553  1
  Re  Re9  1  0.000000  0.360936  0.679605  1
  Re  Re10  1  0.000000  0.138754  0.178992  1
  Re  Re11  1  0.000000  0.861401  0.820891  1
  B  B12  1  0.500000  0.553467  0.432757  1
  B  B13  1  0.500000  0.446464  0.567304  1
  B  B14  1  0.500000  0.053492  0.066956  1
  B  B15  1  0.500000  0.946780  0.932874  1
  B  B16  1  0.500000  0.749443  0.418420  1
  B  B17  1  0.500000  0.250564  0.581663  1
  B  B18  1  0.500000  0.249303  0.081143  1
  B  B19  1  0.500000  0.750746  0.918574  1
  B  B20  1  0.500000  0.792270  0.265527  1
  B  B21  1  0.500000  0.207622  0.734647  1
  B  B22  1  0.500000  0.292190  0.234179  1
  B  B23  1  0.500000  0.707818  0.765759  1
  B  B24  1  0.500000  0.630933  0.185544  1
  B  B25  1  0.500000  0.368882  0.814603  1
  B  B26  1  0.500000  0.130813  0.314249  1
  B  B27  1  0.500000  0.869288  0.685758  1
  B  B28  1  0.500000  0.982478  0.211944  1
  B  B29  1  0.500000  0.017827  0.788112  1
  B  B30  1  0.500000  0.482516  0.287802  1
  B  B31  1  0.500000  0.517412  0.712228  1
  B  B32  1  0.500000  0.599819  0.027914  1
  B  B33  1  0.500000  0.399905  0.971998  1
  B  B34  1  0.500000  0.099705  0.472125  1
  B  B35  1  0.500000  0.900349  0.527896  1
