# generated using pymatgen
data_Ba6TbY(BO3)6
_symmetry_space_group_name_H-M   'P 1'
_cell_length_a   8.23959754
_cell_length_b   8.23959791
_cell_length_c   8.23959720
_cell_angle_alpha   105.57767014
_cell_angle_beta   105.57767147
_cell_angle_gamma   105.57768338
_symmetry_Int_Tables_number   1
_chemical_formula_structural   Ba6TbY(BO3)6
_chemical_formula_sum   'Ba6 Tb1 Y1 B6 O18'
_cell_volume   482.80576999
_cell_formula_units_Z   1
loop_
 _symmetry_equiv_pos_site_id
 _symmetry_equiv_pos_as_xyz
  1  'x, y, z'
loop_
 _atom_site_type_symbol
 _atom_site_label
 _atom_site_symmetry_multiplicity
 _atom_site_fract_x
 _atom_site_fract_y
 _atom_site_fract_z
 _atom_site_occupancy
  Ba  Ba0  1  0.350113  0.734762  0.842707  1
  Ba  Ba1  1  0.842707  0.350113  0.734762  1
  Ba  Ba2  1  0.734762  0.842707  0.350113  1
  Ba  Ba3  1  0.649887  0.265238  0.157293  1
  Ba  Ba4  1  0.157293  0.649887  0.265238  1
  Ba  Ba5  1  0.265238  0.157293  0.649887  1
  Tb  Tb6  1  0.500000  0.500000  0.500000  1
  Y  Y7  1  0.000000  0.000000  0.000000  1
  B  B8  1  0.377195  0.043296  0.289472  1
  B  B9  1  0.289472  0.377195  0.043296  1
  B  B10  1  0.043296  0.289472  0.377195  1
  B  B11  1  0.710528  0.622805  0.956704  1
  B  B12  1  0.956704  0.710528  0.622805  1
  B  B13  1  0.622805  0.956704  0.710528  1
  O  O14  1  0.428107  0.489978  0.210902  1
  O  O15  1  0.210902  0.428107  0.489978  1
  O  O16  1  0.808918  0.016558  0.745330  1
  O  O17  1  0.016558  0.745330  0.808918  1
  O  O18  1  0.745330  0.808918  0.016558  1
  O  O19  1  0.254670  0.191082  0.983442  1
  O  O20  1  0.191082  0.983442  0.254670  1
  O  O21  1  0.983442  0.254670  0.191082  1
  O  O22  1  0.549016  0.061777  0.805600  1
  O  O23  1  0.061777  0.805600  0.549016  1
  O  O24  1  0.805600  0.549016  0.061777  1
  O  O25  1  0.450984  0.938223  0.194400  1
  O  O26  1  0.938223  0.194400  0.450984  1
  O  O27  1  0.194400  0.450984  0.938223  1
  O  O28  1  0.510022  0.789098  0.571893  1
  O  O29  1  0.789098  0.571893  0.510022  1
  O  O30  1  0.571893  0.510022  0.789098  1
  O  O31  1  0.489978  0.210902  0.428107  1
