# generated using pymatgen
data_K3Ga3P4
_symmetry_space_group_name_H-M   'P 1'
_cell_length_a   6.48040800
_cell_length_b   14.82511600
_cell_length_c   10.43586300
_cell_angle_alpha   90.00000000
_cell_angle_beta   90.00000000
_cell_angle_gamma   90.00000000
_symmetry_Int_Tables_number   1
_chemical_formula_structural   K3Ga3P4
_chemical_formula_sum   'K12 Ga12 P16'
_cell_volume   1002.60258224
_cell_formula_units_Z   4
loop_
 _symmetry_equiv_pos_site_id
 _symmetry_equiv_pos_as_xyz
  1  'x, y, z'
loop_
 _atom_site_type_symbol
 _atom_site_label
 _atom_site_symmetry_multiplicity
 _atom_site_fract_x
 _atom_site_fract_y
 _atom_site_fract_z
 _atom_site_occupancy
  K  K0  1  0.750000  0.500001  0.080267  1
  K  K1  1  0.061925  0.092734  0.120109  1
  K  K2  1  0.438074  0.907266  0.120109  1
  K  K3  1  0.061925  0.407266  0.379891  1
  K  K4  1  0.438074  0.592734  0.379891  1
  K  K5  1  0.750000  0.000000  0.419733  1
  K  K6  1  0.250000  0.000000  0.580267  1
  K  K7  1  0.561925  0.407266  0.620109  1
  K  K8  1  0.938074  0.592734  0.620109  1
  K  K9  1  0.561925  0.092734  0.879892  1
  K  K10  1  0.938074  0.907266  0.879892  1
  K  K11  1  0.250000  0.500001  0.919733  1
  Ga  Ga12  1  0.400881  0.284240  0.110315  1
  Ga  Ga13  1  0.099119  0.715760  0.110315  1
  Ga  Ga14  1  0.809073  0.250000  0.249999  1
  Ga  Ga15  1  0.690928  0.750000  0.249999  1
  Ga  Ga16  1  0.400881  0.215760  0.389685  1
  Ga  Ga17  1  0.099119  0.784241  0.389685  1
  Ga  Ga18  1  0.900879  0.215760  0.610316  1
  Ga  Ga19  1  0.599121  0.784241  0.610316  1
  Ga  Ga20  1  0.309072  0.250000  0.750000  1
  Ga  Ga21  1  0.190927  0.750000  0.750000  1
  Ga  Ga22  1  0.900879  0.284240  0.889684  1
  Ga  Ga23  1  0.599121  0.715760  0.889684  1
  P  P24  1  0.039934  0.321261  0.094906  1
  P  P25  1  0.460064  0.678739  0.094906  1
  P  P26  1  0.540018  0.140362  0.194485  1
  P  P27  1  0.959982  0.859638  0.194485  1
  P  P28  1  0.540018  0.359638  0.305514  1
  P  P29  1  0.959982  0.640362  0.305514  1
  P  P30  1  0.039934  0.178739  0.405095  1
  P  P31  1  0.460064  0.821261  0.405095  1
  P  P32  1  0.539936  0.178739  0.594905  1
  P  P33  1  0.960064  0.821261  0.594905  1
  P  P34  1  0.040017  0.359638  0.694485  1
  P  P35  1  0.459983  0.640362  0.694485  1
  P  P36  1  0.040017  0.140362  0.805514  1
  P  P37  1  0.459983  0.859638  0.805514  1
  P  P38  1  0.539936  0.321261  0.905095  1
  P  P39  1  0.960064  0.678739  0.905095  1
