# generated using pymatgen
data_CeErBe25Ni
_symmetry_space_group_name_H-M   'P 1'
_cell_length_a   7.24401302
_cell_length_b   7.27493586
_cell_length_c   7.23576925
_cell_angle_alpha   59.94392706
_cell_angle_beta   59.89075798
_cell_angle_gamma   59.71624436
_symmetry_Int_Tables_number   1
_chemical_formula_structural   CeErBe25Ni
_chemical_formula_sum   'Ce1 Er1 Be25 Ni1'
_cell_volume   268.71784675
_cell_formula_units_Z   1
loop_
 _symmetry_equiv_pos_site_id
 _symmetry_equiv_pos_as_xyz
  1  'x, y, z'
loop_
 _atom_site_type_symbol
 _atom_site_label
 _atom_site_symmetry_multiplicity
 _atom_site_fract_x
 _atom_site_fract_y
 _atom_site_fract_z
 _atom_site_occupancy
  Ce  Ce0  1  0.997758  0.002807  0.000416  1
  Er  Er1  1  0.499654  0.502095  0.501200  1
  Be  Be2  1  0.954038  0.191087  0.544636  1
  Be  Be3  1  0.315673  0.539592  0.184911  1
  Be  Be4  1  0.185834  0.957201  0.314601  1
  Be  Be5  1  0.040733  0.685729  0.460374  1
  Be  Be6  1  0.458684  0.813059  0.041623  1
  Be  Be7  1  0.684784  0.037376  0.814395  1
  Be  Be8  1  0.816329  0.465034  0.683139  1
  Be  Be9  1  0.957864  0.543387  0.311188  1
  Be  Be10  1  0.540716  0.955164  0.190125  1
  Be  Be11  1  0.188878  0.312628  0.542464  1
  Be  Be12  1  0.311604  0.186936  0.958522  1
  Be  Be13  1  0.460792  0.036951  0.686519  1
  Be  Be14  1  0.038988  0.461785  0.813051  1
  Be  Be15  1  0.813532  0.684682  0.039380  1
  Be  Be16  1  0.686747  0.813602  0.461279  1
  Be  Be17  1  0.311221  0.958607  0.541714  1
  Be  Be18  1  0.186629  0.541713  0.957614  1
  Be  Be19  1  0.540944  0.186607  0.314292  1
  Be  Be20  1  0.957942  0.312670  0.189154  1
  Be  Be21  1  0.686442  0.461260  0.039783  1
  Be  Be22  1  0.813368  0.038984  0.460552  1
  Be  Be23  1  0.039671  0.813295  0.685958  1
  Be  Be24  1  0.461207  0.686074  0.812772  1
  Be  Be25  1  0.252009  0.250503  0.248168  1
  Be  Be26  1  0.749720  0.752084  0.749919  1
  Ni  Ni27  1  0.548238  0.309086  0.952251  1
