# generated using pymatgen
data_TmLu3(SiRh2)8
_symmetry_space_group_name_H-M   'P 1'
_cell_length_a   4.11076200
_cell_length_b   9.04588516
_cell_length_c   11.22840820
_cell_angle_alpha   90.02153198
_cell_angle_beta   90.00000000
_cell_angle_gamma   90.00000000
_symmetry_Int_Tables_number   1
_chemical_formula_structural   TmLu3(SiRh2)8
_chemical_formula_sum   'Tm1 Lu3 Si8 Rh16'
_cell_volume   417.53372990
_cell_formula_units_Z   1
loop_
 _symmetry_equiv_pos_site_id
 _symmetry_equiv_pos_as_xyz
  1  'x, y, z'
loop_
 _atom_site_type_symbol
 _atom_site_label
 _atom_site_symmetry_multiplicity
 _atom_site_fract_x
 _atom_site_fract_y
 _atom_site_fract_z
 _atom_site_occupancy
  Tm  Tm0  1  0.250000  0.146649  0.825366  1
  Lu  Lu1  1  0.250000  0.353397  0.325341  1
  Lu  Lu2  1  0.750000  0.853333  0.174708  1
  Lu  Lu3  1  0.750000  0.646647  0.674658  1
  Si  Si4  1  0.250000  0.412185  0.637570  1
  Si  Si5  1  0.250000  0.087920  0.137668  1
  Si  Si6  1  0.750000  0.587927  0.362341  1
  Si  Si7  1  0.750000  0.911792  0.862381  1
  Si  Si8  1  0.250000  0.617134  0.058711  1
  Si  Si9  1  0.250000  0.882847  0.558701  1
  Si  Si10  1  0.750000  0.382941  0.941362  1
  Si  Si11  1  0.750000  0.117117  0.441313  1
  Rh  Rh12  1  0.250000  0.615368  0.501513  1
  Rh  Rh13  1  0.250000  0.884454  0.001601  1
  Rh  Rh14  1  0.750000  0.384660  0.498386  1
  Rh  Rh15  1  0.750000  0.115138  0.999085  1
  Rh  Rh16  1  0.250000  0.687509  0.268006  1
  Rh  Rh17  1  0.250000  0.812205  0.767975  1
  Rh  Rh18  1  0.750000  0.313077  0.731593  1
  Rh  Rh19  1  0.750000  0.187595  0.232056  1
  Rh  Rh20  1  0.250000  0.172557  0.559553  1
  Rh  Rh21  1  0.250000  0.327606  0.059990  1
  Rh  Rh22  1  0.750000  0.827516  0.440122  1
  Rh  Rh23  1  0.750000  0.672439  0.940208  1
  Rh  Rh24  1  0.250000  0.007167  0.343527  1
  Rh  Rh25  1  0.250000  0.492965  0.843570  1
  Rh  Rh26  1  0.750000  0.992637  0.656256  1
  Rh  Rh27  1  0.750000  0.507218  0.156438  1
