# generated using pymatgen
data_Mg3TiP7N12
_symmetry_space_group_name_H-M   'P 1'
_cell_length_a   7.24613673
_cell_length_b   7.24613711
_cell_length_c   7.24613668
_cell_angle_alpha   109.52892474
_cell_angle_beta   109.52892204
_cell_angle_gamma   109.52890493
_symmetry_Int_Tables_number   1
_chemical_formula_structural   Mg3TiP7N12
_chemical_formula_sum   'Mg3 Ti1 P7 N12'
_cell_volume   292.25806206
_cell_formula_units_Z   1
loop_
 _symmetry_equiv_pos_site_id
 _symmetry_equiv_pos_as_xyz
  1  'x, y, z'
loop_
 _atom_site_type_symbol
 _atom_site_label
 _atom_site_symmetry_multiplicity
 _atom_site_fract_x
 _atom_site_fract_y
 _atom_site_fract_z
 _atom_site_occupancy
  Mg  Mg0  1  0.000979  0.661370  0.000979  1
  Mg  Mg1  1  0.661370  0.000979  0.000979  1
  Mg  Mg2  1  0.000979  0.000979  0.661370  1
  Ti  Ti3  1  0.343500  0.343500  0.343500  1
  P  P4  1  0.498799  0.249035  0.750509  1
  P  P5  1  0.498799  0.750509  0.249035  1
  P  P6  1  0.750509  0.249035  0.498799  1
  P  P7  1  0.249035  0.498799  0.750509  1
  P  P8  1  0.750509  0.498799  0.249035  1
  P  P9  1  0.249035  0.750509  0.498799  1
  P  P10  1  0.012157  0.012157  0.012157  1
  N  N11  1  0.999334  0.723087  0.437841  1
  N  N12  1  0.273283  0.706599  0.273283  1
  N  N13  1  0.286923  0.561857  0.561857  1
  N  N14  1  0.561857  0.561857  0.286923  1
  N  N15  1  0.561857  0.286923  0.561857  1
  N  N16  1  0.723087  0.999334  0.437841  1
  N  N17  1  0.437841  0.999334  0.723087  1
  N  N18  1  0.723087  0.437841  0.999334  1
  N  N19  1  0.273283  0.273283  0.706599  1
  N  N20  1  0.706599  0.273283  0.273283  1
  N  N21  1  0.999334  0.437841  0.723087  1
  N  N22  1  0.437841  0.723087  0.999334  1
