# generated using pymatgen
data_Sm2Ir2O7
_symmetry_space_group_name_H-M   'P 1'
_cell_length_a   7.33876618
_cell_length_b   7.33876675
_cell_length_c   7.33876600
_cell_angle_alpha   60.00000336
_cell_angle_beta   60.00000083
_cell_angle_gamma   59.99999788
_symmetry_Int_Tables_number   1
_chemical_formula_structural   Sm2Ir2O7
_chemical_formula_sum   'Sm4 Ir4 O14'
_cell_volume   279.48222022
_cell_formula_units_Z   2
loop_
 _symmetry_equiv_pos_site_id
 _symmetry_equiv_pos_as_xyz
  1  'x, y, z'
loop_
 _atom_site_type_symbol
 _atom_site_label
 _atom_site_symmetry_multiplicity
 _atom_site_fract_x
 _atom_site_fract_y
 _atom_site_fract_z
 _atom_site_occupancy
  Sm  Sm0  1  0.125000  0.125000  0.625000  1
  Sm  Sm1  1  0.125000  0.125000  0.125000  1
  Sm  Sm2  1  0.625000  0.125000  0.125000  1
  Sm  Sm3  1  0.125000  0.625000  0.125000  1
  Ir  Ir4  1  0.625000  0.625000  0.625000  1
  Ir  Ir5  1  0.125000  0.625000  0.625000  1
  Ir  Ir6  1  0.625000  0.125000  0.625000  1
  Ir  Ir7  1  0.625000  0.625000  0.125000  1
  O  O8  1  0.290543  0.290543  0.709457  1
  O  O9  1  0.290543  0.709457  0.290543  1
  O  O10  1  0.959457  0.540543  0.959457  1
  O  O11  1  0.709457  0.290543  0.290543  1
  O  O12  1  0.000000  0.000000  0.000000  1
  O  O13  1  0.540543  0.540543  0.959457  1
  O  O14  1  0.290543  0.709457  0.709457  1
  O  O15  1  0.540543  0.959457  0.540543  1
  O  O16  1  0.540543  0.959457  0.959457  1
  O  O17  1  0.709457  0.709457  0.290543  1
  O  O18  1  0.250000  0.250000  0.250000  1
  O  O19  1  0.959457  0.959457  0.540543  1
  O  O20  1  0.959457  0.540543  0.540543  1
  O  O21  1  0.709457  0.290543  0.709457  1
