# generated using pymatgen
data_Tb3Dy3(Si3Ru)8
_symmetry_space_group_name_H-M   'P 1'
_cell_length_a   10.13314911
_cell_length_b   10.13314887
_cell_length_c   8.14739456
_cell_angle_alpha   90.08300194
_cell_angle_beta   89.91699981
_cell_angle_gamma   132.61943146
_symmetry_Int_Tables_number   1
_chemical_formula_structural   Tb3Dy3(Si3Ru)8
_chemical_formula_sum   'Tb3 Dy3 Si24 Ru8'
_cell_volume   615.61143289
_cell_formula_units_Z   1
loop_
 _symmetry_equiv_pos_site_id
 _symmetry_equiv_pos_as_xyz
  1  'x, y, z'
loop_
 _atom_site_type_symbol
 _atom_site_label
 _atom_site_symmetry_multiplicity
 _atom_site_fract_x
 _atom_site_fract_y
 _atom_site_fract_z
 _atom_site_occupancy
  Tb  Tb0  1  0.502403  0.002403  0.750000  1
  Tb  Tb1  1  0.997675  0.497675  0.250000  1
  Tb  Tb2  1  0.497297  0.997297  0.250000  1
  Dy  Dy3  1  0.499993  0.499995  0.500021  1
  Dy  Dy4  1  0.999995  0.999993  0.999979  1
  Dy  Dy5  1  0.002392  0.502392  0.750000  1
  Si  Si6  1  0.793742  0.205372  0.500332  1
  Si  Si7  1  0.294580  0.706154  0.000019  1
  Si  Si8  1  0.206154  0.794580  0.499981  1
  Si  Si9  1  0.705372  0.293742  0.999668  1
  Si  Si10  1  0.332009  0.331838  0.833229  1
  Si  Si11  1  0.667974  0.668202  0.166873  1
  Si  Si12  1  0.168202  0.167974  0.333127  1
  Si  Si13  1  0.831838  0.832009  0.666771  1
  Si  Si14  1  0.122037  0.887809  0.727496  1
  Si  Si15  1  0.114085  0.879629  0.271558  1
  Si  Si16  1  0.611833  0.377349  0.227886  1
  Si  Si17  1  0.620665  0.386505  0.771849  1
  Si  Si18  1  0.877349  0.111833  0.272114  1
  Si  Si19  1  0.886505  0.120665  0.728151  1
  Si  Si20  1  0.387809  0.622037  0.772504  1
  Si  Si21  1  0.379629  0.614085  0.228442  1
  Si  Si22  1  0.345669  0.111679  0.504205  1
  Si  Si23  1  0.889345  0.656792  0.496455  1
  Si  Si24  1  0.388281  0.154286  0.004475  1
  Si  Si25  1  0.843404  0.610709  0.995765  1
  Si  Si26  1  0.654286  0.888281  0.495525  1
  Si  Si27  1  0.110709  0.343404  0.504235  1
  Si  Si28  1  0.611679  0.845669  0.995795  1
  Si  Si29  1  0.156792  0.389345  0.003545  1
  Ru  Ru30  1  0.671185  0.333764  0.499833  1
  Ru  Ru31  1  0.166229  0.828834  0.998880  1
  Ru  Ru32  1  0.328834  0.666229  0.501120  1
  Ru  Ru33  1  0.833764  0.171185  0.000167  1
  Ru  Ru34  1  0.125760  0.125431  0.627055  1
  Ru  Ru35  1  0.874487  0.874606  0.372753  1
  Ru  Ru36  1  0.374606  0.374487  0.127247  1
  Ru  Ru37  1  0.625431  0.625760  0.872945  1
