# generated using pymatgen
data_ZrSc3InPt11
_symmetry_space_group_name_H-M   'P 1'
_cell_length_a   4.06890800
_cell_length_b   5.75027186
_cell_length_c   11.40487105
_cell_angle_alpha   88.00736007
_cell_angle_beta   90.00000000
_cell_angle_gamma   90.00000000
_symmetry_Int_Tables_number   1
_chemical_formula_structural   ZrSc3InPt11
_chemical_formula_sum   'Zr1 Sc3 In1 Pt11'
_cell_volume   266.68213942
_cell_formula_units_Z   1
loop_
 _symmetry_equiv_pos_site_id
 _symmetry_equiv_pos_as_xyz
  1  'x, y, z'
loop_
 _atom_site_type_symbol
 _atom_site_label
 _atom_site_symmetry_multiplicity
 _atom_site_fract_x
 _atom_site_fract_y
 _atom_site_fract_z
 _atom_site_occupancy
  Zr  Zr0  1  0.500000  0.755321  0.376458  1
  Sc  Sc1  1  0.500000  0.718623  0.861397  1
  Sc  Sc2  1  0.500000  0.281441  0.136258  1
  Sc  Sc3  1  0.500000  0.244746  0.626554  1
  In  In4  1  0.000000  0.999008  0.999324  1
  Pt  Pt5  1  0.000000  0.015636  0.249530  1
  Pt  Pt6  1  0.000000  0.985615  0.750282  1
  Pt  Pt7  1  0.000000  0.499462  0.000085  1
  Pt  Pt8  1  0.000000  0.500124  0.499981  1
  Pt  Pt9  1  0.000000  0.512813  0.249692  1
  Pt  Pt10  1  0.000000  0.487041  0.750405  1
  Pt  Pt11  1  0.500000  0.254202  0.376571  1
  Pt  Pt12  1  0.500000  0.235257  0.879813  1
  Pt  Pt13  1  0.500000  0.765221  0.120596  1
  Pt  Pt14  1  0.500000  0.746302  0.623429  1
  Pt  Pt15  1  0.000000  0.999188  0.499627  1
