# generated using pymatgen
data_Tm12InGaTc3
_symmetry_space_group_name_H-M   'P 1'
_cell_length_a   8.30739208
_cell_length_b   8.30739177
_cell_length_c   8.30739083
_cell_angle_alpha   108.73923231
_cell_angle_beta   109.59656838
_cell_angle_gamma   110.08070335
_symmetry_Int_Tables_number   1
_chemical_formula_structural   Tm12InGaTc3
_chemical_formula_sum   'Tm12 In1 Ga1 Tc3'
_cell_volume   441.27690069
_cell_formula_units_Z   1
loop_
 _symmetry_equiv_pos_site_id
 _symmetry_equiv_pos_as_xyz
  1  'x, y, z'
loop_
 _atom_site_type_symbol
 _atom_site_label
 _atom_site_symmetry_multiplicity
 _atom_site_fract_x
 _atom_site_fract_y
 _atom_site_fract_z
 _atom_site_occupancy
  Tm  Tm0  1  0.188047  0.423004  0.234957  1
  Tm  Tm1  1  0.811953  0.576996  0.765043  1
  Tm  Tm2  1  0.188047  0.953091  0.765043  1
  Tm  Tm3  1  0.938195  0.189046  0.749148  1
  Tm  Tm4  1  0.811953  0.046909  0.234957  1
  Tm  Tm5  1  0.061805  0.810954  0.250852  1
  Tm  Tm6  1  0.439898  0.189046  0.250852  1
  Tm  Tm7  1  0.560102  0.810954  0.749148  1
  Tm  Tm8  1  0.307964  0.305159  0.613125  1
  Tm  Tm9  1  0.692036  0.694841  0.386875  1
  Tm  Tm10  1  0.692036  0.305159  0.997195  1
  Tm  Tm11  1  0.307964  0.694841  0.002805  1
  In  In12  1  0.000000  0.500000  0.500000  1
  Ga  Ga13  1  0.500000  0.000000  0.500000  1
  Tc  Tc14  1  0.367863  0.367863  0.000000  1
  Tc  Tc15  1  0.632137  0.632137  0.000000  1
  Tc  Tc16  1  0.000000  0.000000  0.000000  1
