# generated using pymatgen
data_Yb3Pr(B8Ru7)2
_symmetry_space_group_name_H-M   'P 1'
_cell_length_a   6.44932710
_cell_length_b   6.44119810
_cell_length_c   10.05001700
_cell_angle_alpha   90.00000000
_cell_angle_beta   90.00000000
_cell_angle_gamma   89.97983842
_symmetry_Int_Tables_number   1
_chemical_formula_structural   Yb3Pr(B8Ru7)2
_chemical_formula_sum   'Yb3 Pr1 B16 Ru14'
_cell_volume   417.49168463
_cell_formula_units_Z   1
loop_
 _symmetry_equiv_pos_site_id
 _symmetry_equiv_pos_as_xyz
  1  'x, y, z'
loop_
 _atom_site_type_symbol
 _atom_site_label
 _atom_site_symmetry_multiplicity
 _atom_site_fract_x
 _atom_site_fract_y
 _atom_site_fract_z
 _atom_site_occupancy
  Yb  Yb0  1  0.118812  0.731814  0.500000  1
  Yb  Yb1  1  0.880402  0.266055  0.500000  1
  Yb  Yb2  1  0.260430  0.123725  0.000000  1
  Pr  Pr3  1  0.731303  0.885038  0.000000  1
  B  B4  1  0.500858  0.000543  0.588529  1
  B  B5  1  0.500858  0.000543  0.411471  1
  B  B6  1  0.899358  0.272047  0.168027  1
  B  B7  1  0.101508  0.726228  0.831381  1
  B  B8  1  0.499115  0.500591  0.341058  1
  B  B9  1  0.499736  0.500335  0.841125  1
  B  B10  1  0.275406  0.102221  0.666934  1
  B  B11  1  0.101508  0.726228  0.168619  1
  B  B12  1  0.275406  0.102221  0.333066  1
  B  B13  1  0.899358  0.272047  0.831973  1
  B  B14  1  0.499115  0.500591  0.658942  1
  B  B15  1  0.499736  0.500335  0.158875  1
  B  B16  1  0.999576  0.498887  0.910783  1
  B  B17  1  0.727671  0.898295  0.666072  1
  B  B18  1  0.727671  0.898295  0.333928  1
  B  B19  1  0.999576  0.498887  0.089217  1
  Ru  Ru20  1  0.204820  0.394572  0.755120  1
  Ru  Ru21  1  0.405676  0.289101  0.500000  1
  Ru  Ru22  1  0.394562  0.795498  0.254640  1
  Ru  Ru23  1  0.204820  0.394572  0.244880  1
  Ru  Ru24  1  0.595362  0.712375  0.500000  1
  Ru  Ru25  1  0.605589  0.204811  0.744997  1
  Ru  Ru26  1  0.286660  0.595938  0.000000  1
  Ru  Ru27  1  0.711788  0.400522  0.000000  1
  Ru  Ru28  1  0.794999  0.603909  0.246185  1
  Ru  Ru29  1  0.794999  0.603909  0.753815  1
  Ru  Ru30  1  0.394562  0.795498  0.745360  1
  Ru  Ru31  1  0.001585  0.999777  0.252140  1
  Ru  Ru32  1  0.605589  0.204811  0.255003  1
  Ru  Ru33  1  0.001585  0.999777  0.747860  1
