# generated using pymatgen
data_Ca10CuAg2Ir3
_symmetry_space_group_name_H-M   'P 1'
_cell_length_a   9.09598650
_cell_length_b   9.09598587
_cell_length_c   9.11261745
_cell_angle_alpha   129.59095541
_cell_angle_beta   129.59095267
_cell_angle_gamma   73.92263937
_symmetry_Int_Tables_number   1
_chemical_formula_structural   Ca10CuAg2Ir3
_chemical_formula_sum   'Ca10 Cu1 Ag2 Ir3'
_cell_volume   437.00194499
_cell_formula_units_Z   1
loop_
 _symmetry_equiv_pos_site_id
 _symmetry_equiv_pos_as_xyz
  1  'x, y, z'
loop_
 _atom_site_type_symbol
 _atom_site_label
 _atom_site_symmetry_multiplicity
 _atom_site_fract_x
 _atom_site_fract_y
 _atom_site_fract_z
 _atom_site_occupancy
  Ca  Ca0  1  0.460737  0.960737  0.157559  1
  Ca  Ca1  1  0.196824  0.696824  0.157559  1
  Ca  Ca2  1  0.526906  0.026906  0.822236  1
  Ca  Ca3  1  0.044594  0.198362  0.509696  1
  Ca  Ca4  1  0.698362  0.544594  0.509696  1
  Ca  Ca5  1  0.965102  0.811334  0.509696  1
  Ca  Ca6  1  0.002877  0.994013  0.996889  1
  Ca  Ca7  1  0.494013  0.502877  0.996889  1
  Ca  Ca8  1  0.795329  0.295329  0.822236  1
  Ca  Ca9  1  0.311334  0.465102  0.509696  1
  Cu  Cu10  1  0.884351  0.384351  0.268703  1
  Ag  Ag11  1  0.751841  0.751841  0.003683  1
  Ag  Ag12  1  0.251841  0.251841  0.003683  1
  Ir  Ir13  1  0.115933  0.615933  0.731865  1
  Ir  Ir14  1  0.623012  0.876945  0.499957  1
  Ir  Ir15  1  0.376945  0.123012  0.499957  1
