# generated using pymatgen
data_Ca3PrB24
_symmetry_space_group_name_H-M   'P 1'
_cell_length_a   7.17201900
_cell_length_b   7.17201856
_cell_length_c   5.86560400
_cell_angle_alpha   90.00000000
_cell_angle_beta   90.00000000
_cell_angle_gamma   109.42112342
_symmetry_Int_Tables_number   1
_chemical_formula_structural   Ca3PrB24
_chemical_formula_sum   'Ca3 Pr1 B24'
_cell_volume   284.54658791
_cell_formula_units_Z   1
loop_
 _symmetry_equiv_pos_site_id
 _symmetry_equiv_pos_as_xyz
  1  'x, y, z'
loop_
 _atom_site_type_symbol
 _atom_site_label
 _atom_site_symmetry_multiplicity
 _atom_site_fract_x
 _atom_site_fract_y
 _atom_site_fract_z
 _atom_site_occupancy
  Ca  Ca0  1  0.748520  0.251480  0.500000  1
  Ca  Ca1  1  0.500000  0.500000  0.000000  1
  Ca  Ca2  1  0.251480  0.748520  0.500000  1
  Pr  Pr3  1  0.000000  0.000000  0.000000  1
  B  B4  1  0.175146  0.325045  0.649077  1
  B  B5  1  0.925278  0.574544  0.149868  1
  B  B6  1  0.674955  0.824854  0.649077  1
  B  B7  1  0.425456  0.074722  0.149868  1
  B  B8  1  0.175146  0.325045  0.350923  1
  B  B9  1  0.925278  0.574544  0.850132  1
  B  B10  1  0.674955  0.824854  0.350923  1
  B  B11  1  0.425456  0.074722  0.850132  1
  B  B12  1  0.399628  0.399628  0.500000  1
  B  B13  1  0.149830  0.649219  0.000000  1
  B  B14  1  0.899425  0.899425  0.500000  1
  B  B15  1  0.649219  0.149830  0.000000  1
  B  B16  1  0.325045  0.175146  0.649077  1
  B  B17  1  0.074722  0.425456  0.149868  1
  B  B18  1  0.824854  0.674955  0.649077  1
  B  B19  1  0.574544  0.925278  0.149868  1
  B  B20  1  0.100575  0.100575  0.500000  1
  B  B21  1  0.850170  0.350781  0.000000  1
  B  B22  1  0.600372  0.600372  0.500000  1
  B  B23  1  0.350781  0.850170  0.000000  1
  B  B24  1  0.325045  0.175146  0.350923  1
  B  B25  1  0.074722  0.425456  0.850132  1
  B  B26  1  0.824854  0.674955  0.350923  1
  B  B27  1  0.574544  0.925278  0.850132  1
