# generated using pymatgen
data_TbYLu6(WO6)4
_symmetry_space_group_name_H-M   'P 1'
_cell_length_a   5.33305700
_cell_length_b   7.61696451
_cell_length_c   11.34963601
_cell_angle_alpha   75.23996771
_cell_angle_beta   90.00000000
_cell_angle_gamma   90.00000000
_symmetry_Int_Tables_number   1
_chemical_formula_structural   TbYLu6(WO6)4
_chemical_formula_sum   'Tb1 Y1 Lu6 W4 O24'
_cell_volume   445.82782377
_cell_formula_units_Z   1
loop_
 _symmetry_equiv_pos_site_id
 _symmetry_equiv_pos_as_xyz
  1  'x, y, z'
loop_
 _atom_site_type_symbol
 _atom_site_label
 _atom_site_symmetry_multiplicity
 _atom_site_fract_x
 _atom_site_fract_y
 _atom_site_fract_z
 _atom_site_occupancy
  Tb  Tb0  1  0.315102  0.500000  0.750000  1
  Y  Y1  1  0.684796  0.500000  0.250000  1
  Lu  Lu2  1  0.184977  0.796408  0.078388  1
  Lu  Lu3  1  0.259087  0.000000  0.750000  1
  Lu  Lu4  1  0.740929  0.000000  0.250000  1
  Lu  Lu5  1  0.184977  0.203592  0.421612  1
  Lu  Lu6  1  0.815054  0.203499  0.921629  1
  Lu  Lu7  1  0.815054  0.796501  0.578371  1
  W  W8  1  0.744963  0.725522  0.885345  1
  W  W9  1  0.255061  0.725561  0.385350  1
  W  W10  1  0.744963  0.274478  0.614655  1
  W  W11  1  0.255061  0.274439  0.114650  1
  O  O12  1  0.855090  0.362820  0.450632  1
  O  O13  1  0.460806  0.847974  0.930852  1
  O  O14  1  0.855090  0.637180  0.049368  1
  O  O15  1  0.019011  0.284823  0.730698  1
  O  O16  1  0.980732  0.284993  0.230704  1
  O  O17  1  0.144869  0.362795  0.950746  1
  O  O18  1  0.643637  0.487806  0.887017  1
  O  O19  1  0.539163  0.152018  0.069146  1
  O  O20  1  0.144869  0.637205  0.549254  1
  O  O21  1  0.019011  0.715177  0.769302  1
  O  O22  1  0.459048  0.204602  0.275005  1
  O  O23  1  0.040314  0.943453  0.395238  1
  O  O24  1  0.460806  0.152026  0.569148  1
  O  O25  1  0.980732  0.715007  0.269296  1
  O  O26  1  0.959765  0.056556  0.604724  1
  O  O27  1  0.540979  0.204625  0.774966  1
  O  O28  1  0.540979  0.795375  0.725034  1
  O  O29  1  0.040314  0.056547  0.104762  1
  O  O30  1  0.643637  0.512194  0.612983  1
  O  O31  1  0.356575  0.512244  0.113017  1
  O  O32  1  0.459048  0.795398  0.224995  1
  O  O33  1  0.356575  0.487756  0.386983  1
  O  O34  1  0.539163  0.847982  0.430854  1
  O  O35  1  0.959765  0.943444  0.895276  1
