# generated using pymatgen
data_Zr6Al4CuNiC2
_symmetry_space_group_name_H-M   'P 1'
_cell_length_a   8.64300534
_cell_length_b   8.62961757
_cell_length_c   8.62961738
_cell_angle_alpha   59.89378028
_cell_angle_beta   59.94866207
_cell_angle_gamma   59.94866516
_symmetry_Int_Tables_number   1
_chemical_formula_structural   Zr6Al4CuNiC2
_chemical_formula_sum   'Zr12 Al8 Cu2 Ni2 C4'
_cell_volume   454.40818244
_cell_formula_units_Z   2
loop_
 _symmetry_equiv_pos_site_id
 _symmetry_equiv_pos_as_xyz
  1  'x, y, z'
loop_
 _atom_site_type_symbol
 _atom_site_label
 _atom_site_symmetry_multiplicity
 _atom_site_fract_x
 _atom_site_fract_y
 _atom_site_fract_z
 _atom_site_occupancy
  Zr  Zr0  1  0.940453  0.941462  0.560373  1
  Zr  Zr1  1  0.691271  0.308729  0.308729  1
  Zr  Zr2  1  0.309458  0.690542  0.690542  1
  Zr  Zr3  1  0.692288  0.689627  0.308538  1
  Zr  Zr4  1  0.692288  0.308538  0.689627  1
  Zr  Zr5  1  0.309547  0.689627  0.308538  1
  Zr  Zr6  1  0.557712  0.941462  0.560373  1
  Zr  Zr7  1  0.558729  0.941271  0.941271  1
  Zr  Zr8  1  0.940542  0.559458  0.559458  1
  Zr  Zr9  1  0.940453  0.560373  0.941462  1
  Zr  Zr10  1  0.309547  0.308538  0.689627  1
  Zr  Zr11  1  0.557712  0.560373  0.941462  1
  Al  Al12  1  0.923558  0.237718  0.915165  1
  Al  Al13  1  0.326442  0.334835  0.012282  1
  Al  Al14  1  0.011688  0.332111  0.332111  1
  Al  Al15  1  0.324090  0.332111  0.332111  1
  Al  Al16  1  0.238312  0.917889  0.917889  1
  Al  Al17  1  0.925910  0.917889  0.917889  1
  Al  Al18  1  0.923558  0.915165  0.237718  1
  Al  Al19  1  0.326442  0.012282  0.334835  1
  Cu  Cu20  1  0.625000  0.125000  0.125000  1
  Cu  Cu21  1  0.125000  0.125000  0.125000  1
  Ni  Ni22  1  0.125000  0.625000  0.125000  1
  Ni  Ni23  1  0.125000  0.125000  0.625000  1
  C  C24  1  0.625000  0.125000  0.625000  1
  C  C25  1  0.625000  0.625000  0.125000  1
  C  C26  1  0.125000  0.625000  0.625000  1
  C  C27  1  0.625000  0.625000  0.625000  1
