# generated using pymatgen
data_LaYbPa2(Al8Pt3)3
_symmetry_space_group_name_H-M   'P 1'
_cell_length_a   7.58994599
_cell_length_b   7.58542281
_cell_length_c   13.17981612
_cell_angle_alpha   84.48910035
_cell_angle_beta   101.07676582
_cell_angle_gamma   119.86542922
_symmetry_Int_Tables_number   1
_chemical_formula_structural   LaYbPa2(Al8Pt3)3
_chemical_formula_sum   'La1 Yb1 Pa2 Al24 Pt9'
_cell_volume   645.77139937
_cell_formula_units_Z   1
loop_
 _symmetry_equiv_pos_site_id
 _symmetry_equiv_pos_as_xyz
  1  'x, y, z'
loop_
 _atom_site_type_symbol
 _atom_site_label
 _atom_site_symmetry_multiplicity
 _atom_site_fract_x
 _atom_site_fract_y
 _atom_site_fract_z
 _atom_site_occupancy
  La  La0  1  0.768935  0.501867  0.809365  1
  Yb  Yb1  1  0.233234  0.498964  0.193352  1
  Pa  Pa2  1  0.434938  0.830742  0.804109  1
  Pa  Pa3  1  0.564988  0.168481  0.196288  1
  Al  Al4  1  0.480441  0.164120  0.947194  1
  Al  Al5  1  0.517039  0.832900  0.056191  1
  Al  Al6  1  0.021669  0.167477  0.559892  1
  Al  Al7  1  0.978482  0.833223  0.438252  1
  Al  Al8  1  0.351520  0.832051  0.557308  1
  Al  Al9  1  0.648055  0.167205  0.441768  1
  Al  Al10  1  0.616197  0.829979  0.331421  1
  Al  Al11  1  0.380311  0.167187  0.665846  1
  Al  Al12  1  0.052915  0.490046  0.666384  1
  Al  Al13  1  0.949011  0.510189  0.330352  1
  Al  Al14  1  0.731244  0.841575  0.664857  1
  Al  Al15  1  0.267255  0.161275  0.331943  1
  Al  Al16  1  0.150686  0.499432  0.947822  1
  Al  Al17  1  0.854473  0.499470  0.058871  1
  Al  Al18  1  0.818006  0.834308  0.956343  1
  Al  Al19  1  0.184296  0.168460  0.048750  1
  Al  Al20  1  0.313149  0.499363  0.440060  1
  Al  Al21  1  0.685157  0.500693  0.557314  1
  Al  Al22  1  0.103199  0.841756  0.182829  1
  Al  Al23  1  0.897095  0.156732  0.817218  1
  Al  Al24  1  0.302048  0.369945  0.815792  1
  Al  Al25  1  0.695131  0.630438  0.183982  1
  Al  Al26  1  0.109744  0.964859  0.816717  1
  Al  Al27  1  0.892686  0.038290  0.182931  1
  Pt  Pt28  1  0.386370  0.508740  0.638556  1
  Pt  Pt29  1  0.612766  0.490521  0.360053  1
  Pt  Pt30  1  0.171507  0.828452  0.000157  1
  Pt  Pt31  1  0.828266  0.170968  0.000173  1
  Pt  Pt32  1  0.296541  0.835518  0.360662  1
  Pt  Pt33  1  0.703251  0.164800  0.638381  1
  Pt  Pt34  1  0.047962  0.826282  0.637663  1
  Pt  Pt35  1  0.951497  0.174200  0.360899  1
  Pt  Pt36  1  0.499935  0.499495  0.000304  1
