# generated using pymatgen
data_Eu(Al5Ir)2
_symmetry_space_group_name_H-M   'P 1'
_cell_length_a   6.90435625
_cell_length_b   6.90435530
_cell_length_c   9.19738500
_cell_angle_alpha   90.00000000
_cell_angle_beta   90.00000000
_cell_angle_gamma   97.21136850
_symmetry_Int_Tables_number   1
_chemical_formula_structural   Eu(Al5Ir)2
_chemical_formula_sum   'Eu2 Al20 Ir4'
_cell_volume   434.97238011
_cell_formula_units_Z   2
loop_
 _symmetry_equiv_pos_site_id
 _symmetry_equiv_pos_as_xyz
  1  'x, y, z'
loop_
 _atom_site_type_symbol
 _atom_site_label
 _atom_site_symmetry_multiplicity
 _atom_site_fract_x
 _atom_site_fract_y
 _atom_site_fract_z
 _atom_site_occupancy
  Eu  Eu0  1  0.876680  0.123320  0.750000  1
  Eu  Eu1  1  0.123320  0.876680  0.250000  1
  Al  Al2  1  0.778397  0.778397  0.000000  1
  Al  Al3  1  0.778397  0.778397  0.500000  1
  Al  Al4  1  0.221603  0.221603  0.000000  1
  Al  Al5  1  0.221603  0.221603  0.500000  1
  Al  Al6  1  0.621224  0.378776  0.947750  1
  Al  Al7  1  0.378776  0.621224  0.052250  1
  Al  Al8  1  0.621224  0.378776  0.552250  1
  Al  Al9  1  0.378776  0.621224  0.447750  1
  Al  Al10  1  0.840554  0.159446  0.396698  1
  Al  Al11  1  0.159446  0.840554  0.603302  1
  Al  Al12  1  0.840554  0.159446  0.103302  1
  Al  Al13  1  0.159446  0.840554  0.896698  1
  Al  Al14  1  0.412252  0.143809  0.750000  1
  Al  Al15  1  0.143809  0.412252  0.250000  1
  Al  Al16  1  0.587748  0.856191  0.250000  1
  Al  Al17  1  0.856191  0.587748  0.750000  1
  Al  Al18  1  0.518581  0.775359  0.750000  1
  Al  Al19  1  0.775359  0.518581  0.250000  1
  Al  Al20  1  0.481419  0.224641  0.250000  1
  Al  Al21  1  0.224641  0.481419  0.750000  1
  Ir  Ir22  1  0.500000  0.000000  0.000000  1
  Ir  Ir23  1  0.000000  0.500000  0.000000  1
  Ir  Ir24  1  0.500000  0.000000  0.500000  1
  Ir  Ir25  1  0.000000  0.500000  0.500000  1
