# generated using pymatgen
data_Pr4Ho4Re(B8Os)3
_symmetry_space_group_name_H-M   'P 1'
_cell_length_a   3.71917500
_cell_length_b   9.25753665
_cell_length_c   11.70846000
_cell_angle_alpha   90.08712623
_cell_angle_beta   90.00000000
_cell_angle_gamma   90.00000000
_symmetry_Int_Tables_number   1
_chemical_formula_structural   Pr4Ho4Re(B8Os)3
_chemical_formula_sum   'Pr4 Ho4 Re1 B24 Os3'
_cell_volume   403.12648179
_cell_formula_units_Z   1
loop_
 _symmetry_equiv_pos_site_id
 _symmetry_equiv_pos_as_xyz
  1  'x, y, z'
loop_
 _atom_site_type_symbol
 _atom_site_label
 _atom_site_symmetry_multiplicity
 _atom_site_fract_x
 _atom_site_fract_y
 _atom_site_fract_z
 _atom_site_occupancy
  Pr  Pr0  1  0.000000  0.323087  0.414895  1
  Pr  Pr1  1  0.000000  0.678975  0.587276  1
  Pr  Pr2  1  0.000000  0.822807  0.084272  1
  Pr  Pr3  1  0.000000  0.176467  0.913227  1
  Ho  Ho4  1  0.000000  0.943498  0.371017  1
  Ho  Ho5  1  0.000000  0.055477  0.628504  1
  Ho  Ho6  1  0.000000  0.443076  0.128459  1
  Ho  Ho7  1  0.000000  0.556551  0.872195  1
  Re  Re8  1  0.000000  0.860827  0.819461  1
  B  B9  1  0.500000  0.556519  0.430064  1
  B  B10  1  0.500000  0.443659  0.570332  1
  B  B11  1  0.500000  0.056077  0.070429  1
  B  B12  1  0.500000  0.944784  0.929794  1
  B  B13  1  0.500000  0.749341  0.416705  1
  B  B14  1  0.500000  0.250757  0.583115  1
  B  B15  1  0.500000  0.249307  0.083571  1
  B  B16  1  0.500000  0.750624  0.916455  1
  B  B17  1  0.500000  0.789406  0.266953  1
  B  B18  1  0.500000  0.209932  0.732214  1
  B  B19  1  0.500000  0.289872  0.233033  1
  B  B20  1  0.500000  0.709515  0.767144  1
  B  B21  1  0.500000  0.629772  0.186154  1
  B  B22  1  0.500000  0.369724  0.813391  1
  B  B23  1  0.500000  0.130439  0.313991  1
  B  B24  1  0.500000  0.869856  0.686465  1
  B  B25  1  0.500000  0.985869  0.214075  1
  B  B26  1  0.500000  0.015275  0.785756  1
  B  B27  1  0.500000  0.485691  0.286386  1
  B  B28  1  0.500000  0.514492  0.714282  1
  B  B29  1  0.500000  0.600332  0.028353  1
  B  B30  1  0.500000  0.398223  0.972586  1
  B  B31  1  0.500000  0.101400  0.471663  1
  B  B32  1  0.500000  0.898977  0.527088  1
  Os  Os33  1  0.000000  0.639224  0.319238  1
  Os  Os34  1  0.000000  0.360858  0.680313  1
  Os  Os35  1  0.000000  0.139311  0.181143  1
