# generated using pymatgen
data_Nd7SmTe8
_symmetry_space_group_name_H-M   'P 1'
_cell_length_a   9.00626841
_cell_length_b   9.00626820
_cell_length_c   9.00702500
_cell_angle_alpha   60.00277011
_cell_angle_beta   60.00277087
_cell_angle_gamma   60.00000359
_symmetry_Int_Tables_number   1
_chemical_formula_structural   Nd7SmTe8
_chemical_formula_sum   'Nd7 Sm1 Te8'
_cell_volume   516.62370408
_cell_formula_units_Z   1
loop_
 _symmetry_equiv_pos_site_id
 _symmetry_equiv_pos_as_xyz
  1  'x, y, z'
loop_
 _atom_site_type_symbol
 _atom_site_label
 _atom_site_symmetry_multiplicity
 _atom_site_fract_x
 _atom_site_fract_y
 _atom_site_fract_z
 _atom_site_occupancy
  Nd  Nd0  1  0.625000  0.125000  0.625000  1
  Nd  Nd1  1  0.625000  0.625000  0.625000  1
  Nd  Nd2  1  0.125000  0.625000  0.625000  1
  Nd  Nd3  1  0.625000  0.625000  0.125000  1
  Nd  Nd4  1  0.125000  0.625000  0.125000  1
  Nd  Nd5  1  0.625000  0.125000  0.125000  1
  Nd  Nd6  1  0.125000  0.125000  0.125000  1
  Sm  Sm7  1  0.125000  0.125000  0.625000  1
  Te  Te8  1  0.373224  0.876792  0.376761  1
  Te  Te9  1  0.876776  0.373208  0.873239  1
  Te  Te10  1  0.874985  0.874985  0.375045  1
  Te  Te11  1  0.876776  0.876776  0.873239  1
  Te  Te12  1  0.876792  0.373224  0.376761  1
  Te  Te13  1  0.375015  0.375015  0.874955  1
  Te  Te14  1  0.373224  0.373224  0.376761  1
  Te  Te15  1  0.373208  0.876776  0.873239  1
