# generated using pymatgen
data_Ba6Ca2LuUSe12
_symmetry_space_group_name_H-M   'P 1'
_cell_length_a   8.88206111
_cell_length_b   8.88206173
_cell_length_c   8.88206251
_cell_angle_alpha   91.90341924
_cell_angle_beta   91.90342463
_cell_angle_gamma   91.90342582
_symmetry_Int_Tables_number   1
_chemical_formula_structural   Ba6Ca2LuUSe12
_chemical_formula_sum   'Ba6 Ca2 Lu1 U1 Se12'
_cell_volume   699.52867330
_cell_formula_units_Z   1
loop_
 _symmetry_equiv_pos_site_id
 _symmetry_equiv_pos_as_xyz
  1  'x, y, z'
loop_
 _atom_site_type_symbol
 _atom_site_label
 _atom_site_symmetry_multiplicity
 _atom_site_fract_x
 _atom_site_fract_y
 _atom_site_fract_z
 _atom_site_occupancy
  Ba  Ba0  1  0.870226  0.622770  0.259275  1
  Ba  Ba1  1  0.259275  0.870226  0.622770  1
  Ba  Ba2  1  0.622770  0.259275  0.870226  1
  Ba  Ba3  1  0.740725  0.129774  0.377230  1
  Ba  Ba4  1  0.377230  0.740725  0.129774  1
  Ba  Ba5  1  0.129774  0.377230  0.740725  1
  Ca  Ca6  1  0.256171  0.256171  0.256171  1
  Ca  Ca7  1  0.743829  0.743829  0.743829  1
  Lu  Lu8  1  0.500000  0.500000  0.500000  1
  U  U9  1  0.000000  0.000000  0.000000  1
  Se  Se10  1  0.200272  0.549146  0.409627  1
  Se  Se11  1  0.409627  0.200272  0.549146  1
  Se  Se12  1  0.549146  0.409627  0.200272  1
  Se  Se13  1  0.918331  0.044586  0.703228  1
  Se  Se14  1  0.703228  0.918331  0.044586  1
  Se  Se15  1  0.044586  0.703228  0.918331  1
  Se  Se16  1  0.799728  0.450854  0.590373  1
  Se  Se17  1  0.590373  0.799728  0.450854  1
  Se  Se18  1  0.450854  0.590373  0.799728  1
  Se  Se19  1  0.081669  0.955414  0.296772  1
  Se  Se20  1  0.296772  0.081669  0.955414  1
  Se  Se21  1  0.955414  0.296772  0.081669  1
