# generated using pymatgen
data_NbIr2Rh4W
_symmetry_space_group_name_H-M   'P 1'
_cell_length_a   5.55740800
_cell_length_b   5.55700792
_cell_length_c   4.42400500
_cell_angle_alpha   90.00000000
_cell_angle_beta   90.00000000
_cell_angle_gamma   119.99761894
_symmetry_Int_Tables_number   1
_chemical_formula_structural   NbIr2Rh4W
_chemical_formula_sum   'Nb1 Ir2 Rh4 W1'
_cell_volume   118.32321409
_cell_formula_units_Z   1
loop_
 _symmetry_equiv_pos_site_id
 _symmetry_equiv_pos_as_xyz
  1  'x, y, z'
loop_
 _atom_site_type_symbol
 _atom_site_label
 _atom_site_symmetry_multiplicity
 _atom_site_fract_x
 _atom_site_fract_y
 _atom_site_fract_z
 _atom_site_occupancy
  Nb  Nb0  1  0.668134  0.334066  0.750000  1
  Ir  Ir1  1  0.166602  0.332364  0.750000  1
  Ir  Ir2  1  0.166602  0.834238  0.750000  1
  Rh  Rh3  1  0.667864  0.833932  0.750000  1
  Rh  Rh4  1  0.329403  0.164702  0.250000  1
  Rh  Rh5  1  0.834547  0.164618  0.250000  1
  Rh  Rh6  1  0.834547  0.669929  0.250000  1
  W  W7  1  0.332300  0.666151  0.250000  1
