# generated using pymatgen
data_Dy4Er8Tc3Rh
_symmetry_space_group_name_H-M   'P 1'
_cell_length_a   6.26090408
_cell_length_b   7.35843911
_cell_length_c   9.07096500
_cell_angle_alpha   90.00000000
_cell_angle_beta   90.00000000
_cell_angle_gamma   89.90539635
_symmetry_Int_Tables_number   1
_chemical_formula_structural   Dy4Er8Tc3Rh
_chemical_formula_sum   'Dy4 Er8 Tc3 Rh1'
_cell_volume   417.90315541
_cell_formula_units_Z   1
loop_
 _symmetry_equiv_pos_site_id
 _symmetry_equiv_pos_as_xyz
  1  'x, y, z'
loop_
 _atom_site_type_symbol
 _atom_site_label
 _atom_site_symmetry_multiplicity
 _atom_site_fract_x
 _atom_site_fract_y
 _atom_site_fract_z
 _atom_site_occupancy
  Dy  Dy0  1  0.876019  0.961122  0.750000  1
  Dy  Dy1  1  0.369739  0.542670  0.250000  1
  Dy  Dy2  1  0.625837  0.459181  0.750000  1
  Dy  Dy3  1  0.127056  0.041016  0.250000  1
  Er  Er4  1  0.662557  0.173842  0.061376  1
  Er  Er5  1  0.167988  0.323193  0.934688  1
  Er  Er6  1  0.836716  0.678488  0.438447  1
  Er  Er7  1  0.337341  0.824215  0.563001  1
  Er  Er8  1  0.337341  0.824215  0.936999  1
  Er  Er9  1  0.836716  0.678488  0.061553  1
  Er  Er10  1  0.167988  0.323193  0.565312  1
  Er  Er11  1  0.662557  0.173842  0.438624  1
  Tc  Tc12  1  0.038203  0.612880  0.750000  1
  Tc  Tc13  1  0.539892  0.883445  0.250000  1
  Tc  Tc14  1  0.459690  0.115707  0.750000  1
  Rh  Rh15  1  0.954358  0.384501  0.250000  1
