# generated using pymatgen
data_Sm4Tm(OsO6)2
_symmetry_space_group_name_H-M   'P 1'
_cell_length_a   6.97239498
_cell_length_b   6.97239535
_cell_length_c   7.59156038
_cell_angle_alpha   73.84813750
_cell_angle_beta   73.84814750
_cell_angle_gamma   48.51038464
_symmetry_Int_Tables_number   1
_chemical_formula_structural   Sm4Tm(OsO6)2
_chemical_formula_sum   'Sm4 Tm1 Os2 O12'
_cell_volume   263.26986613
_cell_formula_units_Z   1
loop_
 _symmetry_equiv_pos_site_id
 _symmetry_equiv_pos_as_xyz
  1  'x, y, z'
loop_
 _atom_site_type_symbol
 _atom_site_label
 _atom_site_symmetry_multiplicity
 _atom_site_fract_x
 _atom_site_fract_y
 _atom_site_fract_z
 _atom_site_occupancy
  Sm  Sm0  1  0.802082  0.802082  0.357079  1
  Sm  Sm1  1  0.197918  0.197918  0.642921  1
  Sm  Sm2  1  0.185866  0.185866  0.171656  1
  Sm  Sm3  1  0.814134  0.814134  0.828344  1
  Tm  Tm4  1  0.500000  0.500000  0.500000  1
  Os  Os5  1  0.282007  0.717993  0.000000  1
  Os  Os6  1  0.717993  0.282007  0.000000  1
  O  O7  1  0.414293  0.914290  0.915176  1
  O  O8  1  0.085710  0.585707  0.084824  1
  O  O9  1  0.585707  0.085710  0.084824  1
  O  O10  1  0.914290  0.414293  0.915176  1
  O  O11  1  0.599049  0.104903  0.569676  1
  O  O12  1  0.895097  0.400951  0.430324  1
  O  O13  1  0.400951  0.895097  0.430324  1
  O  O14  1  0.001483  0.001483  0.831853  1
  O  O15  1  0.998517  0.998517  0.168147  1
  O  O16  1  0.498581  0.498581  0.797122  1
  O  O17  1  0.501419  0.501419  0.202878  1
  O  O18  1  0.104903  0.599049  0.569676  1
