# generated using pymatgen
data_MgHg2SeO6
_symmetry_space_group_name_H-M   'P 1'
_cell_length_a   6.76319681
_cell_length_b   7.23057287
_cell_length_c   7.52834906
_cell_angle_alpha   73.69013769
_cell_angle_beta   66.89171183
_cell_angle_gamma   64.21156140
_symmetry_Int_Tables_number   1
_chemical_formula_structural   MgHg2SeO6
_chemical_formula_sum   'Mg2 Hg4 Se2 O12'
_cell_volume   302.18192476
_cell_formula_units_Z   2
loop_
 _symmetry_equiv_pos_site_id
 _symmetry_equiv_pos_as_xyz
  1  'x, y, z'
loop_
 _atom_site_type_symbol
 _atom_site_label
 _atom_site_symmetry_multiplicity
 _atom_site_fract_x
 _atom_site_fract_y
 _atom_site_fract_z
 _atom_site_occupancy
  Mg  Mg0  1  0.662210  0.869605  0.797712  1
  Mg  Mg1  1  0.337790  0.130395  0.202288  1
  Hg  Hg2  1  0.154432  0.361228  0.800335  1
  Hg  Hg3  1  0.343479  0.635092  0.202642  1
  Hg  Hg4  1  0.656521  0.364908  0.797358  1
  Hg  Hg5  1  0.845568  0.638772  0.199665  1
  Se  Se6  1  0.211511  0.874575  0.674570  1
  Se  Se7  1  0.788489  0.125425  0.325430  1
  O  O8  1  0.061532  0.088120  0.180469  1
  O  O9  1  0.938468  0.911880  0.819531  1
  O  O10  1  0.544617  0.815366  0.125779  1
  O  O11  1  0.357351  0.847985  0.821484  1
  O  O12  1  0.455383  0.184634  0.874221  1
  O  O13  1  0.784711  0.913839  0.488814  1
  O  O14  1  0.834857  0.545750  0.770581  1
  O  O15  1  0.215289  0.086161  0.511186  1
  O  O16  1  0.165143  0.454250  0.229419  1
  O  O17  1  0.674558  0.340886  0.426699  1
  O  O18  1  0.325442  0.659114  0.573301  1
  O  O19  1  0.642649  0.152015  0.178516  1
