# generated using pymatgen
data_Li3Pr8Er8ScSi16
_symmetry_space_group_name_H-M   'P 1'
_cell_length_a   7.26919600
_cell_length_b   7.76508600
_cell_length_c   14.76302400
_cell_angle_alpha   90.00000000
_cell_angle_beta   90.00000000
_cell_angle_gamma   90.00112374
_symmetry_Int_Tables_number   1
_chemical_formula_structural   Li3Pr8Er8ScSi16
_chemical_formula_sum   'Li3 Pr8 Er8 Sc1 Si16'
_cell_volume   833.31265012
_cell_formula_units_Z   1
loop_
 _symmetry_equiv_pos_site_id
 _symmetry_equiv_pos_as_xyz
  1  'x, y, z'
loop_
 _atom_site_type_symbol
 _atom_site_label
 _atom_site_symmetry_multiplicity
 _atom_site_fract_x
 _atom_site_fract_y
 _atom_site_fract_z
 _atom_site_occupancy
  Li  Li0  1  0.655902  0.989140  0.750000  1
  Li  Li1  1  0.844511  0.489763  0.250000  1
  Li  Li2  1  0.344182  0.009939  0.250000  1
  Pr  Pr3  1  0.022365  0.185290  0.397514  1
  Pr  Pr4  1  0.522562  0.316198  0.396869  1
  Pr  Pr5  1  0.484925  0.684778  0.899468  1
  Pr  Pr6  1  0.484925  0.684778  0.600532  1
  Pr  Pr7  1  0.976679  0.823410  0.600604  1
  Pr  Pr8  1  0.976679  0.823410  0.899396  1
  Pr  Pr9  1  0.522562  0.316198  0.103131  1
  Pr  Pr10  1  0.022365  0.185290  0.102486  1
  Er  Er11  1  0.330711  0.174964  0.626349  1
  Er  Er12  1  0.672556  0.818055  0.372791  1
  Er  Er13  1  0.171035  0.680222  0.374058  1
  Er  Er14  1  0.821147  0.314264  0.873966  1
  Er  Er15  1  0.821147  0.314264  0.626034  1
  Er  Er16  1  0.330711  0.174964  0.873651  1
  Er  Er17  1  0.171035  0.680222  0.125942  1
  Er  Er18  1  0.672556  0.818055  0.127209  1
  Sc  Sc19  1  0.153789  0.505947  0.750000  1
  Si  Si20  1  0.271820  0.876741  0.750000  1
  Si  Si21  1  0.471384  0.597900  0.250000  1
  Si  Si22  1  0.032441  0.108769  0.750000  1
  Si  Si23  1  0.521197  0.404369  0.750000  1
  Si  Si24  1  0.148686  0.469680  0.540751  1
  Si  Si25  1  0.972041  0.901730  0.250000  1
  Si  Si26  1  0.726743  0.112876  0.250000  1
  Si  Si27  1  0.848634  0.535531  0.032935  1
  Si  Si28  1  0.348318  0.964148  0.035229  1
  Si  Si29  1  0.148686  0.469680  0.959249  1
  Si  Si30  1  0.650170  0.036082  0.531996  1
  Si  Si31  1  0.348318  0.964148  0.464771  1
  Si  Si32  1  0.848634  0.535531  0.467065  1
  Si  Si33  1  0.785307  0.609477  0.750000  1
  Si  Si34  1  0.225109  0.388106  0.250000  1
  Si  Si35  1  0.650170  0.036082  0.968004  1
