# generated using pymatgen
data_ZrTaCo4P3
_symmetry_space_group_name_H-M   'P 1'
_cell_length_a   11.98703542
_cell_length_b   11.98703535
_cell_length_c   3.65303300
_cell_angle_alpha   90.00000000
_cell_angle_beta   90.00000000
_cell_angle_gamma   120.05571737
_symmetry_Int_Tables_number   1
_chemical_formula_structural   ZrTaCo4P3
_chemical_formula_sum   'Zr4 Ta4 Co16 P12'
_cell_volume   454.32192460
_cell_formula_units_Z   4
loop_
 _symmetry_equiv_pos_site_id
 _symmetry_equiv_pos_as_xyz
  1  'x, y, z'
loop_
 _atom_site_type_symbol
 _atom_site_label
 _atom_site_symmetry_multiplicity
 _atom_site_fract_x
 _atom_site_fract_y
 _atom_site_fract_z
 _atom_site_occupancy
  Zr  Zr0  1  0.666641  0.333102  0.000000  1
  Zr  Zr1  1  0.333102  0.666641  0.000000  1
  Zr  Zr2  1  0.178156  0.999904  0.500000  1
  Zr  Zr3  1  0.999904  0.178156  0.500000  1
  Ta  Ta4  1  0.446983  0.446983  0.000000  1
  Ta  Ta5  1  0.554283  0.999390  0.000000  1
  Ta  Ta6  1  0.999390  0.554283  0.000000  1
  Ta  Ta7  1  0.822570  0.822570  0.500000  1
  Co  Co8  1  0.194248  0.373430  0.000000  1
  Co  Co9  1  0.178392  0.805653  0.000000  1
  Co  Co10  1  0.820849  0.630174  0.000000  1
  Co  Co11  1  0.805653  0.178392  0.000000  1
  Co  Co12  1  0.373430  0.194248  0.000000  1
  Co  Co13  1  0.127888  0.484750  0.500000  1
  Co  Co14  1  0.356235  0.872207  0.500000  1
  Co  Co15  1  0.516962  0.644453  0.500000  1
  Co  Co16  1  0.644453  0.516962  0.500000  1
  Co  Co17  1  0.872207  0.356235  0.500000  1
  Co  Co18  1  0.484750  0.127888  0.500000  1
  Co  Co19  1  0.997136  0.997136  0.000000  1
  Co  Co20  1  0.722410  0.997606  0.500000  1
  Co  Co21  1  0.997606  0.722410  0.500000  1
  Co  Co22  1  0.630174  0.820849  0.000000  1
  Co  Co23  1  0.278371  0.278371  0.500000  1
  P  P24  1  0.650578  0.650578  0.000000  1
  P  P25  1  0.351941  0.999933  0.000000  1
  P  P26  1  0.999933  0.351941  0.000000  1
  P  P27  1  0.480554  0.310669  0.500000  1
  P  P28  1  0.689952  0.169283  0.500000  1
  P  P29  1  0.829660  0.519103  0.500000  1
  P  P30  1  0.519103  0.829660  0.500000  1
  P  P31  1  0.169283  0.689952  0.500000  1
  P  P32  1  0.823557  0.998330  0.000000  1
  P  P33  1  0.998330  0.823557  0.000000  1
  P  P34  1  0.310669  0.480554  0.500000  1
  P  P35  1  0.174648  0.174648  0.000000  1
