# generated using pymatgen
data_TbEr5Fe16(CoP6)2
_symmetry_space_group_name_H-M   'P 1'
_cell_length_a   3.69697700
_cell_length_b   10.45015000
_cell_length_c   12.15648300
_cell_angle_alpha   90.00000000
_cell_angle_beta   90.00000000
_cell_angle_gamma   90.00000000
_symmetry_Int_Tables_number   1
_chemical_formula_structural   TbEr5Fe16(CoP6)2
_chemical_formula_sum   'Tb1 Er5 Fe16 Co2 P12'
_cell_volume   469.65312898
_cell_formula_units_Z   1
loop_
 _symmetry_equiv_pos_site_id
 _symmetry_equiv_pos_as_xyz
  1  'x, y, z'
loop_
 _atom_site_type_symbol
 _atom_site_label
 _atom_site_symmetry_multiplicity
 _atom_site_fract_x
 _atom_site_fract_y
 _atom_site_fract_z
 _atom_site_occupancy
  Tb  Tb0  1  0.750000  0.250000  0.474377  1
  Er  Er1  1  0.250000  0.750000  0.525526  1
  Er  Er2  1  0.250000  0.930227  0.792874  1
  Er  Er3  1  0.250000  0.569773  0.792874  1
  Er  Er4  1  0.750000  0.069665  0.207004  1
  Er  Er5  1  0.750000  0.430335  0.207004  1
  Fe  Fe6  1  0.250000  0.250000  0.847133  1
  Fe  Fe7  1  0.750000  0.750000  0.152971  1
  Fe  Fe8  1  0.750000  0.250000  0.011115  1
  Fe  Fe9  1  0.250000  0.750000  0.988852  1
  Fe  Fe10  1  0.250000  0.422603  0.003566  1
  Fe  Fe11  1  0.250000  0.077397  0.003566  1
  Fe  Fe12  1  0.750000  0.577385  0.996430  1
  Fe  Fe13  1  0.750000  0.922615  0.996430  1
  Fe  Fe14  1  0.250000  0.451455  0.570346  1
  Fe  Fe15  1  0.250000  0.048545  0.570346  1
  Fe  Fe16  1  0.750000  0.549417  0.429831  1
  Fe  Fe17  1  0.750000  0.950583  0.429831  1
  Fe  Fe18  1  0.250000  0.867730  0.291382  1
  Fe  Fe19  1  0.250000  0.632270  0.291382  1
  Fe  Fe20  1  0.750000  0.132066  0.708881  1
  Fe  Fe21  1  0.750000  0.367934  0.708881  1
  Co  Co22  1  0.250000  0.250000  0.299231  1
  Co  Co23  1  0.750000  0.750000  0.699925  1
  P  P24  1  0.250000  0.250000  0.116272  1
  P  P25  1  0.750000  0.750000  0.883607  1
  P  P26  1  0.250000  0.250000  0.659165  1
  P  P27  1  0.750000  0.750000  0.341520  1
  P  P28  1  0.250000  0.444028  0.385566  1
  P  P29  1  0.250000  0.055972  0.385566  1
  P  P30  1  0.750000  0.556681  0.614228  1
  P  P31  1  0.750000  0.943319  0.614228  1
  P  P32  1  0.250000  0.898903  0.112185  1
  P  P33  1  0.250000  0.601097  0.112185  1
  P  P34  1  0.750000  0.101082  0.887859  1
  P  P35  1  0.750000  0.398918  0.887859  1
