# generated using pymatgen
data_Ca3Nd5(CdRu)2
_symmetry_space_group_name_H-M   'P 1'
_cell_length_a   9.96673054
_cell_length_b   9.96672999
_cell_length_c   9.96673000
_cell_angle_alpha   59.99999997
_cell_angle_beta   60.00000180
_cell_angle_gamma   60.00000128
_symmetry_Int_Tables_number   1
_chemical_formula_structural   Ca3Nd5(CdRu)2
_chemical_formula_sum   'Ca6 Nd10 Cd4 Ru4'
_cell_volume   700.07265674
_cell_formula_units_Z   2
loop_
 _symmetry_equiv_pos_site_id
 _symmetry_equiv_pos_as_xyz
  1  'x, y, z'
loop_
 _atom_site_type_symbol
 _atom_site_label
 _atom_site_symmetry_multiplicity
 _atom_site_fract_x
 _atom_site_fract_y
 _atom_site_fract_z
 _atom_site_occupancy
  Ca  Ca0  1  0.942817  0.557183  0.557183  1
  Ca  Ca1  1  0.557183  0.942817  0.942817  1
  Ca  Ca2  1  0.557183  0.942817  0.557183  1
  Ca  Ca3  1  0.942817  0.557183  0.942817  1
  Ca  Ca4  1  0.557183  0.557183  0.942817  1
  Ca  Ca5  1  0.942817  0.942817  0.557183  1
  Nd  Nd6  1  0.345004  0.345004  0.345004  1
  Nd  Nd7  1  0.345004  0.345004  0.964988  1
  Nd  Nd8  1  0.345004  0.964988  0.345004  1
  Nd  Nd9  1  0.964988  0.345004  0.345004  1
  Nd  Nd10  1  0.807049  0.192951  0.192951  1
  Nd  Nd11  1  0.192951  0.807049  0.807049  1
  Nd  Nd12  1  0.192951  0.807049  0.192951  1
  Nd  Nd13  1  0.807049  0.192951  0.807049  1
  Nd  Nd14  1  0.192951  0.192951  0.807049  1
  Nd  Nd15  1  0.807049  0.807049  0.192951  1
  Cd  Cd16  1  0.578398  0.578398  0.578398  1
  Cd  Cd17  1  0.578398  0.578398  0.264803  1
  Cd  Cd18  1  0.578398  0.264803  0.578398  1
  Cd  Cd19  1  0.264803  0.578398  0.578398  1
  Ru  Ru20  1  0.135979  0.135979  0.135979  1
  Ru  Ru21  1  0.135979  0.135979  0.592065  1
  Ru  Ru22  1  0.135979  0.592065  0.135979  1
  Ru  Ru23  1  0.592065  0.135979  0.135979  1
