# generated using pymatgen
data_Pr3Nd2YTa2O14
_symmetry_space_group_name_H-M   'P 1'
_cell_length_a   6.69346250
_cell_length_b   6.67075461
_cell_length_c   7.71836300
_cell_angle_alpha   90.00000000
_cell_angle_beta   90.00000000
_cell_angle_gamma   108.73744867
_symmetry_Int_Tables_number   1
_chemical_formula_structural   Pr3Nd2YTa2O14
_chemical_formula_sum   'Pr3 Nd2 Y1 Ta2 O14'
_cell_volume   326.36322603
_cell_formula_units_Z   1
loop_
 _symmetry_equiv_pos_site_id
 _symmetry_equiv_pos_as_xyz
  1  'x, y, z'
loop_
 _atom_site_type_symbol
 _atom_site_label
 _atom_site_symmetry_multiplicity
 _atom_site_fract_x
 _atom_site_fract_y
 _atom_site_fract_z
 _atom_site_occupancy
  Pr  Pr0  1  0.534537  0.528240  0.499493  1
  Pr  Pr1  1  0.534537  0.528240  0.000507  1
  Pr  Pr2  1  0.462379  0.004597  0.250000  1
  Nd  Nd3  1  0.006813  0.461978  0.750000  1
  Nd  Nd4  1  0.532492  0.003571  0.750000  1
  Y  Y5  1  0.003855  0.530153  0.250000  1
  Ta  Ta6  1  0.000785  0.001017  0.498418  1
  Ta  Ta7  1  0.000785  0.001017  0.001582  1
  O  O8  1  0.944958  0.055817  0.750000  1
  O  O9  1  0.056956  0.936675  0.250000  1
  O  O10  1  0.353438  0.633636  0.250000  1
  O  O11  1  0.644075  0.367254  0.750000  1
  O  O12  1  0.371255  0.632569  0.750000  1
  O  O13  1  0.646126  0.378613  0.250000  1
  O  O14  1  0.307142  0.068695  0.968143  1
  O  O15  1  0.679546  0.919288  0.474110  1
  O  O16  1  0.307142  0.068695  0.531857  1
  O  O17  1  0.679546  0.919288  0.025890  1
  O  O18  1  0.035109  0.299107  0.459545  1
  O  O19  1  0.931708  0.681222  0.975585  1
  O  O20  1  0.931708  0.681222  0.524415  1
  O  O21  1  0.035109  0.299107  0.040455  1
