# generated using pymatgen
data_Li2Ca2LuAlSi3
_symmetry_space_group_name_H-M   'P 1'
_cell_length_a   7.02344077
_cell_length_b   7.16067745
_cell_length_c   4.25739600
_cell_angle_alpha   90.00000000
_cell_angle_beta   90.00000000
_cell_angle_gamma   120.83751197
_symmetry_Int_Tables_number   1
_chemical_formula_structural   Li2Ca2LuAlSi3
_chemical_formula_sum   'Li2 Ca2 Lu1 Al1 Si3'
_cell_volume   183.84479879
_cell_formula_units_Z   1
loop_
 _symmetry_equiv_pos_site_id
 _symmetry_equiv_pos_as_xyz
  1  'x, y, z'
loop_
 _atom_site_type_symbol
 _atom_site_label
 _atom_site_symmetry_multiplicity
 _atom_site_fract_x
 _atom_site_fract_y
 _atom_site_fract_z
 _atom_site_occupancy
  Li  Li0  1  0.239373  0.996287  0.500000  1
  Li  Li1  1  0.997555  0.237647  0.500000  1
  Ca  Ca2  1  0.419289  0.421731  0.000000  1
  Ca  Ca3  1  0.573136  0.008748  0.000000  1
  Lu  Lu4  1  0.007463  0.582067  0.000000  1
  Al  Al5  1  0.755882  0.754329  0.500000  1
  Si  Si6  1  0.332835  0.666519  0.500000  1
  Si  Si7  1  0.689294  0.359895  0.500000  1
  Si  Si8  1  0.985174  0.972777  0.000000  1
