# generated using pymatgen
data_EuSc2(FeH6)2
_symmetry_space_group_name_H-M   'P 1'
_cell_length_a   4.50575100
_cell_length_b   4.50575276
_cell_length_c   7.92542600
_cell_angle_alpha   90.00000000
_cell_angle_beta   90.00000000
_cell_angle_gamma   120.00000907
_symmetry_Int_Tables_number   1
_chemical_formula_structural   EuSc2(FeH6)2
_chemical_formula_sum   'Eu1 Sc2 Fe2 H12'
_cell_volume   139.34383304
_cell_formula_units_Z   1
loop_
 _symmetry_equiv_pos_site_id
 _symmetry_equiv_pos_as_xyz
  1  'x, y, z'
loop_
 _atom_site_type_symbol
 _atom_site_label
 _atom_site_symmetry_multiplicity
 _atom_site_fract_x
 _atom_site_fract_y
 _atom_site_fract_z
 _atom_site_occupancy
  Eu  Eu0  1  0.000000  0.000000  0.000000  1
  Sc  Sc1  1  0.666667  0.333333  0.367941  1
  Sc  Sc2  1  0.333333  0.666667  0.632059  1
  Fe  Fe3  1  0.666667  0.333333  0.719737  1
  Fe  Fe4  1  0.333333  0.666667  0.280263  1
  H  H5  1  0.166264  0.833736  0.391159  1
  H  H6  1  0.667473  0.833736  0.391159  1
  H  H7  1  0.166264  0.332527  0.391159  1
  H  H8  1  0.833736  0.166264  0.608841  1
  H  H9  1  0.332527  0.166264  0.608841  1
  H  H10  1  0.833736  0.667473  0.608841  1
  H  H11  1  0.504289  0.008578  0.841467  1
  H  H12  1  0.504289  0.495711  0.841467  1
  H  H13  1  0.991422  0.495711  0.841467  1
  H  H14  1  0.495711  0.991422  0.158533  1
  H  H15  1  0.495711  0.504289  0.158533  1
  H  H16  1  0.008578  0.504289  0.158533  1
