# generated using pymatgen
data_Y7Er2Zr(In2Rh)4
_symmetry_space_group_name_H-M   'P 1'
_cell_length_a   3.63343500
_cell_length_b   8.00282980
_cell_length_c   18.20989730
_cell_angle_alpha   89.92688496
_cell_angle_beta   90.00000000
_cell_angle_gamma   90.00000000
_symmetry_Int_Tables_number   1
_chemical_formula_structural   Y7Er2Zr(In2Rh)4
_chemical_formula_sum   'Y7 Er2 Zr1 In8 Rh4'
_cell_volume   529.50262649
_cell_formula_units_Z   1
loop_
 _symmetry_equiv_pos_site_id
 _symmetry_equiv_pos_as_xyz
  1  'x, y, z'
loop_
 _atom_site_type_symbol
 _atom_site_label
 _atom_site_symmetry_multiplicity
 _atom_site_fract_x
 _atom_site_fract_y
 _atom_site_fract_z
 _atom_site_occupancy
  Y  Y0  1  0.000000  0.622015  0.589206  1
  Y  Y1  1  0.000000  0.251306  0.723137  1
  Y  Y2  1  0.000000  0.381010  0.411508  1
  Y  Y3  1  0.000000  0.254561  0.216073  1
  Y  Y4  1  0.000000  0.001521  0.499374  1
  Y  Y5  1  0.000000  0.748735  0.278788  1
  Y  Y6  1  0.000000  0.497553  0.001972  1
  Er  Er7  1  0.000000  0.117666  0.911424  1
  Er  Er8  1  0.000000  0.748737  0.781827  1
  Zr  Zr9  1  0.000000  0.879598  0.089052  1
  In  In10  1  0.500000  0.799309  0.938382  1
  In  In11  1  0.500000  0.579928  0.148984  1
  In  In12  1  0.500000  0.434277  0.852272  1
  In  In13  1  0.500000  0.070968  0.345154  1
  In  In14  1  0.500000  0.296356  0.569542  1
  In  In15  1  0.500000  0.932737  0.651647  1
  In  In16  1  0.500000  0.705950  0.431462  1
  In  In17  1  0.500000  0.192098  0.063689  1
  Rh  Rh18  1  0.500000  0.531645  0.698506  1
  Rh  Rh19  1  0.500000  0.472011  0.303143  1
  Rh  Rh20  1  0.500000  0.018474  0.807258  1
  Rh  Rh21  1  0.500000  0.963544  0.187601  1
