# generated using pymatgen
data_Mn2NiBr9
_symmetry_space_group_name_H-M   'P 1'
_cell_length_a   6.43268013
_cell_length_b   6.42331301
_cell_length_c   19.54545142
_cell_angle_alpha   89.57531100
_cell_angle_beta   90.21203332
_cell_angle_gamma   119.95185631
_symmetry_Int_Tables_number   1
_chemical_formula_structural   Mn2NiBr9
_chemical_formula_sum   'Mn4 Ni2 Br18'
_cell_volume   699.72265161
_cell_formula_units_Z   2
loop_
 _symmetry_equiv_pos_site_id
 _symmetry_equiv_pos_as_xyz
  1  'x, y, z'
loop_
 _atom_site_type_symbol
 _atom_site_label
 _atom_site_symmetry_multiplicity
 _atom_site_fract_x
 _atom_site_fract_y
 _atom_site_fract_z
 _atom_site_occupancy
  Mn  Mn0  1  0.556057  0.778028  0.000000  1
  Mn  Mn1  1  0.221937  0.777530  0.333323  1
  Mn  Mn2  1  0.221937  0.444407  0.666677  1
  Mn  Mn3  1  0.889581  0.444790  0.000000  1
  Ni  Ni4  1  0.556362  0.443661  0.333726  1
  Ni  Ni5  1  0.556362  0.112702  0.666274  1
  Br  Br6  1  0.206244  0.460195  0.925049  1
  Br  Br7  1  0.521032  0.753088  0.260920  1
  Br  Br8  1  0.206244  0.746049  0.074951  1
  Br  Br9  1  0.248260  0.770874  0.594421  1
  Br  Br10  1  0.521032  0.767943  0.739080  1
  Br  Br11  1  0.248260  0.477385  0.405579  1
  Br  Br12  1  0.586481  0.125248  0.925235  1
  Br  Br13  1  0.898252  0.480524  0.261113  1
  Br  Br14  1  0.586481  0.461233  0.074765  1
  Br  Br15  1  0.520497  0.420323  0.593998  1
  Br  Br16  1  0.898252  0.417728  0.738887  1
  Br  Br17  1  0.520497  0.100174  0.406002  1
  Br  Br18  1  0.870844  0.125002  0.076341  1
  Br  Br19  1  0.898716  0.749978  0.406243  1
  Br  Br20  1  0.870844  0.745842  0.923659  1
  Br  Br21  1  0.248557  0.145591  0.739397  1
  Br  Br22  1  0.898716  0.148737  0.593757  1
  Br  Br23  1  0.248557  0.102965  0.260603  1
