# generated using pymatgen
data_Rb(Ni2As)4
_symmetry_space_group_name_H-M   'P 1'
_cell_length_a   7.59103107
_cell_length_b   7.59096409
_cell_length_c   7.58766369
_cell_angle_alpha   93.29169299
_cell_angle_beta   93.33296595
_cell_angle_gamma   152.18886785
_symmetry_Int_Tables_number   1
_chemical_formula_structural   Rb(Ni2As)4
_chemical_formula_sum   'Rb1 Ni8 As4'
_cell_volume   198.00799982
_cell_formula_units_Z   1
loop_
 _symmetry_equiv_pos_site_id
 _symmetry_equiv_pos_as_xyz
  1  'x, y, z'
loop_
 _atom_site_type_symbol
 _atom_site_label
 _atom_site_symmetry_multiplicity
 _atom_site_fract_x
 _atom_site_fract_y
 _atom_site_fract_z
 _atom_site_occupancy
  Rb  Rb0  1  0.000000  0.000000  0.000000  1
  Ni  Ni1  1  0.014537  0.624175  0.638736  1
  Ni  Ni2  1  0.657841  0.226396  0.884260  1
  Ni  Ni3  1  0.226420  0.342126  0.568564  1
  Ni  Ni4  1  0.773580  0.657874  0.431436  1
  Ni  Ni5  1  0.342159  0.773604  0.115740  1
  Ni  Ni6  1  0.985463  0.375825  0.361264  1
  Ni  Ni7  1  0.375790  0.014490  0.390278  1
  Ni  Ni8  1  0.624210  0.985510  0.609722  1
  As  As9  1  0.765628  0.420558  0.186167  1
  As  As10  1  0.420566  0.234378  0.654934  1
  As  As11  1  0.579434  0.765622  0.345066  1
  As  As12  1  0.234372  0.579442  0.813833  1
