# generated using pymatgen
data_Tm2Al2PtRh
_symmetry_space_group_name_H-M   'P 1'
_cell_length_a   4.27195300
_cell_length_b   6.79400900
_cell_length_c   7.88195900
_cell_angle_alpha   90.00000000
_cell_angle_beta   90.00000000
_cell_angle_gamma   90.00000000
_symmetry_Int_Tables_number   1
_chemical_formula_structural   Tm2Al2PtRh
_chemical_formula_sum   'Tm4 Al4 Pt2 Rh2'
_cell_volume   228.76351198
_cell_formula_units_Z   2
loop_
 _symmetry_equiv_pos_site_id
 _symmetry_equiv_pos_as_xyz
  1  'x, y, z'
loop_
 _atom_site_type_symbol
 _atom_site_label
 _atom_site_symmetry_multiplicity
 _atom_site_fract_x
 _atom_site_fract_y
 _atom_site_fract_z
 _atom_site_occupancy
  Tm  Tm0  1  0.250000  0.963421  0.323842  1
  Tm  Tm1  1  0.750000  0.533303  0.821018  1
  Tm  Tm2  1  0.250000  0.463421  0.176158  1
  Tm  Tm3  1  0.750000  0.033303  0.678982  1
  Al  Al4  1  0.750000  0.637963  0.441274  1
  Al  Al5  1  0.750000  0.137963  0.058726  1
  Al  Al6  1  0.250000  0.364816  0.561519  1
  Al  Al7  1  0.250000  0.864816  0.938481  1
  Pt  Pt8  1  0.750000  0.763977  0.125371  1
  Pt  Pt9  1  0.750000  0.263977  0.374629  1
  Rh  Rh10  1  0.250000  0.236520  0.877629  1
  Rh  Rh11  1  0.250000  0.736520  0.622371  1
