# generated using pymatgen
data_Tb4Dy4Ti12Si15As
_symmetry_space_group_name_H-M   'P 1'
_cell_length_a   7.06987143
_cell_length_b   7.06376563
_cell_length_c   12.99364911
_cell_angle_alpha   89.98085142
_cell_angle_beta   89.83145579
_cell_angle_gamma   89.91267542
_symmetry_Int_Tables_number   1
_chemical_formula_structural   Tb4Dy4Ti12Si15As
_chemical_formula_sum   'Tb4 Dy4 Ti12 Si15 As1'
_cell_volume   648.89813229
_cell_formula_units_Z   1
loop_
 _symmetry_equiv_pos_site_id
 _symmetry_equiv_pos_as_xyz
  1  'x, y, z'
loop_
 _atom_site_type_symbol
 _atom_site_label
 _atom_site_symmetry_multiplicity
 _atom_site_fract_x
 _atom_site_fract_y
 _atom_site_fract_z
 _atom_site_occupancy
  Tb  Tb0  1  0.159811  0.501903  0.783270  1
  Tb  Tb1  1  0.660996  0.995202  0.967384  1
  Tb  Tb2  1  0.000438  0.342255  0.531987  1
  Tb  Tb3  1  0.997630  0.659967  0.033564  1
  Dy  Dy4  1  0.341056  0.001944  0.466082  1
  Dy  Dy5  1  0.497142  0.841520  0.717194  1
  Dy  Dy6  1  0.502351  0.159664  0.216519  1
  Dy  Dy7  1  0.839917  0.497160  0.283239  1
  Ti  Ti8  1  0.326109  0.326677  0.999798  1
  Ti  Ti9  1  0.173068  0.827205  0.250096  1
  Ti  Ti10  1  0.823842  0.173309  0.750168  1
  Ti  Ti11  1  0.672900  0.673035  0.500045  1
  Ti  Ti12  1  0.154815  0.009428  0.876015  1
  Ti  Ti13  1  0.491236  0.652415  0.126381  1
  Ti  Ti14  1  0.509385  0.347142  0.627300  1
  Ti  Ti15  1  0.654792  0.493682  0.874182  1
  Ti  Ti16  1  0.347044  0.508282  0.373464  1
  Ti  Ti17  1  0.846857  0.991847  0.376187  1
  Ti  Ti18  1  0.008573  0.152685  0.123745  1
  Ti  Ti19  1  0.989358  0.843506  0.622738  1
  Si  Si20  1  0.369962  0.702800  0.934470  1
  Si  Si21  1  0.628595  0.297963  0.434917  1
  Si  Si22  1  0.702170  0.370602  0.065587  1
  Si  Si23  1  0.298026  0.630024  0.565365  1
  Si  Si24  1  0.797366  0.870741  0.185301  1
  Si  Si25  1  0.129885  0.202209  0.315404  1
  Si  Si26  1  0.870999  0.797973  0.814656  1
  Si  Si27  1  0.290785  0.953179  0.064816  1
  Si  Si28  1  0.546931  0.790666  0.314731  1
  Si  Si29  1  0.461213  0.211206  0.819252  1
  Si  Si30  1  0.790243  0.547094  0.685074  1
  Si  Si31  1  0.209221  0.452696  0.185387  1
  Si  Si32  1  0.708608  0.045958  0.564411  1
  Si  Si33  1  0.953636  0.290394  0.935414  1
  Si  Si34  1  0.046996  0.710021  0.434742  1
  As  As35  1  0.198045  0.127647  0.681113  1
