# generated using pymatgen
data_Sc3AlPt2
_symmetry_space_group_name_H-M   'P 1'
_cell_length_a   4.31452200
_cell_length_b   6.78578100
_cell_length_c   7.88542700
_cell_angle_alpha   90.00000000
_cell_angle_beta   90.00000000
_cell_angle_gamma   90.00000000
_symmetry_Int_Tables_number   1
_chemical_formula_structural   Sc3AlPt2
_chemical_formula_sum   'Sc6 Al2 Pt4'
_cell_volume   230.86481158
_cell_formula_units_Z   2
loop_
 _symmetry_equiv_pos_site_id
 _symmetry_equiv_pos_as_xyz
  1  'x, y, z'
loop_
 _atom_site_type_symbol
 _atom_site_label
 _atom_site_symmetry_multiplicity
 _atom_site_fract_x
 _atom_site_fract_y
 _atom_site_fract_z
 _atom_site_occupancy
  Sc  Sc0  1  0.750000  0.448975  0.176525  1
  Sc  Sc1  1  0.250000  0.051025  0.676525  1
  Sc  Sc2  1  0.750000  0.989923  0.331998  1
  Sc  Sc3  1  0.250000  0.510077  0.831998  1
  Sc  Sc4  1  0.750000  0.863876  0.934933  1
  Sc  Sc5  1  0.250000  0.636124  0.434933  1
  Al  Al6  1  0.750000  0.357123  0.564109  1
  Al  Al7  1  0.250000  0.142877  0.064109  1
  Pt  Pt8  1  0.750000  0.745271  0.612855  1
  Pt  Pt9  1  0.750000  0.251272  0.879579  1
  Pt  Pt10  1  0.250000  0.248728  0.379579  1
  Pt  Pt11  1  0.250000  0.754729  0.112855  1
