# generated using pymatgen
data_TiNb5Ir7Rh11
_symmetry_space_group_name_H-M   'P 1'
_cell_length_a   5.54627200
_cell_length_b   5.55233777
_cell_length_c   13.46813202
_cell_angle_alpha   90.03865985
_cell_angle_beta   89.99997682
_cell_angle_gamma   119.96432152
_symmetry_Int_Tables_number   1
_chemical_formula_structural   TiNb5Ir7Rh11
_chemical_formula_sum   'Ti1 Nb5 Ir7 Rh11'
_cell_volume   359.31134713
_cell_formula_units_Z   1
loop_
 _symmetry_equiv_pos_site_id
 _symmetry_equiv_pos_as_xyz
  1  'x, y, z'
loop_
 _atom_site_type_symbol
 _atom_site_label
 _atom_site_symmetry_multiplicity
 _atom_site_fract_x
 _atom_site_fract_y
 _atom_site_fract_z
 _atom_site_occupancy
  Ti  Ti0  1  0.999687  0.999375  0.250129  1
  Nb  Nb1  1  0.000376  0.000750  0.749971  1
  Nb  Nb2  1  0.333404  0.666808  0.409745  1
  Nb  Nb3  1  0.666701  0.333402  0.587363  1
  Nb  Nb4  1  0.666548  0.333095  0.912669  1
  Nb  Nb5  1  0.333064  0.666129  0.090186  1
  Ir  Ir6  1  0.503539  0.495603  0.249919  1
  Ir  Ir7  1  0.503577  0.007156  0.250131  1
  Ir  Ir8  1  0.992064  0.495603  0.249919  1
  Ir  Ir9  1  0.496973  0.504758  0.750126  1
  Ir  Ir10  1  0.496552  0.993103  0.749528  1
  Ir  Ir11  1  0.007786  0.504758  0.750126  1
  Ir  Ir12  1  0.164544  0.329088  0.917163  1
  Rh  Rh13  1  0.670068  0.834897  0.917433  1
  Rh  Rh14  1  0.164829  0.834897  0.917433  1
  Rh  Rh15  1  0.835452  0.670905  0.084148  1
  Rh  Rh16  1  0.329000  0.164752  0.083560  1
  Rh  Rh17  1  0.835750  0.164752  0.083560  1
  Rh  Rh18  1  0.835505  0.671008  0.416372  1
  Rh  Rh19  1  0.328951  0.164516  0.416383  1
  Rh  Rh20  1  0.835566  0.164518  0.416383  1
  Rh  Rh21  1  0.164984  0.329967  0.582649  1
  Rh  Rh22  1  0.670216  0.835081  0.582552  1
  Rh  Rh23  1  0.164866  0.835081  0.582552  1
