# generated using pymatgen
data_YAl8SiAu4
_symmetry_space_group_name_H-M   'P 1'
_cell_length_a   6.03873649
_cell_length_b   6.03873720
_cell_length_c   14.96201159
_cell_angle_alpha   101.12093835
_cell_angle_beta   101.12096332
_cell_angle_gamma   90.06449052
_symmetry_Int_Tables_number   1
_chemical_formula_structural   YAl8SiAu4
_chemical_formula_sum   'Y2 Al16 Si2 Au8'
_cell_volume   524.89509990
_cell_formula_units_Z   2
loop_
 _symmetry_equiv_pos_site_id
 _symmetry_equiv_pos_as_xyz
  1  'x, y, z'
loop_
 _atom_site_type_symbol
 _atom_site_label
 _atom_site_symmetry_multiplicity
 _atom_site_fract_x
 _atom_site_fract_y
 _atom_site_fract_z
 _atom_site_occupancy
  Y  Y0  1  0.750457  0.249542  0.500000  1
  Y  Y1  1  0.249542  0.750457  0.500000  1
  Al  Al2  1  0.299324  0.299323  0.105437  1
  Al  Al3  1  0.806428  0.305514  0.106707  1
  Al  Al4  1  0.305514  0.806428  0.106707  1
  Al  Al5  1  0.800297  0.800297  0.105459  1
  Al  Al6  1  0.406487  0.406487  0.315228  1
  Al  Al7  1  0.908731  0.404803  0.315873  1
  Al  Al8  1  0.404803  0.908731  0.315873  1
  Al  Al9  1  0.911234  0.911234  0.314963  1
  Al  Al10  1  0.088765  0.088765  0.685037  1
  Al  Al11  1  0.595197  0.091268  0.684127  1
  Al  Al12  1  0.091268  0.595197  0.684127  1
  Al  Al13  1  0.593514  0.593513  0.684772  1
  Al  Al14  1  0.199702  0.199702  0.894541  1
  Al  Al15  1  0.694486  0.193571  0.893293  1
  Al  Al16  1  0.193571  0.694486  0.893293  1
  Al  Al17  1  0.700676  0.700676  0.894563  1
  Si  Si18  1  0.206256  0.206256  0.416523  1
  Si  Si19  1  0.793744  0.793744  0.583476  1
  Au  Au20  1  0.999999  0.999999  0.000000  1
  Au  Au21  1  0.500000  0.500000  0.000000  1
  Au  Au22  1  0.606192  0.107302  0.211397  1
  Au  Au23  1  0.107302  0.606192  0.211397  1
  Au  Au24  1  0.706475  0.706475  0.414537  1
  Au  Au25  1  0.293525  0.293525  0.585462  1
  Au  Au26  1  0.892697  0.393808  0.788603  1
  Au  Au27  1  0.393808  0.892698  0.788603  1
