# generated using pymatgen
data_SrCrBiF12
_symmetry_space_group_name_H-M   'P 1'
_cell_length_a   12.09668795
_cell_length_b   6.07254840
_cell_length_c   6.09066049
_cell_angle_alpha   57.34486038
_cell_angle_beta   56.92591377
_cell_angle_gamma   56.90261627
_symmetry_Int_Tables_number   1
_chemical_formula_structural   SrCrBiF12
_chemical_formula_sum   'Sr1 Cr1 Bi1 F12'
_cell_volume   294.89550492
_cell_formula_units_Z   1
loop_
 _symmetry_equiv_pos_site_id
 _symmetry_equiv_pos_as_xyz
  1  'x, y, z'
loop_
 _atom_site_type_symbol
 _atom_site_label
 _atom_site_symmetry_multiplicity
 _atom_site_fract_x
 _atom_site_fract_y
 _atom_site_fract_z
 _atom_site_occupancy
  Sr  Sr0  1  0.736016  0.507269  0.512742  1
  Cr  Cr1  1  0.488715  0.013400  0.002919  1
  Bi  Bi2  1  0.017571  0.983136  0.992562  1
  F  F3  1  0.176837  0.129959  0.755980  1
  F  F4  1  0.646506  0.125426  0.792385  1
  F  F5  1  0.059391  0.771706  0.348036  1
  F  F6  1  0.559422  0.794841  0.289164  1
  F  F7  1  0.117454  0.648665  0.873652  1
  F  F8  1  0.603525  0.705286  0.885029  1
  F  F9  1  0.445656  0.193408  0.703439  1
  F  F10  1  0.935620  0.226757  0.673781  1
  F  F11  1  0.346610  0.894683  0.205337  1
  F  F12  1  0.834563  0.882873  0.219034  1
  F  F13  1  0.397217  0.292866  0.123300  1
  F  F14  1  0.884898  0.329726  0.122644  1
