# generated using pymatgen
data_Tb2Al9Ir2Pt
_symmetry_space_group_name_H-M   'P 1'
_cell_length_a   7.58577613
_cell_length_b   7.58577577
_cell_length_c   9.48043947
_cell_angle_alpha   89.95849281
_cell_angle_beta   89.95848881
_cell_angle_gamma   119.64524983
_symmetry_Int_Tables_number   1
_chemical_formula_structural   Tb2Al9Ir2Pt
_chemical_formula_sum   'Tb4 Al18 Ir4 Pt2'
_cell_volume   474.13287840
_cell_formula_units_Z   2
loop_
 _symmetry_equiv_pos_site_id
 _symmetry_equiv_pos_as_xyz
  1  'x, y, z'
loop_
 _atom_site_type_symbol
 _atom_site_label
 _atom_site_symmetry_multiplicity
 _atom_site_fract_x
 _atom_site_fract_y
 _atom_site_fract_z
 _atom_site_occupancy
  Tb  Tb0  1  0.995159  0.669941  0.250914  1
  Tb  Tb1  1  0.004841  0.330059  0.749086  1
  Tb  Tb2  1  0.669941  0.995159  0.250914  1
  Tb  Tb3  1  0.330059  0.004841  0.749086  1
  Al  Al4  1  0.127599  0.127599  0.250828  1
  Al  Al5  1  0.872401  0.872401  0.749172  1
  Al  Al6  1  0.000784  0.331246  0.077208  1
  Al  Al7  1  0.999216  0.668754  0.922792  1
  Al  Al8  1  0.999856  0.665221  0.574116  1
  Al  Al9  1  0.334779  0.000144  0.425884  1
  Al  Al10  1  0.000144  0.334779  0.425884  1
  Al  Al11  1  0.665221  0.999856  0.574116  1
  Al  Al12  1  0.668754  0.999216  0.922792  1
  Al  Al13  1  0.331246  0.000784  0.077208  1
  Al  Al14  1  0.332603  0.332603  0.551360  1
  Al  Al15  1  0.667397  0.667397  0.448640  1
  Al  Al16  1  0.668700  0.668700  0.057227  1
  Al  Al17  1  0.331300  0.331300  0.942773  1
  Al  Al18  1  0.340254  0.546672  0.253050  1
  Al  Al19  1  0.659746  0.453328  0.746950  1
  Al  Al20  1  0.546672  0.340254  0.253050  1
  Al  Al21  1  0.453328  0.659746  0.746950  1
  Ir  Ir22  1  0.328169  0.671831  0.500000  1
  Ir  Ir23  1  0.671831  0.328169  0.500000  1
  Ir  Ir24  1  0.000000  0.000000  0.000000  1
  Ir  Ir25  1  0.000000  0.000000  0.500000  1
  Pt  Pt26  1  0.671986  0.328014  0.000000  1
  Pt  Pt27  1  0.328014  0.671986  0.000000  1
