# generated using pymatgen
data_BaCoNi11B6
_symmetry_space_group_name_H-M   'P 1'
_cell_length_a   6.11225454
_cell_length_b   6.11057819
_cell_length_c   6.11225404
_cell_angle_alpha   104.69755069
_cell_angle_beta   104.54838336
_cell_angle_gamma   104.69755135
_symmetry_Int_Tables_number   1
_chemical_formula_structural   BaCoNi11B6
_chemical_formula_sum   'Ba1 Co1 Ni11 B6'
_cell_volume   201.07789350
_cell_formula_units_Z   1
loop_
 _symmetry_equiv_pos_site_id
 _symmetry_equiv_pos_as_xyz
  1  'x, y, z'
loop_
 _atom_site_type_symbol
 _atom_site_label
 _atom_site_symmetry_multiplicity
 _atom_site_fract_x
 _atom_site_fract_y
 _atom_site_fract_z
 _atom_site_occupancy
  Ba  Ba0  1  0.999974  0.000000  0.000026  1
  Co  Co1  1  0.135314  0.500000  0.864686  1
  Ni  Ni2  1  0.188909  0.462932  0.462658  1
  Ni  Ni3  1  0.500535  0.867224  0.134378  1
  Ni  Ni4  1  0.464150  0.189190  0.465686  1
  Ni  Ni5  1  0.534314  0.810810  0.535850  1
  Ni  Ni6  1  0.813436  0.536708  0.535479  1
  Ni  Ni7  1  0.537342  0.537068  0.811091  1
  Ni  Ni8  1  0.500065  0.132187  0.866507  1
  Ni  Ni9  1  0.867092  0.500000  0.132908  1
  Ni  Ni10  1  0.133493  0.867813  0.499935  1
  Ni  Ni11  1  0.464521  0.463292  0.186564  1
  Ni  Ni12  1  0.865622  0.132776  0.499465  1
  B  B13  1  0.767741  0.768199  0.349524  1
  B  B14  1  0.229627  0.645507  0.225155  1
  B  B15  1  0.231206  0.235895  0.658662  1
  B  B16  1  0.650476  0.231801  0.232259  1
  B  B17  1  0.341338  0.764105  0.768794  1
  B  B18  1  0.774845  0.354493  0.770373  1
