# generated using pymatgen
data_Tb8TaTi11Si16
_symmetry_space_group_name_H-M   'P 1'
_cell_length_a   7.06557304
_cell_length_b   7.06557304
_cell_length_c   13.01289256
_cell_angle_alpha   89.96026449
_cell_angle_beta   90.03973551
_cell_angle_gamma   90.11593529
_symmetry_Int_Tables_number   1
_chemical_formula_structural   Tb8TaTi11Si16
_chemical_formula_sum   'Tb8 Ta1 Ti11 Si16'
_cell_volume   649.63217595
_cell_formula_units_Z   1
loop_
 _symmetry_equiv_pos_site_id
 _symmetry_equiv_pos_as_xyz
  1  'x, y, z'
loop_
 _atom_site_type_symbol
 _atom_site_label
 _atom_site_symmetry_multiplicity
 _atom_site_fract_x
 _atom_site_fract_y
 _atom_site_fract_z
 _atom_site_occupancy
  Tb  Tb0  1  0.339627  0.002756  0.466657  1
  Tb  Tb1  1  0.497131  0.839769  0.716769  1
  Tb  Tb2  1  0.502671  0.159769  0.216445  1
  Tb  Tb3  1  0.839769  0.497131  0.283231  1
  Tb  Tb4  1  0.159769  0.502671  0.783555  1
  Tb  Tb5  1  0.659768  0.997614  0.966720  1
  Tb  Tb6  1  0.002756  0.339627  0.533343  1
  Tb  Tb7  1  0.997614  0.659768  0.033280  1
  Ta  Ta8  1  0.327055  0.327055  0.000000  1
  Ti  Ti9  1  0.173117  0.827164  0.250000  1
  Ti  Ti10  1  0.827164  0.173117  0.750000  1
  Ti  Ti11  1  0.672691  0.672691  0.500000  1
  Ti  Ti12  1  0.153993  0.009249  0.876660  1
  Ti  Ti13  1  0.490891  0.652238  0.125745  1
  Ti  Ti14  1  0.508742  0.347622  0.626551  1
  Ti  Ti15  1  0.652238  0.490891  0.874255  1
  Ti  Ti16  1  0.347622  0.508742  0.373449  1
  Ti  Ti17  1  0.847054  0.991455  0.376390  1
  Ti  Ti18  1  0.009249  0.153993  0.123340  1
  Ti  Ti19  1  0.991455  0.847054  0.623610  1
  Si  Si20  1  0.202128  0.129259  0.684980  1
  Si  Si21  1  0.370854  0.702128  0.935083  1
  Si  Si22  1  0.629037  0.297757  0.435150  1
  Si  Si23  1  0.702128  0.370854  0.064917  1
  Si  Si24  1  0.297757  0.629037  0.564850  1
  Si  Si25  1  0.797496  0.870650  0.185185  1
  Si  Si26  1  0.129259  0.202128  0.315020  1
  Si  Si27  1  0.870650  0.797496  0.814815  1
  Si  Si28  1  0.290853  0.953500  0.064897  1
  Si  Si29  1  0.546651  0.790914  0.315093  1
  Si  Si30  1  0.453668  0.208541  0.814343  1
  Si  Si31  1  0.790914  0.546651  0.684907  1
  Si  Si32  1  0.208541  0.453668  0.185657  1
  Si  Si33  1  0.709543  0.046644  0.564804  1
  Si  Si34  1  0.953500  0.290853  0.935103  1
  Si  Si35  1  0.046644  0.709543  0.435196  1
