# generated using pymatgen
data_Y3Lu7Cd3Ni
_symmetry_space_group_name_H-M   'P 1'
_cell_length_a   9.56033100
_cell_length_b   9.56033204
_cell_length_c   9.51319200
_cell_angle_alpha   90.00000000
_cell_angle_beta   90.00000000
_cell_angle_gamma   119.99999295
_symmetry_Int_Tables_number   1
_chemical_formula_structural   Y3Lu7Cd3Ni
_chemical_formula_sum   'Y6 Lu14 Cd6 Ni2'
_cell_volume   753.01361595
_cell_formula_units_Z   2
loop_
 _symmetry_equiv_pos_site_id
 _symmetry_equiv_pos_as_xyz
  1  'x, y, z'
loop_
 _atom_site_type_symbol
 _atom_site_label
 _atom_site_symmetry_multiplicity
 _atom_site_fract_x
 _atom_site_fract_y
 _atom_site_fract_z
 _atom_site_occupancy
  Y  Y0  1  0.542244  0.457756  0.250000  1
  Y  Y1  1  0.542244  0.084487  0.250000  1
  Y  Y2  1  0.915513  0.457756  0.250000  1
  Y  Y3  1  0.457756  0.542244  0.750000  1
  Y  Y4  1  0.457756  0.915513  0.750000  1
  Y  Y5  1  0.084487  0.542244  0.750000  1
  Lu  Lu6  1  0.000000  0.000000  0.500000  1
  Lu  Lu7  1  0.000000  0.000000  0.000000  1
  Lu  Lu8  1  0.211207  0.788793  0.437314  1
  Lu  Lu9  1  0.211207  0.422414  0.437314  1
  Lu  Lu10  1  0.577586  0.788793  0.437314  1
  Lu  Lu11  1  0.788793  0.211207  0.562686  1
  Lu  Lu12  1  0.788793  0.577586  0.562686  1
  Lu  Lu13  1  0.422414  0.211207  0.562686  1
  Lu  Lu14  1  0.788793  0.211207  0.937314  1
  Lu  Lu15  1  0.788793  0.577586  0.937314  1
  Lu  Lu16  1  0.422414  0.211207  0.937314  1
  Lu  Lu17  1  0.211207  0.788793  0.062686  1
  Lu  Lu18  1  0.211207  0.422414  0.062686  1
  Lu  Lu19  1  0.577586  0.788793  0.062686  1
  Cd  Cd20  1  0.885589  0.114411  0.250000  1
  Cd  Cd21  1  0.885589  0.771177  0.250000  1
  Cd  Cd22  1  0.228823  0.114411  0.250000  1
  Cd  Cd23  1  0.114411  0.885589  0.750000  1
  Cd  Cd24  1  0.114411  0.228823  0.750000  1
  Cd  Cd25  1  0.771177  0.885589  0.750000  1
  Ni  Ni26  1  0.333333  0.666667  0.250000  1
  Ni  Ni27  1  0.666667  0.333333  0.750000  1
