# generated using pymatgen
data_Nb5Fe(TcI4)6
_symmetry_space_group_name_H-M   'P 1'
_cell_length_a   10.82558560
_cell_length_b   10.82676278
_cell_length_c   13.00505400
_cell_angle_alpha   89.80441600
_cell_angle_beta   89.81969580
_cell_angle_gamma   105.55058454
_symmetry_Int_Tables_number   1
_chemical_formula_structural   Nb5Fe(TcI4)6
_chemical_formula_sum   'Nb5 Fe1 Tc6 I24'
_cell_volume   1468.45211841
_cell_formula_units_Z   1
loop_
 _symmetry_equiv_pos_site_id
 _symmetry_equiv_pos_as_xyz
  1  'x, y, z'
loop_
 _atom_site_type_symbol
 _atom_site_label
 _atom_site_symmetry_multiplicity
 _atom_site_fract_x
 _atom_site_fract_y
 _atom_site_fract_z
 _atom_site_occupancy
  Nb  Nb0  1  0.627684  0.626893  0.427301  1
  Nb  Nb1  1  0.372849  0.371864  0.573742  1
  Nb  Nb2  1  0.879045  0.873278  0.931704  1
  Nb  Nb3  1  0.127463  0.121595  0.070736  1
  Nb  Nb4  1  0.574051  0.573125  0.630880  1
  Fe  Fe5  1  0.111802  0.889066  0.000932  1
  Tc  Tc6  1  0.427289  0.426475  0.370534  1
  Tc  Tc7  1  0.927218  0.927502  0.133086  1
  Tc  Tc8  1  0.073689  0.073967  0.868991  1
  Tc  Tc9  1  0.613425  0.385501  0.499449  1
  Tc  Tc10  1  0.889139  0.112191  0.000959  1
  Tc  Tc11  1  0.386297  0.612485  0.499486  1
  I  I12  1  0.823809  0.580505  0.555449  1
  I  I13  1  0.416015  0.182407  0.435086  1
  I  I14  1  0.684483  0.917070  0.065685  1
  I  I15  1  0.085006  0.316613  0.936698  1
  I  I16  1  0.183006  0.414847  0.435614  1
  I  I17  1  0.581502  0.823125  0.554855  1
  I  I18  1  0.321165  0.097400  0.932957  1
  I  I19  1  0.905642  0.680384  0.069661  1
  I  I20  1  0.664790  0.432252  0.293116  1
  I  I21  1  0.563121  0.320529  0.703835  1
  I  I22  1  0.833337  0.065138  0.796945  1
  I  I23  1  0.935485  0.167849  0.205082  1
  I  I24  1  0.321627  0.562500  0.704248  1
  I  I25  1  0.432073  0.663761  0.292900  1
  I  I26  1  0.166007  0.940701  0.214040  1
  I  I27  1  0.060021  0.834889  0.788506  1
  I  I28  1  0.671035  0.670459  0.837270  1
  I  I29  1  0.332709  0.331778  0.167187  1
  I  I30  1  0.836857  0.833197  0.336032  1
  I  I31  1  0.168262  0.163748  0.665556  1
  I  I32  1  0.778729  0.223934  0.499720  1
  I  I33  1  0.726968  0.275216  0.000613  1
  I  I34  1  0.225244  0.777450  0.499983  1
  I  I35  1  0.273157  0.730306  0.001165  1
