# generated using pymatgen
data_Ac8Y9Er3Pb16
_symmetry_space_group_name_H-M   'P 1'
_cell_length_a   8.50192900
_cell_length_b   8.57522073
_cell_length_c   16.26226400
_cell_angle_alpha   90.00000000
_cell_angle_beta   90.00000000
_cell_angle_gamma   89.97638071
_symmetry_Int_Tables_number   1
_chemical_formula_structural   Ac8Y9Er3Pb16
_chemical_formula_sum   'Ac8 Y9 Er3 Pb16'
_cell_volume   1185.61518159
_cell_formula_units_Z   1
loop_
 _symmetry_equiv_pos_site_id
 _symmetry_equiv_pos_as_xyz
  1  'x, y, z'
loop_
 _atom_site_type_symbol
 _atom_site_label
 _atom_site_symmetry_multiplicity
 _atom_site_fract_x
 _atom_site_fract_y
 _atom_site_fract_z
 _atom_site_occupancy
  Ac  Ac0  1  0.520025  0.322896  0.903890  1
  Ac  Ac1  1  0.019734  0.176721  0.595776  1
  Ac  Ac2  1  0.480164  0.676883  0.404065  1
  Ac  Ac3  1  0.980132  0.823060  0.095830  1
  Ac  Ac4  1  0.480164  0.676883  0.095935  1
  Ac  Ac5  1  0.980132  0.823060  0.404170  1
  Ac  Ac6  1  0.520025  0.322896  0.596110  1
  Ac  Ac7  1  0.019734  0.176721  0.904224  1
  Y  Y8  1  0.360194  0.843627  0.876468  1
  Y  Y9  1  0.859668  0.656430  0.623404  1
  Y  Y10  1  0.640006  0.156582  0.376308  1
  Y  Y11  1  0.140090  0.343986  0.123668  1
  Y  Y12  1  0.640006  0.156582  0.123692  1
  Y  Y13  1  0.140090  0.343986  0.376332  1
  Y  Y14  1  0.360194  0.843627  0.623532  1
  Y  Y15  1  0.859668  0.656430  0.876596  1
  Y  Y16  1  0.194835  0.504702  0.750000  1
  Er  Er17  1  0.694658  0.994439  0.750000  1
  Er  Er18  1  0.805213  0.494567  0.250000  1
  Er  Er19  1  0.305323  0.005550  0.250000  1
  Pb  Pb20  1  0.305065  0.046011  0.046125  1
  Pb  Pb21  1  0.804741  0.454090  0.453858  1
  Pb  Pb22  1  0.694906  0.954352  0.545947  1
  Pb  Pb23  1  0.195211  0.545950  0.954394  1
  Pb  Pb24  1  0.694906  0.954352  0.954053  1
  Pb  Pb25  1  0.195211  0.545950  0.545606  1
  Pb  Pb26  1  0.305065  0.046011  0.453875  1
  Pb  Pb27  1  0.804741  0.454090  0.046142  1
  Pb  Pb28  1  0.554396  0.634817  0.750000  1
  Pb  Pb29  1  0.052962  0.866031  0.750000  1
  Pb  Pb30  1  0.446296  0.365711  0.250000  1
  Pb  Pb31  1  0.946586  0.134394  0.250000  1
  Pb  Pb32  1  0.330642  0.145070  0.750000  1
  Pb  Pb33  1  0.830261  0.353360  0.750000  1
  Pb  Pb34  1  0.669486  0.853618  0.250000  1
  Pb  Pb35  1  0.169469  0.646564  0.250000  1
