# generated using pymatgen
data_Er2Ga9IrPdRu
_symmetry_space_group_name_H-M   'P 1'
_cell_length_a   7.57552092
_cell_length_b   7.57552128
_cell_length_c   9.52598283
_cell_angle_alpha   89.91795799
_cell_angle_beta   89.91795425
_cell_angle_gamma   119.65534269
_symmetry_Int_Tables_number   1
_chemical_formula_structural   Er2Ga9IrPdRu
_chemical_formula_sum   'Er4 Ga18 Ir2 Pd2 Ru2'
_cell_volume   475.07430122
_cell_formula_units_Z   2
loop_
 _symmetry_equiv_pos_site_id
 _symmetry_equiv_pos_as_xyz
  1  'x, y, z'
loop_
 _atom_site_type_symbol
 _atom_site_label
 _atom_site_symmetry_multiplicity
 _atom_site_fract_x
 _atom_site_fract_y
 _atom_site_fract_z
 _atom_site_occupancy
  Er  Er0  1  0.997377  0.670318  0.250023  1
  Er  Er1  1  0.002623  0.329682  0.749977  1
  Er  Er2  1  0.670318  0.997377  0.250023  1
  Er  Er3  1  0.329682  0.002623  0.749977  1
  Ga  Ga4  1  0.129788  0.129788  0.249485  1
  Ga  Ga5  1  0.870212  0.870212  0.750515  1
  Ga  Ga6  1  0.001960  0.337402  0.080801  1
  Ga  Ga7  1  0.998040  0.662598  0.919199  1
  Ga  Ga8  1  0.997411  0.660308  0.579928  1
  Ga  Ga9  1  0.339692  0.002589  0.420072  1
  Ga  Ga10  1  0.002589  0.339692  0.420072  1
  Ga  Ga11  1  0.660308  0.997411  0.579928  1
  Ga  Ga12  1  0.662598  0.998040  0.919199  1
  Ga  Ga13  1  0.337402  0.001960  0.080801  1
  Ga  Ga14  1  0.340133  0.340133  0.565444  1
  Ga  Ga15  1  0.659867  0.659867  0.434556  1
  Ga  Ga16  1  0.662432  0.662432  0.067018  1
  Ga  Ga17  1  0.337568  0.337568  0.932982  1
  Ga  Ga18  1  0.336108  0.549963  0.251318  1
  Ga  Ga19  1  0.663892  0.450037  0.748682  1
  Ga  Ga20  1  0.549963  0.336108  0.251318  1
  Ga  Ga21  1  0.450037  0.663892  0.748682  1
  Ir  Ir22  1  0.673346  0.326654  0.000000  1
  Ir  Ir23  1  0.326654  0.673346  0.000000  1
  Pd  Pd24  1  0.000000  0.000000  0.000000  1
  Pd  Pd25  1  0.000000  0.000000  0.500000  1
  Ru  Ru26  1  0.326074  0.673926  0.500000  1
  Ru  Ru27  1  0.673926  0.326074  0.500000  1
