# generated using pymatgen
data_La3Cd3CuHgPd
_symmetry_space_group_name_H-M   'P 1'
_cell_length_a   8.09288400
_cell_length_b   8.09288525
_cell_length_c   4.00688400
_cell_angle_alpha   90.00000000
_cell_angle_beta   90.00000000
_cell_angle_gamma   120.00000307
_symmetry_Int_Tables_number   1
_chemical_formula_structural   La3Cd3CuHgPd
_chemical_formula_sum   'La3 Cd3 Cu1 Hg1 Pd1'
_cell_volume   227.27103302
_cell_formula_units_Z   1
loop_
 _symmetry_equiv_pos_site_id
 _symmetry_equiv_pos_as_xyz
  1  'x, y, z'
loop_
 _atom_site_type_symbol
 _atom_site_label
 _atom_site_symmetry_multiplicity
 _atom_site_fract_x
 _atom_site_fract_y
 _atom_site_fract_z
 _atom_site_occupancy
  La  La0  1  0.600631  0.019214  0.000000  1
  La  La1  1  0.980786  0.581417  0.000000  1
  La  La2  1  0.418583  0.399369  0.000000  1
  Cd  Cd3  1  0.241922  0.000099  0.500000  1
  Cd  Cd4  1  0.999901  0.241822  0.500000  1
  Cd  Cd5  1  0.758178  0.758078  0.500000  1
  Cu  Cu6  1  0.000000  0.000000  0.000000  1
  Hg  Hg7  1  0.333333  0.666667  0.500000  1
  Pd  Pd8  1  0.666667  0.333333  0.500000  1
