# generated using pymatgen
data_Cs(NpS2)2
_symmetry_space_group_name_H-M   'P 1'
_cell_length_a   8.93942751
_cell_length_b   8.93942564
_cell_length_c   6.94184100
_cell_angle_alpha   75.40961194
_cell_angle_beta   75.40961505
_cell_angle_gamma   26.39653584
_symmetry_Int_Tables_number   1
_chemical_formula_structural   Cs(NpS2)2
_chemical_formula_sum   'Cs1 Np2 S4'
_cell_volume   238.23086768
_cell_formula_units_Z   1
loop_
 _symmetry_equiv_pos_site_id
 _symmetry_equiv_pos_as_xyz
  1  'x, y, z'
loop_
 _atom_site_type_symbol
 _atom_site_label
 _atom_site_symmetry_multiplicity
 _atom_site_fract_x
 _atom_site_fract_y
 _atom_site_fract_z
 _atom_site_occupancy
  Cs  Cs0  1  0.500000  0.500000  0.500000  1
  Np  Np1  1  0.756844  0.756844  0.242165  1
  Np  Np2  1  0.243156  0.243156  0.757835  1
  S  S3  1  0.337265  0.337265  0.019442  1
  S  S4  1  0.662735  0.662735  0.980558  1
  S  S5  1  0.832037  0.832037  0.541862  1
  S  S6  1  0.167963  0.167963  0.458138  1
