# generated using pymatgen
data_Hf2Pa4Fe15Si7Ru
_symmetry_space_group_name_H-M   'P 1'
_cell_length_a   8.27485536
_cell_length_b   8.20884207
_cell_length_c   8.27485358
_cell_angle_alpha   59.86681076
_cell_angle_beta   59.44745972
_cell_angle_gamma   59.86680245
_symmetry_Int_Tables_number   1
_chemical_formula_structural   Hf2Pa4Fe15Si7Ru
_chemical_formula_sum   'Hf2 Pa4 Fe15 Si7 Ru1'
_cell_volume   394.97645950
_cell_formula_units_Z   1
loop_
 _symmetry_equiv_pos_site_id
 _symmetry_equiv_pos_as_xyz
  1  'x, y, z'
loop_
 _atom_site_type_symbol
 _atom_site_label
 _atom_site_symmetry_multiplicity
 _atom_site_fract_x
 _atom_site_fract_y
 _atom_site_fract_z
 _atom_site_occupancy
  Hf  Hf0  1  0.718738  0.285163  0.718738  1
  Hf  Hf1  1  0.277920  0.720092  0.277920  1
  Pa  Pa2  1  0.294454  0.708293  0.708798  1
  Pa  Pa3  1  0.708798  0.708293  0.294454  1
  Pa  Pa4  1  0.287917  0.288912  0.710233  1
  Pa  Pa5  1  0.710233  0.288912  0.287917  1
  Fe  Fe6  1  0.027674  0.323940  0.325382  1
  Fe  Fe7  1  0.124036  0.124583  0.632508  1
  Fe  Fe8  1  0.323882  0.027679  0.323882  1
  Fe  Fe9  1  0.322677  0.325144  0.322677  1
  Fe  Fe10  1  0.672857  0.673611  0.972835  1
  Fe  Fe11  1  0.878117  0.877510  0.367277  1
  Fe  Fe12  1  0.676623  0.674602  0.676623  1
  Fe  Fe13  1  0.673928  0.973238  0.673928  1
  Fe  Fe14  1  0.325382  0.323940  0.027674  1
  Fe  Fe15  1  0.877541  0.366530  0.877541  1
  Fe  Fe16  1  0.632508  0.124583  0.124036  1
  Fe  Fe17  1  0.124071  0.632541  0.124071  1
  Fe  Fe18  1  0.123100  0.122375  0.123100  1
  Fe  Fe19  1  0.972835  0.673611  0.672857  1
  Fe  Fe20  1  0.367277  0.877510  0.878117  1
  Si  Si21  1  0.001536  0.999830  0.495033  1
  Si  Si22  1  0.001043  0.496020  0.001043  1
  Si  Si23  1  0.004024  0.002100  0.004024  1
  Si  Si24  1  0.499470  0.000500  0.499470  1
  Si  Si25  1  0.999988  0.499757  0.499273  1
  Si  Si26  1  0.495033  0.999830  0.001536  1
  Si  Si27  1  0.499273  0.499757  0.999988  1
  Ru  Ru28  1  0.879066  0.881150  0.879066  1
