# generated using pymatgen
data_Yb6ReBrO12
_symmetry_space_group_name_H-M   'P 1'
_cell_length_a   5.84462249
_cell_length_b   5.49319228
_cell_length_c   9.63357064
_cell_angle_alpha   55.51384217
_cell_angle_beta   89.29586638
_cell_angle_gamma   90.13516845
_symmetry_Int_Tables_number   1
_chemical_formula_structural   Yb6ReBrO12
_chemical_formula_sum   'Yb6 Re1 Br1 O12'
_cell_volume   254.90233335
_cell_formula_units_Z   1
loop_
 _symmetry_equiv_pos_site_id
 _symmetry_equiv_pos_as_xyz
  1  'x, y, z'
loop_
 _atom_site_type_symbol
 _atom_site_label
 _atom_site_symmetry_multiplicity
 _atom_site_fract_x
 _atom_site_fract_y
 _atom_site_fract_z
 _atom_site_occupancy
  Yb  Yb0  1  0.571000  0.237824  0.240811  1
  Yb  Yb1  1  0.062780  0.790641  0.228485  1
  Yb  Yb2  1  0.500000  0.000000  0.000000  1
  Yb  Yb3  1  0.000000  0.000000  0.500000  1
  Yb  Yb4  1  0.937220  0.209359  0.771515  1
  Yb  Yb5  1  0.429000  0.762176  0.759189  1
  Re  Re6  1  0.500000  0.500000  0.500000  1
  Br  Br7  1  0.000000  0.500000  0.000000  1
  O  O8  1  0.550332  0.394929  0.722383  1
  O  O9  1  0.058423  0.609732  0.764547  1
  O  O10  1  0.449668  0.605071  0.277617  1
  O  O11  1  0.941577  0.390268  0.235453  1
  O  O12  1  0.774443  0.736369  0.426126  1
  O  O13  1  0.286735  0.253387  0.070764  1
  O  O14  1  0.225557  0.263631  0.573874  1
  O  O15  1  0.713265  0.746613  0.929236  1
  O  O16  1  0.184184  0.848517  0.945461  1
  O  O17  1  0.668405  0.164079  0.551616  1
  O  O18  1  0.815816  0.151483  0.054539  1
  O  O19  1  0.331595  0.835921  0.448384  1
