# generated using pymatgen
data_Sc3V3(B2Ru5)2
_symmetry_space_group_name_H-M   'P 1'
_cell_length_a   9.31368476
_cell_length_b   9.31368449
_cell_length_c   3.00423200
_cell_angle_alpha   90.00000000
_cell_angle_beta   90.00000000
_cell_angle_gamma   89.93727025
_symmetry_Int_Tables_number   1
_chemical_formula_structural   Sc3V3(B2Ru5)2
_chemical_formula_sum   'Sc3 V3 B4 Ru10'
_cell_volume   260.60111143
_cell_formula_units_Z   1
loop_
 _symmetry_equiv_pos_site_id
 _symmetry_equiv_pos_as_xyz
  1  'x, y, z'
loop_
 _atom_site_type_symbol
 _atom_site_label
 _atom_site_symmetry_multiplicity
 _atom_site_fract_x
 _atom_site_fract_y
 _atom_site_fract_z
 _atom_site_occupancy
  Sc  Sc0  1  0.173106  0.826894  0.000000  1
  Sc  Sc1  1  0.325955  0.325515  0.000000  1
  Sc  Sc2  1  0.674485  0.674045  0.000000  1
  V  V3  1  0.495701  0.997688  0.000000  1
  V  V4  1  0.002312  0.504299  0.000000  1
  V  V5  1  0.824284  0.175716  0.000000  1
  B  B6  1  0.624855  0.375145  0.000000  1
  B  B7  1  0.378794  0.621206  0.000000  1
  B  B8  1  0.124102  0.125803  0.000000  1
  B  B9  1  0.874197  0.875898  0.000000  1
  Ru  Ru10  1  0.502942  0.497058  0.500000  1
  Ru  Ru11  1  0.990207  0.009793  0.500000  1
  Ru  Ru12  1  0.584068  0.207625  0.500000  1
  Ru  Ru13  1  0.430535  0.787243  0.500000  1
  Ru  Ru14  1  0.060453  0.286343  0.500000  1
  Ru  Ru15  1  0.929200  0.713984  0.500000  1
  Ru  Ru16  1  0.286016  0.070800  0.500000  1
  Ru  Ru17  1  0.713657  0.939547  0.500000  1
  Ru  Ru18  1  0.212757  0.569465  0.500000  1
  Ru  Ru19  1  0.792375  0.415932  0.500000  1
