# generated using pymatgen
data_GdYReC2
_symmetry_space_group_name_H-M   'P 1'
_cell_length_a   5.14769000
_cell_length_b   6.49798400
_cell_length_c   9.93488000
_cell_angle_alpha   90.00000000
_cell_angle_beta   90.00000000
_cell_angle_gamma   90.00000000
_symmetry_Int_Tables_number   1
_chemical_formula_structural   GdYReC2
_chemical_formula_sum   'Gd4 Y4 Re4 C8'
_cell_volume   332.31783415
_cell_formula_units_Z   4
loop_
 _symmetry_equiv_pos_site_id
 _symmetry_equiv_pos_as_xyz
  1  'x, y, z'
loop_
 _atom_site_type_symbol
 _atom_site_label
 _atom_site_symmetry_multiplicity
 _atom_site_fract_x
 _atom_site_fract_y
 _atom_site_fract_z
 _atom_site_occupancy
  Gd  Gd0  1  0.750000  0.468221  0.782605  1
  Gd  Gd1  1  0.250000  0.031779  0.282605  1
  Gd  Gd2  1  0.750000  0.968221  0.717395  1
  Gd  Gd3  1  0.250000  0.531779  0.217395  1
  Y  Y4  1  0.750000  0.816735  0.055359  1
  Y  Y5  1  0.250000  0.183265  0.944641  1
  Y  Y6  1  0.750000  0.316735  0.444641  1
  Y  Y7  1  0.250000  0.683265  0.555359  1
  Re  Re8  1  0.750000  0.778495  0.365552  1
  Re  Re9  1  0.250000  0.721505  0.865552  1
  Re  Re10  1  0.250000  0.221505  0.634448  1
  Re  Re11  1  0.750000  0.278495  0.134448  1
  C  C12  1  0.250000  0.955394  0.741361  1
  C  C13  1  0.750000  0.544606  0.241361  1
  C  C14  1  0.250000  0.455394  0.758639  1
  C  C15  1  0.750000  0.044606  0.258639  1
  C  C16  1  0.250000  0.322582  0.451538  1
  C  C17  1  0.750000  0.177418  0.951538  1
  C  C18  1  0.250000  0.822582  0.048462  1
  C  C19  1  0.750000  0.677418  0.548462  1
