# generated using pymatgen
data_Er8InHgRh2
_symmetry_space_group_name_H-M   'P 1'
_cell_length_a   9.55888144
_cell_length_b   9.55051480
_cell_length_c   9.55051549
_cell_angle_alpha   60.00631484
_cell_angle_beta   59.97101670
_cell_angle_gamma   59.97102016
_symmetry_Int_Tables_number   1
_chemical_formula_structural   Er8InHgRh2
_chemical_formula_sum   'Er16 In2 Hg2 Rh4'
_cell_volume   616.27704575
_cell_formula_units_Z   2
loop_
 _symmetry_equiv_pos_site_id
 _symmetry_equiv_pos_as_xyz
  1  'x, y, z'
loop_
 _atom_site_type_symbol
 _atom_site_label
 _atom_site_symmetry_multiplicity
 _atom_site_fract_x
 _atom_site_fract_y
 _atom_site_fract_z
 _atom_site_occupancy
  Er  Er0  1  0.189327  0.190247  0.810120  1
  Er  Er1  1  0.438886  0.061114  0.061114  1
  Er  Er2  1  0.437443  0.060445  0.435842  1
  Er  Er3  1  0.066270  0.435842  0.060445  1
  Er  Er4  1  0.650347  0.051657  0.647649  1
  Er  Er5  1  0.189385  0.810615  0.810615  1
  Er  Er6  1  0.066270  0.060445  0.435842  1
  Er  Er7  1  0.809177  0.190823  0.190823  1
  Er  Er8  1  0.810305  0.810120  0.190247  1
  Er  Er9  1  0.650347  0.647649  0.051657  1
  Er  Er10  1  0.651707  0.649270  0.649270  1
  Er  Er11  1  0.065296  0.434704  0.434704  1
  Er  Er12  1  0.049753  0.649270  0.649270  1
  Er  Er13  1  0.810305  0.190247  0.810120  1
  Er  Er14  1  0.437443  0.435842  0.060445  1
  Er  Er15  1  0.189327  0.810120  0.190247  1
  In  In16  1  0.744748  0.419515  0.419515  1
  In  In17  1  0.416223  0.419515  0.419515  1
  Hg  Hg18  1  0.413409  0.758734  0.414448  1
  Hg  Hg19  1  0.413409  0.414448  0.758734  1
  Rh  Rh20  1  0.857593  0.426750  0.858064  1
  Rh  Rh21  1  0.857593  0.858064  0.426750  1
  Rh  Rh22  1  0.428160  0.857283  0.857283  1
  Rh  Rh23  1  0.857274  0.857283  0.857283  1
