# generated using pymatgen
data_Ac2Fe2Se2O3
_symmetry_space_group_name_H-M   'P 1'
_cell_length_a   10.13916110
_cell_length_b   4.20976882
_cell_length_c   4.20986100
_cell_angle_alpha   90.00008545
_cell_angle_beta   101.97877726
_cell_angle_gamma   101.98066866
_symmetry_Int_Tables_number   1
_chemical_formula_structural   Ac2Fe2Se2O3
_chemical_formula_sum   'Ac2 Fe2 Se2 O3'
_cell_volume   171.77558780
_cell_formula_units_Z   1
loop_
 _symmetry_equiv_pos_site_id
 _symmetry_equiv_pos_as_xyz
  1  'x, y, z'
loop_
 _atom_site_type_symbol
 _atom_site_label
 _atom_site_symmetry_multiplicity
 _atom_site_fract_x
 _atom_site_fract_y
 _atom_site_fract_z
 _atom_site_occupancy
  Ac  Ac0  1  0.633415  0.316739  0.316735  1
  Ac  Ac1  1  0.366585  0.683266  0.683269  1
  Fe  Fe2  1  0.000001  0.499979  0.999996  1
  Fe  Fe3  1  0.000000  0.000004  0.499996  1
  Se  Se4  1  0.187823  0.093807  0.093799  1
  Se  Se5  1  0.812176  0.906195  0.906204  1
  O  O6  1  0.499999  0.750004  0.249997  1
  O  O7  1  0.000000  0.500005  0.500000  1
  O  O8  1  0.500001  0.250002  0.750005  1
