# generated using pymatgen
data_Dy2TmGa5
_symmetry_space_group_name_H-M   'P 1'
_cell_length_a   6.06340700
_cell_length_b   9.57410800
_cell_length_c   11.45907200
_cell_angle_alpha   90.00000000
_cell_angle_beta   90.00000000
_cell_angle_gamma   90.00000000
_symmetry_Int_Tables_number   1
_chemical_formula_structural   Dy2TmGa5
_chemical_formula_sum   'Dy8 Tm4 Ga20'
_cell_volume   665.21876433
_cell_formula_units_Z   4
loop_
 _symmetry_equiv_pos_site_id
 _symmetry_equiv_pos_as_xyz
  1  'x, y, z'
loop_
 _atom_site_type_symbol
 _atom_site_label
 _atom_site_symmetry_multiplicity
 _atom_site_fract_x
 _atom_site_fract_y
 _atom_site_fract_z
 _atom_site_occupancy
  Dy  Dy0  1  0.891212  0.509982  0.351525  1
  Dy  Dy1  1  0.608788  0.990018  0.851525  1
  Dy  Dy2  1  0.108788  0.009982  0.648475  1
  Dy  Dy3  1  0.391212  0.490018  0.148475  1
  Dy  Dy4  1  0.108788  0.490018  0.648475  1
  Dy  Dy5  1  0.391212  0.009982  0.148475  1
  Dy  Dy6  1  0.891212  0.990018  0.351525  1
  Dy  Dy7  1  0.608788  0.509982  0.851525  1
  Tm  Tm8  1  0.848471  0.750000  0.074388  1
  Tm  Tm9  1  0.651529  0.750000  0.574388  1
  Tm  Tm10  1  0.151529  0.250000  0.925612  1
  Tm  Tm11  1  0.348471  0.250000  0.425612  1
  Ga  Ga12  1  0.876084  0.053137  0.089992  1
  Ga  Ga13  1  0.623916  0.446863  0.589992  1
  Ga  Ga14  1  0.123916  0.553137  0.910008  1
  Ga  Ga15  1  0.376084  0.946863  0.410008  1
  Ga  Ga16  1  0.123916  0.946863  0.910008  1
  Ga  Ga17  1  0.376084  0.553137  0.410008  1
  Ga  Ga18  1  0.876084  0.446863  0.089992  1
  Ga  Ga19  1  0.623916  0.053137  0.589992  1
  Ga  Ga20  1  0.171167  0.750000  0.251452  1
  Ga  Ga21  1  0.328833  0.750000  0.751452  1
  Ga  Ga22  1  0.828833  0.250000  0.748548  1
  Ga  Ga23  1  0.671167  0.250000  0.248548  1
  Ga  Ga24  1  0.373267  0.750000  0.004581  1
  Ga  Ga25  1  0.126733  0.750000  0.504581  1
  Ga  Ga26  1  0.626733  0.250000  0.995419  1
  Ga  Ga27  1  0.873267  0.250000  0.495419  1
  Ga  Ga28  1  0.602017  0.750000  0.298993  1
  Ga  Ga29  1  0.897983  0.750000  0.798993  1
  Ga  Ga30  1  0.397983  0.250000  0.701007  1
  Ga  Ga31  1  0.102017  0.250000  0.201007  1
