# generated using pymatgen
data_Sc2Ta3(Re3Tc)6
_symmetry_space_group_name_H-M   'P 1'
_cell_length_a   8.41135828
_cell_length_b   8.42123852
_cell_length_c   8.42217262
_cell_angle_alpha   109.59710032
_cell_angle_beta   109.54070763
_cell_angle_gamma   109.33329487
_symmetry_Int_Tables_number   1
_chemical_formula_structural   Sc2Ta3(Re3Tc)6
_chemical_formula_sum   'Sc2 Ta3 Re18 Tc6'
_cell_volume   458.91703802
_cell_formula_units_Z   1
loop_
 _symmetry_equiv_pos_site_id
 _symmetry_equiv_pos_as_xyz
  1  'x, y, z'
loop_
 _atom_site_type_symbol
 _atom_site_label
 _atom_site_symmetry_multiplicity
 _atom_site_fract_x
 _atom_site_fract_y
 _atom_site_fract_z
 _atom_site_occupancy
  Sc  Sc0  1  0.997992  0.997876  0.627236  1
  Sc  Sc1  1  0.000059  0.999577  0.996525  1
  Ta  Ta2  1  0.369372  0.370049  0.369481  1
  Ta  Ta3  1  0.001205  0.630840  0.999796  1
  Ta  Ta4  1  0.630999  0.000226  0.000756  1
  Re  Re5  1  0.602497  0.603178  0.282242  1
  Re  Re6  1  0.805911  0.806176  0.180658  1
  Re  Re7  1  0.375517  0.192860  0.000855  1
  Re  Re8  1  0.193349  0.374860  0.001299  1
  Re  Re9  1  0.622574  0.816004  0.624129  1
  Re  Re10  1  0.377488  0.001058  0.196595  1
  Re  Re11  1  0.000109  0.376749  0.197188  1
  Re  Re12  1  0.817053  0.622543  0.623628  1
  Re  Re13  1  0.182959  0.805495  0.806751  1
  Re  Re14  1  0.805209  0.181032  0.807776  1
  Re  Re15  1  0.195136  0.001050  0.374893  1
  Re  Re16  1  0.000271  0.194785  0.376291  1
  Re  Re17  1  0.624742  0.625266  0.820592  1
  Re  Re18  1  0.396795  0.999499  0.679602  1
  Re  Re19  1  0.601488  0.281276  0.600636  1
  Re  Re20  1  0.681158  0.400267  0.000808  1
  Re  Re21  1  0.397953  0.679427  0.999561  1
  Re  Re22  1  0.323970  0.325639  0.721321  1
  Tc  Tc23  1  0.998974  0.396316  0.681572  1
  Tc  Tc24  1  0.280968  0.599658  0.599199  1
  Tc  Tc25  1  0.719429  0.319193  0.318059  1
  Tc  Tc26  1  0.318061  0.718839  0.319019  1
  Tc  Tc27  1  0.677976  0.002097  0.397272  1
  Tc  Tc28  1  0.000787  0.678169  0.396260  1
