# generated using pymatgen
data_Li8Ho4ErTm3Sn7Bi
_symmetry_space_group_name_H-M   'P 1'
_cell_length_a   9.39065810
_cell_length_b   9.39065918
_cell_length_c   7.18206600
_cell_angle_alpha   90.08926680
_cell_angle_beta   89.91073065
_cell_angle_gamma   119.98537936
_symmetry_Int_Tables_number   1
_chemical_formula_structural   Li8Ho4ErTm3Sn7Bi
_chemical_formula_sum   'Li8 Ho4 Er1 Tm3 Sn7 Bi1'
_cell_volume   548.57421792
_cell_formula_units_Z   1
loop_
 _symmetry_equiv_pos_site_id
 _symmetry_equiv_pos_as_xyz
  1  'x, y, z'
loop_
 _atom_site_type_symbol
 _atom_site_label
 _atom_site_symmetry_multiplicity
 _atom_site_fract_x
 _atom_site_fract_y
 _atom_site_fract_z
 _atom_site_occupancy
  Li  Li0  1  0.829190  0.664358  0.711541  1
  Li  Li1  1  0.833267  0.166733  0.714326  1
  Li  Li2  1  0.335189  0.664811  0.822114  1
  Li  Li3  1  0.666253  0.333747  0.320620  1
  Li  Li4  1  0.665700  0.832327  0.213210  1
  Li  Li5  1  0.167673  0.334300  0.213210  1
  Li  Li6  1  0.166732  0.833268  0.215389  1
  Li  Li7  1  0.335642  0.170810  0.711541  1
  Ho  Ho8  1  0.998001  0.001999  0.498235  1
  Ho  Ho9  1  0.511319  0.488681  0.006428  1
  Ho  Ho10  1  0.019319  0.506136  0.503389  1
  Ho  Ho11  1  0.493864  0.980681  0.503389  1
  Er  Er12  1  0.997601  0.002399  0.003704  1
  Tm  Tm13  1  0.515729  0.024160  0.009434  1
  Tm  Tm14  1  0.975840  0.484271  0.009434  1
  Tm  Tm15  1  0.488648  0.511352  0.506012  1
  Sn  Sn16  1  0.667128  0.332872  0.741700  1
  Sn  Sn17  1  0.332593  0.667407  0.241575  1
  Sn  Sn18  1  0.833348  0.166652  0.267164  1
  Sn  Sn19  1  0.166048  0.333411  0.769927  1
  Sn  Sn20  1  0.333740  0.166226  0.268723  1
  Sn  Sn21  1  0.833774  0.666260  0.268723  1
  Sn  Sn22  1  0.666589  0.833952  0.769927  1
  Bi  Bi23  1  0.166811  0.833189  0.768287  1
