# generated using pymatgen
data_CeCdGaPt3
_symmetry_space_group_name_H-M   'P 1'
_cell_length_a   5.51884652
_cell_length_b   5.51884770
_cell_length_c   5.27232600
_cell_angle_alpha   58.44082975
_cell_angle_beta   58.44083441
_cell_angle_gamma   60.00000086
_symmetry_Int_Tables_number   1
_chemical_formula_structural   CeCdGaPt3
_chemical_formula_sum   'Ce1 Cd1 Ga1 Pt3'
_cell_volume   110.79917086
_cell_formula_units_Z   1
loop_
 _symmetry_equiv_pos_site_id
 _symmetry_equiv_pos_as_xyz
  1  'x, y, z'
loop_
 _atom_site_type_symbol
 _atom_site_label
 _atom_site_symmetry_multiplicity
 _atom_site_fract_x
 _atom_site_fract_y
 _atom_site_fract_z
 _atom_site_occupancy
  Ce  Ce0  1  0.002204  0.002204  0.993388  1
  Cd  Cd1  1  0.253358  0.253358  0.239924  1
  Ga  Ga2  1  0.623624  0.623624  0.129127  1
  Pt  Pt3  1  0.622138  0.126538  0.629188  1
  Pt  Pt4  1  0.126538  0.622138  0.629188  1
  Pt  Pt5  1  0.622138  0.622138  0.629188  1
