# generated using pymatgen
data_TmZr4Sc7Ga20
_symmetry_space_group_name_H-M   'P 1'
_cell_length_a   5.81218117
_cell_length_b   9.24859643
_cell_length_c   11.09560750
_cell_angle_alpha   89.86812034
_cell_angle_beta   90.02333128
_cell_angle_gamma   90.09606033
_symmetry_Int_Tables_number   1
_chemical_formula_structural   TmZr4Sc7Ga20
_chemical_formula_sum   'Tm1 Zr4 Sc7 Ga20'
_cell_volume   596.43656608
_cell_formula_units_Z   1
loop_
 _symmetry_equiv_pos_site_id
 _symmetry_equiv_pos_as_xyz
  1  'x, y, z'
loop_
 _atom_site_type_symbol
 _atom_site_label
 _atom_site_symmetry_multiplicity
 _atom_site_fract_x
 _atom_site_fract_y
 _atom_site_fract_z
 _atom_site_occupancy
  Tm  Tm0  1  0.612925  0.505172  0.853082  1
  Zr  Zr1  1  0.857197  0.750537  0.071169  1
  Zr  Zr2  1  0.642840  0.749403  0.570375  1
  Zr  Zr3  1  0.142118  0.251055  0.929495  1
  Zr  Zr4  1  0.356828  0.249737  0.429165  1
  Sc  Sc5  1  0.887079  0.506357  0.353287  1
  Sc  Sc6  1  0.613264  0.994209  0.853566  1
  Sc  Sc7  1  0.113198  0.006242  0.645951  1
  Sc  Sc8  1  0.386528  0.493705  0.147879  1
  Sc  Sc9  1  0.113395  0.493534  0.646115  1
  Sc  Sc10  1  0.386297  0.006212  0.147170  1
  Sc  Sc11  1  0.887124  0.993254  0.353376  1
  Ga  Ga12  1  0.872535  0.051054  0.093595  1
  Ga  Ga13  1  0.628875  0.447006  0.589498  1
  Ga  Ga14  1  0.124520  0.553774  0.908452  1
  Ga  Ga15  1  0.372123  0.948277  0.406962  1
  Ga  Ga16  1  0.128708  0.949884  0.907484  1
  Ga  Ga17  1  0.371592  0.551777  0.406836  1
  Ga  Ga18  1  0.872102  0.447958  0.094508  1
  Ga  Ga19  1  0.628022  0.051061  0.592793  1
  Ga  Ga20  1  0.160797  0.750200  0.254699  1
  Ga  Ga21  1  0.337673  0.753306  0.753058  1
  Ga  Ga22  1  0.842899  0.246456  0.743302  1
  Ga  Ga23  1  0.660572  0.249466  0.246098  1
  Ga  Ga24  1  0.389045  0.751264  0.007636  1
  Ga  Ga25  1  0.109394  0.749965  0.506250  1
  Ga  Ga26  1  0.607411  0.246360  0.997386  1
  Ga  Ga27  1  0.891235  0.249268  0.492723  1
  Ga  Ga28  1  0.618993  0.750230  0.293956  1
  Ga  Ga29  1  0.884842  0.754619  0.792539  1
  Ga  Ga30  1  0.380829  0.249082  0.705396  1
  Ga  Ga31  1  0.119038  0.249579  0.206202  1
