# generated using pymatgen
data_Ti2BeV2Si5Mo6
_symmetry_space_group_name_H-M   'P 1'
_cell_length_a   7.24390472
_cell_length_b   7.24389377
_cell_length_c   7.21224659
_cell_angle_alpha   96.50404560
_cell_angle_beta   96.15185077
_cell_angle_gamma   141.30877179
_symmetry_Int_Tables_number   1
_chemical_formula_structural   Ti2BeV2Si5Mo6
_chemical_formula_sum   'Ti2 Be1 V2 Si5 Mo6'
_cell_volume   223.10122816
_cell_formula_units_Z   1
loop_
 _symmetry_equiv_pos_site_id
 _symmetry_equiv_pos_as_xyz
  1  'x, y, z'
loop_
 _atom_site_type_symbol
 _atom_site_label
 _atom_site_symmetry_multiplicity
 _atom_site_fract_x
 _atom_site_fract_y
 _atom_site_fract_z
 _atom_site_occupancy
  Ti  Ti0  1  0.082393  0.228538  0.300477  1
  Ti  Ti1  1  0.928053  0.781906  0.699518  1
  Be  Be2  1  0.253090  0.253085  0.000001  1
  V  V3  1  0.247920  0.747923  0.499997  1
  V  V4  1  0.751478  0.251481  0.500000  1
  Si  Si5  1  0.744305  0.744304  0.000001  1
  Si  Si6  1  0.163798  0.666046  0.828568  1
  Si  Si7  1  0.837473  0.335229  0.171432  1
  Si  Si8  1  0.339318  0.161832  0.501541  1
  Si  Si9  1  0.660291  0.837777  0.498461  1
  Mo  Mo10  1  0.784014  0.078779  0.855140  1
  Mo  Mo11  1  0.420889  0.719427  0.145973  1
  Mo  Mo12  1  0.223641  0.928872  0.144862  1
  Mo  Mo13  1  0.573453  0.274915  0.854024  1
  Mo  Mo14  1  0.716786  0.570233  0.297133  1
  Mo  Mo15  1  0.273098  0.419653  0.702871  1
