# generated using pymatgen
data_Yb3ErCdRu
_symmetry_space_group_name_H-M   'P 1'
_cell_length_a   9.78671045
_cell_length_b   9.78671037
_cell_length_c   9.78671100
_cell_angle_alpha   60.00000125
_cell_angle_beta   60.00000152
_cell_angle_gamma   60.00000660
_symmetry_Int_Tables_number   1
_chemical_formula_structural   Yb3ErCdRu
_chemical_formula_sum   'Yb12 Er4 Cd4 Ru4'
_cell_volume   662.81949308
_cell_formula_units_Z   4
loop_
 _symmetry_equiv_pos_site_id
 _symmetry_equiv_pos_as_xyz
  1  'x, y, z'
loop_
 _atom_site_type_symbol
 _atom_site_label
 _atom_site_symmetry_multiplicity
 _atom_site_fract_x
 _atom_site_fract_y
 _atom_site_fract_z
 _atom_site_occupancy
  Yb  Yb0  1  0.805155  0.194845  0.194845  1
  Yb  Yb1  1  0.194845  0.805155  0.805155  1
  Yb  Yb2  1  0.194845  0.805155  0.194845  1
  Yb  Yb3  1  0.805155  0.194845  0.805155  1
  Yb  Yb4  1  0.194845  0.194845  0.805155  1
  Yb  Yb5  1  0.805155  0.805155  0.194845  1
  Yb  Yb6  1  0.951950  0.548050  0.548050  1
  Yb  Yb7  1  0.548050  0.951950  0.951950  1
  Yb  Yb8  1  0.548050  0.951950  0.548050  1
  Yb  Yb9  1  0.951950  0.548050  0.951950  1
  Yb  Yb10  1  0.548050  0.548050  0.951950  1
  Yb  Yb11  1  0.951950  0.951950  0.548050  1
  Er  Er12  1  0.338909  0.338909  0.338909  1
  Er  Er13  1  0.338909  0.338909  0.983273  1
  Er  Er14  1  0.338909  0.983273  0.338909  1
  Er  Er15  1  0.983273  0.338909  0.338909  1
  Cd  Cd16  1  0.579858  0.579858  0.579858  1
  Cd  Cd17  1  0.579858  0.579858  0.260425  1
  Cd  Cd18  1  0.579858  0.260425  0.579858  1
  Cd  Cd19  1  0.260425  0.579858  0.579858  1
  Ru  Ru20  1  0.138624  0.138624  0.138624  1
  Ru  Ru21  1  0.138624  0.138624  0.584128  1
  Ru  Ru22  1  0.138624  0.584128  0.138624  1
  Ru  Ru23  1  0.584128  0.138624  0.138624  1
