# generated using pymatgen
data_La4CoNi2(BiSb)4
_symmetry_space_group_name_H-M   'P 1'
_cell_length_a   11.06025937
_cell_length_b   11.06026033
_cell_length_c   11.06026012
_cell_angle_alpha   146.54531732
_cell_angle_beta   146.54531860
_cell_angle_gamma   48.03748768
_symmetry_Int_Tables_number   1
_chemical_formula_structural   La4CoNi2(BiSb)4
_chemical_formula_sum   'La4 Co1 Ni2 Bi4 Sb4'
_cell_volume   409.50331275
_cell_formula_units_Z   1
loop_
 _symmetry_equiv_pos_site_id
 _symmetry_equiv_pos_as_xyz
  1  'x, y, z'
loop_
 _atom_site_type_symbol
 _atom_site_label
 _atom_site_symmetry_multiplicity
 _atom_site_fract_x
 _atom_site_fract_y
 _atom_site_fract_z
 _atom_site_occupancy
  La  La0  1  0.639356  0.136551  0.000000  1
  La  La1  1  0.136551  0.639356  0.000000  1
  La  La2  1  0.863449  0.863449  0.502806  1
  La  La3  1  0.360644  0.360644  0.497194  1
  Co  Co4  1  0.000000  0.000000  0.000000  1
  Ni  Ni5  1  0.500000  0.000000  0.500000  1
  Ni  Ni6  1  0.000000  0.500000  0.500000  1
  Bi  Bi7  1  0.249886  0.249886  0.000000  1
  Bi  Bi8  1  0.750114  0.750114  0.000000  1
  Bi  Bi9  1  0.250000  0.750000  0.500000  1
  Bi  Bi10  1  0.750000  0.250000  0.500000  1
  Sb  Sb11  1  0.317595  0.807418  0.000000  1
  Sb  Sb12  1  0.807418  0.317595  0.000000  1
  Sb  Sb13  1  0.192582  0.192582  0.510177  1
  Sb  Sb14  1  0.682405  0.682405  0.489823  1
