# generated using pymatgen
data_Mn2B4Mo3W
_symmetry_space_group_name_H-M   'P 1'
_cell_length_a   5.81487321
_cell_length_b   5.81474921
_cell_length_c   3.16930400
_cell_angle_alpha   90.00000000
_cell_angle_beta   90.00000000
_cell_angle_gamma   90.03097915
_symmetry_Int_Tables_number   1
_chemical_formula_structural   Mn2B4Mo3W
_chemical_formula_sum   'Mn2 B4 Mo3 W1'
_cell_volume   107.16058447
_cell_formula_units_Z   1
loop_
 _symmetry_equiv_pos_site_id
 _symmetry_equiv_pos_as_xyz
  1  'x, y, z'
loop_
 _atom_site_type_symbol
 _atom_site_label
 _atom_site_symmetry_multiplicity
 _atom_site_fract_x
 _atom_site_fract_y
 _atom_site_fract_z
 _atom_site_occupancy
  Mn  Mn0  1  0.500049  0.499991  0.000000  1
  Mn  Mn1  1  0.999985  0.000060  0.000000  1
  B  B2  1  0.112974  0.612949  0.000000  1
  B  B3  1  0.886461  0.386472  0.000000  1
  B  B4  1  0.613309  0.887209  0.000000  1
  B  B5  1  0.387227  0.113325  0.000000  1
  Mo  Mo6  1  0.321241  0.821159  0.500000  1
  Mo  Mo7  1  0.178415  0.321766  0.500000  1
  Mo  Mo8  1  0.821687  0.678331  0.500000  1
  W  W9  1  0.678654  0.178737  0.500000  1
