# generated using pymatgen
data_HoTm(Fe4B)2
_symmetry_space_group_name_H-M   'P 1'
_cell_length_a   5.04489900
_cell_length_b   5.04378102
_cell_length_c   7.03666500
_cell_angle_alpha   90.00000000
_cell_angle_beta   90.00000000
_cell_angle_gamma   120.00732602
_symmetry_Int_Tables_number   1
_chemical_formula_structural   HoTm(Fe4B)2
_chemical_formula_sum   'Ho1 Tm1 Fe8 B2'
_cell_volume   155.05084633
_cell_formula_units_Z   1
loop_
 _symmetry_equiv_pos_site_id
 _symmetry_equiv_pos_as_xyz
  1  'x, y, z'
loop_
 _atom_site_type_symbol
 _atom_site_label
 _atom_site_symmetry_multiplicity
 _atom_site_fract_x
 _atom_site_fract_y
 _atom_site_fract_z
 _atom_site_occupancy
  Ho  Ho0  1  0.999980  0.000000  0.000000  1
  Tm  Tm1  1  0.999987  0.000000  0.500000  1
  Fe  Fe2  1  0.333284  0.666609  0.000000  1
  Fe  Fe3  1  0.666675  0.333391  0.000000  1
  Fe  Fe4  1  0.499984  0.000000  0.286406  1
  Fe  Fe5  1  0.499984  0.500001  0.286419  1
  Fe  Fe6  1  0.999983  0.499999  0.286419  1
  Fe  Fe7  1  0.499984  0.000000  0.713594  1
  Fe  Fe8  1  0.499984  0.500001  0.713581  1
  Fe  Fe9  1  0.999983  0.499999  0.713581  1
  B  B10  1  0.333371  0.666770  0.500000  1
  B  B11  1  0.666601  0.333230  0.500000  1
