# generated using pymatgen
data_PdRuI18
_symmetry_space_group_name_H-M   'P 1'
_cell_length_a   10.08422053
_cell_length_b   10.08421771
_cell_length_c   10.08421900
_cell_angle_alpha   93.90196216
_cell_angle_beta   93.90195078
_cell_angle_gamma   93.90195406
_symmetry_Int_Tables_number   1
_chemical_formula_structural   PdRuI18
_chemical_formula_sum   'Pd1 Ru1 I18'
_cell_volume   1018.00567974
_cell_formula_units_Z   1
loop_
 _symmetry_equiv_pos_site_id
 _symmetry_equiv_pos_as_xyz
  1  'x, y, z'
loop_
 _atom_site_type_symbol
 _atom_site_label
 _atom_site_symmetry_multiplicity
 _atom_site_fract_x
 _atom_site_fract_y
 _atom_site_fract_z
 _atom_site_occupancy
  Pd  Pd0  1  0.500000  0.500000  0.500000  1
  Ru  Ru1  1  0.000000  0.000000  0.000000  1
  I  I2  1  0.267535  0.005887  0.025436  1
  I  I3  1  0.025436  0.267535  0.005887  1
  I  I4  1  0.005887  0.025436  0.267535  1
  I  I5  1  0.732465  0.994113  0.974564  1
  I  I6  1  0.974564  0.732465  0.994113  1
  I  I7  1  0.994113  0.974564  0.732465  1
  I  I8  1  0.635239  0.224099  0.118451  1
  I  I9  1  0.118451  0.635239  0.224099  1
  I  I10  1  0.224099  0.118451  0.635239  1
  I  I11  1  0.364761  0.775901  0.881549  1
  I  I12  1  0.881549  0.364761  0.775901  1
  I  I13  1  0.775901  0.881549  0.364761  1
  I  I14  1  0.467403  0.228910  0.521288  1
  I  I15  1  0.521288  0.467403  0.228910  1
  I  I16  1  0.228910  0.521288  0.467403  1
  I  I17  1  0.532597  0.771090  0.478712  1
  I  I18  1  0.478712  0.532597  0.771090  1
  I  I19  1  0.771090  0.478712  0.532597  1
