# generated using pymatgen
data_CsPrNdCuSe4
_symmetry_space_group_name_H-M   'P 1'
_cell_length_a   4.35841900
_cell_length_b   7.80678227
_cell_length_c   14.77588400
_cell_angle_alpha   90.00000000
_cell_angle_beta   90.00000000
_cell_angle_gamma   106.20906582
_symmetry_Int_Tables_number   1
_chemical_formula_structural   CsPrNdCuSe4
_chemical_formula_sum   'Cs2 Pr2 Nd2 Cu2 Se8'
_cell_volume   482.76816315
_cell_formula_units_Z   2
loop_
 _symmetry_equiv_pos_site_id
 _symmetry_equiv_pos_as_xyz
  1  'x, y, z'
loop_
 _atom_site_type_symbol
 _atom_site_label
 _atom_site_symmetry_multiplicity
 _atom_site_fract_x
 _atom_site_fract_y
 _atom_site_fract_z
 _atom_site_occupancy
  Cs  Cs0  1  0.105216  0.210431  0.250000  1
  Cs  Cs1  1  0.894776  0.789553  0.750000  1
  Pr  Pr2  1  0.365732  0.731463  0.061589  1
  Pr  Pr3  1  0.365732  0.731463  0.438411  1
  Nd  Nd4  1  0.634785  0.269574  0.562424  1
  Nd  Nd5  1  0.634785  0.269574  0.937576  1
  Cu  Cu6  1  0.833302  0.666606  0.250000  1
  Cu  Cu7  1  0.166174  0.332347  0.750000  1
  Se  Se8  1  0.000909  0.001819  0.999415  1
  Se  Se9  1  0.741316  0.482633  0.110175  1
  Se  Se10  1  0.422700  0.845401  0.250000  1
  Se  Se11  1  0.741316  0.482633  0.389825  1
  Se  Se12  1  0.000909  0.001819  0.500585  1
  Se  Se13  1  0.257483  0.514965  0.610484  1
  Se  Se14  1  0.577375  0.154751  0.750000  1
  Se  Se15  1  0.257483  0.514965  0.889516  1
