# generated using pymatgen
data_Ho12Tc3Ru
_symmetry_space_group_name_H-M   'P 1'
_cell_length_a   6.24944329
_cell_length_b   7.36154134
_cell_length_c   9.10558100
_cell_angle_alpha   90.00000000
_cell_angle_beta   90.00000000
_cell_angle_gamma   89.96523696
_symmetry_Int_Tables_number   1
_chemical_formula_structural   Ho12Tc3Ru
_chemical_formula_sum   'Ho12 Tc3 Ru1'
_cell_volume   418.90704925
_cell_formula_units_Z   1
loop_
 _symmetry_equiv_pos_site_id
 _symmetry_equiv_pos_as_xyz
  1  'x, y, z'
loop_
 _atom_site_type_symbol
 _atom_site_label
 _atom_site_symmetry_multiplicity
 _atom_site_fract_x
 _atom_site_fract_y
 _atom_site_fract_z
 _atom_site_occupancy
  Ho  Ho0  1  0.334763  0.676515  0.063338  1
  Ho  Ho1  1  0.162676  0.175472  0.437343  1
  Ho  Ho2  1  0.663160  0.324534  0.562925  1
  Ho  Ho3  1  0.835907  0.824209  0.937511  1
  Ho  Ho4  1  0.663160  0.324534  0.937075  1
  Ho  Ho5  1  0.835907  0.824209  0.562489  1
  Ho  Ho6  1  0.334763  0.676515  0.436662  1
  Ho  Ho7  1  0.162676  0.175472  0.062657  1
  Ho  Ho8  1  0.873196  0.540315  0.250000  1
  Ho  Ho9  1  0.626151  0.039089  0.250000  1
  Ho  Ho10  1  0.131390  0.458877  0.750000  1
  Ho  Ho11  1  0.373038  0.957888  0.750000  1
  Tc  Tc12  1  0.040086  0.884546  0.250000  1
  Tc  Tc13  1  0.461982  0.386680  0.250000  1
  Tc  Tc14  1  0.961671  0.115166  0.750000  1
  Ru  Ru15  1  0.539475  0.615979  0.750000  1
