# generated using pymatgen
data_Er4TmInPd4
_symmetry_space_group_name_H-M   'P 1'
_cell_length_a   7.79420700
_cell_length_b   7.79420700
_cell_length_c   3.70203700
_cell_angle_alpha   90.00000000
_cell_angle_beta   90.00000000
_cell_angle_gamma   90.00000000
_symmetry_Int_Tables_number   1
_chemical_formula_structural   Er4TmInPd4
_chemical_formula_sum   'Er4 Tm1 In1 Pd4'
_cell_volume   224.89749927
_cell_formula_units_Z   1
loop_
 _symmetry_equiv_pos_site_id
 _symmetry_equiv_pos_as_xyz
  1  'x, y, z'
loop_
 _atom_site_type_symbol
 _atom_site_label
 _atom_site_symmetry_multiplicity
 _atom_site_fract_x
 _atom_site_fract_y
 _atom_site_fract_z
 _atom_site_occupancy
  Er  Er0  1  0.356118  0.818023  0.500000  1
  Er  Er1  1  0.818023  0.643882  0.500000  1
  Er  Er2  1  0.181977  0.356118  0.500000  1
  Er  Er3  1  0.643882  0.181977  0.500000  1
  Tm  Tm4  1  0.000000  0.000000  0.000000  1
  In  In5  1  0.500000  0.500000  0.000000  1
  Pd  Pd6  1  0.356112  0.121137  0.000000  1
  Pd  Pd7  1  0.878863  0.356112  0.000000  1
  Pd  Pd8  1  0.121137  0.643888  0.000000  1
  Pd  Pd9  1  0.643888  0.878863  0.000000  1
