# generated using pymatgen
data_Pr5ZrMoO12
_symmetry_space_group_name_H-M   'P 1'
_cell_length_a   7.18583261
_cell_length_b   7.18583231
_cell_length_c   7.74849305
_cell_angle_alpha   74.42422139
_cell_angle_beta   74.42421985
_cell_angle_gamma   51.25528943
_symmetry_Int_Tables_number   1
_chemical_formula_structural   Pr5ZrMoO12
_chemical_formula_sum   'Pr5 Zr1 Mo1 O12'
_cell_volume   297.89742781
_cell_formula_units_Z   1
loop_
 _symmetry_equiv_pos_site_id
 _symmetry_equiv_pos_as_xyz
  1  'x, y, z'
loop_
 _atom_site_type_symbol
 _atom_site_label
 _atom_site_symmetry_multiplicity
 _atom_site_fract_x
 _atom_site_fract_y
 _atom_site_fract_z
 _atom_site_occupancy
  Pr  Pr0  1  0.305129  0.301747  0.361171  1
  Pr  Pr1  1  0.698253  0.694871  0.638829  1
  Pr  Pr2  1  0.688736  0.697313  0.170226  1
  Pr  Pr3  1  0.302687  0.311264  0.829774  1
  Pr  Pr4  1  0.005282  0.994718  0.500000  1
  Zr  Zr5  1  0.765490  0.234510  0.000000  1
  Mo  Mo6  1  0.248956  0.751044  0.000000  1
  O  O7  1  0.094887  0.597864  0.573606  1
  O  O8  1  0.012363  0.986499  0.183879  1
  O  O9  1  0.402136  0.905113  0.426394  1
  O  O10  1  0.496307  0.506259  0.180745  1
  O  O11  1  0.103798  0.585992  0.079470  1
  O  O12  1  0.905102  0.407566  0.420505  1
  O  O13  1  0.013501  0.987637  0.816121  1
  O  O14  1  0.592434  0.094897  0.579495  1
  O  O15  1  0.493741  0.503693  0.819255  1
  O  O16  1  0.560914  0.103726  0.081920  1
  O  O17  1  0.414008  0.896202  0.920530  1
  O  O18  1  0.896274  0.439086  0.918080  1
