# generated using pymatgen
data_Y8Si15GeW12
_symmetry_space_group_name_H-M   'P 1'
_cell_length_a   6.79646296
_cell_length_b   6.95892364
_cell_length_c   12.95315593
_cell_angle_alpha   90.02462677
_cell_angle_beta   89.96675961
_cell_angle_gamma   90.01296900
_symmetry_Int_Tables_number   1
_chemical_formula_structural   Y8Si15GeW12
_chemical_formula_sum   'Y8 Si15 Ge1 W12'
_cell_volume   612.63315262
_cell_formula_units_Z   1
loop_
 _symmetry_equiv_pos_site_id
 _symmetry_equiv_pos_as_xyz
  1  'x, y, z'
loop_
 _atom_site_type_symbol
 _atom_site_label
 _atom_site_symmetry_multiplicity
 _atom_site_fract_x
 _atom_site_fract_y
 _atom_site_fract_z
 _atom_site_occupancy
  Y  Y0  1  0.495604  0.332441  0.093546  1
  Y  Y1  1  0.994412  0.167683  0.405911  1
  Y  Y2  1  0.508478  0.669502  0.594525  1
  Y  Y3  1  0.004212  0.832733  0.906626  1
  Y  Y4  1  0.504198  0.667459  0.906672  1
  Y  Y5  1  0.004973  0.832385  0.593808  1
  Y  Y6  1  0.496055  0.331309  0.405197  1
  Y  Y7  1  0.995680  0.167846  0.093746  1
  Si  Si8  1  0.805413  0.631105  0.750509  1
  Si  Si9  1  0.303774  0.866950  0.750946  1
  Si  Si10  1  0.195848  0.369508  0.249754  1
  Si  Si11  1  0.696093  0.131585  0.249417  1
  Si  Si12  1  0.536484  0.369261  0.750740  1
  Si  Si13  1  0.037205  0.131206  0.750053  1
  Si  Si14  1  0.462064  0.631181  0.249801  1
  Si  Si15  1  0.961807  0.870724  0.248703  1
  Si  Si16  1  0.662686  0.042799  0.546561  1
  Si  Si17  1  0.160674  0.457056  0.953243  1
  Si  Si18  1  0.338499  0.957514  0.047453  1
  Si  Si19  1  0.834954  0.544014  0.451822  1
  Si  Si20  1  0.338154  0.957007  0.453167  1
  Si  Si21  1  0.839065  0.542332  0.047204  1
  Si  Si22  1  0.660761  0.042207  0.952685  1
  Ge  Ge23  1  0.167585  0.457323  0.546540  1
  W  W24  1  0.667785  0.000947  0.750205  1
  W  W25  1  0.167188  0.498023  0.751413  1
  W  W26  1  0.332402  0.999669  0.249959  1
  W  W27  1  0.832503  0.501404  0.250253  1
  W  W28  1  0.829750  0.335275  0.626733  1
  W  W29  1  0.332247  0.163067  0.874868  1
  W  W30  1  0.167371  0.663571  0.124418  1
  W  W31  1  0.666986  0.837797  0.374105  1
  W  W32  1  0.164546  0.667708  0.371346  1
  W  W33  1  0.666554  0.835722  0.125642  1
  W  W34  1  0.831875  0.336014  0.875224  1
  W  W35  1  0.336112  0.157674  0.627204  1
