# generated using pymatgen
data_Tb10TlBi5Se2
_symmetry_space_group_name_H-M   'P 1'
_cell_length_a   9.26692000
_cell_length_b   9.26692151
_cell_length_c   6.70104500
_cell_angle_alpha   90.00000000
_cell_angle_beta   90.00000000
_cell_angle_gamma   119.98216936
_symmetry_Int_Tables_number   1
_chemical_formula_structural   Tb10TlBi5Se2
_chemical_formula_sum   'Tb10 Tl1 Bi5 Se2'
_cell_volume   498.45053618
_cell_formula_units_Z   1
loop_
 _symmetry_equiv_pos_site_id
 _symmetry_equiv_pos_as_xyz
  1  'x, y, z'
loop_
 _atom_site_type_symbol
 _atom_site_label
 _atom_site_symmetry_multiplicity
 _atom_site_fract_x
 _atom_site_fract_y
 _atom_site_fract_z
 _atom_site_occupancy
  Tb  Tb0  1  0.663172  0.334892  0.498862  1
  Tb  Tb1  1  0.334892  0.663172  0.498862  1
  Tb  Tb2  1  0.334892  0.663172  0.001138  1
  Tb  Tb3  1  0.663172  0.334892  0.001138  1
  Tb  Tb4  1  0.744360  0.744360  0.250000  1
  Tb  Tb5  1  0.255635  0.006349  0.250000  1
  Tb  Tb6  1  0.006349  0.255635  0.250000  1
  Tb  Tb7  1  0.251721  0.251721  0.750000  1
  Tb  Tb8  1  0.747217  0.000628  0.750000  1
  Tb  Tb9  1  0.000628  0.747217  0.750000  1
  Tl  Tl10  1  0.396030  0.396030  0.250000  1
  Bi  Bi11  1  0.607202  0.001180  0.250000  1
  Bi  Bi12  1  0.001180  0.607202  0.250000  1
  Bi  Bi13  1  0.604518  0.604518  0.750000  1
  Bi  Bi14  1  0.393686  0.998962  0.750000  1
  Bi  Bi15  1  0.998962  0.393686  0.750000  1
  Se  Se16  1  0.998192  0.998192  0.499955  1
  Se  Se17  1  0.998192  0.998192  0.000045  1
