# generated using pymatgen
data_Na2Pr3Si12Ir19
_symmetry_space_group_name_H-M   'P 1'
_cell_length_a   12.87673967
_cell_length_b   12.87891939
_cell_length_c   4.02822500
_cell_angle_alpha   90.00000000
_cell_angle_beta   90.00000000
_cell_angle_gamma   120.05279370
_symmetry_Int_Tables_number   1
_chemical_formula_structural   Na2Pr3Si12Ir19
_chemical_formula_sum   'Na2 Pr3 Si12 Ir19'
_cell_volume   578.22705583
_cell_formula_units_Z   1
loop_
 _symmetry_equiv_pos_site_id
 _symmetry_equiv_pos_as_xyz
  1  'x, y, z'
loop_
 _atom_site_type_symbol
 _atom_site_label
 _atom_site_symmetry_multiplicity
 _atom_site_fract_x
 _atom_site_fract_y
 _atom_site_fract_z
 _atom_site_occupancy
  Na  Na0  1  0.814030  0.999305  0.500000  1
  Na  Na1  1  0.667526  0.334550  0.000000  1
  Pr  Pr2  1  0.999726  0.818122  0.500000  1
  Pr  Pr3  1  0.180461  0.182662  0.500000  1
  Pr  Pr4  1  0.333498  0.665604  0.000000  1
  Si  Si5  1  0.991045  0.179340  0.000000  1
  Si  Si6  1  0.814381  0.816809  0.000000  1
  Si  Si7  1  0.186111  0.002338  0.000000  1
  Si  Si8  1  0.523722  0.689211  0.500000  1
  Si  Si9  1  0.313458  0.834985  0.500000  1
  Si  Si10  1  0.164077  0.475827  0.500000  1
  Si  Si11  1  0.485272  0.173072  0.500000  1
  Si  Si12  1  0.688427  0.517229  0.500000  1
  Si  Si13  1  0.827579  0.311007  0.500000  1
  Si  Si14  1  0.998585  0.628458  0.000000  1
  Si  Si15  1  0.371879  0.369672  0.000000  1
  Si  Si16  1  0.632294  0.002285  0.000000  1
  Ir  Ir17  1  0.997070  0.282217  0.500000  1
  Ir  Ir18  1  0.717186  0.714800  0.500000  1
  Ir  Ir19  1  0.287344  0.002472  0.500000  1
  Ir  Ir20  1  0.621914  0.807082  0.000000  1
  Ir  Ir21  1  0.194202  0.817283  0.000000  1
  Ir  Ir22  1  0.182028  0.374987  0.000000  1
  Ir  Ir23  1  0.381560  0.183742  0.000000  1
  Ir  Ir24  1  0.803092  0.619200  0.000000  1
  Ir  Ir25  1  0.813725  0.198058  0.000000  1
  Ir  Ir26  1  0.513380  0.873557  0.500000  1
  Ir  Ir27  1  0.128514  0.639996  0.500000  1
  Ir  Ir28  1  0.360765  0.487889  0.500000  1
  Ir  Ir29  1  0.486538  0.362380  0.500000  1
  Ir  Ir30  1  0.877382  0.514001  0.500000  1
  Ir  Ir31  1  0.637183  0.122808  0.500000  1
  Ir  Ir32  1  0.001122  0.999810  0.000000  1
  Ir  Ir33  1  0.007721  0.450736  0.000000  1
  Ir  Ir34  1  0.552683  0.553803  0.000000  1
  Ir  Ir35  1  0.444520  0.994702  0.000000  1
