# generated using pymatgen
data_EuScSi4N7
_symmetry_space_group_name_H-M   'P 1'
_cell_length_a   5.93653600
_cell_length_b   5.93653588
_cell_length_c   9.65002300
_cell_angle_alpha   90.00000000
_cell_angle_beta   90.00000000
_cell_angle_gamma   119.99997839
_symmetry_Int_Tables_number   1
_chemical_formula_structural   EuScSi4N7
_chemical_formula_sum   'Eu2 Sc2 Si8 N14'
_cell_volume   294.52711090
_cell_formula_units_Z   2
loop_
 _symmetry_equiv_pos_site_id
 _symmetry_equiv_pos_as_xyz
  1  'x, y, z'
loop_
 _atom_site_type_symbol
 _atom_site_label
 _atom_site_symmetry_multiplicity
 _atom_site_fract_x
 _atom_site_fract_y
 _atom_site_fract_z
 _atom_site_occupancy
  Eu  Eu0  1  0.666667  0.333333  0.579772  1
  Eu  Eu1  1  0.333333  0.666667  0.079772  1
  Sc  Sc2  1  0.666667  0.333333  0.951396  1
  Sc  Sc3  1  0.333333  0.666667  0.451396  1
  Si  Si4  1  0.173564  0.347128  0.760892  1
  Si  Si5  1  0.826436  0.173564  0.260892  1
  Si  Si6  1  0.347128  0.173564  0.260892  1
  Si  Si7  1  0.652872  0.826436  0.760892  1
  Si  Si8  1  0.173564  0.826436  0.760892  1
  Si  Si9  1  0.826436  0.652872  0.260892  1
  Si  Si10  1  0.000000  0.000000  0.024480  1
  Si  Si11  1  0.000000  0.000000  0.524480  1
  N  N12  1  0.000000  0.000000  0.832868  1
  N  N13  1  0.000000  0.000000  0.332868  1
  N  N14  1  0.842535  0.685072  0.083044  1
  N  N15  1  0.157465  0.842535  0.583044  1
  N  N16  1  0.685072  0.842535  0.583044  1
  N  N17  1  0.314928  0.157465  0.083044  1
  N  N18  1  0.842535  0.157465  0.083044  1
  N  N19  1  0.157465  0.314928  0.583044  1
  N  N20  1  0.492596  0.507404  0.817500  1
  N  N21  1  0.985193  0.492596  0.317500  1
  N  N22  1  0.507404  0.014807  0.317500  1
  N  N23  1  0.492596  0.985193  0.817500  1
  N  N24  1  0.507404  0.492596  0.317500  1
  N  N25  1  0.014807  0.507404  0.817500  1
