# generated using pymatgen
data_La4TbSn2Hg
_symmetry_space_group_name_H-M   'P 1'
_cell_length_a   9.52263125
_cell_length_b   9.52263085
_cell_length_c   9.52263015
_cell_angle_alpha   95.97022782
_cell_angle_beta   95.97022794
_cell_angle_gamma   142.37060599
_symmetry_Int_Tables_number   1
_chemical_formula_structural   La4TbSn2Hg
_chemical_formula_sum   'La8 Tb2 Sn4 Hg2'
_cell_volume   499.05034488
_cell_formula_units_Z   2
loop_
 _symmetry_equiv_pos_site_id
 _symmetry_equiv_pos_as_xyz
  1  'x, y, z'
loop_
 _atom_site_type_symbol
 _atom_site_label
 _atom_site_symmetry_multiplicity
 _atom_site_fract_x
 _atom_site_fract_y
 _atom_site_fract_z
 _atom_site_occupancy
  La  La0  1  0.911486  0.224285  0.135771  1
  La  La1  1  0.224285  0.088514  0.312800  1
  La  La2  1  0.775715  0.911486  0.687200  1
  La  La3  1  0.088514  0.775715  0.864229  1
  La  La4  1  0.724285  0.411486  0.135771  1
  La  La5  1  0.275715  0.588514  0.864229  1
  La  La6  1  0.588514  0.724285  0.312800  1
  La  La7  1  0.411486  0.275715  0.687200  1
  Tb  Tb8  1  0.750000  0.250000  0.500000  1
  Tb  Tb9  1  0.250000  0.750000  0.500000  1
  Sn  Sn10  1  0.844773  0.655227  0.500000  1
  Sn  Sn11  1  0.655227  0.155227  0.810454  1
  Sn  Sn12  1  0.344773  0.844773  0.189546  1
  Sn  Sn13  1  0.155227  0.344773  0.500000  1
  Hg  Hg14  1  0.750000  0.750000  0.000000  1
  Hg  Hg15  1  0.250000  0.250000  0.000000  1
