# generated using pymatgen
data_Ba4Tm(IrO6)2
_symmetry_space_group_name_H-M   'P 1'
_cell_length_a   10.07104485
_cell_length_b   10.07104587
_cell_length_c   10.07104663
_cell_angle_alpha   33.89491728
_cell_angle_beta   33.89491065
_cell_angle_gamma   33.89491163
_symmetry_Int_Tables_number   1
_chemical_formula_structural   Ba4Tm(IrO6)2
_chemical_formula_sum   'Ba4 Tm1 Ir2 O12'
_cell_volume   283.11679576
_cell_formula_units_Z   1
loop_
 _symmetry_equiv_pos_site_id
 _symmetry_equiv_pos_as_xyz
  1  'x, y, z'
loop_
 _atom_site_type_symbol
 _atom_site_label
 _atom_site_symmetry_multiplicity
 _atom_site_fract_x
 _atom_site_fract_y
 _atom_site_fract_z
 _atom_site_occupancy
  Ba  Ba0  1  0.711813  0.711813  0.711813  1
  Ba  Ba1  1  0.288187  0.288187  0.288187  1
  Ba  Ba2  1  0.866800  0.866800  0.866800  1
  Ba  Ba3  1  0.133200  0.133200  0.133200  1
  Tm  Tm4  1  0.000000  0.000000  0.000000  1
  Ir  Ir5  1  0.580256  0.580256  0.580256  1
  Ir  Ir6  1  0.419744  0.419744  0.419744  1
  O  O7  1  0.220462  0.692115  0.220462  1
  O  O8  1  0.220462  0.220462  0.692115  1
  O  O9  1  0.692115  0.220462  0.220462  1
  O  O10  1  0.779538  0.307885  0.779538  1
  O  O11  1  0.779538  0.779538  0.307885  1
  O  O12  1  0.307885  0.779538  0.779538  1
  O  O13  1  0.387091  0.859545  0.387091  1
  O  O14  1  0.387091  0.387091  0.859545  1
  O  O15  1  0.859545  0.387091  0.387091  1
  O  O16  1  0.612909  0.140455  0.612909  1
  O  O17  1  0.612909  0.612909  0.140455  1
  O  O18  1  0.140455  0.612909  0.612909  1
