# generated using pymatgen
data_Zr6Zn23N
_symmetry_space_group_name_H-M   'P 1'
_cell_length_a   8.67083355
_cell_length_b   8.67083206
_cell_length_c   8.67083200
_cell_angle_alpha   59.99999260
_cell_angle_beta   59.99999830
_cell_angle_gamma   59.99999317
_symmetry_Int_Tables_number   1
_chemical_formula_structural   Zr6Zn23N
_chemical_formula_sum   'Zr6 Zn23 N1'
_cell_volume   460.96435695
_cell_formula_units_Z   1
loop_
 _symmetry_equiv_pos_site_id
 _symmetry_equiv_pos_as_xyz
  1  'x, y, z'
loop_
 _atom_site_type_symbol
 _atom_site_label
 _atom_site_symmetry_multiplicity
 _atom_site_fract_x
 _atom_site_fract_y
 _atom_site_fract_z
 _atom_site_occupancy
  Zr  Zr0  1  0.689577  0.310423  0.310423  1
  Zr  Zr1  1  0.310423  0.689577  0.689577  1
  Zr  Zr2  1  0.310423  0.689577  0.310423  1
  Zr  Zr3  1  0.689577  0.310423  0.689577  1
  Zr  Zr4  1  0.310423  0.310423  0.689577  1
  Zr  Zr5  1  0.689577  0.689577  0.310423  1
  Zn  Zn6  1  0.119981  0.119981  0.119981  1
  Zn  Zn7  1  0.880019  0.880019  0.880019  1
  Zn  Zn8  1  0.119981  0.119981  0.640060  1
  Zn  Zn9  1  0.119981  0.640060  0.119981  1
  Zn  Zn10  1  0.880019  0.880019  0.359940  1
  Zn  Zn11  1  0.880019  0.359940  0.880019  1
  Zn  Zn12  1  0.640060  0.119981  0.119981  1
  Zn  Zn13  1  0.359940  0.880019  0.880019  1
  Zn  Zn14  1  0.500000  0.000000  0.000000  1
  Zn  Zn15  1  0.000000  0.500000  0.500000  1
  Zn  Zn16  1  0.000000  0.500000  0.000000  1
  Zn  Zn17  1  0.500000  0.000000  0.500000  1
  Zn  Zn18  1  0.000000  0.000000  0.500000  1
  Zn  Zn19  1  0.500000  0.500000  0.000000  1
  Zn  Zn20  1  0.331126  0.331126  0.331126  1
  Zn  Zn21  1  0.668874  0.668874  0.668874  1
  Zn  Zn22  1  0.331126  0.331126  0.006622  1
  Zn  Zn23  1  0.331126  0.006622  0.331126  1
  Zn  Zn24  1  0.668874  0.668874  0.993378  1
  Zn  Zn25  1  0.668874  0.993378  0.668874  1
  Zn  Zn26  1  0.006622  0.331126  0.331126  1
  Zn  Zn27  1  0.993378  0.668874  0.668874  1
  Zn  Zn28  1  0.000000  0.000000  0.000000  1
  N  N29  1  0.500000  0.500000  0.500000  1
