# generated using pymatgen
data_CsP2WO8
_symmetry_space_group_name_H-M   'P 1'
_cell_length_a   5.10843154
_cell_length_b   5.10843272
_cell_length_c   9.03427977
_cell_angle_alpha   86.82053945
_cell_angle_beta   86.82054150
_cell_angle_gamma   62.75466387
_symmetry_Int_Tables_number   1
_chemical_formula_structural   CsP2WO8
_chemical_formula_sum   'Cs1 P2 W1 O8'
_cell_volume   209.16005987
_cell_formula_units_Z   1
loop_
 _symmetry_equiv_pos_site_id
 _symmetry_equiv_pos_as_xyz
  1  'x, y, z'
loop_
 _atom_site_type_symbol
 _atom_site_label
 _atom_site_symmetry_multiplicity
 _atom_site_fract_x
 _atom_site_fract_y
 _atom_site_fract_z
 _atom_site_occupancy
  Cs  Cs0  1  0.000000  0.000000  0.000000  1
  P  P1  1  0.641950  0.641950  0.684909  1
  P  P2  1  0.358050  0.358050  0.315091  1
  W  W3  1  0.000000  0.000000  0.500000  1
  O  O4  1  0.313992  0.313992  0.158477  1
  O  O5  1  0.305704  0.778062  0.650121  1
  O  O6  1  0.694296  0.221938  0.349879  1
  O  O7  1  0.778062  0.305704  0.650121  1
  O  O8  1  0.221938  0.694296  0.349879  1
  O  O9  1  0.686008  0.686008  0.841523  1
  O  O10  1  0.220314  0.220314  0.436288  1
  O  O11  1  0.779686  0.779686  0.563712  1
