# generated using pymatgen
data_Zr8ScSe16
_symmetry_space_group_name_H-M   'P 1'
_cell_length_a   7.55894700
_cell_length_b   7.55894701
_cell_length_c   13.11118800
_cell_angle_alpha   90.00000000
_cell_angle_beta   90.00000000
_cell_angle_gamma   119.99998685
_symmetry_Int_Tables_number   1
_chemical_formula_structural   Zr8ScSe16
_chemical_formula_sum   'Zr8 Sc1 Se16'
_cell_volume   648.77683519
_cell_formula_units_Z   1
loop_
 _symmetry_equiv_pos_site_id
 _symmetry_equiv_pos_as_xyz
  1  'x, y, z'
loop_
 _atom_site_type_symbol
 _atom_site_label
 _atom_site_symmetry_multiplicity
 _atom_site_fract_x
 _atom_site_fract_y
 _atom_site_fract_z
 _atom_site_occupancy
  Zr  Zr0  1  0.503514  0.496486  0.748291  1
  Zr  Zr1  1  0.496486  0.503514  0.251709  1
  Zr  Zr2  1  0.503514  0.007028  0.748291  1
  Zr  Zr3  1  0.496486  0.992972  0.251709  1
  Zr  Zr4  1  0.992972  0.496486  0.748291  1
  Zr  Zr5  1  0.007028  0.503514  0.251709  1
  Zr  Zr6  1  0.000000  0.000000  0.744495  1
  Zr  Zr7  1  0.000000  0.000000  0.255505  1
  Sc  Sc8  1  0.000000  0.000000  0.000000  1
  Se  Se9  1  0.833475  0.666953  0.125017  1
  Se  Se10  1  0.832406  0.664814  0.624436  1
  Se  Se11  1  0.833475  0.166525  0.125017  1
  Se  Se12  1  0.832406  0.167594  0.624436  1
  Se  Se13  1  0.333333  0.666667  0.126613  1
  Se  Se14  1  0.333333  0.666667  0.631722  1
  Se  Se15  1  0.333047  0.166525  0.125017  1
  Se  Se16  1  0.335186  0.167594  0.624436  1
  Se  Se17  1  0.666953  0.833475  0.874983  1
  Se  Se18  1  0.664814  0.832406  0.375564  1
  Se  Se19  1  0.666667  0.333333  0.873387  1
  Se  Se20  1  0.666667  0.333333  0.368278  1
  Se  Se21  1  0.166525  0.833475  0.874983  1
  Se  Se22  1  0.167594  0.832406  0.375564  1
  Se  Se23  1  0.166525  0.333047  0.874983  1
  Se  Se24  1  0.167594  0.335186  0.375564  1
