# generated using pymatgen
data_Ho3Co4P6Ir4Rh
_symmetry_space_group_name_H-M   'P 1'
_cell_length_a   3.81439000
_cell_length_b   10.93702400
_cell_length_c   12.54721900
_cell_angle_alpha   90.00000000
_cell_angle_beta   90.00000000
_cell_angle_gamma   90.00000000
_symmetry_Int_Tables_number   1
_chemical_formula_structural   Ho3Co4P6Ir4Rh
_chemical_formula_sum   'Ho6 Co8 P12 Ir8 Rh2'
_cell_volume   523.44582297
_cell_formula_units_Z   2
loop_
 _symmetry_equiv_pos_site_id
 _symmetry_equiv_pos_as_xyz
  1  'x, y, z'
loop_
 _atom_site_type_symbol
 _atom_site_label
 _atom_site_symmetry_multiplicity
 _atom_site_fract_x
 _atom_site_fract_y
 _atom_site_fract_z
 _atom_site_occupancy
  Ho  Ho0  1  0.000000  0.500000  0.517911  1
  Ho  Ho1  1  0.500000  0.000000  0.475796  1
  Ho  Ho2  1  0.500000  0.816023  0.196806  1
  Ho  Ho3  1  0.500000  0.183977  0.196806  1
  Ho  Ho4  1  0.000000  0.680507  0.804787  1
  Ho  Ho5  1  0.000000  0.319493  0.804787  1
  Co  Co6  1  0.000000  0.500000  0.993299  1
  Co  Co7  1  0.500000  0.000000  0.009581  1
  Co  Co8  1  0.000000  0.620894  0.282527  1
  Co  Co9  1  0.000000  0.379106  0.282527  1
  Co  Co10  1  0.500000  0.335620  0.998227  1
  Co  Co11  1  0.500000  0.664380  0.998227  1
  Co  Co12  1  0.000000  0.168164  0.005824  1
  Co  Co13  1  0.000000  0.831836  0.005824  1
  P  P14  1  0.500000  0.316838  0.619413  1
  P  P15  1  0.500000  0.683162  0.619413  1
  P  P16  1  0.000000  0.191589  0.372670  1
  P  P17  1  0.000000  0.808411  0.372670  1
  P  P18  1  0.500000  0.500000  0.894562  1
  P  P19  1  0.000000  0.000000  0.106478  1
  P  P20  1  0.500000  0.839087  0.905799  1
  P  P21  1  0.500000  0.160913  0.905799  1
  P  P22  1  0.000000  0.657190  0.103815  1
  P  P23  1  0.000000  0.342810  0.103815  1
  P  P24  1  0.500000  0.500000  0.342985  1
  P  P25  1  0.000000  0.000000  0.651136  1
  Ir  Ir26  1  0.500000  0.300126  0.424315  1
  Ir  Ir27  1  0.500000  0.699874  0.424315  1
  Ir  Ir28  1  0.000000  0.205823  0.570486  1
  Ir  Ir29  1  0.000000  0.794177  0.570486  1
  Ir  Ir30  1  0.500000  0.500000  0.159217  1
  Ir  Ir31  1  0.000000  0.000000  0.841234  1
  Ir  Ir32  1  0.500000  0.500000  0.708411  1
  Ir  Ir33  1  0.000000  0.000000  0.292728  1
  Rh  Rh34  1  0.500000  0.872026  0.718661  1
  Rh  Rh35  1  0.500000  0.127974  0.718661  1
