# generated using pymatgen
data_Yb2TcH7
_symmetry_space_group_name_H-M   'P 1'
_cell_length_a   5.11246748
_cell_length_b   5.30422449
_cell_length_c   7.32574888
_cell_angle_alpha   46.24151845
_cell_angle_beta   44.61100458
_cell_angle_gamma   60.52855214
_symmetry_Int_Tables_number   1
_chemical_formula_structural   Yb2TcH7
_chemical_formula_sum   'Yb2 Tc1 H7'
_cell_volume   100.76628457
_cell_formula_units_Z   1
loop_
 _symmetry_equiv_pos_site_id
 _symmetry_equiv_pos_as_xyz
  1  'x, y, z'
loop_
 _atom_site_type_symbol
 _atom_site_label
 _atom_site_symmetry_multiplicity
 _atom_site_fract_x
 _atom_site_fract_y
 _atom_site_fract_z
 _atom_site_occupancy
  Yb  Yb0  1  0.889187  0.056916  0.624355  1
  Yb  Yb1  1  0.889645  0.044745  0.130038  1
  Tc  Tc2  1  0.402278  0.550852  0.871831  1
  H  H3  1  0.332637  0.551583  0.668794  1
  H  H4  1  0.395445  0.086701  0.106787  1
  H  H5  1  0.825205  0.549500  0.565273  1
  H  H6  1  0.784203  0.549991  0.808172  1
  H  H7  1  0.295235  0.551412  0.155894  1
  H  H8  1  0.908084  0.555309  0.109436  1
  H  H9  1  0.399771  0.015310  0.640091  1
