# generated using pymatgen
data_NbV(SeO3)4
_symmetry_space_group_name_H-M   'P 1'
_cell_length_a   8.32192300
_cell_length_b   8.28922232
_cell_length_c   8.37411490
_cell_angle_alpha   89.06122786
_cell_angle_beta   90.00000000
_cell_angle_gamma   90.00000000
_symmetry_Int_Tables_number   1
_chemical_formula_structural   NbV(SeO3)4
_chemical_formula_sum   'Nb2 V2 Se8 O24'
_cell_volume   577.58791644
_cell_formula_units_Z   2
loop_
 _symmetry_equiv_pos_site_id
 _symmetry_equiv_pos_as_xyz
  1  'x, y, z'
loop_
 _atom_site_type_symbol
 _atom_site_label
 _atom_site_symmetry_multiplicity
 _atom_site_fract_x
 _atom_site_fract_y
 _atom_site_fract_z
 _atom_site_occupancy
  Nb  Nb0  1  0.000000  0.000000  0.500000  1
  Nb  Nb1  1  0.500000  0.000000  0.000000  1
  V  V2  1  0.000000  0.500000  0.000000  1
  V  V3  1  0.500000  0.500000  0.500000  1
  Se  Se4  1  0.320271  0.649850  0.177669  1
  Se  Se5  1  0.820271  0.350150  0.322331  1
  Se  Se6  1  0.663776  0.809652  0.664946  1
  Se  Se7  1  0.163776  0.190348  0.835054  1
  Se  Se8  1  0.679729  0.350150  0.822331  1
  Se  Se9  1  0.179729  0.649850  0.677669  1
  Se  Se10  1  0.336224  0.190348  0.335054  1
  Se  Se11  1  0.836224  0.809652  0.164946  1
  O  O12  1  0.240138  0.527272  0.035518  1
  O  O13  1  0.740138  0.472728  0.464482  1
  O  O14  1  0.766941  0.955084  0.549790  1
  O  O15  1  0.266941  0.044916  0.950210  1
  O  O16  1  0.540437  0.942388  0.769523  1
  O  O17  1  0.461691  0.523254  0.259268  1
  O  O18  1  0.961691  0.476746  0.240732  1
  O  O19  1  0.040437  0.057612  0.730477  1
  O  O20  1  0.947281  0.228564  0.447047  1
  O  O21  1  0.531350  0.744092  0.526336  1
  O  O22  1  0.447281  0.771436  0.052953  1
  O  O23  1  0.031350  0.255908  0.973664  1
  O  O24  1  0.759862  0.472728  0.964482  1
  O  O25  1  0.259862  0.527272  0.535518  1
  O  O26  1  0.233059  0.044916  0.450210  1
  O  O27  1  0.733059  0.955084  0.049790  1
  O  O28  1  0.459563  0.057612  0.230477  1
  O  O29  1  0.538309  0.476746  0.740732  1
  O  O30  1  0.038309  0.523254  0.759268  1
  O  O31  1  0.959563  0.942388  0.269523  1
  O  O32  1  0.052719  0.771436  0.552953  1
  O  O33  1  0.468650  0.255908  0.473664  1
  O  O34  1  0.552719  0.228564  0.947047  1
  O  O35  1  0.968650  0.744092  0.026336  1
