# generated using pymatgen
data_La9Nd3(GeI3)4
_symmetry_space_group_name_H-M   'P 1'
_cell_length_a   10.99530984
_cell_length_b   11.01253815
_cell_length_c   11.02311893
_cell_angle_alpha   109.34861215
_cell_angle_beta   109.59367031
_cell_angle_gamma   109.55472436
_symmetry_Int_Tables_number   1
_chemical_formula_structural   La9Nd3(GeI3)4
_chemical_formula_sum   'La9 Nd3 Ge4 I12'
_cell_volume   1026.42746755
_cell_formula_units_Z   1
loop_
 _symmetry_equiv_pos_site_id
 _symmetry_equiv_pos_as_xyz
  1  'x, y, z'
loop_
 _atom_site_type_symbol
 _atom_site_label
 _atom_site_symmetry_multiplicity
 _atom_site_fract_x
 _atom_site_fract_y
 _atom_site_fract_z
 _atom_site_occupancy
  La  La0  1  0.235300  0.471162  0.484595  1
  La  La1  1  0.265767  0.749727  0.236440  1
  La  La2  1  0.028597  0.264298  0.014298  1
  La  La3  1  0.013366  0.029087  0.264677  1
  La  La4  1  0.487575  0.751373  0.016605  1
  La  La5  1  0.487575  0.236203  0.470971  1
  La  La6  1  0.013366  0.484281  0.748689  1
  La  La7  1  0.265767  0.016040  0.029328  1
  La  La8  1  0.235300  0.264137  0.750705  1
  Nd  Nd9  1  0.464707  0.482354  0.232354  1
  Nd  Nd10  1  0.750745  0.232704  0.268662  1
  Nd  Nd11  1  0.750745  0.018042  0.482084  1
  Ge  Ge12  1  0.250531  0.250222  0.250227  1
  Ge  Ge13  1  0.500366  0.000183  0.250183  1
  Ge  Ge14  1  0.000461  0.250230  0.500230  1
  Ge  Ge15  1  0.250531  0.500309  0.000304  1
  I  I16  1  0.250706  0.758257  0.742560  1
  I  I17  1  0.516126  0.508062  0.758062  1
  I  I18  1  0.984652  0.742326  0.992326  1
  I  I19  1  0.741251  0.244249  0.752988  1
  I  I20  1  0.988932  0.984603  0.739899  1
  I  I21  1  0.250706  0.992448  0.508145  1
  I  I22  1  0.755830  0.511887  0.499963  1
  I  I23  1  0.512540  0.256122  0.000729  1
  I  I24  1  0.755830  0.743943  0.255867  1
  I  I25  1  0.741251  0.997002  0.988264  1
  I  I26  1  0.988932  0.504328  0.249032  1
  I  I27  1  0.512540  0.756418  0.511811  1
