# generated using pymatgen
data_Lu4ZnCo
_symmetry_space_group_name_H-M   'P 1'
_cell_length_a   9.16258892
_cell_length_b   9.14371184
_cell_length_c   9.14371000
_cell_angle_alpha   59.99999943
_cell_angle_beta   60.06812807
_cell_angle_gamma   60.06812993
_symmetry_Int_Tables_number   1
_chemical_formula_structural   Lu4ZnCo
_chemical_formula_sum   'Lu16 Zn4 Co4'
_cell_volume   542.24384881
_cell_formula_units_Z   4
loop_
 _symmetry_equiv_pos_site_id
 _symmetry_equiv_pos_as_xyz
  1  'x, y, z'
loop_
 _atom_site_type_symbol
 _atom_site_label
 _atom_site_symmetry_multiplicity
 _atom_site_fract_x
 _atom_site_fract_y
 _atom_site_fract_z
 _atom_site_occupancy
  Lu  Lu0  1  0.600177  0.600013  0.600013  1
  Lu  Lu1  1  0.600177  0.600013  0.199797  1
  Lu  Lu2  1  0.600177  0.199797  0.600013  1
  Lu  Lu3  1  0.195215  0.601595  0.601595  1
  Lu  Lu4  1  0.058986  0.440675  0.440675  1
  Lu  Lu5  1  0.439425  0.060209  0.060209  1
  Lu  Lu6  1  0.439425  0.060209  0.440156  1
  Lu  Lu7  1  0.058986  0.440675  0.059664  1
  Lu  Lu8  1  0.439425  0.440156  0.060209  1
  Lu  Lu9  1  0.058986  0.059664  0.440675  1
  Lu  Lu10  1  0.187036  0.812555  0.812555  1
  Lu  Lu11  1  0.811653  0.187408  0.187408  1
  Lu  Lu12  1  0.811653  0.187408  0.813531  1
  Lu  Lu13  1  0.187036  0.812555  0.187855  1
  Lu  Lu14  1  0.811653  0.813531  0.187408  1
  Lu  Lu15  1  0.187036  0.187855  0.812555  1
  Zn  Zn16  1  0.529399  0.823533  0.823533  1
  Zn  Zn17  1  0.829964  0.828076  0.828076  1
  Zn  Zn18  1  0.829964  0.828076  0.513883  1
  Zn  Zn19  1  0.829964  0.513883  0.828076  1
  Co  Co20  1  0.389934  0.393249  0.393249  1
  Co  Co21  1  0.389934  0.393249  0.823568  1
  Co  Co22  1  0.389934  0.823568  0.393249  1
  Co  Co23  1  0.823858  0.392048  0.392048  1
