# generated using pymatgen
data_Nd2Dy3Ho(RuBr3)2
_symmetry_space_group_name_H-M   'P 1'
_cell_length_a   4.13440000
_cell_length_b   8.69830991
_cell_length_c   11.97963871
_cell_angle_alpha   87.06162462
_cell_angle_beta   90.00000000
_cell_angle_gamma   90.00000000
_symmetry_Int_Tables_number   1
_chemical_formula_structural   Nd2Dy3Ho(RuBr3)2
_chemical_formula_sum   'Nd2 Dy3 Ho1 Ru2 Br6'
_cell_volume   430.24885564
_cell_formula_units_Z   1
loop_
 _symmetry_equiv_pos_site_id
 _symmetry_equiv_pos_as_xyz
  1  'x, y, z'
loop_
 _atom_site_type_symbol
 _atom_site_label
 _atom_site_symmetry_multiplicity
 _atom_site_fract_x
 _atom_site_fract_y
 _atom_site_fract_z
 _atom_site_occupancy
  Nd  Nd0  1  0.250000  0.283934  0.395067  1
  Nd  Nd1  1  0.750000  0.714575  0.605104  1
  Dy  Dy2  1  0.250000  0.871468  0.365132  1
  Dy  Dy3  1  0.750000  0.127429  0.633816  1
  Dy  Dy4  1  0.250000  0.894463  0.827182  1
  Ho  Ho5  1  0.750000  0.107534  0.173098  1
  Ru  Ru6  1  0.250000  0.936567  0.597962  1
  Ru  Ru7  1  0.750000  0.061672  0.401316  1
  Br  Br8  1  0.250000  0.415978  0.637699  1
  Br  Br9  1  0.750000  0.580669  0.363774  1
  Br  Br10  1  0.250000  0.884268  0.104165  1
  Br  Br11  1  0.750000  0.121106  0.895549  1
  Br  Br12  1  0.250000  0.337752  0.135075  1
  Br  Br13  1  0.750000  0.662583  0.865063  1
