# generated using pymatgen
data_LiZr3(Si4Os3)2
_symmetry_space_group_name_H-M   'P 1'
_cell_length_a   9.95927441
_cell_length_b   9.95927506
_cell_length_c   13.34446402
_cell_angle_alpha   54.06493764
_cell_angle_beta   54.06493555
_cell_angle_gamma   31.09873460
_symmetry_Int_Tables_number   1
_chemical_formula_structural   LiZr3(Si4Os3)2
_chemical_formula_sum   'Li2 Zr6 Si16 Os12'
_cell_volume   542.17148754
_cell_formula_units_Z   2
loop_
 _symmetry_equiv_pos_site_id
 _symmetry_equiv_pos_as_xyz
  1  'x, y, z'
loop_
 _atom_site_type_symbol
 _atom_site_label
 _atom_site_symmetry_multiplicity
 _atom_site_fract_x
 _atom_site_fract_y
 _atom_site_fract_z
 _atom_site_occupancy
  Li  Li0  1  0.037953  0.272042  0.652614  1
  Li  Li1  1  0.727958  0.962047  0.847386  1
  Zr  Zr2  1  0.960394  0.705083  0.365233  1
  Zr  Zr3  1  0.294917  0.039606  0.134767  1
  Zr  Zr4  1  0.294062  0.553928  0.647152  1
  Zr  Zr5  1  0.446072  0.705938  0.852848  1
  Zr  Zr6  1  0.708600  0.446031  0.349070  1
  Zr  Zr7  1  0.553969  0.291400  0.150930  1
  Si  Si8  1  0.982138  0.251132  0.890307  1
  Si  Si9  1  0.748868  0.017862  0.609693  1
  Si  Si10  1  0.023641  0.747833  0.106869  1
  Si  Si11  1  0.252167  0.976359  0.393131  1
  Si  Si12  1  0.137732  0.390883  0.900694  1
  Si  Si13  1  0.609117  0.862268  0.599306  1
  Si  Si14  1  0.853532  0.621486  0.093498  1
  Si  Si15  1  0.378514  0.146468  0.406502  1
  Si  Si16  1  0.075240  0.564876  0.568052  1
  Si  Si17  1  0.435124  0.924760  0.931948  1
  Si  Si18  1  0.917690  0.424715  0.440982  1
  Si  Si19  1  0.575285  0.082310  0.059018  1
  Si  Si20  1  0.619175  0.380825  0.750000  1
  Si  Si21  1  0.383850  0.616150  0.250000  1
  Si  Si22  1  0.124209  0.875791  0.750000  1
  Si  Si23  1  0.878389  0.121611  0.250000  1
  Os  Os24  1  0.889646  0.143453  0.584937  1
  Os  Os25  1  0.856547  0.110354  0.915063  1
  Os  Os26  1  0.110600  0.849809  0.416232  1
  Os  Os27  1  0.150191  0.889400  0.083768  1
  Os  Os28  1  0.827790  0.650012  0.783807  1
  Os  Os29  1  0.349988  0.172210  0.716193  1
  Os  Os30  1  0.162732  0.356702  0.218042  1
  Os  Os31  1  0.643298  0.837268  0.281958  1
  Os  Os32  1  0.238757  0.514742  0.933216  1
  Os  Os33  1  0.485258  0.761243  0.566784  1
  Os  Os34  1  0.750972  0.484376  0.072343  1
  Os  Os35  1  0.515624  0.249028  0.427657  1
