# generated using pymatgen
data_YbFeCu(Sb6Os)2
_symmetry_space_group_name_H-M   'P 1'
_cell_length_a   8.13179423
_cell_length_b   8.11188181
_cell_length_c   8.14378172
_cell_angle_alpha   109.56624701
_cell_angle_beta   109.49946105
_cell_angle_gamma   109.60847790
_symmetry_Int_Tables_number   1
_chemical_formula_structural   YbFeCu(Sb6Os)2
_chemical_formula_sum   'Yb1 Fe1 Cu1 Sb12 Os2'
_cell_volume   412.19970963
_cell_formula_units_Z   1
loop_
 _symmetry_equiv_pos_site_id
 _symmetry_equiv_pos_as_xyz
  1  'x, y, z'
loop_
 _atom_site_type_symbol
 _atom_site_label
 _atom_site_symmetry_multiplicity
 _atom_site_fract_x
 _atom_site_fract_y
 _atom_site_fract_z
 _atom_site_occupancy
  Yb  Yb0  1  0.000000  0.000000  0.000000  1
  Fe  Fe1  1  0.000000  0.000000  0.500000  1
  Cu  Cu2  1  0.500000  0.000000  0.000000  1
  Sb  Sb3  1  0.845756  0.671572  0.506203  1
  Sb  Sb4  1  0.154244  0.328428  0.493797  1
  Sb  Sb5  1  0.152586  0.656953  0.813570  1
  Sb  Sb6  1  0.847414  0.343047  0.186430  1
  Sb  Sb7  1  0.660917  0.504110  0.843845  1
  Sb  Sb8  1  0.339083  0.495890  0.156155  1
  Sb  Sb9  1  0.672590  0.820493  0.167209  1
  Sb  Sb10  1  0.327410  0.179507  0.832791  1
  Sb  Sb11  1  0.503812  0.843602  0.656984  1
  Sb  Sb12  1  0.496188  0.156398  0.343016  1
  Sb  Sb13  1  0.174713  0.846326  0.341650  1
  Sb  Sb14  1  0.825287  0.153674  0.658350  1
  Os  Os15  1  0.500000  0.500000  0.500000  1
  Os  Os16  1  0.000000  0.500000  0.000000  1
