# generated using pymatgen
data_Ac6YRhO12
_symmetry_space_group_name_H-M   'P 1'
_cell_length_a   7.14073985
_cell_length_b   7.14073919
_cell_length_c   7.14073900
_cell_angle_alpha   96.45919817
_cell_angle_beta   96.45919757
_cell_angle_gamma   96.45920602
_symmetry_Int_Tables_number   1
_chemical_formula_structural   Ac6YRhO12
_chemical_formula_sum   'Ac6 Y1 Rh1 O12'
_cell_volume   356.59984273
_cell_formula_units_Z   1
loop_
 _symmetry_equiv_pos_site_id
 _symmetry_equiv_pos_as_xyz
  1  'x, y, z'
loop_
 _atom_site_type_symbol
 _atom_site_label
 _atom_site_symmetry_multiplicity
 _atom_site_fract_x
 _atom_site_fract_y
 _atom_site_fract_z
 _atom_site_occupancy
  Ac  Ac0  1  0.725460  0.899967  0.415070  1
  Ac  Ac1  1  0.415070  0.725460  0.899967  1
  Ac  Ac2  1  0.100033  0.584930  0.274540  1
  Ac  Ac3  1  0.899967  0.415070  0.725460  1
  Ac  Ac4  1  0.584930  0.274540  0.100033  1
  Ac  Ac5  1  0.274540  0.100033  0.584930  1
  Y  Y6  1  0.000000  0.000000  0.000000  1
  Rh  Rh7  1  0.500000  0.500000  0.500000  1
  O  O8  1  0.059467  0.929554  0.309876  1
  O  O9  1  0.690124  0.940533  0.070446  1
  O  O10  1  0.436452  0.784957  0.567066  1
  O  O11  1  0.070446  0.690124  0.940533  1
  O  O12  1  0.784957  0.567066  0.436452  1
  O  O13  1  0.432934  0.563548  0.215043  1
  O  O14  1  0.567066  0.436452  0.784957  1
  O  O15  1  0.215043  0.432934  0.563548  1
  O  O16  1  0.929554  0.309876  0.059467  1
  O  O17  1  0.563548  0.215043  0.432934  1
  O  O18  1  0.309876  0.059467  0.929554  1
  O  O19  1  0.940533  0.070446  0.690124  1
