# generated using pymatgen
data_MnAl2Pd7
_symmetry_space_group_name_H-M   'P 1'
_cell_length_a   7.26615023
_cell_length_b   7.26615061
_cell_length_c   5.46572778
_cell_angle_alpha   74.00816848
_cell_angle_beta   74.00816504
_cell_angle_gamma   32.79088317
_symmetry_Int_Tables_number   1
_chemical_formula_structural   MnAl2Pd7
_chemical_formula_sum   'Mn1 Al2 Pd7'
_cell_volume   149.70102895
_cell_formula_units_Z   1
loop_
 _symmetry_equiv_pos_site_id
 _symmetry_equiv_pos_as_xyz
  1  'x, y, z'
loop_
 _atom_site_type_symbol
 _atom_site_label
 _atom_site_symmetry_multiplicity
 _atom_site_fract_x
 _atom_site_fract_y
 _atom_site_fract_z
 _atom_site_occupancy
  Mn  Mn0  1  0.000000  0.000000  0.000000  1
  Al  Al1  1  0.190717  0.190717  0.346741  1
  Al  Al2  1  0.809283  0.809283  0.653259  1
  Pd  Pd3  1  0.000000  0.000000  0.500000  1
  Pd  Pd4  1  0.208741  0.208741  0.855844  1
  Pd  Pd5  1  0.791259  0.791259  0.144156  1
  Pd  Pd6  1  0.378508  0.378508  0.366982  1
  Pd  Pd7  1  0.621492  0.621492  0.633018  1
  Pd  Pd8  1  0.410572  0.410572  0.844404  1
  Pd  Pd9  1  0.589428  0.589428  0.155596  1
