# generated using pymatgen
data_Tm2Ga4CuIr
_symmetry_space_group_name_H-M   'P 1'
_cell_length_a   5.46607098
_cell_length_b   5.46607077
_cell_length_c   6.65796800
_cell_angle_alpha   90.00000000
_cell_angle_beta   90.00000000
_cell_angle_gamma   134.43150691
_symmetry_Int_Tables_number   1
_chemical_formula_structural   Tm2Ga4CuIr
_chemical_formula_sum   'Tm2 Ga4 Cu1 Ir1'
_cell_volume   142.05085444
_cell_formula_units_Z   1
loop_
 _symmetry_equiv_pos_site_id
 _symmetry_equiv_pos_as_xyz
  1  'x, y, z'
loop_
 _atom_site_type_symbol
 _atom_site_label
 _atom_site_symmetry_multiplicity
 _atom_site_fract_x
 _atom_site_fract_y
 _atom_site_fract_z
 _atom_site_occupancy
  Tm  Tm0  1  0.919287  0.080713  0.750000  1
  Tm  Tm1  1  0.081252  0.918748  0.250000  1
  Ga  Ga2  1  0.632704  0.367296  0.943303  1
  Ga  Ga3  1  0.367659  0.632341  0.048409  1
  Ga  Ga4  1  0.367659  0.632341  0.451591  1
  Ga  Ga5  1  0.632704  0.367296  0.556697  1
  Cu  Cu6  1  0.204996  0.795004  0.750000  1
  Ir  Ir7  1  0.793739  0.206261  0.250000  1
