# generated using pymatgen
data_ZrU7F30
_symmetry_space_group_name_H-M   'P 1'
_cell_length_a   8.71957403
_cell_length_b   8.71957405
_cell_length_c   8.71957428
_cell_angle_alpha   100.12935380
_cell_angle_beta   100.12935249
_cell_angle_gamma   100.12935225
_symmetry_Int_Tables_number   1
_chemical_formula_structural   ZrU7F30
_chemical_formula_sum   'Zr1 U7 F30'
_cell_volume   627.65273172
_cell_formula_units_Z   1
loop_
 _symmetry_equiv_pos_site_id
 _symmetry_equiv_pos_as_xyz
  1  'x, y, z'
loop_
 _atom_site_type_symbol
 _atom_site_label
 _atom_site_symmetry_multiplicity
 _atom_site_fract_x
 _atom_site_fract_y
 _atom_site_fract_z
 _atom_site_occupancy
  Zr  Zr0  1  0.250000  0.250000  0.250000  1
  U  U1  1  0.177674  0.750000  0.322326  1
  U  U2  1  0.250000  0.680512  0.819488  1
  U  U3  1  0.680512  0.819488  0.250000  1
  U  U4  1  0.750000  0.750000  0.750000  1
  U  U5  1  0.322326  0.177674  0.750000  1
  U  U6  1  0.750000  0.322326  0.177674  1
  U  U7  1  0.819488  0.250000  0.680512  1
  F  F8  1  0.958915  0.541085  0.250000  1
  F  F9  1  0.806814  0.341527  0.446326  1
  F  F10  1  0.489147  0.722807  0.715839  1
  F  F11  1  0.341527  0.446326  0.806814  1
  F  F12  1  0.010853  0.784161  0.777193  1
  F  F13  1  0.750000  0.032526  0.467474  1
  F  F14  1  0.950924  0.851100  0.322356  1
  F  F15  1  0.229720  0.221548  0.007887  1
  F  F16  1  0.777193  0.010853  0.784161  1
  F  F17  1  0.322356  0.950924  0.851100  1
  F  F18  1  0.278452  0.270280  0.492113  1
  F  F19  1  0.446326  0.806814  0.341527  1
  F  F20  1  0.541085  0.250000  0.958915  1
  F  F21  1  0.270280  0.492113  0.278452  1
  F  F22  1  0.158473  0.693186  0.053674  1
  F  F23  1  0.851100  0.322356  0.950924  1
  F  F24  1  0.715839  0.489147  0.722807  1
  F  F25  1  0.467474  0.750000  0.032526  1
  F  F26  1  0.549076  0.177644  0.648900  1
  F  F27  1  0.722807  0.715839  0.489147  1
  F  F28  1  0.693186  0.053674  0.158473  1
  F  F29  1  0.221548  0.007887  0.229720  1
  F  F30  1  0.784161  0.777193  0.010853  1
  F  F31  1  0.053674  0.158473  0.693186  1
  F  F32  1  0.250000  0.958915  0.541085  1
  F  F33  1  0.007887  0.229720  0.221548  1
  F  F34  1  0.648900  0.549076  0.177644  1
  F  F35  1  0.492113  0.278452  0.270280  1
  F  F36  1  0.177644  0.648900  0.549076  1
  F  F37  1  0.032526  0.467474  0.750000  1
