# generated using pymatgen
data_Sc3Si2(Ni2Ge)2
_symmetry_space_group_name_H-M   'P 1'
_cell_length_a   7.47536963
_cell_length_b   7.47536857
_cell_length_c   7.47536944
_cell_angle_alpha   150.07503419
_cell_angle_beta   128.06917282
_cell_angle_gamma   61.09938729
_symmetry_Int_Tables_number   1
_chemical_formula_structural   Sc3Si2(Ni2Ge)2
_chemical_formula_sum   'Sc3 Si2 Ni4 Ge2'
_cell_volume   162.66488292
_cell_formula_units_Z   1
loop_
 _symmetry_equiv_pos_site_id
 _symmetry_equiv_pos_as_xyz
  1  'x, y, z'
loop_
 _atom_site_type_symbol
 _atom_site_label
 _atom_site_symmetry_multiplicity
 _atom_site_fract_x
 _atom_site_fract_y
 _atom_site_fract_z
 _atom_site_occupancy
  Sc  Sc0  1  0.873255  0.373255  0.500000  1
  Sc  Sc1  1  0.126745  0.626745  0.500000  1
  Sc  Sc2  1  0.500000  0.500000  0.000000  1
  Si  Si3  1  0.280188  0.280188  0.000000  1
  Si  Si4  1  0.719812  0.719812  0.000000  1
  Ni  Ni5  1  0.484906  0.180944  0.303962  1
  Ni  Ni6  1  0.123018  0.819056  0.303962  1
  Ni  Ni7  1  0.515094  0.819056  0.696038  1
  Ni  Ni8  1  0.876982  0.180944  0.696038  1
  Ge  Ge9  1  0.803202  0.000000  0.803202  1
  Ge  Ge10  1  0.196798  0.000000  0.196798  1
