# generated using pymatgen
data_Dy4HoBi3C
_symmetry_space_group_name_H-M   'P 1'
_cell_length_a   6.49077600
_cell_length_b   9.14573457
_cell_length_c   9.14267709
_cell_angle_alpha   120.01105336
_cell_angle_beta   90.00006665
_cell_angle_gamma   89.99987383
_symmetry_Int_Tables_number   1
_chemical_formula_structural   Dy4HoBi3C
_chemical_formula_sum   'Dy8 Ho2 Bi6 C2'
_cell_volume   469.97076713
_cell_formula_units_Z   2
loop_
 _symmetry_equiv_pos_site_id
 _symmetry_equiv_pos_as_xyz
  1  'x, y, z'
loop_
 _atom_site_type_symbol
 _atom_site_label
 _atom_site_symmetry_multiplicity
 _atom_site_fract_x
 _atom_site_fract_y
 _atom_site_fract_z
 _atom_site_occupancy
  Dy  Dy0  1  0.500044  0.333326  0.666666  1
  Dy  Dy1  1  0.500044  0.666661  0.333334  1
  Dy  Dy2  1  0.999953  0.666661  0.333331  1
  Dy  Dy3  1  0.999953  0.333329  0.666669  1
  Dy  Dy4  1  0.750003  0.207969  0.000000  1
  Dy  Dy5  1  0.750002  0.792045  0.791974  1
  Dy  Dy6  1  0.750002  0.000071  0.208026  1
  Dy  Dy7  1  0.250000  0.792223  0.000000  1
  Ho  Ho8  1  0.250002  0.207062  0.206957  1
  Ho  Ho9  1  0.250002  0.000104  0.793043  1
  Bi  Bi10  1  0.750003  0.598580  0.000000  1
  Bi  Bi11  1  0.749998  0.401461  0.401513  1
  Bi  Bi12  1  0.749998  0.999948  0.598487  1
  Bi  Bi13  1  0.250003  0.401134  0.000000  1
  Bi  Bi14  1  0.249997  0.598613  0.598407  1
  Bi  Bi15  1  0.249997  0.000206  0.401593  1
  C  C16  1  0.499361  0.000302  0.000000  1
  C  C17  1  0.000637  0.000306  0.000000  1
