# generated using pymatgen
data_AgBi3RuRh3O14
_symmetry_space_group_name_H-M   'P 1'
_cell_length_a   7.38736925
_cell_length_b   7.22616089
_cell_length_c   7.38736853
_cell_angle_alpha   58.99699953
_cell_angle_beta   59.92331971
_cell_angle_gamma   58.99700066
_symmetry_Int_Tables_number   1
_chemical_formula_structural   AgBi3RuRh3O14
_chemical_formula_sum   'Ag1 Bi3 Ru1 Rh3 O14'
_cell_volume   274.39402798
_cell_formula_units_Z   1
loop_
 _symmetry_equiv_pos_site_id
 _symmetry_equiv_pos_as_xyz
  1  'x, y, z'
loop_
 _atom_site_type_symbol
 _atom_site_label
 _atom_site_symmetry_multiplicity
 _atom_site_fract_x
 _atom_site_fract_y
 _atom_site_fract_z
 _atom_site_occupancy
  Ag  Ag0  1  0.125000  0.625000  0.125000  1
  Bi  Bi1  1  0.125000  0.125000  0.125000  1
  Bi  Bi2  1  0.625000  0.125000  0.125000  1
  Bi  Bi3  1  0.125000  0.125000  0.625000  1
  Ru  Ru4  1  0.625000  0.625000  0.625000  1
  Rh  Rh5  1  0.625000  0.625000  0.125000  1
  Rh  Rh6  1  0.125000  0.625000  0.625000  1
  Rh  Rh7  1  0.625000  0.125000  0.625000  1
  O  O8  1  0.245347  0.263253  0.245347  1
  O  O9  1  0.296317  0.707572  0.296317  1
  O  O10  1  0.957262  0.962310  0.542161  1
  O  O11  1  0.543060  0.958176  0.543060  1
  O  O12  1  0.688932  0.705592  0.306551  1
  O  O13  1  0.943449  0.544408  0.561068  1
  O  O14  1  0.706940  0.291824  0.706940  1
  O  O15  1  0.292738  0.287690  0.707839  1
  O  O16  1  0.707839  0.287690  0.292738  1
  O  O17  1  0.306551  0.705592  0.688932  1
  O  O18  1  0.953683  0.542428  0.953683  1
  O  O19  1  0.561068  0.544408  0.943449  1
  O  O20  1  0.004653  0.986747  0.004653  1
  O  O21  1  0.542161  0.962310  0.957262  1
