# generated using pymatgen
data_Rb2Li2TiSe4
_symmetry_space_group_name_H-M   'P 1'
_cell_length_a   6.19823300
_cell_length_b   6.19823300
_cell_length_c   13.85075600
_cell_angle_alpha   90.00000000
_cell_angle_beta   90.00000000
_cell_angle_gamma   90.00000000
_symmetry_Int_Tables_number   1
_chemical_formula_structural   Rb2Li2TiSe4
_chemical_formula_sum   'Rb4 Li4 Ti2 Se8'
_cell_volume   532.11962274
_cell_formula_units_Z   2
loop_
 _symmetry_equiv_pos_site_id
 _symmetry_equiv_pos_as_xyz
  1  'x, y, z'
loop_
 _atom_site_type_symbol
 _atom_site_label
 _atom_site_symmetry_multiplicity
 _atom_site_fract_x
 _atom_site_fract_y
 _atom_site_fract_z
 _atom_site_occupancy
  Rb  Rb0  1  0.757068  0.757068  0.000000  1
  Rb  Rb1  1  0.242932  0.757068  0.500000  1
  Rb  Rb2  1  0.757068  0.242932  0.500000  1
  Rb  Rb3  1  0.242932  0.242932  0.000000  1
  Li  Li4  1  0.000000  0.500000  0.750000  1
  Li  Li5  1  0.500000  0.000000  0.750000  1
  Li  Li6  1  0.000000  0.500000  0.250000  1
  Li  Li7  1  0.500000  0.000000  0.250000  1
  Ti  Ti8  1  0.500000  0.500000  0.750000  1
  Ti  Ti9  1  0.500000  0.500000  0.250000  1
  Se  Se10  1  0.725980  0.725980  0.652084  1
  Se  Se11  1  0.274020  0.274020  0.652084  1
  Se  Se12  1  0.725980  0.725980  0.347916  1
  Se  Se13  1  0.725980  0.274020  0.152084  1
  Se  Se14  1  0.274020  0.725980  0.847916  1
  Se  Se15  1  0.274020  0.274020  0.347916  1
  Se  Se16  1  0.274020  0.725980  0.152084  1
  Se  Se17  1  0.725980  0.274020  0.847916  1
