# generated using pymatgen
data_Nd2Co17Si8Ru
_symmetry_space_group_name_H-M   'P 1'
_cell_length_a   7.97015815
_cell_length_b   8.01358640
_cell_length_c   7.98405110
_cell_angle_alpha   121.85343399
_cell_angle_beta   121.67965762
_cell_angle_gamma   87.02574440
_symmetry_Int_Tables_number   1
_chemical_formula_structural   Nd2Co17Si8Ru
_chemical_formula_sum   'Nd2 Co17 Si8 Ru1'
_cell_volume   350.24535067
_cell_formula_units_Z   1
loop_
 _symmetry_equiv_pos_site_id
 _symmetry_equiv_pos_as_xyz
  1  'x, y, z'
loop_
 _atom_site_type_symbol
 _atom_site_label
 _atom_site_symmetry_multiplicity
 _atom_site_fract_x
 _atom_site_fract_y
 _atom_site_fract_z
 _atom_site_occupancy
  Nd  Nd0  1  0.749728  0.750159  0.000418  1
  Nd  Nd1  1  0.249310  0.249741  0.999582  1
  Co  Co2  1  0.448514  0.950485  0.759576  1
  Co  Co3  1  0.188939  0.690909  0.240424  1
  Co  Co4  1  0.547225  0.042323  0.234754  1
  Co  Co5  1  0.948255  0.191035  0.500000  1
  Co  Co6  1  0.197932  0.928011  0.128105  1
  Co  Co7  1  0.800165  0.068801  0.870035  1
  Co  Co8  1  0.430130  0.698766  0.129965  1
  Co  Co9  1  0.569827  0.299906  0.871895  1
  Co  Co10  1  0.701374  0.573901  0.263853  1
  Co  Co11  1  0.300099  0.429836  0.732035  1
  Co  Co12  1  0.937522  0.810048  0.736147  1
  Co  Co13  1  0.312078  0.548859  0.500000  1
  Co  Co14  1  0.812471  0.307569  0.765246  1
  Co  Co15  1  0.002154  0.502489  0.500000  1
  Co  Co16  1  0.500383  0.001013  0.500000  1
  Co  Co17  1  0.068065  0.197801  0.267965  1
  Co  Co18  1  0.051475  0.811824  0.500000  1
  Si  Si19  1  0.290868  0.788474  0.834096  1
  Si  Si20  1  0.051557  0.544585  0.839965  1
  Si  Si21  1  0.541223  0.716450  0.500000  1
  Si  Si22  1  0.790777  0.954834  0.500000  1
  Si  Si23  1  0.445419  0.284965  0.500000  1
  Si  Si24  1  0.956771  0.454378  0.165904  1
  Si  Si25  1  0.711592  0.204620  0.160035  1
  Si  Si26  1  0.209526  0.047011  0.500000  1
  Ru  Ru27  1  0.686619  0.451209  0.500000  1
