# generated using pymatgen
data_Sm7Sn23Rh6
_symmetry_space_group_name_H-M   'P 1'
_cell_length_a   9.93734500
_cell_length_b   9.93734543
_cell_length_c   10.17595700
_cell_angle_alpha   90.00000000
_cell_angle_beta   90.00000000
_cell_angle_gamma   119.99999524
_symmetry_Int_Tables_number   1
_chemical_formula_structural   Sm7Sn23Rh6
_chemical_formula_sum   'Sm7 Sn23 Rh6'
_cell_volume   870.25528580
_cell_formula_units_Z   1
loop_
 _symmetry_equiv_pos_site_id
 _symmetry_equiv_pos_as_xyz
  1  'x, y, z'
loop_
 _atom_site_type_symbol
 _atom_site_label
 _atom_site_symmetry_multiplicity
 _atom_site_fract_x
 _atom_site_fract_y
 _atom_site_fract_z
 _atom_site_occupancy
  Sm  Sm0  1  0.000000  0.000000  0.000000  1
  Sm  Sm1  1  0.478482  0.521518  0.307243  1
  Sm  Sm2  1  0.521518  0.478482  0.692757  1
  Sm  Sm3  1  0.478482  0.956963  0.307243  1
  Sm  Sm4  1  0.521518  0.043037  0.692757  1
  Sm  Sm5  1  0.043037  0.521518  0.307243  1
  Sm  Sm6  1  0.956963  0.478482  0.692757  1
  Sn  Sn7  1  0.351137  0.000000  0.000000  1
  Sn  Sn8  1  0.648863  0.000000  0.000000  1
  Sn  Sn9  1  0.000000  0.351137  0.000000  1
  Sn  Sn10  1  0.000000  0.648863  0.000000  1
  Sn  Sn11  1  0.648863  0.648863  0.000000  1
  Sn  Sn12  1  0.351137  0.351137  0.000000  1
  Sn  Sn13  1  0.333333  0.666667  0.819999  1
  Sn  Sn14  1  0.666667  0.333333  0.180001  1
  Sn  Sn15  1  0.000000  0.000000  0.500000  1
  Sn  Sn16  1  0.778735  0.221265  0.455169  1
  Sn  Sn17  1  0.221265  0.778735  0.544831  1
  Sn  Sn18  1  0.778735  0.557469  0.455169  1
  Sn  Sn19  1  0.221265  0.442531  0.544831  1
  Sn  Sn20  1  0.442531  0.221265  0.455169  1
  Sn  Sn21  1  0.557469  0.778735  0.544831  1
  Sn  Sn22  1  0.333333  0.666667  0.116981  1
  Sn  Sn23  1  0.666667  0.333333  0.883019  1
  Sn  Sn24  1  0.118686  0.881314  0.280346  1
  Sn  Sn25  1  0.881314  0.118686  0.719654  1
  Sn  Sn26  1  0.118686  0.237371  0.280346  1
  Sn  Sn27  1  0.881314  0.762629  0.719654  1
  Sn  Sn28  1  0.762629  0.881314  0.280346  1
  Sn  Sn29  1  0.237371  0.118686  0.719654  1
  Rh  Rh30  1  0.831668  0.168332  0.197985  1
  Rh  Rh31  1  0.168332  0.831668  0.802015  1
  Rh  Rh32  1  0.831668  0.663335  0.197985  1
  Rh  Rh33  1  0.168332  0.336665  0.802015  1
  Rh  Rh34  1  0.336665  0.168332  0.197985  1
  Rh  Rh35  1  0.663335  0.831668  0.802015  1
