# generated using pymatgen
data_NaGaAg3
_symmetry_space_group_name_H-M   'P 1'
_cell_length_a   9.17913700
_cell_length_b   9.17913700
_cell_length_c   9.17913700
_cell_angle_alpha   90.00000000
_cell_angle_beta   90.00000000
_cell_angle_gamma   90.00000000
_symmetry_Int_Tables_number   1
_chemical_formula_structural   NaGaAg3
_chemical_formula_sum   'Na8 Ga8 Ag24'
_cell_volume   773.40247127
_cell_formula_units_Z   8
loop_
 _symmetry_equiv_pos_site_id
 _symmetry_equiv_pos_as_xyz
  1  'x, y, z'
loop_
 _atom_site_type_symbol
 _atom_site_label
 _atom_site_symmetry_multiplicity
 _atom_site_fract_x
 _atom_site_fract_y
 _atom_site_fract_z
 _atom_site_occupancy
  Na  Na0  1  0.898544  0.398544  0.101455  1
  Na  Na1  1  0.601456  0.898544  0.101455  1
  Na  Na2  1  0.398544  0.398544  0.398544  1
  Na  Na3  1  0.101455  0.898544  0.398544  1
  Na  Na4  1  0.898544  0.101455  0.601456  1
  Na  Na5  1  0.601456  0.601456  0.601456  1
  Na  Na6  1  0.398544  0.101455  0.898544  1
  Na  Na7  1  0.101455  0.601456  0.898544  1
  Ga  Ga8  1  0.094536  0.094536  0.094536  1
  Ga  Ga9  1  0.405463  0.594536  0.094536  1
  Ga  Ga10  1  0.594536  0.094536  0.405463  1
  Ga  Ga11  1  0.905464  0.594536  0.405463  1
  Ga  Ga12  1  0.094536  0.405463  0.594536  1
  Ga  Ga13  1  0.405463  0.905464  0.594536  1
  Ga  Ga14  1  0.594536  0.405463  0.905464  1
  Ga  Ga15  1  0.905464  0.905464  0.905464  1
  Ag  Ag16  1  0.262662  0.343993  0.079394  1
  Ag  Ag17  1  0.237337  0.843992  0.079394  1
  Ag  Ag18  1  0.579395  0.262662  0.156008  1
  Ag  Ag19  1  0.920605  0.762663  0.156008  1
  Ag  Ag20  1  0.843992  0.079394  0.237337  1
  Ag  Ag21  1  0.656008  0.579395  0.237337  1
  Ag  Ag22  1  0.343993  0.079394  0.262662  1
  Ag  Ag23  1  0.156008  0.579395  0.262662  1
  Ag  Ag24  1  0.079394  0.262662  0.343993  1
  Ag  Ag25  1  0.420606  0.762663  0.343993  1
  Ag  Ag26  1  0.762663  0.343993  0.420606  1
  Ag  Ag27  1  0.737337  0.843992  0.420606  1
  Ag  Ag28  1  0.262662  0.156008  0.579395  1
  Ag  Ag29  1  0.237337  0.656008  0.579395  1
  Ag  Ag30  1  0.579395  0.237337  0.656008  1
  Ag  Ag31  1  0.920605  0.737337  0.656008  1
  Ag  Ag32  1  0.843992  0.420606  0.737337  1
  Ag  Ag33  1  0.656008  0.920605  0.737337  1
  Ag  Ag34  1  0.343993  0.420606  0.762663  1
  Ag  Ag35  1  0.156008  0.920605  0.762663  1
  Ag  Ag36  1  0.079394  0.237337  0.843992  1
  Ag  Ag37  1  0.420606  0.737337  0.843992  1
  Ag  Ag38  1  0.762663  0.156008  0.920605  1
  Ag  Ag39  1  0.737337  0.656008  0.920605  1
