# generated using pymatgen
data_CsNd2(H6Ir)2
_symmetry_space_group_name_H-M   'P 1'
_cell_length_a   5.15438100
_cell_length_b   5.15438135
_cell_length_c   9.74703300
_cell_angle_alpha   90.00000000
_cell_angle_beta   90.00000000
_cell_angle_gamma   120.00000418
_symmetry_Int_Tables_number   1
_chemical_formula_structural   CsNd2(H6Ir)2
_chemical_formula_sum   'Cs1 Nd2 H12 Ir2'
_cell_volume   224.26221849
_cell_formula_units_Z   1
loop_
 _symmetry_equiv_pos_site_id
 _symmetry_equiv_pos_as_xyz
  1  'x, y, z'
loop_
 _atom_site_type_symbol
 _atom_site_label
 _atom_site_symmetry_multiplicity
 _atom_site_fract_x
 _atom_site_fract_y
 _atom_site_fract_z
 _atom_site_occupancy
  Cs  Cs0  1  0.000000  0.000000  0.000000  1
  Nd  Nd1  1  0.666667  0.333333  0.373609  1
  Nd  Nd2  1  0.333333  0.666667  0.626391  1
  H  H3  1  0.173827  0.826173  0.392258  1
  H  H4  1  0.652345  0.826173  0.392258  1
  H  H5  1  0.173827  0.347655  0.392258  1
  H  H6  1  0.826173  0.173827  0.607742  1
  H  H7  1  0.347655  0.173827  0.607742  1
  H  H8  1  0.826173  0.652345  0.607742  1
  H  H9  1  0.518215  0.036429  0.810662  1
  H  H10  1  0.518215  0.481785  0.810662  1
  H  H11  1  0.963571  0.481785  0.810662  1
  H  H12  1  0.481785  0.963571  0.189338  1
  H  H13  1  0.481785  0.518215  0.189338  1
  H  H14  1  0.036429  0.518215  0.189338  1
  Ir  Ir15  1  0.666667  0.333333  0.704870  1
  Ir  Ir16  1  0.333333  0.666667  0.295130  1
