# generated using pymatgen
data_RbNa(Al2Au3)2
_symmetry_space_group_name_H-M   'P 1'
_cell_length_a   5.55236300
_cell_length_b   7.15099600
_cell_length_c   13.45387100
_cell_angle_alpha   90.00000000
_cell_angle_beta   90.00000000
_cell_angle_gamma   90.00000000
_symmetry_Int_Tables_number   1
_chemical_formula_structural   RbNa(Al2Au3)2
_chemical_formula_sum   'Rb2 Na2 Al8 Au12'
_cell_volume   534.18494713
_cell_formula_units_Z   2
loop_
 _symmetry_equiv_pos_site_id
 _symmetry_equiv_pos_as_xyz
  1  'x, y, z'
loop_
 _atom_site_type_symbol
 _atom_site_label
 _atom_site_symmetry_multiplicity
 _atom_site_fract_x
 _atom_site_fract_y
 _atom_site_fract_z
 _atom_site_occupancy
  Rb  Rb0  1  0.750000  0.899331  0.931818  1
  Rb  Rb1  1  0.750000  0.600669  0.431818  1
  Na  Na2  1  0.250000  0.139647  0.097288  1
  Na  Na3  1  0.250000  0.360353  0.597288  1
  Al  Al4  1  0.999409  0.902252  0.654518  1
  Al  Al5  1  0.500591  0.597748  0.154518  1
  Al  Al6  1  0.499056  0.103218  0.340714  1
  Al  Al7  1  0.000944  0.396782  0.840714  1
  Al  Al8  1  0.000944  0.103218  0.340714  1
  Al  Al9  1  0.499056  0.396782  0.840714  1
  Al  Al10  1  0.500591  0.902252  0.654518  1
  Al  Al11  1  0.999409  0.597748  0.154518  1
  Au  Au12  1  0.250000  0.106802  0.787643  1
  Au  Au13  1  0.250000  0.393198  0.287643  1
  Au  Au14  1  0.750000  0.886419  0.206402  1
  Au  Au15  1  0.750000  0.613581  0.706402  1
  Au  Au16  1  0.250000  0.690634  0.782807  1
  Au  Au17  1  0.250000  0.809366  0.282807  1
  Au  Au18  1  0.750000  0.293922  0.205785  1
  Au  Au19  1  0.750000  0.206078  0.705785  1
  Au  Au20  1  0.250000  0.557675  0.994381  1
  Au  Au21  1  0.250000  0.942325  0.494381  1
  Au  Au22  1  0.750000  0.403068  0.003413  1
  Au  Au23  1  0.750000  0.096932  0.503413  1
