# generated using pymatgen
data_RbGaPt3O8
_symmetry_space_group_name_H-M   'P 1'
_cell_length_a   3.17759100
_cell_length_b   10.26076785
_cell_length_c   10.36317100
_cell_angle_alpha   90.57117660
_cell_angle_beta   90.00001803
_cell_angle_gamma   89.99932416
_symmetry_Int_Tables_number   1
_chemical_formula_structural   RbGaPt3O8
_chemical_formula_sum   'Rb2 Ga2 Pt6 O16'
_cell_volume   337.86946384
_cell_formula_units_Z   2
loop_
 _symmetry_equiv_pos_site_id
 _symmetry_equiv_pos_as_xyz
  1  'x, y, z'
loop_
 _atom_site_type_symbol
 _atom_site_label
 _atom_site_symmetry_multiplicity
 _atom_site_fract_x
 _atom_site_fract_y
 _atom_site_fract_z
 _atom_site_occupancy
  Rb  Rb0  1  0.508271  0.996662  0.007990  1
  Rb  Rb1  1  0.991754  0.496663  0.507989  1
  Ga  Ga2  1  0.996174  0.162818  0.647577  1
  Ga  Ga3  1  0.503822  0.662818  0.147573  1
  Pt  Pt4  1  0.496858  0.331660  0.848804  1
  Pt  Pt5  1  0.003140  0.831657  0.348801  1
  Pt  Pt6  1  0.002203  0.651426  0.834271  1
  Pt  Pt7  1  0.497793  0.151425  0.334275  1
  Pt  Pt8  1  0.998701  0.353320  0.167984  1
  Pt  Pt9  1  0.501291  0.853322  0.667980  1
  O  O10  1  0.502429  0.671167  0.955470  1
  O  O11  1  0.997566  0.171166  0.455473  1
  O  O12  1  0.498666  0.327682  0.047979  1
  O  O13  1  0.001332  0.827681  0.547975  1
  O  O14  1  0.998025  0.454300  0.825085  1
  O  O15  1  0.501972  0.954299  0.325082  1
  O  O16  1  0.002478  0.548105  0.158703  1
  O  O17  1  0.497520  0.048107  0.658704  1
  O  O18  1  0.997430  0.203968  0.846397  1
  O  O19  1  0.502581  0.703967  0.346394  1
  O  O20  1  0.005330  0.796068  0.156630  1
  O  O21  1  0.494673  0.296067  0.656633  1
  O  O22  1  0.497902  0.350703  0.298402  1
  O  O23  1  0.002090  0.850703  0.798398  1
  O  O24  1  0.502427  0.652123  0.704712  1
  O  O25  1  0.997573  0.152124  0.204715  1
