# generated using pymatgen
data_Zr12AlZn2Ni(Ir2N)4
_symmetry_space_group_name_H-M   'P 1'
_cell_length_a   8.52002109
_cell_length_b   8.52002090
_cell_length_c   8.57327100
_cell_angle_alpha   60.20525050
_cell_angle_beta   60.20525121
_cell_angle_gamma   60.00000511
_symmetry_Int_Tables_number   1
_chemical_formula_structural   Zr12AlZn2Ni(Ir2N)4
_chemical_formula_sum   'Zr12 Al1 Zn2 Ni1 Ir8 N4'
_cell_volume   441.42131227
_cell_formula_units_Z   1
loop_
 _symmetry_equiv_pos_site_id
 _symmetry_equiv_pos_as_xyz
  1  'x, y, z'
loop_
 _atom_site_type_symbol
 _atom_site_label
 _atom_site_symmetry_multiplicity
 _atom_site_fract_x
 _atom_site_fract_y
 _atom_site_fract_z
 _atom_site_occupancy
  Zr  Zr0  1  0.805429  0.195835  0.193822  1
  Zr  Zr1  1  0.195628  0.805710  0.192952  1
  Zr  Zr2  1  0.805429  0.804913  0.193822  1
  Zr  Zr3  1  0.192399  0.807492  0.808616  1
  Zr  Zr4  1  0.807509  0.192264  0.807965  1
  Zr  Zr5  1  0.192399  0.191494  0.808616  1
  Zr  Zr6  1  0.444571  0.054165  0.056178  1
  Zr  Zr7  1  0.054372  0.444290  0.057048  1
  Zr  Zr8  1  0.444571  0.445087  0.056178  1
  Zr  Zr9  1  0.057601  0.442508  0.441384  1
  Zr  Zr10  1  0.442491  0.057736  0.442035  1
  Zr  Zr11  1  0.057601  0.058506  0.441384  1
  Al  Al12  1  0.125000  0.625000  0.625000  1
  Zn  Zn13  1  0.625000  0.625000  0.625000  1
  Zn  Zn14  1  0.625000  0.125000  0.625000  1
  Ni  Ni15  1  0.625000  0.625000  0.125000  1
  Ir  Ir16  1  0.412624  0.416411  0.754552  1
  Ir  Ir17  1  0.414725  0.418785  0.413405  1
  Ir  Ir18  1  0.753342  0.417120  0.412416  1
  Ir  Ir19  1  0.414725  0.753083  0.413405  1
  Ir  Ir20  1  0.837376  0.833589  0.495448  1
  Ir  Ir21  1  0.835275  0.831215  0.836595  1
  Ir  Ir22  1  0.496658  0.832880  0.837584  1
  Ir  Ir23  1  0.835275  0.496917  0.836595  1
  N  N24  1  0.125000  0.125000  0.625000  1
  N  N25  1  0.125000  0.125000  0.125000  1
  N  N26  1  0.625000  0.125000  0.125000  1
  N  N27  1  0.125000  0.625000  0.125000  1
