# generated using pymatgen
data_LuMgZnB2Ir5
_symmetry_space_group_name_H-M   'P 1'
_cell_length_a   9.54509180
_cell_length_b   9.54509180
_cell_length_c   3.00044900
_cell_angle_alpha   90.00000000
_cell_angle_beta   90.00000000
_cell_angle_gamma   91.81161313
_symmetry_Int_Tables_number   1
_chemical_formula_structural   LuMgZnB2Ir5
_chemical_formula_sum   'Lu2 Mg2 Zn2 B4 Ir10'
_cell_volume   273.23060386
_cell_formula_units_Z   2
loop_
 _symmetry_equiv_pos_site_id
 _symmetry_equiv_pos_as_xyz
  1  'x, y, z'
loop_
 _atom_site_type_symbol
 _atom_site_label
 _atom_site_symmetry_multiplicity
 _atom_site_fract_x
 _atom_site_fract_y
 _atom_site_fract_z
 _atom_site_occupancy
  Lu  Lu0  1  0.179171  0.320829  0.000000  1
  Lu  Lu1  1  0.820829  0.679171  0.000000  1
  Mg  Mg2  1  0.675543  0.175543  0.000000  1
  Mg  Mg3  1  0.324457  0.824457  0.000000  1
  Zn  Zn4  1  0.000000  0.000000  0.000000  1
  Zn  Zn5  1  0.500000  0.500000  0.000000  1
  B  B6  1  0.128352  0.628352  0.000000  1
  B  B7  1  0.871648  0.371648  0.000000  1
  B  B8  1  0.622542  0.877458  0.000000  1
  B  B9  1  0.377458  0.122542  0.000000  1
  Ir  Ir10  1  0.218868  0.063477  0.500000  1
  Ir  Ir11  1  0.781132  0.936523  0.500000  1
  Ir  Ir12  1  0.074552  0.785567  0.500000  1
  Ir  Ir13  1  0.714433  0.425448  0.500000  1
  Ir  Ir14  1  0.925448  0.214433  0.500000  1
  Ir  Ir15  1  0.285567  0.574552  0.500000  1
  Ir  Ir16  1  0.563477  0.718868  0.500000  1
  Ir  Ir17  1  0.436523  0.281132  0.500000  1
  Ir  Ir18  1  0.500000  0.000000  0.500000  1
  Ir  Ir19  1  0.000000  0.500000  0.500000  1
