# generated using pymatgen
data_Ba10CrTcN10
_symmetry_space_group_name_H-M   'P 1'
_cell_length_a   8.06212531
_cell_length_b   8.06212537
_cell_length_c   9.58164600
_cell_angle_alpha   76.23174589
_cell_angle_beta   76.23174538
_cell_angle_gamma   96.64456228
_symmetry_Int_Tables_number   1
_chemical_formula_structural   Ba10CrTcN10
_chemical_formula_sum   'Ba10 Cr1 Tc1 N10'
_cell_volume   577.62223131
_cell_formula_units_Z   1
loop_
 _symmetry_equiv_pos_site_id
 _symmetry_equiv_pos_as_xyz
  1  'x, y, z'
loop_
 _atom_site_type_symbol
 _atom_site_label
 _atom_site_symmetry_multiplicity
 _atom_site_fract_x
 _atom_site_fract_y
 _atom_site_fract_z
 _atom_site_occupancy
  Ba  Ba0  1  0.385127  0.388788  0.387472  1
  Ba  Ba1  1  0.611212  0.614873  0.612528  1
  Ba  Ba2  1  0.662703  0.666990  0.009163  1
  Ba  Ba3  1  0.333010  0.337297  0.990837  1
  Ba  Ba4  1  0.928248  0.917356  0.205357  1
  Ba  Ba5  1  0.082644  0.071752  0.794643  1
  Ba  Ba6  1  0.558419  0.089176  0.753020  1
  Ba  Ba7  1  0.910824  0.441581  0.246980  1
  Ba  Ba8  1  0.428390  0.899215  0.247019  1
  Ba  Ba9  1  0.100785  0.571610  0.752981  1
  Cr  Cr10  1  0.242900  0.757100  0.000000  1
  Tc  Tc11  1  0.756664  0.243336  0.000000  1
  N  N12  1  0.652592  0.652619  0.308321  1
  N  N13  1  0.347381  0.347408  0.691679  1
  N  N14  1  0.714230  0.017218  0.990796  1
  N  N15  1  0.982782  0.285770  0.009204  1
  N  N16  1  0.284777  0.974962  0.007154  1
  N  N17  1  0.025038  0.715223  0.992846  1
  N  N18  1  0.385618  0.730087  0.839488  1
  N  N19  1  0.269913  0.614382  0.160511  1
  N  N20  1  0.607175  0.270432  0.166651  1
  N  N21  1  0.729568  0.392825  0.833348  1
