# generated using pymatgen
data_Ba4Ga8Ir7Pt
_symmetry_space_group_name_H-M   'P 1'
_cell_length_a   6.17483413
_cell_length_b   8.67236159
_cell_length_c   8.67370414
_cell_angle_alpha   75.02587866
_cell_angle_beta   89.69087010
_cell_angle_gamma   90.29385235
_symmetry_Int_Tables_number   1
_chemical_formula_structural   Ba4Ga8Ir7Pt
_chemical_formula_sum   'Ba4 Ga8 Ir7 Pt1'
_cell_volume   448.69098823
_cell_formula_units_Z   1
loop_
 _symmetry_equiv_pos_site_id
 _symmetry_equiv_pos_as_xyz
  1  'x, y, z'
loop_
 _atom_site_type_symbol
 _atom_site_label
 _atom_site_symmetry_multiplicity
 _atom_site_fract_x
 _atom_site_fract_y
 _atom_site_fract_z
 _atom_site_occupancy
  Ba  Ba0  1  0.873200  0.499711  0.751676  1
  Ba  Ba1  1  0.377003  0.001201  0.248792  1
  Ba  Ba2  1  0.624865  0.000897  0.750887  1
  Ba  Ba3  1  0.124975  0.497831  0.248266  1
  Ga  Ga4  1  0.884308  0.827659  0.425419  1
  Ga  Ga5  1  0.125690  0.822879  0.928944  1
  Ga  Ga6  1  0.619083  0.320712  0.424375  1
  Ga  Ga7  1  0.122954  0.178304  0.571750  1
  Ga  Ga8  1  0.632068  0.674317  0.071156  1
  Ga  Ga9  1  0.878452  0.175847  0.072390  1
  Ga  Ga10  1  0.365616  0.674257  0.578626  1
  Ga  Ga11  1  0.371704  0.323969  0.925417  1
  Ir  Ir12  1  0.874946  0.124703  0.370146  1
  Ir  Ir13  1  0.124900  0.879570  0.630334  1
  Ir  Ir14  1  0.125561  0.121324  0.869949  1
  Ir  Ir15  1  0.374931  0.378596  0.626221  1
  Ir  Ir16  1  0.374702  0.621645  0.875409  1
  Ir  Ir17  1  0.874757  0.876609  0.129793  1
  Ir  Ir18  1  0.625503  0.376003  0.125930  1
  Pt  Pt19  1  0.624783  0.623966  0.374519  1
