# generated using pymatgen
data_TbYbZn14Ru3
_symmetry_space_group_name_H-M   'P 1'
_cell_length_a   6.82075809
_cell_length_b   6.82075737
_cell_length_c   6.82075700
_cell_angle_alpha   82.18470415
_cell_angle_beta   82.18470498
_cell_angle_gamma   82.18470835
_symmetry_Int_Tables_number   1
_chemical_formula_structural   TbYbZn14Ru3
_chemical_formula_sum   'Tb1 Yb1 Zn14 Ru3'
_cell_volume   309.21342608
_cell_formula_units_Z   1
loop_
 _symmetry_equiv_pos_site_id
 _symmetry_equiv_pos_as_xyz
  1  'x, y, z'
loop_
 _atom_site_type_symbol
 _atom_site_label
 _atom_site_symmetry_multiplicity
 _atom_site_fract_x
 _atom_site_fract_y
 _atom_site_fract_z
 _atom_site_occupancy
  Tb  Tb0  1  0.679403  0.679403  0.679403  1
  Yb  Yb1  1  0.328315  0.328315  0.328315  1
  Zn  Zn2  1  0.350768  0.350768  0.846050  1
  Zn  Zn3  1  0.846050  0.350768  0.350768  1
  Zn  Zn4  1  0.105271  0.105271  0.105271  1
  Zn  Zn5  1  0.899737  0.899737  0.899737  1
  Zn  Zn6  1  0.290627  0.705007  0.999857  1
  Zn  Zn7  1  0.705007  0.999857  0.290627  1
  Zn  Zn8  1  0.999857  0.290627  0.705007  1
  Zn  Zn9  1  0.705007  0.290627  0.999857  1
  Zn  Zn10  1  0.290627  0.999857  0.705007  1
  Zn  Zn11  1  0.999857  0.705007  0.290627  1
  Zn  Zn12  1  0.158340  0.649526  0.649526  1
  Zn  Zn13  1  0.649526  0.649526  0.158340  1
  Zn  Zn14  1  0.649526  0.158340  0.649526  1
  Zn  Zn15  1  0.350768  0.846050  0.350768  1
  Ru  Ru16  1  0.995782  0.995782  0.499751  1
  Ru  Ru17  1  0.995782  0.499751  0.995782  1
  Ru  Ru18  1  0.499751  0.995782  0.995782  1
