# generated using pymatgen
data_Nd2Zn14Pd3
_symmetry_space_group_name_H-M   'P 1'
_cell_length_a   6.88744689
_cell_length_b   6.88744662
_cell_length_c   6.88744741
_cell_angle_alpha   82.94004177
_cell_angle_beta   82.94004367
_cell_angle_gamma   82.94004199
_symmetry_Int_Tables_number   1
_chemical_formula_structural   Nd2Zn14Pd3
_chemical_formula_sum   'Nd2 Zn14 Pd3'
_cell_volume   319.85041360
_cell_formula_units_Z   1
loop_
 _symmetry_equiv_pos_site_id
 _symmetry_equiv_pos_as_xyz
  1  'x, y, z'
loop_
 _atom_site_type_symbol
 _atom_site_label
 _atom_site_symmetry_multiplicity
 _atom_site_fract_x
 _atom_site_fract_y
 _atom_site_fract_z
 _atom_site_occupancy
  Nd  Nd0  1  0.662393  0.662393  0.662393  1
  Nd  Nd1  1  0.337607  0.337607  0.337607  1
  Zn  Zn2  1  0.349138  0.349138  0.840738  1
  Zn  Zn3  1  0.840738  0.349138  0.349138  1
  Zn  Zn4  1  0.101979  0.101979  0.101979  1
  Zn  Zn5  1  0.898021  0.898021  0.898021  1
  Zn  Zn6  1  0.295363  0.704637  0.000000  1
  Zn  Zn7  1  0.704637  0.000000  0.295363  1
  Zn  Zn8  1  0.000000  0.295363  0.704637  1
  Zn  Zn9  1  0.704637  0.295363  0.000000  1
  Zn  Zn10  1  0.295363  0.000000  0.704637  1
  Zn  Zn11  1  0.000000  0.704637  0.295363  1
  Zn  Zn12  1  0.159262  0.650862  0.650862  1
  Zn  Zn13  1  0.650862  0.650862  0.159262  1
  Zn  Zn14  1  0.650862  0.159262  0.650862  1
  Zn  Zn15  1  0.349138  0.840738  0.349138  1
  Pd  Pd16  1  0.000000  0.000000  0.500000  1
  Pd  Pd17  1  0.000000  0.500000  0.000000  1
  Pd  Pd18  1  0.500000  0.000000  0.000000  1
