# generated using pymatgen
data_NdTh3(Zn5Sn)2
_symmetry_space_group_name_H-M   'P 1'
_cell_length_a   8.56697466
_cell_length_b   8.56697647
_cell_length_c   9.05637265
_cell_angle_alpha   89.72145804
_cell_angle_beta   90.27854301
_cell_angle_gamma   149.55238322
_symmetry_Int_Tables_number   1
_chemical_formula_structural   NdTh3(Zn5Sn)2
_chemical_formula_sum   'Nd1 Th3 Zn10 Sn2'
_cell_volume   336.82004380
_cell_formula_units_Z   1
loop_
 _symmetry_equiv_pos_site_id
 _symmetry_equiv_pos_as_xyz
  1  'x, y, z'
loop_
 _atom_site_type_symbol
 _atom_site_label
 _atom_site_symmetry_multiplicity
 _atom_site_fract_x
 _atom_site_fract_y
 _atom_site_fract_z
 _atom_site_occupancy
  Nd  Nd0  1  0.000000  0.000000  0.000000  1
  Th  Th1  1  0.204845  0.795155  0.250407  1
  Th  Th2  1  0.795155  0.204845  0.749593  1
  Th  Th3  1  0.000000  0.000000  0.500000  1
  Zn  Zn4  1  0.815223  0.184777  0.393253  1
  Zn  Zn5  1  0.184777  0.815223  0.606747  1
  Zn  Zn6  1  0.814913  0.185087  0.107453  1
  Zn  Zn7  1  0.185087  0.814913  0.892547  1
  Zn  Zn8  1  0.656884  0.343116  0.483186  1
  Zn  Zn9  1  0.343116  0.656884  0.516814  1
  Zn  Zn10  1  0.657483  0.342517  0.017024  1
  Zn  Zn11  1  0.342517  0.657483  0.982976  1
  Zn  Zn12  1  0.394971  0.605029  0.251339  1
  Zn  Zn13  1  0.605029  0.394971  0.748661  1
  Sn  Sn14  1  0.555015  0.444985  0.249837  1
  Sn  Sn15  1  0.444985  0.555015  0.750163  1
