# generated using pymatgen
data_Ho10Cd3In5NiPd3
_symmetry_space_group_name_H-M   'P 1'
_cell_length_a   3.60582500
_cell_length_b   8.04367359
_cell_length_c   18.18923815
_cell_angle_alpha   90.07910992
_cell_angle_beta   90.00000000
_cell_angle_gamma   90.00000000
_symmetry_Int_Tables_number   1
_chemical_formula_structural   Ho10Cd3In5NiPd3
_chemical_formula_sum   'Ho10 Cd3 In5 Ni1 Pd3'
_cell_volume   527.56160307
_cell_formula_units_Z   1
loop_
 _symmetry_equiv_pos_site_id
 _symmetry_equiv_pos_as_xyz
  1  'x, y, z'
loop_
 _atom_site_type_symbol
 _atom_site_label
 _atom_site_symmetry_multiplicity
 _atom_site_fract_x
 _atom_site_fract_y
 _atom_site_fract_z
 _atom_site_occupancy
  Ho  Ho0  1  0.000000  0.499612  0.498559  1
  Ho  Ho1  1  0.000000  0.999258  0.000621  1
  Ho  Ho2  1  0.000000  0.734763  0.277566  1
  Ho  Ho3  1  0.000000  0.259062  0.720474  1
  Ho  Ho4  1  0.000000  0.757930  0.780823  1
  Ho  Ho5  1  0.000000  0.253508  0.218767  1
  Ho  Ho6  1  0.000000  0.610396  0.089821  1
  Ho  Ho7  1  0.000000  0.386315  0.917370  1
  Ho  Ho8  1  0.000000  0.882950  0.584033  1
  Ho  Ho9  1  0.000000  0.114095  0.414199  1
  Cd  Cd10  1  0.500000  0.711538  0.932800  1
  Cd  Cd11  1  0.500000  0.289729  0.069533  1
  Cd  Cd12  1  0.500000  0.787444  0.430543  1
  In  In13  1  0.500000  0.209615  0.567522  1
  In  In14  1  0.500000  0.577286  0.648228  1
  In  In15  1  0.500000  0.427049  0.349538  1
  In  In16  1  0.500000  0.924766  0.147557  1
  In  In17  1  0.500000  0.076073  0.852861  1
  Ni  Ni18  1  0.500000  0.522251  0.196633  1
  Pd  Pd19  1  0.500000  0.475460  0.803753  1
  Pd  Pd20  1  0.500000  0.976039  0.696427  1
  Pd  Pd21  1  0.500000  0.024860  0.302369  1
