# generated using pymatgen
data_Yb5Dy3(Ge4Mo3)4
_symmetry_space_group_name_H-M   'P 1'
_cell_length_a   6.86150438
_cell_length_b   7.06682117
_cell_length_c   13.21357823
_cell_angle_alpha   89.95341085
_cell_angle_beta   89.95252252
_cell_angle_gamma   89.96540678
_symmetry_Int_Tables_number   1
_chemical_formula_structural   Yb5Dy3(Ge4Mo3)4
_chemical_formula_sum   'Yb5 Dy3 Ge16 Mo12'
_cell_volume   640.71296912
_cell_formula_units_Z   1
loop_
 _symmetry_equiv_pos_site_id
 _symmetry_equiv_pos_as_xyz
  1  'x, y, z'
loop_
 _atom_site_type_symbol
 _atom_site_label
 _atom_site_symmetry_multiplicity
 _atom_site_fract_x
 _atom_site_fract_y
 _atom_site_fract_z
 _atom_site_occupancy
  Yb  Yb0  1  0.493547  0.330275  0.089575  1
  Yb  Yb1  1  0.993128  0.171002  0.408887  1
  Yb  Yb2  1  0.506037  0.671462  0.591356  1
  Yb  Yb3  1  0.006507  0.828179  0.908624  1
  Yb  Yb4  1  0.505976  0.671034  0.910478  1
  Dy  Dy5  1  0.005393  0.826300  0.592758  1
  Dy  Dy6  1  0.494249  0.327673  0.408326  1
  Dy  Dy7  1  0.994268  0.172664  0.090684  1
  Ge  Ge8  1  0.669741  0.044036  0.545574  1
  Ge  Ge9  1  0.170303  0.457602  0.953646  1
  Ge  Ge10  1  0.331631  0.954889  0.045711  1
  Ge  Ge11  1  0.830263  0.544210  0.454182  1
  Ge  Ge12  1  0.329220  0.953932  0.454065  1
  Ge  Ge13  1  0.830001  0.546501  0.045385  1
  Ge  Ge14  1  0.669460  0.043041  0.953212  1
  Ge  Ge15  1  0.170307  0.453808  0.545949  1
  Ge  Ge16  1  0.529697  0.376211  0.750138  1
  Ge  Ge17  1  0.031211  0.124257  0.750250  1
  Ge  Ge18  1  0.469315  0.627799  0.248580  1
  Ge  Ge19  1  0.969874  0.874239  0.250924  1
  Ge  Ge20  1  0.804808  0.642436  0.752140  1
  Ge  Ge21  1  0.310877  0.855139  0.751916  1
  Ge  Ge22  1  0.191743  0.357094  0.250027  1
  Ge  Ge23  1  0.691220  0.144032  0.249125  1
  Mo  Mo24  1  0.833907  0.338225  0.627921  1
  Mo  Mo25  1  0.334025  0.162906  0.871794  1
  Mo  Mo26  1  0.165077  0.661787  0.127720  1
  Mo  Mo27  1  0.666512  0.838846  0.372502  1
  Mo  Mo28  1  0.166045  0.660378  0.372316  1
  Mo  Mo29  1  0.668431  0.840555  0.128249  1
  Mo  Mo30  1  0.835797  0.336891  0.871635  1
  Mo  Mo31  1  0.334240  0.160758  0.627618  1
  Mo  Mo32  1  0.661356  0.013023  0.749418  1
  Mo  Mo33  1  0.160029  0.487566  0.749154  1
  Mo  Mo34  1  0.337823  0.990109  0.250514  1
  Mo  Mo35  1  0.837982  0.511144  0.249647  1
