# generated using pymatgen
data_Na5Sr(MnN2)4
_symmetry_space_group_name_H-M   'P 1'
_cell_length_a   5.61290100
_cell_length_b   9.41144300
_cell_length_c   9.47987700
_cell_angle_alpha   90.00000000
_cell_angle_beta   90.00000000
_cell_angle_gamma   90.00000000
_symmetry_Int_Tables_number   1
_chemical_formula_structural   Na5Sr(MnN2)4
_chemical_formula_sum   'Na10 Sr2 Mn8 N16'
_cell_volume   500.77922186
_cell_formula_units_Z   2
loop_
 _symmetry_equiv_pos_site_id
 _symmetry_equiv_pos_as_xyz
  1  'x, y, z'
loop_
 _atom_site_type_symbol
 _atom_site_label
 _atom_site_symmetry_multiplicity
 _atom_site_fract_x
 _atom_site_fract_y
 _atom_site_fract_z
 _atom_site_occupancy
  Na  Na0  1  0.631809  0.153017  0.419713  1
  Na  Na1  1  0.868191  0.846983  0.419713  1
  Na  Na2  1  0.631809  0.346983  0.080287  1
  Na  Na3  1  0.868191  0.653017  0.080287  1
  Na  Na4  1  0.374851  0.854663  0.572995  1
  Na  Na5  1  0.125149  0.145337  0.572995  1
  Na  Na6  1  0.374851  0.645337  0.927005  1
  Na  Na7  1  0.125149  0.354663  0.927005  1
  Na  Na8  1  0.750000  0.500000  0.388907  1
  Na  Na9  1  0.750000  0.000000  0.111093  1
  Sr  Sr10  1  0.250000  0.500000  0.592894  1
  Sr  Sr11  1  0.250000  0.000000  0.907106  1
  Mn  Mn12  1  0.750000  0.500000  0.735215  1
  Mn  Mn13  1  0.750000  0.000000  0.764785  1
  Mn  Mn14  1  0.250000  0.500000  0.262435  1
  Mn  Mn15  1  0.250000  0.000000  0.237565  1
  Mn  Mn16  1  0.690770  0.250000  0.750000  1
  Mn  Mn17  1  0.809230  0.750000  0.750000  1
  Mn  Mn18  1  0.308233  0.750000  0.250000  1
  Mn  Mn19  1  0.191767  0.250000  0.250000  1
  N  N20  1  0.878001  0.353569  0.635107  1
  N  N21  1  0.621999  0.646431  0.635107  1
  N  N22  1  0.878001  0.146431  0.864893  1
  N  N23  1  0.621999  0.853569  0.864893  1
  N  N24  1  0.123665  0.643887  0.366727  1
  N  N25  1  0.376335  0.356113  0.366727  1
  N  N26  1  0.123665  0.856113  0.133273  1
  N  N27  1  0.376335  0.143887  0.133273  1
  N  N28  1  0.531362  0.399242  0.832154  1
  N  N29  1  0.968638  0.600758  0.832154  1
  N  N30  1  0.531362  0.100758  0.667846  1
  N  N31  1  0.968638  0.899242  0.667846  1
  N  N32  1  0.465531  0.600647  0.166012  1
  N  N33  1  0.034469  0.399353  0.166012  1
  N  N34  1  0.465531  0.899353  0.333988  1
  N  N35  1  0.034469  0.100647  0.333988  1
