# generated using pymatgen
data_Ta6V2Re4Si5P
_symmetry_space_group_name_H-M   'P 1'
_cell_length_a   7.58094194
_cell_length_b   7.58121254
_cell_length_c   7.58094299
_cell_angle_alpha   126.47928214
_cell_angle_beta   128.23000703
_cell_angle_gamma   77.68034614
_symmetry_Int_Tables_number   1
_chemical_formula_structural   Ta6V2Re4Si5P
_chemical_formula_sum   'Ta6 V2 Re4 Si5 P1'
_cell_volume   266.83283416
_cell_formula_units_Z   1
loop_
 _symmetry_equiv_pos_site_id
 _symmetry_equiv_pos_as_xyz
  1  'x, y, z'
loop_
 _atom_site_type_symbol
 _atom_site_label
 _atom_site_symmetry_multiplicity
 _atom_site_fract_x
 _atom_site_fract_y
 _atom_site_fract_z
 _atom_site_occupancy
  Ta  Ta0  1  0.554099  0.090701  0.036603  1
  Ta  Ta1  1  0.444011  0.489371  0.545360  1
  Ta  Ta2  1  0.945862  0.482504  0.036643  1
  Ta  Ta3  1  0.056019  0.101378  0.545360  1
  Ta  Ta4  1  0.750022  0.912960  0.662938  1
  Ta  Ta5  1  0.250008  0.908878  0.158869  1
  V  V6  1  0.501010  0.243557  0.744612  1
  V  V7  1  0.998944  0.243557  0.242546  1
  Re  Re8  1  0.116934  0.753136  0.615932  1
  Re  Re9  1  0.863007  0.498887  0.616040  1
  Re  Re10  1  0.637204  0.753136  0.136202  1
  Re  Re11  1  0.382847  0.498887  0.135880  1
  Si  Si12  1  0.250091  0.498881  0.748790  1
  Si  Si13  1  0.330365  0.827774  0.492961  1
  Si  Si14  1  0.665182  0.162647  0.493028  1
  Si  Si15  1  0.834812  0.827774  0.997407  1
  Si  Si16  1  0.169619  0.162647  0.997465  1
  P  P17  1  0.749963  0.485523  0.235560  1
