# generated using pymatgen
data_Gd8Al(IO8)3
_symmetry_space_group_name_H-M   'P 1'
_cell_length_a   5.41195222
_cell_length_b   7.80345400
_cell_length_c   11.66782200
_cell_angle_alpha   76.66757472
_cell_angle_beta   88.62991440
_cell_angle_gamma   89.35867320
_symmetry_Int_Tables_number   1
_chemical_formula_structural   Gd8Al(IO8)3
_chemical_formula_sum   'Gd8 Al1 I3 O24'
_cell_volume   479.32882069
_cell_formula_units_Z   1
loop_
 _symmetry_equiv_pos_site_id
 _symmetry_equiv_pos_as_xyz
  1  'x, y, z'
loop_
 _atom_site_type_symbol
 _atom_site_label
 _atom_site_symmetry_multiplicity
 _atom_site_fract_x
 _atom_site_fract_y
 _atom_site_fract_z
 _atom_site_occupancy
  Gd  Gd0  1  0.206999  0.798017  0.056838  1
  Gd  Gd1  1  0.253413  0.980592  0.757812  1
  Gd  Gd2  1  0.752216  0.997087  0.255175  1
  Gd  Gd3  1  0.297147  0.520489  0.765306  1
  Gd  Gd4  1  0.197451  0.218258  0.427794  1
  Gd  Gd5  1  0.706883  0.516417  0.236549  1
  Gd  Gd6  1  0.802054  0.212641  0.918014  1
  Gd  Gd7  1  0.788895  0.781272  0.600057  1
  Al  Al8  1  0.740145  0.678930  0.908642  1
  I  I9  1  0.258207  0.731765  0.380016  1
  I  I10  1  0.742647  0.274289  0.616649  1
  I  I11  1  0.262790  0.270694  0.121665  1
  O  O12  1  0.853021  0.362378  0.457836  1
  O  O13  1  0.482641  0.822912  0.912108  1
  O  O14  1  0.855795  0.646055  0.057091  1
  O  O15  1  0.016714  0.311233  0.711085  1
  O  O16  1  0.992007  0.298642  0.229880  1
  O  O17  1  0.135560  0.356712  0.971629  1
  O  O18  1  0.618780  0.480490  0.880581  1
  O  O19  1  0.541645  0.153179  0.073709  1
  O  O20  1  0.117925  0.637615  0.525629  1
  O  O21  1  0.969411  0.718448  0.785675  1
  O  O22  1  0.454341  0.210672  0.269733  1
  O  O23  1  0.081267  0.950716  0.388250  1
  O  O24  1  0.475452  0.163076  0.562486  1
  O  O25  1  0.987255  0.715672  0.277760  1
  O  O26  1  0.935706  0.064885  0.604448  1
  O  O27  1  0.574264  0.182381  0.764004  1
  O  O28  1  0.435932  0.779444  0.681926  1
  O  O29  1  0.086260  0.058517  0.127138  1
  O  O30  1  0.602920  0.492459  0.616150  1
  O  O31  1  0.381344  0.496347  0.113561  1
  O  O32  1  0.450246  0.800681  0.227916  1
  O  O33  1  0.374853  0.505856  0.374444  1
  O  O34  1  0.546362  0.830411  0.429405  1
  O  O35  1  0.021452  0.980772  0.913039  1
