# generated using pymatgen
data_ScTa4(Re3Tc)6
_symmetry_space_group_name_H-M   'P 1'
_cell_length_a   8.40446484
_cell_length_b   8.41022650
_cell_length_c   8.41022801
_cell_angle_alpha   109.54395268
_cell_angle_beta   109.47189272
_cell_angle_gamma   109.42557475
_symmetry_Int_Tables_number   1
_chemical_formula_structural   ScTa4(Re3Tc)6
_chemical_formula_sum   'Sc1 Ta4 Re18 Tc6'
_cell_volume   457.46135923
_cell_formula_units_Z   1
loop_
 _symmetry_equiv_pos_site_id
 _symmetry_equiv_pos_as_xyz
  1  'x, y, z'
loop_
 _atom_site_type_symbol
 _atom_site_label
 _atom_site_symmetry_multiplicity
 _atom_site_fract_x
 _atom_site_fract_y
 _atom_site_fract_z
 _atom_site_occupancy
  Sc  Sc0  1  0.000000  0.999703  0.999703  1
  Ta  Ta1  1  0.369144  0.369889  0.369164  1
  Ta  Ta2  1  0.001289  0.630499  0.000070  1
  Ta  Ta3  1  0.630856  0.000021  0.000745  1
  Ta  Ta4  1  0.998711  0.998781  0.629209  1
  Re  Re5  1  0.600788  0.601330  0.281328  1
  Re  Re6  1  0.806090  0.806326  0.180855  1
  Re  Re7  1  0.375490  0.193521  0.999926  1
  Re  Re8  1  0.193910  0.374766  0.000237  1
  Re  Re9  1  0.622760  0.817229  0.623146  1
  Re  Re10  1  0.377240  0.000387  0.194469  1
  Re  Re11  1  0.000056  0.377283  0.195429  1
  Re  Re12  1  0.818002  0.622796  0.622621  1
  Re  Re13  1  0.181998  0.804620  0.804794  1
  Re  Re14  1  0.804746  0.180438  0.805711  1
  Re  Re15  1  0.195254  0.000965  0.375691  1
  Re  Re16  1  0.999944  0.195373  0.377226  1
  Re  Re17  1  0.624510  0.624436  0.818031  1
  Re  Re18  1  0.399420  0.999701  0.680862  1
  Re  Re19  1  0.600580  0.281443  0.600281  1
  Re  Re20  1  0.681906  0.400874  0.001511  1
  Re  Re21  1  0.399212  0.680539  0.000543  1
  Re  Re22  1  0.318094  0.319604  0.718967  1
  Tc  Tc23  1  0.999403  0.399841  0.683239  1
  Tc  Tc24  1  0.282362  0.599746  0.599776  1
  Tc  Tc25  1  0.717638  0.317415  0.317385  1
  Tc  Tc26  1  0.317339  0.717778  0.318201  1
  Tc  Tc27  1  0.682661  0.000860  0.400440  1
  Tc  Tc28  1  0.000597  0.683837  0.400438  1
