# generated using pymatgen
data_La3Cd3Hg2Pd
_symmetry_space_group_name_H-M   'P 1'
_cell_length_a   8.02516100
_cell_length_b   8.02516099
_cell_length_c   4.28486400
_cell_angle_alpha   90.00000000
_cell_angle_beta   90.00000000
_cell_angle_gamma   120.00000415
_symmetry_Int_Tables_number   1
_chemical_formula_structural   La3Cd3Hg2Pd
_chemical_formula_sum   'La3 Cd3 Hg2 Pd1'
_cell_volume   238.98748736
_cell_formula_units_Z   1
loop_
 _symmetry_equiv_pos_site_id
 _symmetry_equiv_pos_as_xyz
  1  'x, y, z'
loop_
 _atom_site_type_symbol
 _atom_site_label
 _atom_site_symmetry_multiplicity
 _atom_site_fract_x
 _atom_site_fract_y
 _atom_site_fract_z
 _atom_site_occupancy
  La  La0  1  0.403407  0.422144  0.500000  1
  La  La1  1  0.577856  0.981264  0.500000  1
  La  La2  1  0.018736  0.596593  0.500000  1
  Cd  Cd3  1  0.739747  0.745437  0.000000  1
  Cd  Cd4  1  0.254563  0.994311  0.000000  1
  Cd  Cd5  1  0.005689  0.260253  0.000000  1
  Hg  Hg6  1  0.666667  0.333333  0.000000  1
  Hg  Hg7  1  0.000000  0.000000  0.500000  1
  Pd  Pd8  1  0.333333  0.666667  0.000000  1
