# generated using pymatgen
data_Tm4InTcHg2
_symmetry_space_group_name_H-M   'P 1'
_cell_length_a   7.34040100
_cell_length_b   7.21453500
_cell_length_c   7.33947100
_cell_angle_alpha   90.00000000
_cell_angle_beta   90.00144402
_cell_angle_gamma   90.00000000
_symmetry_Int_Tables_number   1
_chemical_formula_structural   Tm4InTcHg2
_chemical_formula_sum   'Tm8 In2 Tc2 Hg4'
_cell_volume   388.68062212
_cell_formula_units_Z   2
loop_
 _symmetry_equiv_pos_site_id
 _symmetry_equiv_pos_as_xyz
  1  'x, y, z'
loop_
 _atom_site_type_symbol
 _atom_site_label
 _atom_site_symmetry_multiplicity
 _atom_site_fract_x
 _atom_site_fract_y
 _atom_site_fract_z
 _atom_site_occupancy
  Tm  Tm0  1  0.271912  0.000071  0.271910  1
  Tm  Tm1  1  0.271912  0.499928  0.271910  1
  Tm  Tm2  1  0.728063  0.500080  0.271923  1
  Tm  Tm3  1  0.728063  0.999920  0.271923  1
  Tm  Tm4  1  0.271937  0.000079  0.728078  1
  Tm  Tm5  1  0.271937  0.499920  0.728078  1
  Tm  Tm6  1  0.728088  0.500071  0.728091  1
  Tm  Tm7  1  0.728088  0.999929  0.728091  1
  In  In8  1  0.999749  0.250000  0.999936  1
  In  In9  1  0.000251  0.750000  0.000064  1
  Tc  Tc10  1  0.500232  0.250000  0.500006  1
  Tc  Tc11  1  0.499767  0.750000  0.499994  1
  Hg  Hg12  1  0.500216  0.250000  0.000002  1
  Hg  Hg13  1  0.499784  0.750000  0.999998  1
  Hg  Hg14  1  0.999803  0.250000  0.499983  1
  Hg  Hg15  1  0.000197  0.750000  0.500018  1
