# generated using pymatgen
data_La5Ce(ZnSb3)4
_symmetry_space_group_name_H-M   'P 1'
_cell_length_a   4.35533100
_cell_length_b   10.61371312
_cell_length_c   13.58862823
_cell_angle_alpha   89.98101124
_cell_angle_beta   90.00000000
_cell_angle_gamma   90.00000000
_symmetry_Int_Tables_number   1
_chemical_formula_structural   La5Ce(ZnSb3)4
_chemical_formula_sum   'La5 Ce1 Zn4 Sb12'
_cell_volume   628.15107048
_cell_formula_units_Z   1
loop_
 _symmetry_equiv_pos_site_id
 _symmetry_equiv_pos_as_xyz
  1  'x, y, z'
loop_
 _atom_site_type_symbol
 _atom_site_label
 _atom_site_symmetry_multiplicity
 _atom_site_fract_x
 _atom_site_fract_y
 _atom_site_fract_z
 _atom_site_occupancy
  La  La0  1  0.750000  0.246762  0.750103  1
  La  La1  1  0.250000  0.738882  0.910148  1
  La  La2  1  0.250000  0.736503  0.588890  1
  La  La3  1  0.250000  0.750346  0.250306  1
  La  La4  1  0.750000  0.260976  0.089400  1
  Ce  Ce5  1  0.750000  0.261973  0.410648  1
  Zn  Zn6  1  0.250000  0.003313  0.093177  1
  Zn  Zn7  1  0.250000  0.002571  0.409730  1
  Zn  Zn8  1  0.750000  0.999936  0.588949  1
  Zn  Zn9  1  0.750000  0.997492  0.909355  1
  Sb  Sb10  1  0.750000  0.503600  0.250332  1
  Sb  Sb11  1  0.750000  0.492342  0.916468  1
  Sb  Sb12  1  0.750000  0.846047  0.748645  1
  Sb  Sb13  1  0.750000  0.843118  0.420930  1
  Sb  Sb14  1  0.250000  0.155852  0.921385  1
  Sb  Sb15  1  0.250000  0.161402  0.576430  1
  Sb  Sb16  1  0.250000  0.159519  0.252576  1
  Sb  Sb17  1  0.250000  0.507199  0.083604  1
  Sb  Sb18  1  0.250000  0.493741  0.749920  1
  Sb  Sb19  1  0.250000  0.503719  0.416307  1
  Sb  Sb20  1  0.750000  0.489990  0.582938  1
  Sb  Sb21  1  0.750000  0.844714  0.079756  1
