# generated using pymatgen
data_Ca6Ni18P13Pt2
_symmetry_space_group_name_H-M   'P 1'
_cell_length_a   12.89187600
_cell_length_b   12.89187726
_cell_length_c   3.74567900
_cell_angle_alpha   90.00000000
_cell_angle_beta   90.00000000
_cell_angle_gamma   120.00000189
_symmetry_Int_Tables_number   1
_chemical_formula_structural   Ca6Ni18P13Pt2
_chemical_formula_sum   'Ca6 Ni18 P13 Pt2'
_cell_volume   539.12995339
_cell_formula_units_Z   1
loop_
 _symmetry_equiv_pos_site_id
 _symmetry_equiv_pos_as_xyz
  1  'x, y, z'
loop_
 _atom_site_type_symbol
 _atom_site_label
 _atom_site_symmetry_multiplicity
 _atom_site_fract_x
 _atom_site_fract_y
 _atom_site_fract_z
 _atom_site_occupancy
  Ca  Ca0  1  0.466093  0.184999  0.000000  1
  Ca  Ca1  1  0.718907  0.533907  0.000000  1
  Ca  Ca2  1  0.815001  0.281093  0.000000  1
  Ca  Ca3  1  0.534377  0.814924  0.500000  1
  Ca  Ca4  1  0.280546  0.465623  0.500000  1
  Ca  Ca5  1  0.185076  0.719454  0.500000  1
  Ni  Ni6  1  0.193324  0.089561  0.000000  1
  Ni  Ni7  1  0.896236  0.806676  0.000000  1
  Ni  Ni8  1  0.910439  0.103764  0.000000  1
  Ni  Ni9  1  0.848561  0.928465  0.500000  1
  Ni  Ni10  1  0.079904  0.151439  0.500000  1
  Ni  Ni11  1  0.071535  0.920096  0.500000  1
  Ni  Ni12  1  0.435925  0.414243  0.000000  1
  Ni  Ni13  1  0.978319  0.564075  0.000000  1
  Ni  Ni14  1  0.585757  0.021681  0.000000  1
  Ni  Ni15  1  0.566877  0.588647  0.500000  1
  Ni  Ni16  1  0.021770  0.433123  0.500000  1
  Ni  Ni17  1  0.411353  0.978230  0.500000  1
  Ni  Ni18  1  0.075631  0.315641  0.000000  1
  Ni  Ni19  1  0.240009  0.924369  0.000000  1
  Ni  Ni20  1  0.684359  0.759991  0.000000  1
  Ni  Ni21  1  0.931657  0.686972  0.500000  1
  Ni  Ni22  1  0.755316  0.068343  0.500000  1
  Ni  Ni23  1  0.313028  0.244684  0.500000  1
  P  P24  1  0.231519  0.278119  0.000000  1
  P  P25  1  0.046601  0.768481  0.000000  1
  P  P26  1  0.721881  0.953399  0.000000  1
  P  P27  1  0.770204  0.726273  0.500000  1
  P  P28  1  0.956069  0.229796  0.500000  1
  P  P29  1  0.273727  0.043931  0.500000  1
  P  P30  1  0.486424  0.613892  0.000000  1
  P  P31  1  0.127469  0.513576  0.000000  1
  P  P32  1  0.386108  0.872531  0.000000  1
  P  P33  1  0.514229  0.387821  0.500000  1
  P  P34  1  0.873592  0.485771  0.500000  1
  P  P35  1  0.612179  0.126408  0.500000  1
  P  P36  1  0.000000  0.000000  0.000000  1
  Pt  Pt37  1  0.333333  0.666667  0.000000  1
  Pt  Pt38  1  0.666667  0.333333  0.500000  1
