# generated using pymatgen
data_Ho9Th(FeSb2)2
_symmetry_space_group_name_H-M   'P 1'
_cell_length_a   7.92007000
_cell_length_b   8.69252129
_cell_length_c   12.20013369
_cell_angle_alpha   89.70512669
_cell_angle_beta   90.00000000
_cell_angle_gamma   90.00000000
_symmetry_Int_Tables_number   1
_chemical_formula_structural   Ho9Th(FeSb2)2
_chemical_formula_sum   'Ho18 Th2 Fe4 Sb8'
_cell_volume   839.91168061
_cell_formula_units_Z   2
loop_
 _symmetry_equiv_pos_site_id
 _symmetry_equiv_pos_as_xyz
  1  'x, y, z'
loop_
 _atom_site_type_symbol
 _atom_site_label
 _atom_site_symmetry_multiplicity
 _atom_site_fract_x
 _atom_site_fract_y
 _atom_site_fract_z
 _atom_site_occupancy
  Ho  Ho0  1  0.159366  0.748130  0.204944  1
  Ho  Ho1  1  0.659366  0.251870  0.295056  1
  Ho  Ho2  1  0.842357  0.250256  0.796052  1
  Ho  Ho3  1  0.342357  0.749744  0.703948  1
  Ho  Ho4  1  0.449646  0.750639  0.997571  1
  Ho  Ho5  1  0.949646  0.249361  0.502429  1
  Ho  Ho6  1  0.546843  0.251892  0.002579  1
  Ho  Ho7  1  0.046843  0.748108  0.497421  1
  Ho  Ho8  1  0.625414  0.750061  0.304450  1
  Ho  Ho9  1  0.125414  0.249939  0.195550  1
  Ho  Ho10  1  0.378371  0.253576  0.694538  1
  Ho  Ho11  1  0.878371  0.746424  0.805462  1
  Ho  Ho12  1  0.174762  0.460910  0.935790  1
  Ho  Ho13  1  0.674762  0.539090  0.564210  1
  Ho  Ho14  1  0.182708  0.039144  0.932135  1
  Ho  Ho15  1  0.682708  0.960856  0.567865  1
  Ho  Ho16  1  0.823379  0.538003  0.064466  1
  Ho  Ho17  1  0.323379  0.461997  0.435534  1
  Th  Th18  1  0.829054  0.969578  0.059341  1
  Th  Th19  1  0.329054  0.030422  0.440659  1
  Fe  Fe20  1  0.421459  0.765285  0.483956  1
  Fe  Fe21  1  0.921459  0.234715  0.016044  1
  Fe  Fe22  1  0.568420  0.245947  0.509591  1
  Fe  Fe23  1  0.068420  0.754053  0.990409  1
  Sb  Sb24  1  0.926851  0.990576  0.327876  1
  Sb  Sb25  1  0.426851  0.009424  0.172124  1
  Sb  Sb26  1  0.070032  0.490946  0.672570  1
  Sb  Sb27  1  0.570032  0.509054  0.827430  1
  Sb  Sb28  1  0.071000  0.008177  0.674085  1
  Sb  Sb29  1  0.571000  0.991823  0.825915  1
  Sb  Sb30  1  0.930336  0.507587  0.327110  1
  Sb  Sb31  1  0.430336  0.492413  0.172890  1
