# generated using pymatgen
data_HfPd5Pt3
_symmetry_space_group_name_H-M   'P 1'
_cell_length_a   6.32974744
_cell_length_b   6.32974673
_cell_length_c   6.26033202
_cell_angle_alpha   95.86445510
_cell_angle_beta   95.86445758
_cell_angle_gamma   142.92909954
_symmetry_Int_Tables_number   1
_chemical_formula_structural   HfPd5Pt3
_chemical_formula_sum   'Hf1 Pd5 Pt3'
_cell_volume   143.17490746
_cell_formula_units_Z   1
loop_
 _symmetry_equiv_pos_site_id
 _symmetry_equiv_pos_as_xyz
  1  'x, y, z'
loop_
 _atom_site_type_symbol
 _atom_site_label
 _atom_site_symmetry_multiplicity
 _atom_site_fract_x
 _atom_site_fract_y
 _atom_site_fract_z
 _atom_site_occupancy
  Hf  Hf0  1  0.000598  0.000598  0.001196  1
  Pd  Pd1  1  0.331483  0.999913  0.331396  1
  Pd  Pd2  1  0.999913  0.331483  0.331396  1
  Pd  Pd3  1  0.668910  0.000271  0.669181  1
  Pd  Pd4  1  0.000271  0.668910  0.669181  1
  Pd  Pd5  1  0.334109  0.334109  0.668219  1
  Pt  Pt6  1  0.664190  0.335036  0.999228  1
  Pt  Pt7  1  0.335036  0.664190  0.999228  1
  Pt  Pt8  1  0.665485  0.665485  0.330973  1
