# generated using pymatgen
data_Hf10Zn2BiPb5
_symmetry_space_group_name_H-M   'P 1'
_cell_length_a   8.75239200
_cell_length_b   8.75351715
_cell_length_c   5.88087500
_cell_angle_alpha   90.00000000
_cell_angle_beta   90.00000000
_cell_angle_gamma   119.99574812
_symmetry_Int_Tables_number   1
_chemical_formula_structural   Hf10Zn2BiPb5
_chemical_formula_sum   'Hf10 Zn2 Bi1 Pb5'
_cell_volume   390.21192123
_cell_formula_units_Z   1
loop_
 _symmetry_equiv_pos_site_id
 _symmetry_equiv_pos_as_xyz
  1  'x, y, z'
loop_
 _atom_site_type_symbol
 _atom_site_label
 _atom_site_symmetry_multiplicity
 _atom_site_fract_x
 _atom_site_fract_y
 _atom_site_fract_z
 _atom_site_occupancy
  Hf  Hf0  1  0.332880  0.666107  0.999419  1
  Hf  Hf1  1  0.666774  0.333893  0.500581  1
  Hf  Hf2  1  0.666774  0.333893  0.999419  1
  Hf  Hf3  1  0.332880  0.666107  0.500581  1
  Hf  Hf4  1  0.264028  0.000000  0.250000  1
  Hf  Hf5  1  0.264199  0.264107  0.750000  1
  Hf  Hf6  1  0.000092  0.735893  0.750000  1
  Hf  Hf7  1  0.001176  0.264965  0.250000  1
  Hf  Hf8  1  0.736211  0.735035  0.250000  1
  Hf  Hf9  1  0.735700  0.000000  0.750000  1
  Zn  Zn10  1  0.000413  0.000000  0.999726  1
  Zn  Zn11  1  0.000413  0.000000  0.500274  1
  Bi  Bi12  1  0.613363  0.000000  0.250000  1
  Pb  Pb13  1  0.613717  0.613667  0.750000  1
  Pb  Pb14  1  0.000050  0.386333  0.750000  1
  Pb  Pb15  1  0.000026  0.614077  0.250000  1
  Pb  Pb16  1  0.385950  0.385923  0.250000  1
  Pb  Pb17  1  0.385353  0.000000  0.750000  1
