# generated using pymatgen
data_Ta3Nb7AlSi5
_symmetry_space_group_name_H-M   'P 1'
_cell_length_a   7.59914549
_cell_length_b   7.60052298
_cell_length_c   7.59747031
_cell_angle_alpha   128.13319801
_cell_angle_beta   128.14733584
_cell_angle_gamma   76.37352562
_symmetry_Int_Tables_number   1
_chemical_formula_structural   Ta3Nb7AlSi5
_chemical_formula_sum   'Ta3 Nb7 Al1 Si5'
_cell_volume   263.79111902
_cell_formula_units_Z   1
loop_
 _symmetry_equiv_pos_site_id
 _symmetry_equiv_pos_as_xyz
  1  'x, y, z'
loop_
 _atom_site_type_symbol
 _atom_site_label
 _atom_site_symmetry_multiplicity
 _atom_site_fract_x
 _atom_site_fract_y
 _atom_site_fract_z
 _atom_site_occupancy
  Ta  Ta0  1  0.817010  0.311692  0.831076  1
  Ta  Ta1  1  0.000746  0.001014  0.000044  1
  Ta  Ta2  1  0.499722  0.499382  0.000113  1
  Nb  Nb3  1  0.020774  0.188666  0.505798  1
  Nb  Nb4  1  0.683503  0.515391  0.495387  1
  Nb  Nb5  1  0.515922  0.021390  0.833116  1
  Nb  Nb6  1  0.188477  0.683270  0.167078  1
  Nb  Nb7  1  0.983808  0.816359  0.504662  1
  Nb  Nb8  1  0.311356  0.478570  0.494505  1
  Nb  Nb9  1  0.479148  0.984382  0.168000  1
  Al  Al10  1  0.750111  0.750174  0.000219  1
  Si  Si11  1  0.249649  0.250131  0.000054  1
  Si  Si12  1  0.371047  0.128981  0.500314  1
  Si  Si13  1  0.629018  0.870991  0.500304  1
  Si  Si14  1  0.870803  0.370739  0.241546  1
  Si  Si15  1  0.128903  0.628867  0.757786  1
