# generated using pymatgen
data_K5PtCO5
_symmetry_space_group_name_H-M   'P 1'
_cell_length_a   7.57367209
_cell_length_b   7.57367187
_cell_length_c   9.11182100
_cell_angle_alpha   90.00000000
_cell_angle_beta   90.00000000
_cell_angle_gamma   90.87708775
_symmetry_Int_Tables_number   1
_chemical_formula_structural   K5PtCO5
_chemical_formula_sum   'K10 Pt2 C2 O10'
_cell_volume   522.59743703
_cell_formula_units_Z   2
loop_
 _symmetry_equiv_pos_site_id
 _symmetry_equiv_pos_as_xyz
  1  'x, y, z'
loop_
 _atom_site_type_symbol
 _atom_site_label
 _atom_site_symmetry_multiplicity
 _atom_site_fract_x
 _atom_site_fract_y
 _atom_site_fract_z
 _atom_site_occupancy
  K  K0  1  0.430998  0.930998  0.793948  1
  K  K1  1  0.554672  0.461443  0.750235  1
  K  K2  1  0.961443  0.054672  0.750235  1
  K  K3  1  0.052044  0.552044  0.764393  1
  K  K4  1  0.552044  0.052044  0.235607  1
  K  K5  1  0.461443  0.554672  0.249765  1
  K  K6  1  0.054672  0.961443  0.249765  1
  K  K7  1  0.930998  0.430998  0.206052  1
  K  K8  1  0.252739  0.252739  0.500000  1
  K  K9  1  0.752739  0.752739  0.500000  1
  Pt  Pt10  1  0.257646  0.257646  0.000000  1
  Pt  Pt11  1  0.757646  0.757646  0.000000  1
  C  C12  1  0.771263  0.271263  0.487059  1
  C  C13  1  0.271263  0.771263  0.512941  1
  O  O14  1  0.274412  0.239764  0.786594  1
  O  O15  1  0.739764  0.774412  0.786594  1
  O  O16  1  0.774412  0.739764  0.213406  1
  O  O17  1  0.239764  0.274412  0.213406  1
  O  O18  1  0.354089  0.854089  0.406718  1
  O  O19  1  0.626198  0.335634  0.433475  1
  O  O20  1  0.835634  0.126198  0.433475  1
  O  O21  1  0.335634  0.626198  0.566525  1
  O  O22  1  0.126198  0.835634  0.566525  1
  O  O23  1  0.854089  0.354089  0.593282  1
