# generated using pymatgen
data_Tb7ErIn2IrRh
_symmetry_space_group_name_H-M   'P 1'
_cell_length_a   9.70088717
_cell_length_b   9.69965251
_cell_length_c   9.68620617
_cell_angle_alpha   59.94326308
_cell_angle_beta   59.86820978
_cell_angle_gamma   59.90152749
_symmetry_Int_Tables_number   1
_chemical_formula_structural   Tb7ErIn2IrRh
_chemical_formula_sum   'Tb14 Er2 In4 Ir2 Rh2'
_cell_volume   643.07613179
_cell_formula_units_Z   2
loop_
 _symmetry_equiv_pos_site_id
 _symmetry_equiv_pos_as_xyz
  1  'x, y, z'
loop_
 _atom_site_type_symbol
 _atom_site_label
 _atom_site_symmetry_multiplicity
 _atom_site_fract_x
 _atom_site_fract_y
 _atom_site_fract_z
 _atom_site_occupancy
  Tb  Tb0  1  0.188886  0.190267  0.811360  1
  Tb  Tb1  1  0.649980  0.048673  0.649833  1
  Tb  Tb2  1  0.060757  0.061443  0.439368  1
  Tb  Tb3  1  0.440310  0.437466  0.060349  1
  Tb  Tb4  1  0.651969  0.650584  0.651020  1
  Tb  Tb5  1  0.811267  0.189711  0.188960  1
  Tb  Tb6  1  0.189284  0.810202  0.811044  1
  Tb  Tb7  1  0.048798  0.649751  0.649619  1
  Tb  Tb8  1  0.440223  0.060842  0.060717  1
  Tb  Tb9  1  0.437936  0.061750  0.437046  1
  Tb  Tb10  1  0.059539  0.439653  0.060117  1
  Tb  Tb11  1  0.649698  0.649676  0.049227  1
  Tb  Tb12  1  0.189246  0.810944  0.189889  1
  Tb  Tb13  1  0.059977  0.437857  0.439806  1
  Er  Er14  1  0.810637  0.810291  0.189474  1
  Er  Er15  1  0.810153  0.190090  0.810847  1
  In  In16  1  0.417408  0.416862  0.417370  1
  In  In17  1  0.417835  0.417323  0.748021  1
  In  In18  1  0.417831  0.748107  0.417615  1
  In  In19  1  0.748192  0.417489  0.417757  1
  Ir  Ir20  1  0.858021  0.425423  0.857795  1
  Ir  Ir21  1  0.857915  0.859225  0.859336  1
  Rh  Rh22  1  0.858557  0.858042  0.424891  1
  Rh  Rh23  1  0.425577  0.858335  0.858536  1
