# generated using pymatgen
data_Al2ZnGaAu4
_symmetry_space_group_name_H-M   'P 1'
_cell_length_a   3.39724900
_cell_length_b   6.48607464
_cell_length_c   6.45435795
_cell_angle_alpha   89.88793080
_cell_angle_beta   90.00000000
_cell_angle_gamma   90.00000000
_symmetry_Int_Tables_number   1
_chemical_formula_structural   Al2ZnGaAu4
_chemical_formula_sum   'Al2 Zn1 Ga1 Au4'
_cell_volume   142.22028292
_cell_formula_units_Z   1
loop_
 _symmetry_equiv_pos_site_id
 _symmetry_equiv_pos_as_xyz
  1  'x, y, z'
loop_
 _atom_site_type_symbol
 _atom_site_label
 _atom_site_symmetry_multiplicity
 _atom_site_fract_x
 _atom_site_fract_y
 _atom_site_fract_z
 _atom_site_occupancy
  Al  Al0  1  0.250000  0.066125  0.320347  1
  Al  Al1  1  0.750000  0.935567  0.684902  1
  Zn  Zn2  1  0.250000  0.439912  0.816322  1
  Ga  Ga3  1  0.750000  0.556156  0.173113  1
  Au  Au4  1  0.250000  0.697796  0.489984  1
  Au  Au5  1  0.750000  0.304594  0.510023  1
  Au  Au6  1  0.250000  0.816762  0.992269  1
  Au  Au7  1  0.750000  0.183086  0.013040  1
