# generated using pymatgen
data_Y3Tm17Cd6NiRu
_symmetry_space_group_name_H-M   'P 1'
_cell_length_a   9.47880600
_cell_length_b   9.47880704
_cell_length_c   9.75695000
_cell_angle_alpha   90.00000000
_cell_angle_beta   90.00000000
_cell_angle_gamma   119.99999635
_symmetry_Int_Tables_number   1
_chemical_formula_structural   Y3Tm17Cd6NiRu
_chemical_formula_sum   'Y3 Tm17 Cd6 Ni1 Ru1'
_cell_volume   759.19273675
_cell_formula_units_Z   1
loop_
 _symmetry_equiv_pos_site_id
 _symmetry_equiv_pos_as_xyz
  1  'x, y, z'
loop_
 _atom_site_type_symbol
 _atom_site_label
 _atom_site_symmetry_multiplicity
 _atom_site_fract_x
 _atom_site_fract_y
 _atom_site_fract_z
 _atom_site_occupancy
  Y  Y0  1  0.539567  0.460433  0.250000  1
  Y  Y1  1  0.539567  0.079132  0.250000  1
  Y  Y2  1  0.920868  0.460433  0.250000  1
  Tm  Tm3  1  0.000000  0.000000  0.499612  1
  Tm  Tm4  1  0.000000  0.000000  0.000388  1
  Tm  Tm5  1  0.457241  0.542759  0.750000  1
  Tm  Tm6  1  0.457241  0.914482  0.750000  1
  Tm  Tm7  1  0.085518  0.542759  0.750000  1
  Tm  Tm8  1  0.210404  0.789596  0.442840  1
  Tm  Tm9  1  0.210404  0.420811  0.442840  1
  Tm  Tm10  1  0.579189  0.789596  0.442840  1
  Tm  Tm11  1  0.788956  0.211044  0.563066  1
  Tm  Tm12  1  0.788956  0.577910  0.563066  1
  Tm  Tm13  1  0.422090  0.211044  0.563066  1
  Tm  Tm14  1  0.788956  0.211044  0.936934  1
  Tm  Tm15  1  0.788956  0.577910  0.936934  1
  Tm  Tm16  1  0.422090  0.211044  0.936934  1
  Tm  Tm17  1  0.210404  0.789596  0.057160  1
  Tm  Tm18  1  0.210404  0.420811  0.057160  1
  Tm  Tm19  1  0.579189  0.789596  0.057160  1
  Cd  Cd20  1  0.886596  0.113404  0.250000  1
  Cd  Cd21  1  0.886596  0.773190  0.250000  1
  Cd  Cd22  1  0.226810  0.113404  0.250000  1
  Cd  Cd23  1  0.114207  0.885793  0.750000  1
  Cd  Cd24  1  0.114207  0.228417  0.750000  1
  Cd  Cd25  1  0.771583  0.885793  0.750000  1
  Ni  Ni26  1  0.666667  0.333333  0.750000  1
  Ru  Ru27  1  0.333333  0.666667  0.250000  1
