# generated using pymatgen
data_TbY5Ni12(B2Ir)2
_symmetry_space_group_name_H-M   'P 1'
_cell_length_a   5.10793013
_cell_length_b   5.10793068
_cell_length_c   14.58380300
_cell_angle_alpha   90.00000000
_cell_angle_beta   90.00000000
_cell_angle_gamma   120.00366052
_symmetry_Int_Tables_number   1
_chemical_formula_structural   TbY5Ni12(B2Ir)2
_chemical_formula_sum   'Tb1 Y5 Ni12 B4 Ir2'
_cell_volume   329.51511697
_cell_formula_units_Z   1
loop_
 _symmetry_equiv_pos_site_id
 _symmetry_equiv_pos_as_xyz
  1  'x, y, z'
loop_
 _atom_site_type_symbol
 _atom_site_label
 _atom_site_symmetry_multiplicity
 _atom_site_fract_x
 _atom_site_fract_y
 _atom_site_fract_z
 _atom_site_occupancy
  Tb  Tb0  1  0.333334  0.666666  0.750000  1
  Y  Y1  1  0.666665  0.333335  0.030606  1
  Y  Y2  1  0.333337  0.666663  0.969489  1
  Y  Y3  1  0.333337  0.666663  0.530511  1
  Y  Y4  1  0.666665  0.333335  0.469394  1
  Y  Y5  1  0.666663  0.333337  0.250000  1
  Ni  Ni6  1  0.834941  0.669848  0.652562  1
  Ni  Ni7  1  0.834943  0.165057  0.652561  1
  Ni  Ni8  1  0.330152  0.165059  0.652562  1
  Ni  Ni9  1  0.165067  0.330164  0.347445  1
  Ni  Ni10  1  0.165061  0.834939  0.347446  1
  Ni  Ni11  1  0.669836  0.834933  0.347445  1
  Ni  Ni12  1  0.165067  0.330164  0.152555  1
  Ni  Ni13  1  0.165061  0.834939  0.152554  1
  Ni  Ni14  1  0.669836  0.834933  0.152555  1
  Ni  Ni15  1  0.834941  0.669848  0.847438  1
  Ni  Ni16  1  0.834943  0.165057  0.847439  1
  Ni  Ni17  1  0.330152  0.165059  0.847438  1
  B  B18  1  0.666642  0.333358  0.750000  1
  B  B19  1  0.333367  0.666633  0.250000  1
  B  B20  1  0.000036  0.999964  0.750000  1
  B  B21  1  0.999957  0.000043  0.250000  1
  Ir  Ir22  1  0.999999  0.000001  0.499993  1
  Ir  Ir23  1  0.999999  0.000001  0.000007  1
