# generated using pymatgen
data_Ho19Th(Sn7Sb)2
_symmetry_space_group_name_H-M   'P 1'
_cell_length_a   8.07744093
_cell_length_b   8.14531599
_cell_length_c   15.37578221
_cell_angle_alpha   90.29526608
_cell_angle_beta   89.49512274
_cell_angle_gamma   89.92418987
_symmetry_Int_Tables_number   1
_chemical_formula_structural   Ho19Th(Sn7Sb)2
_chemical_formula_sum   'Ho19 Th1 Sn14 Sb2'
_cell_volume   1011.56993213
_cell_formula_units_Z   1
loop_
 _symmetry_equiv_pos_site_id
 _symmetry_equiv_pos_as_xyz
  1  'x, y, z'
loop_
 _atom_site_type_symbol
 _atom_site_label
 _atom_site_symmetry_multiplicity
 _atom_site_fract_x
 _atom_site_fract_y
 _atom_site_fract_z
 _atom_site_occupancy
  Ho  Ho0  1  0.370163  0.836417  0.878693  1
  Ho  Ho1  1  0.874183  0.662736  0.619901  1
  Ho  Ho2  1  0.627432  0.160945  0.377489  1
  Ho  Ho3  1  0.130067  0.338422  0.124137  1
  Ho  Ho4  1  0.630368  0.162668  0.122491  1
  Ho  Ho5  1  0.126339  0.338811  0.378734  1
  Ho  Ho6  1  0.373681  0.838281  0.621875  1
  Ho  Ho7  1  0.870967  0.661309  0.876985  1
  Ho  Ho8  1  0.531844  0.328143  0.899762  1
  Ho  Ho9  1  0.036332  0.170185  0.603063  1
  Ho  Ho10  1  0.465620  0.678578  0.398232  1
  Ho  Ho11  1  0.969948  0.821753  0.100355  1
  Ho  Ho12  1  0.474947  0.674441  0.099247  1
  Ho  Ho13  1  0.971299  0.827015  0.399724  1
  Ho  Ho14  1  0.527345  0.321398  0.599078  1
  Ho  Ho15  1  0.201297  0.500378  0.748417  1
  Ho  Ho16  1  0.700932  0.997488  0.749739  1
  Ho  Ho17  1  0.798137  0.499365  0.248831  1
  Ho  Ho18  1  0.298834  0.001588  0.251898  1
  Th  Th19  1  0.020355  0.181949  0.902749  1
  Sn  Sn20  1  0.716452  0.969349  0.542283  1
  Sn  Sn21  1  0.212822  0.533659  0.958204  1
  Sn  Sn22  1  0.708680  0.960366  0.958696  1
  Sn  Sn23  1  0.216581  0.533173  0.542510  1
  Sn  Sn24  1  0.288686  0.034797  0.457951  1
  Sn  Sn25  1  0.792329  0.463026  0.041450  1
  Sn  Sn26  1  0.567963  0.622181  0.748722  1
  Sn  Sn27  1  0.068416  0.876664  0.750848  1
  Sn  Sn28  1  0.432288  0.378850  0.250797  1
  Sn  Sn29  1  0.932123  0.120745  0.250456  1
  Sn  Sn30  1  0.338460  0.147368  0.751629  1
  Sn  Sn31  1  0.832476  0.355053  0.746672  1
  Sn  Sn32  1  0.662913  0.851960  0.248911  1
  Sn  Sn33  1  0.162298  0.648568  0.249500  1
  Sb  Sb34  1  0.286912  0.030659  0.045201  1
  Sb  Sb35  1  0.780515  0.471712  0.454774  1
