# generated using pymatgen
data_Tb16Tm4Bi3Pb13
_symmetry_space_group_name_H-M   'P 1'
_cell_length_a   8.28778730
_cell_length_b   8.31340825
_cell_length_c   15.67123400
_cell_angle_alpha   90.10955486
_cell_angle_beta   89.74621273
_cell_angle_gamma   89.96025032
_symmetry_Int_Tables_number   1
_chemical_formula_structural   Tb16Tm4Bi3Pb13
_chemical_formula_sum   'Tb16 Tm4 Bi3 Pb13'
_cell_volume   1079.73141847
_cell_formula_units_Z   1
loop_
 _symmetry_equiv_pos_site_id
 _symmetry_equiv_pos_as_xyz
  1  'x, y, z'
loop_
 _atom_site_type_symbol
 _atom_site_label
 _atom_site_symmetry_multiplicity
 _atom_site_fract_x
 _atom_site_fract_y
 _atom_site_fract_z
 _atom_site_occupancy
  Tb  Tb0  1  0.383043  0.839275  0.878962  1
  Tb  Tb1  1  0.886134  0.658308  0.621310  1
  Tb  Tb2  1  0.615096  0.157492  0.378338  1
  Tb  Tb3  1  0.117478  0.342839  0.120833  1
  Tb  Tb4  1  0.621265  0.158507  0.120561  1
  Tb  Tb5  1  0.119186  0.340059  0.379604  1
  Tb  Tb6  1  0.380673  0.840851  0.620317  1
  Tb  Tb7  1  0.880780  0.658530  0.878947  1
  Tb  Tb8  1  0.550153  0.333660  0.895235  1
  Tb  Tb9  1  0.058055  0.168830  0.607293  1
  Tb  Tb10  1  0.442744  0.668510  0.392849  1
  Tb  Tb11  1  0.948868  0.825846  0.104006  1
  Tb  Tb12  1  0.455860  0.668103  0.102661  1
  Tb  Tb13  1  0.957368  0.831138  0.395441  1
  Tb  Tb14  1  0.542260  0.330187  0.604470  1
  Tb  Tb15  1  0.041061  0.175661  0.896640  1
  Tm  Tm16  1  0.214724  0.502197  0.750750  1
  Tm  Tm17  1  0.714774  0.999031  0.753296  1
  Tm  Tm18  1  0.784824  0.497995  0.247351  1
  Tm  Tm19  1  0.285251  0.001031  0.251399  1
  Bi  Bi20  1  0.273948  0.024287  0.046121  1
  Bi  Bi21  1  0.770870  0.478263  0.453521  1
  Bi  Bi22  1  0.729203  0.978412  0.546543  1
  Pb  Pb23  1  0.224170  0.526706  0.955294  1
  Pb  Pb24  1  0.722986  0.971434  0.955600  1
  Pb  Pb25  1  0.223391  0.526897  0.544941  1
  Pb  Pb26  1  0.277452  0.027120  0.455255  1
  Pb  Pb27  1  0.778798  0.470335  0.044319  1
  Pb  Pb28  1  0.576901  0.630009  0.747767  1
  Pb  Pb29  1  0.077066  0.871239  0.751057  1
  Pb  Pb30  1  0.423434  0.369697  0.249187  1
  Pb  Pb31  1  0.923794  0.128816  0.250766  1
  Pb  Pb32  1  0.358364  0.152626  0.751491  1
  Pb  Pb33  1  0.856750  0.347729  0.748441  1
  Pb  Pb34  1  0.642061  0.846411  0.250195  1
  Pb  Pb35  1  0.141220  0.651973  0.249242  1
