# generated using pymatgen
data_Y4Lu4VOs3C8
_symmetry_space_group_name_H-M   'P 1'
_cell_length_a   5.03705800
_cell_length_b   6.52339685
_cell_length_c   9.66527941
_cell_angle_alpha   89.86966544
_cell_angle_beta   90.00000000
_cell_angle_gamma   90.00000000
_symmetry_Int_Tables_number   1
_chemical_formula_structural   Y4Lu4VOs3C8
_chemical_formula_sum   'Y4 Lu4 V1 Os3 C8'
_cell_volume   317.58796808
_cell_formula_units_Z   1
loop_
 _symmetry_equiv_pos_site_id
 _symmetry_equiv_pos_as_xyz
  1  'x, y, z'
loop_
 _atom_site_type_symbol
 _atom_site_label
 _atom_site_symmetry_multiplicity
 _atom_site_fract_x
 _atom_site_fract_y
 _atom_site_fract_z
 _atom_site_occupancy
  Y  Y0  1  0.250000  0.535547  0.209677  1
  Y  Y1  1  0.750000  0.464413  0.783581  1
  Y  Y2  1  0.750000  0.970910  0.713076  1
  Y  Y3  1  0.250000  0.032809  0.286765  1
  Lu  Lu4  1  0.250000  0.677249  0.559869  1
  Lu  Lu5  1  0.750000  0.327931  0.443137  1
  Lu  Lu6  1  0.750000  0.825932  0.056670  1
  Lu  Lu7  1  0.250000  0.168454  0.940698  1
  V  V8  1  0.250000  0.723022  0.866876  1
  Os  Os9  1  0.750000  0.277448  0.133691  1
  Os  Os10  1  0.750000  0.776935  0.365759  1
  Os  Os11  1  0.250000  0.225370  0.633735  1
  C  C12  1  0.250000  0.456952  0.763811  1
  C  C13  1  0.750000  0.544259  0.240825  1
  C  C14  1  0.750000  0.044610  0.260760  1
  C  C15  1  0.250000  0.953537  0.739454  1
  C  C16  1  0.250000  0.827260  0.051201  1
  C  C17  1  0.750000  0.167327  0.949814  1
  C  C18  1  0.750000  0.669056  0.552387  1
  C  C19  1  0.250000  0.330978  0.448215  1
