# generated using pymatgen
data_Tb7Sc(OsI4)2
_symmetry_space_group_name_H-M   'P 1'
_cell_length_a   11.64385447
_cell_length_b   11.57707632
_cell_length_c   6.16231100
_cell_angle_alpha   90.07598807
_cell_angle_beta   89.79508734
_cell_angle_gamma   90.16202640
_symmetry_Int_Tables_number   1
_chemical_formula_structural   Tb7Sc(OsI4)2
_chemical_formula_sum   'Tb7 Sc1 Os2 I8'
_cell_volume   830.68121088
_cell_formula_units_Z   1
loop_
 _symmetry_equiv_pos_site_id
 _symmetry_equiv_pos_as_xyz
  1  'x, y, z'
loop_
 _atom_site_type_symbol
 _atom_site_label
 _atom_site_symmetry_multiplicity
 _atom_site_fract_x
 _atom_site_fract_y
 _atom_site_fract_z
 _atom_site_occupancy
  Tb  Tb0  1  0.078556  0.805398  0.500333  1
  Tb  Tb1  1  0.079953  0.194603  0.000942  1
  Tb  Tb2  1  0.193127  0.081566  0.499947  1
  Tb  Tb3  1  0.919394  0.805744  0.000486  1
  Tb  Tb4  1  0.917014  0.194134  0.501324  1
  Tb  Tb5  1  0.194202  0.919771  0.998559  1
  Tb  Tb6  1  0.804147  0.921868  0.501638  1
  Sc  Sc7  1  0.823633  0.073085  0.003932  1
  Os  Os8  1  0.000263  0.999803  0.250076  1
  Os  Os9  1  0.999895  0.000040  0.751496  1
  I  I10  1  0.653374  0.144154  0.488474  1
  I  I11  1  0.852486  0.652885  0.504335  1
  I  I12  1  0.346460  0.146094  0.995211  1
  I  I13  1  0.141800  0.349289  0.495686  1
  I  I14  1  0.656816  0.867946  0.003594  1
  I  I15  1  0.345755  0.856012  0.505822  1
  I  I16  1  0.143021  0.651580  0.993419  1
  I  I17  1  0.850107  0.336030  0.004726  1
