# generated using pymatgen
data_Yb2Lu2Co3Os5
_symmetry_space_group_name_H-M   'P 1'
_cell_length_a   5.17004136
_cell_length_b   5.18437436
_cell_length_c   8.60307958
_cell_angle_alpha   89.99999819
_cell_angle_beta   90.06061323
_cell_angle_gamma   120.09174313
_symmetry_Int_Tables_number   1
_chemical_formula_structural   Yb2Lu2Co3Os5
_chemical_formula_sum   'Yb2 Lu2 Co3 Os5'
_cell_volume   199.51354547
_cell_formula_units_Z   1
loop_
 _symmetry_equiv_pos_site_id
 _symmetry_equiv_pos_as_xyz
  1  'x, y, z'
loop_
 _atom_site_type_symbol
 _atom_site_label
 _atom_site_symmetry_multiplicity
 _atom_site_fract_x
 _atom_site_fract_y
 _atom_site_fract_z
 _atom_site_occupancy
  Yb  Yb0  1  0.321323  0.660662  0.444154  1
  Yb  Yb1  1  0.650304  0.325151  0.560359  1
  Lu  Lu2  1  0.664356  0.332178  0.927866  1
  Lu  Lu3  1  0.332234  0.666117  0.067954  1
  Co  Co4  1  0.188606  0.356578  0.756739  1
  Co  Co5  1  0.188606  0.832028  0.756739  1
  Co  Co6  1  0.348521  0.174261  0.241958  1
  Os  Os7  1  0.835696  0.660693  0.247869  1
  Os  Os8  1  0.675054  0.837527  0.749992  1
  Os  Os9  1  0.987638  0.993819  0.994937  1
  Os  Os10  1  0.835696  0.175003  0.247869  1
  Os  Os11  1  0.971965  0.985983  0.503566  1
