# generated using pymatgen
data_YbCe3(B2Os)4
_symmetry_space_group_name_H-M   'P 1'
_cell_length_a   5.35721600
_cell_length_b   5.89271925
_cell_length_c   6.47315029
_cell_angle_alpha   90.03374774
_cell_angle_beta   90.00000000
_cell_angle_gamma   90.00000000
_symmetry_Int_Tables_number   1
_chemical_formula_structural   YbCe3(B2Os)4
_chemical_formula_sum   'Yb1 Ce3 B8 Os4'
_cell_volume   204.34806153
_cell_formula_units_Z   1
loop_
 _symmetry_equiv_pos_site_id
 _symmetry_equiv_pos_as_xyz
  1  'x, y, z'
loop_
 _atom_site_type_symbol
 _atom_site_label
 _atom_site_symmetry_multiplicity
 _atom_site_fract_x
 _atom_site_fract_y
 _atom_site_fract_z
 _atom_site_occupancy
  Yb  Yb0  1  0.750000  0.494387  0.840165  1
  Ce  Ce1  1  0.250000  0.003657  0.340448  1
  Ce  Ce2  1  0.250000  0.503703  0.157656  1
  Ce  Ce3  1  0.750000  0.994481  0.661525  1
  B  B4  1  0.085951  0.371897  0.538663  1
  B  B5  1  0.415231  0.871100  0.961767  1
  B  B6  1  0.584395  0.626773  0.462751  1
  B  B7  1  0.914753  0.130508  0.037980  1
  B  B8  1  0.915605  0.626773  0.462751  1
  B  B9  1  0.585247  0.130508  0.037980  1
  B  B10  1  0.414049  0.371897  0.538663  1
  B  B11  1  0.084769  0.871100  0.961767  1
  Os  Os12  1  0.250000  0.184018  0.810995  1
  Os  Os13  1  0.250000  0.686771  0.684605  1
  Os  Os14  1  0.750000  0.819067  0.192277  1
  Os  Os15  1  0.750000  0.313362  0.310006  1
