# generated using pymatgen
data_Yb2TmLu(Ga2Ag)4
_symmetry_space_group_name_H-M   'P 1'
_cell_length_a   4.33777900
_cell_length_b   6.94357239
_cell_length_c   10.31497966
_cell_angle_alpha   90.89972686
_cell_angle_beta   90.00000000
_cell_angle_gamma   90.00000000
_symmetry_Int_Tables_number   1
_chemical_formula_structural   Yb2TmLu(Ga2Ag)4
_chemical_formula_sum   'Yb2 Tm1 Lu1 Ga8 Ag4'
_cell_volume   310.64560708
_cell_formula_units_Z   1
loop_
 _symmetry_equiv_pos_site_id
 _symmetry_equiv_pos_as_xyz
  1  'x, y, z'
loop_
 _atom_site_type_symbol
 _atom_site_label
 _atom_site_symmetry_multiplicity
 _atom_site_fract_x
 _atom_site_fract_y
 _atom_site_fract_z
 _atom_site_occupancy
  Yb  Yb0  1  0.750000  0.724433  0.327323  1
  Yb  Yb1  1  0.250000  0.275566  0.672613  1
  Tm  Tm2  1  0.250000  0.776267  0.828714  1
  Lu  Lu3  1  0.750000  0.223755  0.171235  1
  Ga  Ga4  1  0.250000  0.703375  0.535694  1
  Ga  Ga5  1  0.750000  0.296493  0.464162  1
  Ga  Ga6  1  0.750000  0.798253  0.034979  1
  Ga  Ga7  1  0.250000  0.201892  0.965180  1
  Ga  Ga8  1  0.250000  0.930097  0.151668  1
  Ga  Ga9  1  0.750000  0.070274  0.848385  1
  Ga  Ga10  1  0.750000  0.572862  0.652945  1
  Ga  Ga11  1  0.250000  0.427049  0.346936  1
  Ag  Ag12  1  0.250000  0.542676  0.098740  1
  Ag  Ag13  1  0.750000  0.457004  0.901446  1
  Ag  Ag14  1  0.750000  0.958975  0.598683  1
  Ag  Ag15  1  0.250000  0.041029  0.401296  1
