# generated using pymatgen
data_AcNd(BOs)8
_symmetry_space_group_name_H-M   'P 1'
_cell_length_a   7.69090600
_cell_length_b   7.69090600
_cell_length_c   4.00758800
_cell_angle_alpha   90.00000000
_cell_angle_beta   90.00000000
_cell_angle_gamma   90.00000000
_symmetry_Int_Tables_number   1
_chemical_formula_structural   AcNd(BOs)8
_chemical_formula_sum   'Ac1 Nd1 B8 Os8'
_cell_volume   237.04897087
_cell_formula_units_Z   1
loop_
 _symmetry_equiv_pos_site_id
 _symmetry_equiv_pos_as_xyz
  1  'x, y, z'
loop_
 _atom_site_type_symbol
 _atom_site_label
 _atom_site_symmetry_multiplicity
 _atom_site_fract_x
 _atom_site_fract_y
 _atom_site_fract_z
 _atom_site_occupancy
  Ac  Ac0  1  0.500000  0.500000  0.000000  1
  Nd  Nd1  1  0.000000  0.000000  0.500000  1
  B  B2  1  0.666735  0.785187  0.606459  1
  B  B3  1  0.163021  0.276993  0.889325  1
  B  B4  1  0.276993  0.836979  0.110675  1
  B  B5  1  0.723007  0.163021  0.110675  1
  B  B6  1  0.333265  0.214813  0.606459  1
  B  B7  1  0.836979  0.723007  0.889325  1
  B  B8  1  0.214813  0.666735  0.393541  1
  B  B9  1  0.785187  0.333265  0.393541  1
  Os  Os10  1  0.352152  0.104346  0.109457  1
  Os  Os11  1  0.647848  0.895654  0.109457  1
  Os  Os12  1  0.607133  0.143179  0.608693  1
  Os  Os13  1  0.104346  0.647848  0.890543  1
  Os  Os14  1  0.143179  0.392867  0.391307  1
  Os  Os15  1  0.856821  0.607133  0.391307  1
  Os  Os16  1  0.895654  0.352152  0.890543  1
  Os  Os17  1  0.392867  0.856821  0.608693  1
