# generated using pymatgen
data_Pr7PaZn8(IrRh)4
_symmetry_space_group_name_H-M   'P 1'
_cell_length_a   4.01067800
_cell_length_b   7.38600056
_cell_length_c   16.70271410
_cell_angle_alpha   89.60169003
_cell_angle_beta   90.00000000
_cell_angle_gamma   90.00000000
_symmetry_Int_Tables_number   1
_chemical_formula_structural   Pr7PaZn8(IrRh)4
_chemical_formula_sum   'Pr7 Pa1 Zn8 Ir4 Rh4'
_cell_volume   494.77037149
_cell_formula_units_Z   1
loop_
 _symmetry_equiv_pos_site_id
 _symmetry_equiv_pos_as_xyz
  1  'x, y, z'
loop_
 _atom_site_type_symbol
 _atom_site_label
 _atom_site_symmetry_multiplicity
 _atom_site_fract_x
 _atom_site_fract_y
 _atom_site_fract_z
 _atom_site_occupancy
  Pr  Pr0  1  0.750000  0.949503  0.282994  1
  Pr  Pr1  1  0.750000  0.824004  0.060672  1
  Pr  Pr2  1  0.250000  0.048816  0.716237  1
  Pr  Pr3  1  0.250000  0.167721  0.940277  1
  Pr  Pr4  1  0.250000  0.548201  0.784054  1
  Pr  Pr5  1  0.750000  0.333948  0.439678  1
  Pr  Pr6  1  0.250000  0.670102  0.560280  1
  Pa  Pa7  1  0.750000  0.446279  0.215038  1
  Zn  Zn8  1  0.250000  0.002957  0.439332  1
  Zn  Zn9  1  0.750000  0.502484  0.940116  1
  Zn  Zn10  1  0.750000  0.004130  0.559988  1
  Zn  Zn11  1  0.250000  0.623606  0.350504  1
  Zn  Zn12  1  0.750000  0.377162  0.650275  1
  Zn  Zn13  1  0.750000  0.879475  0.849765  1
  Zn  Zn14  1  0.250000  0.498743  0.057779  1
  Zn  Zn15  1  0.250000  0.119685  0.151687  1
  Ir  Ir16  1  0.250000  0.245107  0.565012  1
  Ir  Ir17  1  0.250000  0.265389  0.300379  1
  Ir  Ir18  1  0.250000  0.747371  0.934188  1
  Ir  Ir19  1  0.250000  0.705684  0.190306  1
  Rh  Rh20  1  0.750000  0.267817  0.074321  1
  Rh  Rh21  1  0.750000  0.253453  0.815912  1
  Rh  Rh22  1  0.750000  0.753858  0.686352  1
  Rh  Rh23  1  0.750000  0.764503  0.434857  1
