# generated using pymatgen
data_LiTb16TlInAgRh4
_symmetry_space_group_name_H-M   'P 1'
_cell_length_a   9.62383066
_cell_length_b   9.64891427
_cell_length_c   9.64891500
_cell_angle_alpha   60.03862393
_cell_angle_beta   59.85644027
_cell_angle_gamma   59.85642965
_symmetry_Int_Tables_number   1
_chemical_formula_structural   LiTb16TlInAgRh4
_chemical_formula_sum   'Li1 Tb16 Tl1 In1 Ag1 Rh4'
_cell_volume   632.36835852
_cell_formula_units_Z   1
loop_
 _symmetry_equiv_pos_site_id
 _symmetry_equiv_pos_as_xyz
  1  'x, y, z'
loop_
 _atom_site_type_symbol
 _atom_site_label
 _atom_site_symmetry_multiplicity
 _atom_site_fract_x
 _atom_site_fract_y
 _atom_site_fract_z
 _atom_site_occupancy
  Li  Li0  1  0.427622  0.434104  0.430922  1
  Tb  Tb1  1  0.810220  0.808879  0.190087  1
  Tb  Tb2  1  0.809731  0.190974  0.807843  1
  Tb  Tb3  1  0.186427  0.188256  0.812588  1
  Tb  Tb4  1  0.651079  0.048535  0.649990  1
  Tb  Tb5  1  0.068383  0.058147  0.436504  1
  Tb  Tb6  1  0.437911  0.435028  0.064060  1
  Tb  Tb7  1  0.649172  0.648732  0.648593  1
  Tb  Tb8  1  0.812752  0.189374  0.187868  1
  Tb  Tb9  1  0.190444  0.809492  0.809576  1
  Tb  Tb10  1  0.046123  0.649530  0.650104  1
  Tb  Tb11  1  0.437700  0.056500  0.067613  1
  Tb  Tb12  1  0.439649  0.059321  0.437677  1
  Tb  Tb13  1  0.064029  0.436439  0.063458  1
  Tb  Tb14  1  0.650837  0.648772  0.047738  1
  Tb  Tb15  1  0.185358  0.815688  0.186373  1
  Tb  Tb16  1  0.064977  0.434113  0.435090  1
  Tl  Tl17  1  0.414241  0.417648  0.748355  1
  In  In18  1  0.744970  0.420395  0.415854  1
  Ag  Ag19  1  0.415470  0.753345  0.413004  1
  Rh  Rh20  1  0.854533  0.426221  0.857040  1
  Rh  Rh21  1  0.856570  0.857142  0.856871  1
  Rh  Rh22  1  0.854786  0.856983  0.426424  1
  Rh  Rh23  1  0.427018  0.856381  0.856370  1
