# generated using pymatgen
data_Tb3HoCo16(P3Ru)4
_symmetry_space_group_name_H-M   'P 1'
_cell_length_a   3.69462600
_cell_length_b   10.41034723
_cell_length_c   11.78315526
_cell_angle_alpha   89.97576889
_cell_angle_beta   90.00000000
_cell_angle_gamma   90.00000000
_symmetry_Int_Tables_number   1
_chemical_formula_structural   Tb3HoCo16(P3Ru)4
_chemical_formula_sum   'Tb3 Ho1 Co16 P12 Ru4'
_cell_volume   453.20767824
_cell_formula_units_Z   1
loop_
 _symmetry_equiv_pos_site_id
 _symmetry_equiv_pos_as_xyz
  1  'x, y, z'
loop_
 _atom_site_type_symbol
 _atom_site_label
 _atom_site_symmetry_multiplicity
 _atom_site_fract_x
 _atom_site_fract_y
 _atom_site_fract_z
 _atom_site_occupancy
  Tb  Tb0  1  0.250000  0.913645  0.204063  1
  Tb  Tb1  1  0.750000  0.413910  0.296038  1
  Tb  Tb2  1  0.750000  0.086156  0.796016  1
  Ho  Ho3  1  0.250000  0.586248  0.703888  1
  Co  Co4  1  0.250000  0.408696  0.489990  1
  Co  Co5  1  0.250000  0.091477  0.989877  1
  Co  Co6  1  0.750000  0.591476  0.510682  1
  Co  Co7  1  0.750000  0.908537  0.010109  1
  Co  Co8  1  0.250000  0.221084  0.176591  1
  Co  Co9  1  0.250000  0.279078  0.676595  1
  Co  Co10  1  0.750000  0.778534  0.823188  1
  Co  Co11  1  0.750000  0.721008  0.323443  1
  Co  Co12  1  0.250000  0.886880  0.702378  1
  Co  Co13  1  0.250000  0.612929  0.202386  1
  Co  Co14  1  0.750000  0.112925  0.297667  1
  Co  Co15  1  0.750000  0.387552  0.797342  1
  Co  Co16  1  0.250000  0.465408  0.930464  1
  Co  Co17  1  0.250000  0.034754  0.430839  1
  Co  Co18  1  0.750000  0.534751  0.069097  1
  Co  Co19  1  0.750000  0.965028  0.569250  1
  P  P20  1  0.250000  0.419724  0.111621  1
  P  P21  1  0.250000  0.080271  0.611610  1
  P  P22  1  0.750000  0.580400  0.887748  1
  P  P23  1  0.750000  0.919646  0.388392  1
  P  P24  1  0.250000  0.272238  0.867097  1
  P  P25  1  0.250000  0.227681  0.367128  1
  P  P26  1  0.750000  0.727731  0.132934  1
  P  P27  1  0.750000  0.771627  0.633114  1
  P  P28  1  0.250000  0.596281  0.390305  1
  P  P29  1  0.250000  0.903803  0.890355  1
  P  P30  1  0.750000  0.404317  0.609874  1
  P  P31  1  0.750000  0.096177  0.109632  1
  Ru  Ru32  1  0.250000  0.716749  0.992293  1
  Ru  Ru33  1  0.250000  0.783174  0.492430  1
  Ru  Ru34  1  0.750000  0.283301  0.007742  1
  Ru  Ru35  1  0.750000  0.216806  0.507823  1
