# generated using pymatgen
data_K7Sb(SeO4)6
_symmetry_space_group_name_H-M   'P 1'
_cell_length_a   9.72902371
_cell_length_b   9.72902329
_cell_length_c   9.72902360
_cell_angle_alpha   109.36927635
_cell_angle_beta   109.36927894
_cell_angle_gamma   109.36928709
_symmetry_Int_Tables_number   1
_chemical_formula_structural   K7Sb(SeO4)6
_chemical_formula_sum   'K7 Sb1 Se6 O24'
_cell_volume   711.56443649
_cell_formula_units_Z   1
loop_
 _symmetry_equiv_pos_site_id
 _symmetry_equiv_pos_as_xyz
  1  'x, y, z'
loop_
 _atom_site_type_symbol
 _atom_site_label
 _atom_site_symmetry_multiplicity
 _atom_site_fract_x
 _atom_site_fract_y
 _atom_site_fract_z
 _atom_site_occupancy
  K  K0  1  0.321408  0.661108  0.163041  1
  K  K1  1  0.661109  0.163041  0.321408  1
  K  K2  1  0.836958  0.678592  0.338892  1
  K  K3  1  0.500000  0.500000  0.500000  1
  K  K4  1  0.163042  0.321408  0.661108  1
  K  K5  1  0.338891  0.836959  0.678592  1
  K  K6  1  0.678592  0.338892  0.836958  1
  Sb  Sb7  1  0.000000  0.000000  0.000000  1
  Se  Se8  1  0.377576  0.252012  0.029437  1
  Se  Se9  1  0.029438  0.377576  0.252013  1
  Se  Se10  1  0.252013  0.029438  0.377576  1
  Se  Se11  1  0.747987  0.970562  0.622424  1
  Se  Se12  1  0.970562  0.622424  0.747987  1
  Se  Se13  1  0.622424  0.747988  0.970563  1
  O  O14  1  0.707668  0.640991  0.026969  1
  O  O15  1  0.232760  0.082267  0.029120  1
  O  O16  1  0.567582  0.840232  0.101469  1
  O  O17  1  0.029121  0.232760  0.082266  1
  O  O18  1  0.898531  0.432418  0.159768  1
  O  O19  1  0.533849  0.365075  0.226719  1
  O  O20  1  0.082267  0.029121  0.232759  1
  O  O21  1  0.359009  0.973031  0.292332  1
  O  O22  1  0.973031  0.292331  0.359009  1
  O  O23  1  0.226719  0.533848  0.365075  1
  O  O24  1  0.159768  0.898531  0.432418  1
  O  O25  1  0.634925  0.773281  0.466151  1
  O  O26  1  0.365075  0.226719  0.533849  1
  O  O27  1  0.840232  0.101469  0.567582  1
  O  O28  1  0.773281  0.466152  0.634925  1
  O  O29  1  0.026969  0.707669  0.640991  1
  O  O30  1  0.640992  0.026969  0.707668  1
  O  O31  1  0.917733  0.970879  0.767241  1
  O  O32  1  0.466152  0.634925  0.773281  1
  O  O33  1  0.101469  0.567582  0.840232  1
  O  O34  1  0.970879  0.767240  0.917734  1
  O  O35  1  0.432419  0.159768  0.898531  1
  O  O36  1  0.767240  0.917733  0.970880  1
  O  O37  1  0.292332  0.359009  0.973031  1
