# generated using pymatgen
data_Th2InSiIr
_symmetry_space_group_name_H-M   'P 1'
_cell_length_a   7.42915300
_cell_length_b   7.42915399
_cell_length_c   4.23479200
_cell_angle_alpha   90.00000000
_cell_angle_beta   90.00000000
_cell_angle_gamma   147.52646476
_symmetry_Int_Tables_number   1
_chemical_formula_structural   Th2InSiIr
_chemical_formula_sum   'Th2 In1 Si1 Ir1'
_cell_volume   125.49089949
_cell_formula_units_Z   1
loop_
 _symmetry_equiv_pos_site_id
 _symmetry_equiv_pos_as_xyz
  1  'x, y, z'
loop_
 _atom_site_type_symbol
 _atom_site_label
 _atom_site_symmetry_multiplicity
 _atom_site_fract_x
 _atom_site_fract_y
 _atom_site_fract_z
 _atom_site_occupancy
  Th  Th0  1  0.362411  0.637589  0.500000  1
  Th  Th1  1  0.638779  0.361221  0.500000  1
  In  In2  1  0.998761  0.001239  0.000000  1
  Si  Si3  1  0.203341  0.796659  0.000000  1
  Ir  Ir4  1  0.796709  0.203291  0.000000  1
