# generated using pymatgen
data_DyHo3Si3Rh4
_symmetry_space_group_name_H-M   'P 1'
_cell_length_a   10.71022559
_cell_length_b   10.71022625
_cell_length_c   7.70997575
_cell_angle_alpha   71.24267731
_cell_angle_beta   71.24267605
_cell_angle_gamma   29.69706951
_symmetry_Int_Tables_number   1
_chemical_formula_structural   DyHo3Si3Rh4
_chemical_formula_sum   'Dy2 Ho6 Si6 Rh8'
_cell_volume   413.19065224
_cell_formula_units_Z   2
loop_
 _symmetry_equiv_pos_site_id
 _symmetry_equiv_pos_as_xyz
  1  'x, y, z'
loop_
 _atom_site_type_symbol
 _atom_site_label
 _atom_site_symmetry_multiplicity
 _atom_site_fract_x
 _atom_site_fract_y
 _atom_site_fract_z
 _atom_site_occupancy
  Dy  Dy0  1  0.789801  0.550023  0.599755  1
  Dy  Dy1  1  0.449977  0.210199  0.900245  1
  Ho  Ho2  1  0.210263  0.449889  0.400247  1
  Ho  Ho3  1  0.550111  0.789737  0.099753  1
  Ho  Ho4  1  0.791221  0.073596  0.168628  1
  Ho  Ho5  1  0.926404  0.208779  0.331372  1
  Ho  Ho6  1  0.208776  0.926393  0.831414  1
  Ho  Ho7  1  0.073607  0.791224  0.668586  1
  Si  Si8  1  0.953061  0.703428  0.055697  1
  Si  Si9  1  0.296572  0.046939  0.444303  1
  Si  Si10  1  0.046945  0.296553  0.944447  1
  Si  Si11  1  0.703447  0.953055  0.555553  1
  Si  Si12  1  0.635190  0.364810  0.750000  1
  Si  Si13  1  0.364806  0.635194  0.250000  1
  Rh  Rh14  1  0.575990  0.298304  0.520417  1
  Rh  Rh15  1  0.701696  0.424010  0.979583  1
  Rh  Rh16  1  0.423962  0.701745  0.479477  1
  Rh  Rh17  1  0.298255  0.576038  0.020523  1
  Rh  Rh18  1  0.628828  0.929658  0.308607  1
  Rh  Rh19  1  0.070342  0.371172  0.191393  1
  Rh  Rh20  1  0.371150  0.070406  0.691389  1
  Rh  Rh21  1  0.929594  0.628850  0.808611  1
