# generated using pymatgen
data_Y8TmMg(SiB4)4
_symmetry_space_group_name_H-M   'P 1'
_cell_length_a   7.19010200
_cell_length_b   7.19010200
_cell_length_c   7.99789000
_cell_angle_alpha   90.00000000
_cell_angle_beta   90.00000000
_cell_angle_gamma   90.00000000
_symmetry_Int_Tables_number   1
_chemical_formula_structural   Y8TmMg(SiB4)4
_chemical_formula_sum   'Y8 Tm1 Mg1 Si4 B16'
_cell_volume   413.47145230
_cell_formula_units_Z   1
loop_
 _symmetry_equiv_pos_site_id
 _symmetry_equiv_pos_as_xyz
  1  'x, y, z'
loop_
 _atom_site_type_symbol
 _atom_site_label
 _atom_site_symmetry_multiplicity
 _atom_site_fract_x
 _atom_site_fract_y
 _atom_site_fract_z
 _atom_site_occupancy
  Y  Y0  1  0.682000  0.180121  0.229197  1
  Y  Y1  1  0.318000  0.819879  0.770803  1
  Y  Y2  1  0.318000  0.819879  0.229197  1
  Y  Y3  1  0.819879  0.682000  0.229197  1
  Y  Y4  1  0.819879  0.682000  0.770803  1
  Y  Y5  1  0.682000  0.180121  0.770803  1
  Y  Y6  1  0.180121  0.318000  0.770803  1
  Y  Y7  1  0.180121  0.318000  0.229197  1
  Tm  Tm8  1  0.500000  0.500000  0.500000  1
  Mg  Mg9  1  0.000000  0.000000  0.500000  1
  Si  Si10  1  0.116016  0.615638  0.500000  1
  Si  Si11  1  0.883984  0.384362  0.500000  1
  Si  Si12  1  0.384362  0.116016  0.500000  1
  Si  Si13  1  0.615638  0.883984  0.500000  1
  B  B14  1  0.174339  0.038440  0.000000  1
  B  B15  1  0.825661  0.961560  0.000000  1
  B  B16  1  0.961560  0.174339  0.000000  1
  B  B17  1  0.327167  0.539457  0.000000  1
  B  B18  1  0.038440  0.825661  0.000000  1
  B  B19  1  0.672833  0.460543  0.000000  1
  B  B20  1  0.539457  0.672833  0.000000  1
  B  B21  1  0.460543  0.327167  0.000000  1
  B  B22  1  0.089412  0.588597  0.000000  1
  B  B23  1  0.910588  0.411403  0.000000  1
  B  B24  1  0.411403  0.089412  0.000000  1
  B  B25  1  0.588597  0.910588  0.000000  1
  B  B26  1  0.000000  0.000000  0.158661  1
  B  B27  1  0.000000  0.000000  0.841339  1
  B  B28  1  0.500000  0.500000  0.836748  1
  B  B29  1  0.500000  0.500000  0.163252  1
