# generated using pymatgen
data_Nd4Er2Ga3Ge
_symmetry_space_group_name_H-M   'P 1'
_cell_length_a   7.71092492
_cell_length_b   7.71092492
_cell_length_c   4.51547800
_cell_angle_alpha   90.00000000
_cell_angle_beta   90.00000000
_cell_angle_gamma   90.40398051
_symmetry_Int_Tables_number   1
_chemical_formula_structural   Nd4Er2Ga3Ge
_chemical_formula_sum   'Nd4 Er2 Ga3 Ge1'
_cell_volume   268.47625679
_cell_formula_units_Z   1
loop_
 _symmetry_equiv_pos_site_id
 _symmetry_equiv_pos_as_xyz
  1  'x, y, z'
loop_
 _atom_site_type_symbol
 _atom_site_label
 _atom_site_symmetry_multiplicity
 _atom_site_fract_x
 _atom_site_fract_y
 _atom_site_fract_z
 _atom_site_occupancy
  Nd  Nd0  1  0.326135  0.174584  0.500000  1
  Nd  Nd1  1  0.823478  0.323478  0.500000  1
  Nd  Nd2  1  0.174696  0.674696  0.500000  1
  Nd  Nd3  1  0.674584  0.826135  0.500000  1
  Er  Er4  1  0.998196  0.999569  0.000000  1
  Er  Er5  1  0.499569  0.498196  0.000000  1
  Ga  Ga6  1  0.120316  0.380343  0.000000  1
  Ga  Ga7  1  0.880344  0.620316  0.000000  1
  Ga  Ga8  1  0.380276  0.880277  0.000000  1
  Ge  Ge9  1  0.622403  0.122403  0.000000  1
