# generated using pymatgen
data_Ti3Zn(AsRh5)2
_symmetry_space_group_name_H-M   'P 1'
_cell_length_a   3.99963100
_cell_length_b   5.46505375
_cell_length_c   10.57976565
_cell_angle_alpha   89.02308244
_cell_angle_beta   90.00000000
_cell_angle_gamma   90.00000000
_symmetry_Int_Tables_number   1
_chemical_formula_structural   Ti3Zn(AsRh5)2
_chemical_formula_sum   'Ti3 Zn1 As2 Rh10'
_cell_volume   231.22100278
_cell_formula_units_Z   1
loop_
 _symmetry_equiv_pos_site_id
 _symmetry_equiv_pos_as_xyz
  1  'x, y, z'
loop_
 _atom_site_type_symbol
 _atom_site_label
 _atom_site_symmetry_multiplicity
 _atom_site_fract_x
 _atom_site_fract_y
 _atom_site_fract_z
 _atom_site_occupancy
  Ti  Ti0  1  0.500000  0.338231  0.351977  1
  Ti  Ti1  1  0.500000  0.667958  0.642105  1
  Ti  Ti2  1  0.500000  0.159218  0.861387  1
  Zn  Zn3  1  0.500000  0.842151  0.146862  1
  As  As4  1  0.000000  0.000843  0.501864  1
  As  As5  1  0.000000  0.483231  0.995837  1
  Rh  Rh6  1  0.500000  0.316799  0.106189  1
  Rh  Rh7  1  0.500000  0.681799  0.889638  1
  Rh  Rh8  1  0.500000  0.814177  0.398046  1
  Rh  Rh9  1  0.500000  0.191884  0.608729  1
  Rh  Rh10  1  0.000000  0.926179  0.742929  1
  Rh  Rh11  1  0.000000  0.086727  0.264254  1
  Rh  Rh12  1  0.000000  0.425975  0.755407  1
  Rh  Rh13  1  0.000000  0.579185  0.237059  1
  Rh  Rh14  1  0.000000  0.499042  0.497640  1
  Rh  Rh15  1  0.000000  0.986601  0.000077  1
