# generated using pymatgen
data_TbYb(AlPd)2
_symmetry_space_group_name_H-M   'P 1'
_cell_length_a   4.33234300
_cell_length_b   7.03695500
_cell_length_c   7.92849100
_cell_angle_alpha   90.00000000
_cell_angle_beta   90.00000000
_cell_angle_gamma   90.00000000
_symmetry_Int_Tables_number   1
_chemical_formula_structural   TbYb(AlPd)2
_chemical_formula_sum   'Tb2 Yb2 Al4 Pd4'
_cell_volume   241.71196256
_cell_formula_units_Z   2
loop_
 _symmetry_equiv_pos_site_id
 _symmetry_equiv_pos_as_xyz
  1  'x, y, z'
loop_
 _atom_site_type_symbol
 _atom_site_label
 _atom_site_symmetry_multiplicity
 _atom_site_fract_x
 _atom_site_fract_y
 _atom_site_fract_z
 _atom_site_occupancy
  Tb  Tb0  1  0.250000  0.032291  0.321256  1
  Tb  Tb1  1  0.250000  0.532291  0.178744  1
  Yb  Yb2  1  0.750000  0.967825  0.678336  1
  Yb  Yb3  1  0.750000  0.467825  0.821664  1
  Al  Al4  1  0.250000  0.138529  0.940075  1
  Al  Al5  1  0.250000  0.638529  0.559925  1
  Al  Al6  1  0.750000  0.861766  0.062714  1
  Al  Al7  1  0.750000  0.361766  0.437286  1
  Pd  Pd8  1  0.250000  0.274816  0.621335  1
  Pd  Pd9  1  0.250000  0.774816  0.878665  1
  Pd  Pd10  1  0.750000  0.724774  0.376284  1
  Pd  Pd11  1  0.750000  0.224774  0.123716  1
