# generated using pymatgen
data_HoTh2In3PdPt2
_symmetry_space_group_name_H-M   'P 1'
_cell_length_a   7.72537240
_cell_length_b   7.70037839
_cell_length_c   4.02425900
_cell_angle_alpha   90.00000000
_cell_angle_beta   90.00000000
_cell_angle_gamma   119.89302063
_symmetry_Int_Tables_number   1
_chemical_formula_structural   HoTh2In3PdPt2
_chemical_formula_sum   'Ho1 Th2 In3 Pd1 Pt2'
_cell_volume   207.54639999
_cell_formula_units_Z   1
loop_
 _symmetry_equiv_pos_site_id
 _symmetry_equiv_pos_as_xyz
  1  'x, y, z'
loop_
 _atom_site_type_symbol
 _atom_site_label
 _atom_site_symmetry_multiplicity
 _atom_site_fract_x
 _atom_site_fract_y
 _atom_site_fract_z
 _atom_site_occupancy
  Ho  Ho0  1  0.000000  0.589005  0.500000  1
  Th  Th1  1  0.586137  0.000424  0.500000  1
  Th  Th2  1  0.413863  0.414286  0.500000  1
  In  In3  1  0.757590  0.747563  0.000000  1
  In  In4  1  0.000000  0.259933  0.000000  1
  In  In5  1  0.242410  0.989973  0.000000  1
  Pd  Pd6  1  0.000000  0.004279  0.500000  1
  Pt  Pt7  1  0.340448  0.667493  0.000000  1
  Pt  Pt8  1  0.659552  0.327044  0.000000  1
