# generated using pymatgen
data_Ho2Er6Tl3Fe
_symmetry_space_group_name_H-M   'P 1'
_cell_length_a   10.27839400
_cell_length_b   10.27298644
_cell_length_c   6.97475600
_cell_angle_alpha   90.04231517
_cell_angle_beta   90.00000000
_cell_angle_gamma   120.01740780
_symmetry_Int_Tables_number   1
_chemical_formula_structural   Ho2Er6Tl3Fe
_chemical_formula_sum   'Ho4 Er12 Tl6 Fe2'
_cell_volume   637.68362052
_cell_formula_units_Z   2
loop_
 _symmetry_equiv_pos_site_id
 _symmetry_equiv_pos_as_xyz
  1  'x, y, z'
loop_
 _atom_site_type_symbol
 _atom_site_label
 _atom_site_symmetry_multiplicity
 _atom_site_fract_x
 _atom_site_fract_y
 _atom_site_fract_z
 _atom_site_occupancy
  Ho  Ho0  1  0.537017  0.074032  0.793630  1
  Ho  Ho1  1  0.926173  0.463061  0.793960  1
  Ho  Ho2  1  0.536889  0.463061  0.793960  1
  Ho  Ho3  1  0.462778  0.925555  0.293841  1
  Er  Er4  1  0.074559  0.537230  0.294273  1
  Er  Er5  1  0.462670  0.537230  0.294273  1
  Er  Er6  1  0.821167  0.642335  0.495219  1
  Er  Er7  1  0.357547  0.178845  0.495086  1
  Er  Er8  1  0.821298  0.178845  0.495086  1
  Er  Er9  1  0.178875  0.357749  0.995912  1
  Er  Er10  1  0.642426  0.821079  0.995655  1
  Er  Er11  1  0.178653  0.821079  0.995655  1
  Er  Er12  1  0.666787  0.333574  0.181757  1
  Er  Er13  1  0.333191  0.666385  0.681310  1
  Er  Er14  1  0.000062  0.000124  0.779230  1
  Er  Er15  1  0.000081  0.000162  0.279268  1
  Tl  Tl16  1  0.837449  0.674900  0.041012  1
  Tl  Tl17  1  0.325355  0.162765  0.041220  1
  Tl  Tl18  1  0.837409  0.162765  0.041220  1
  Tl  Tl19  1  0.162753  0.325503  0.540913  1
  Tl  Tl20  1  0.674493  0.837081  0.541117  1
  Tl  Tl21  1  0.162588  0.837081  0.541117  1
  Fe  Fe22  1  0.666651  0.333302  0.565392  1
  Fe  Fe23  1  0.333129  0.666259  0.065801  1
