# generated using pymatgen
data_SrMnF5
_symmetry_space_group_name_H-M   'P 1'
_cell_length_a   5.78744646
_cell_length_b   5.78744671
_cell_length_c   8.22254167
_cell_angle_alpha   69.38478023
_cell_angle_beta   69.38477828
_cell_angle_gamma   70.74639562
_symmetry_Int_Tables_number   1
_chemical_formula_structural   SrMnF5
_chemical_formula_sum   'Sr2 Mn2 F10'
_cell_volume   234.51733389
_cell_formula_units_Z   2
loop_
 _symmetry_equiv_pos_site_id
 _symmetry_equiv_pos_as_xyz
  1  'x, y, z'
loop_
 _atom_site_type_symbol
 _atom_site_label
 _atom_site_symmetry_multiplicity
 _atom_site_fract_x
 _atom_site_fract_y
 _atom_site_fract_z
 _atom_site_occupancy
  Sr  Sr0  1  0.547923  0.452077  0.250000  1
  Sr  Sr1  1  0.452077  0.547923  0.750000  1
  Mn  Mn2  1  0.000000  0.000000  0.500000  1
  Mn  Mn3  1  0.000000  0.000000  0.000000  1
  F  F4  1  0.082064  0.917936  0.750000  1
  F  F5  1  0.917936  0.082064  0.250000  1
  F  F6  1  0.203875  0.231389  0.892801  1
  F  F7  1  0.768611  0.796125  0.607199  1
  F  F8  1  0.720663  0.296013  0.530649  1
  F  F9  1  0.703987  0.279337  0.969351  1
  F  F10  1  0.279337  0.703987  0.469351  1
  F  F11  1  0.296013  0.720663  0.030649  1
  F  F12  1  0.231389  0.203875  0.392801  1
  F  F13  1  0.796125  0.768611  0.107199  1
