# generated using pymatgen
data_Rb3NaHfO4
_symmetry_space_group_name_H-M   'P 1'
_cell_length_a   6.68332500
_cell_length_b   11.15362839
_cell_length_c   11.13347065
_cell_angle_alpha   67.81958730
_cell_angle_beta   90.00000000
_cell_angle_gamma   90.00000000
_symmetry_Int_Tables_number   1
_chemical_formula_structural   Rb3NaHfO4
_chemical_formula_sum   'Rb12 Na4 Hf4 O16'
_cell_volume   768.51113870
_cell_formula_units_Z   4
loop_
 _symmetry_equiv_pos_site_id
 _symmetry_equiv_pos_as_xyz
  1  'x, y, z'
loop_
 _atom_site_type_symbol
 _atom_site_label
 _atom_site_symmetry_multiplicity
 _atom_site_fract_x
 _atom_site_fract_y
 _atom_site_fract_z
 _atom_site_occupancy
  Rb  Rb0  1  0.663205  0.036693  0.326436  1
  Rb  Rb1  1  0.126705  0.322809  0.610023  1
  Rb  Rb2  1  0.393756  0.545322  0.308354  1
  Rb  Rb3  1  0.106244  0.545322  0.808354  1
  Rb  Rb4  1  0.836795  0.036693  0.826436  1
  Rb  Rb5  1  0.606244  0.454678  0.691646  1
  Rb  Rb6  1  0.873295  0.677191  0.389977  1
  Rb  Rb7  1  0.163205  0.963307  0.173564  1
  Rb  Rb8  1  0.626705  0.677191  0.889977  1
  Rb  Rb9  1  0.373295  0.322809  0.110023  1
  Rb  Rb10  1  0.336795  0.963307  0.673564  1
  Rb  Rb11  1  0.893756  0.454678  0.191646  1
  Na  Na12  1  0.613459  0.875534  0.106940  1
  Na  Na13  1  0.386541  0.124466  0.893060  1
  Na  Na14  1  0.886541  0.875534  0.606940  1
  Na  Na15  1  0.113459  0.124466  0.393060  1
  Hf  Hf16  1  0.362938  0.758617  0.488060  1
  Hf  Hf17  1  0.637062  0.241383  0.511940  1
  Hf  Hf18  1  0.862938  0.241383  0.011940  1
  Hf  Hf19  1  0.137062  0.758617  0.988060  1
  O  O20  1  0.983098  0.207440  0.182669  1
  O  O21  1  0.483098  0.792560  0.317331  1
  O  O22  1  0.252338  0.583008  0.049774  1
  O  O23  1  0.152523  0.891099  0.460913  1
  O  O24  1  0.747662  0.416992  0.950226  1
  O  O25  1  0.424003  0.231382  0.392900  1
  O  O26  1  0.652523  0.108901  0.039087  1
  O  O27  1  0.016902  0.792560  0.817331  1
  O  O28  1  0.752338  0.416992  0.450226  1
  O  O29  1  0.075997  0.231382  0.892900  1
  O  O30  1  0.347477  0.891099  0.960913  1
  O  O31  1  0.847477  0.108901  0.539087  1
  O  O32  1  0.575997  0.768618  0.607100  1
  O  O33  1  0.247662  0.583008  0.549774  1
  O  O34  1  0.516902  0.207440  0.682669  1
  O  O35  1  0.924003  0.768618  0.107100  1
