# generated using pymatgen
data_Pr2Th2CdHgPd4
_symmetry_space_group_name_H-M   'P 1'
_cell_length_a   7.93290522
_cell_length_b   7.95166822
_cell_length_c   3.86804700
_cell_angle_alpha   90.00000000
_cell_angle_beta   90.00000000
_cell_angle_gamma   90.02669910
_symmetry_Int_Tables_number   1
_chemical_formula_structural   Pr2Th2CdHgPd4
_chemical_formula_sum   'Pr2 Th2 Cd1 Hg1 Pd4'
_cell_volume   243.99572171
_cell_formula_units_Z   1
loop_
 _symmetry_equiv_pos_site_id
 _symmetry_equiv_pos_as_xyz
  1  'x, y, z'
loop_
 _atom_site_type_symbol
 _atom_site_label
 _atom_site_symmetry_multiplicity
 _atom_site_fract_x
 _atom_site_fract_y
 _atom_site_fract_z
 _atom_site_occupancy
  Pr  Pr0  1  0.173218  0.323206  0.500000  1
  Pr  Pr1  1  0.678450  0.172409  0.500000  1
  Th  Th2  1  0.324388  0.830119  0.500000  1
  Th  Th3  1  0.827529  0.673661  0.500000  1
  Cd  Cd4  1  0.498185  0.496365  0.000000  1
  Hg  Hg5  1  0.997033  0.004608  0.000000  1
  Pd  Pd6  1  0.375690  0.113319  0.000000  1
  Pd  Pd7  1  0.871005  0.391152  0.000000  1
  Pd  Pd8  1  0.129687  0.636139  0.000000  1
  Pd  Pd9  1  0.624813  0.859022  0.000000  1
