# generated using pymatgen
data_CaLa9Si5Sn
_symmetry_space_group_name_H-M   'P 1'
_cell_length_a   9.30527406
_cell_length_b   9.30527450
_cell_length_c   9.30527392
_cell_angle_alpha   129.54283583
_cell_angle_beta   129.54283585
_cell_angle_gamma   74.13868310
_symmetry_Int_Tables_number   1
_chemical_formula_structural   CaLa9Si5Sn
_chemical_formula_sum   'Ca1 La9 Si5 Sn1'
_cell_volume   467.18494289
_cell_formula_units_Z   1
loop_
 _symmetry_equiv_pos_site_id
 _symmetry_equiv_pos_as_xyz
  1  'x, y, z'
loop_
 _atom_site_type_symbol
 _atom_site_label
 _atom_site_symmetry_multiplicity
 _atom_site_fract_x
 _atom_site_fract_y
 _atom_site_fract_z
 _atom_site_occupancy
  Ca  Ca0  1  0.486449  0.486449  0.000000  1
  La  La1  1  0.547060  0.027830  0.857425  1
  La  La2  1  0.170405  0.689635  0.142575  1
  La  La3  1  0.027830  0.170405  0.480772  1
  La  La4  1  0.689635  0.547060  0.519228  1
  La  La5  1  0.469742  0.951276  0.140588  1
  La  La6  1  0.810688  0.329152  0.859412  1
  La  La7  1  0.951276  0.810688  0.481534  1
  La  La8  1  0.329152  0.469742  0.518466  1
  La  La9  1  0.021411  0.021411  0.000000  1
  Si  Si10  1  0.751234  0.751234  0.000000  1
  Si  Si11  1  0.886127  0.384928  0.273719  1
  Si  Si12  1  0.111209  0.612408  0.726281  1
  Si  Si13  1  0.384928  0.111209  0.498801  1
  Si  Si14  1  0.612408  0.886127  0.501199  1
  Sn  Sn15  1  0.250447  0.250447  0.000000  1
