# generated using pymatgen
data_YCoSi3Rh4
_symmetry_space_group_name_H-M   'P 1'
_cell_length_a   3.86319900
_cell_length_b   10.93641600
_cell_length_c   12.58704600
_cell_angle_alpha   90.00000000
_cell_angle_beta   90.00000000
_cell_angle_gamma   90.00000000
_symmetry_Int_Tables_number   1
_chemical_formula_structural   YCoSi3Rh4
_chemical_formula_sum   'Y4 Co4 Si12 Rh16'
_cell_volume   531.79704638
_cell_formula_units_Z   4
loop_
 _symmetry_equiv_pos_site_id
 _symmetry_equiv_pos_as_xyz
  1  'x, y, z'
loop_
 _atom_site_type_symbol
 _atom_site_label
 _atom_site_symmetry_multiplicity
 _atom_site_fract_x
 _atom_site_fract_y
 _atom_site_fract_z
 _atom_site_occupancy
  Y  Y0  1  0.250000  0.913921  0.207537  1
  Y  Y1  1  0.750000  0.086079  0.792463  1
  Y  Y2  1  0.750000  0.413921  0.292463  1
  Y  Y3  1  0.250000  0.586079  0.707537  1
  Co  Co4  1  0.250000  0.029374  0.432880  1
  Co  Co5  1  0.750000  0.970626  0.567120  1
  Co  Co6  1  0.750000  0.529374  0.067120  1
  Co  Co7  1  0.250000  0.470626  0.932880  1
  Si  Si8  1  0.250000  0.080387  0.604100  1
  Si  Si9  1  0.750000  0.919613  0.395900  1
  Si  Si10  1  0.750000  0.580387  0.895900  1
  Si  Si11  1  0.250000  0.419613  0.104100  1
  Si  Si12  1  0.250000  0.223235  0.374499  1
  Si  Si13  1  0.750000  0.776765  0.625501  1
  Si  Si14  1  0.750000  0.723235  0.125501  1
  Si  Si15  1  0.250000  0.276765  0.874499  1
  Si  Si16  1  0.250000  0.897009  0.892618  1
  Si  Si17  1  0.750000  0.102991  0.107382  1
  Si  Si18  1  0.750000  0.397009  0.607382  1
  Si  Si19  1  0.250000  0.602991  0.392618  1
  Rh  Rh20  1  0.250000  0.793213  0.488673  1
  Rh  Rh21  1  0.750000  0.206787  0.511327  1
  Rh  Rh22  1  0.750000  0.293213  0.011327  1
  Rh  Rh23  1  0.250000  0.706787  0.988673  1
  Rh  Rh24  1  0.250000  0.094471  0.985919  1
  Rh  Rh25  1  0.750000  0.905529  0.014081  1
  Rh  Rh26  1  0.750000  0.594471  0.514081  1
  Rh  Rh27  1  0.250000  0.405529  0.485919  1
  Rh  Rh28  1  0.250000  0.275920  0.678789  1
  Rh  Rh29  1  0.750000  0.724080  0.321211  1
  Rh  Rh30  1  0.750000  0.775920  0.821211  1
  Rh  Rh31  1  0.250000  0.224080  0.178789  1
  Rh  Rh32  1  0.250000  0.609886  0.199388  1
  Rh  Rh33  1  0.750000  0.390114  0.800612  1
  Rh  Rh34  1  0.750000  0.109886  0.300612  1
  Rh  Rh35  1  0.250000  0.890114  0.699388  1
