# generated using pymatgen
data_YbTm(CoO2)6
_symmetry_space_group_name_H-M   'P 1'
_cell_length_a   4.92405635
_cell_length_b   5.47740733
_cell_length_c   8.49157200
_cell_angle_alpha   89.99953725
_cell_angle_beta   89.99955554
_cell_angle_gamma   72.82452292
_symmetry_Int_Tables_number   1
_chemical_formula_structural   YbTm(CoO2)6
_chemical_formula_sum   'Yb1 Tm1 Co6 O12'
_cell_volume   218.81323436
_cell_formula_units_Z   1
loop_
 _symmetry_equiv_pos_site_id
 _symmetry_equiv_pos_as_xyz
  1  'x, y, z'
loop_
 _atom_site_type_symbol
 _atom_site_label
 _atom_site_symmetry_multiplicity
 _atom_site_fract_x
 _atom_site_fract_y
 _atom_site_fract_z
 _atom_site_occupancy
  Yb  Yb0  1  0.500000  0.500001  0.667279  1
  Tm  Tm1  1  0.000000  0.500000  0.166937  1
  Co  Co2  1  0.500000  0.000000  0.166597  1
  Co  Co3  1  0.499997  0.000001  0.834382  1
  Co  Co4  1  0.500003  0.000000  0.498879  1
  Co  Co5  1  0.000000  0.000000  0.666560  1
  Co  Co6  1  0.999999  0.000000  0.334816  1
  Co  Co7  1  0.000001  0.000001  0.998448  1
  O  O8  1  0.773479  0.195794  0.166645  1
  O  O9  1  0.271442  0.187506  0.666590  1
  O  O10  1  0.226521  0.804206  0.166648  1
  O  O11  1  0.728556  0.812494  0.666590  1
  O  O12  1  0.265438  0.197746  0.002617  1
  O  O13  1  0.771730  0.188500  0.503166  1
  O  O14  1  0.265481  0.197577  0.330613  1
  O  O15  1  0.771876  0.188152  0.830081  1
  O  O16  1  0.734521  0.802421  0.330615  1
  O  O17  1  0.228131  0.811845  0.830084  1
  O  O18  1  0.734561  0.802256  0.002618  1
  O  O19  1  0.228264  0.811503  0.503168  1
