# generated using pymatgen
data_Nd2MnOs3
_symmetry_space_group_name_H-M   'P 1'
_cell_length_a   5.41583700
_cell_length_b   5.37948148
_cell_length_c   9.01503700
_cell_angle_alpha   90.00000000
_cell_angle_beta   90.00000000
_cell_angle_gamma   120.22381802
_symmetry_Int_Tables_number   1
_chemical_formula_structural   Nd2MnOs3
_chemical_formula_sum   'Nd4 Mn2 Os6'
_cell_volume   226.94480233
_cell_formula_units_Z   2
loop_
 _symmetry_equiv_pos_site_id
 _symmetry_equiv_pos_as_xyz
  1  'x, y, z'
loop_
 _atom_site_type_symbol
 _atom_site_label
 _atom_site_symmetry_multiplicity
 _atom_site_fract_x
 _atom_site_fract_y
 _atom_site_fract_z
 _atom_site_occupancy
  Nd  Nd0  1  0.335739  0.665746  0.063387  1
  Nd  Nd1  1  0.669993  0.334254  0.936613  1
  Nd  Nd2  1  0.335739  0.665746  0.436613  1
  Nd  Nd3  1  0.669993  0.334254  0.563387  1
  Mn  Mn4  1  0.657134  0.827568  0.750000  1
  Mn  Mn5  1  0.829565  0.172432  0.250000  1
  Os  Os6  1  0.013635  0.000000  0.500000  1
  Os  Os7  1  0.013635  0.000000  0.000000  1
  Os  Os8  1  0.825928  0.663465  0.250000  1
  Os  Os9  1  0.162464  0.336535  0.750000  1
  Os  Os10  1  0.328555  0.170937  0.250000  1
  Os  Os11  1  0.157619  0.829063  0.750000  1
