# generated using pymatgen
data_Pa4TiTc3C8
_symmetry_space_group_name_H-M   'P 1'
_cell_length_a   3.30767700
_cell_length_b   5.69081338
_cell_length_c   11.03404296
_cell_angle_alpha   90.67795897
_cell_angle_beta   90.00000000
_cell_angle_gamma   90.00000000
_symmetry_Int_Tables_number   1
_chemical_formula_structural   Pa4TiTc3C8
_chemical_formula_sum   'Pa4 Ti1 Tc3 C8'
_cell_volume   207.68336138
_cell_formula_units_Z   1
loop_
 _symmetry_equiv_pos_site_id
 _symmetry_equiv_pos_as_xyz
  1  'x, y, z'
loop_
 _atom_site_type_symbol
 _atom_site_label
 _atom_site_symmetry_multiplicity
 _atom_site_fract_x
 _atom_site_fract_y
 _atom_site_fract_z
 _atom_site_occupancy
  Pa  Pa0  1  0.250000  0.081374  0.856998  1
  Pa  Pa1  1  0.250000  0.586257  0.642973  1
  Pa  Pa2  1  0.750000  0.919933  0.140551  1
  Pa  Pa3  1  0.750000  0.415941  0.359326  1
  Ti  Ti4  1  0.250000  0.420327  0.100495  1
  Tc  Tc5  1  0.250000  0.915109  0.399082  1
  Tc  Tc6  1  0.750000  0.577385  0.899470  1
  Tc  Tc7  1  0.750000  0.084187  0.600324  1
  C  C8  1  0.250000  0.160525  0.246411  1
  C  C9  1  0.250000  0.662899  0.256053  1
  C  C10  1  0.750000  0.841319  0.753150  1
  C  C11  1  0.750000  0.339663  0.745631  1
  C  C12  1  0.250000  0.735079  0.989707  1
  C  C13  1  0.250000  0.237840  0.509437  1
  C  C14  1  0.750000  0.257654  0.008528  1
  C  C15  1  0.750000  0.764509  0.491861  1
