# generated using pymatgen
data_Ta4Cu3Ni(PdPt3)2
_symmetry_space_group_name_H-M   'P 1'
_cell_length_a   4.56488400
_cell_length_b   4.78386918
_cell_length_c   11.01122919
_cell_angle_alpha   90.22462716
_cell_angle_beta   90.00000000
_cell_angle_gamma   90.00000000
_symmetry_Int_Tables_number   1
_chemical_formula_structural   Ta4Cu3Ni(PdPt3)2
_chemical_formula_sum   'Ta4 Cu3 Ni1 Pd2 Pt6'
_cell_volume   240.45925939
_cell_formula_units_Z   1
loop_
 _symmetry_equiv_pos_site_id
 _symmetry_equiv_pos_as_xyz
  1  'x, y, z'
loop_
 _atom_site_type_symbol
 _atom_site_label
 _atom_site_symmetry_multiplicity
 _atom_site_fract_x
 _atom_site_fract_y
 _atom_site_fract_z
 _atom_site_occupancy
  Ta  Ta0  1  0.500000  0.662635  0.252572  1
  Ta  Ta1  1  0.500000  0.662836  0.742365  1
  Ta  Ta2  1  0.000000  0.339301  0.002656  1
  Ta  Ta3  1  0.000000  0.347826  0.501899  1
  Cu  Cu4  1  0.000000  0.325679  0.251682  1
  Cu  Cu5  1  0.000000  0.325065  0.751960  1
  Cu  Cu6  1  0.500000  0.672607  0.998775  1
  Ni  Ni7  1  0.500000  0.663171  0.499233  1
  Pd  Pd8  1  0.500000  0.173872  0.375799  1
  Pd  Pd9  1  0.500000  0.176240  0.875196  1
  Pt  Pt10  1  0.500000  0.182541  0.124475  1
  Pt  Pt11  1  0.500000  0.180250  0.623877  1
  Pt  Pt12  1  0.000000  0.822235  0.374645  1
  Pt  Pt13  1  0.000000  0.816288  0.874236  1
  Pt  Pt14  1  0.000000  0.821701  0.125735  1
  Pt  Pt15  1  0.000000  0.827754  0.624896  1
