# generated using pymatgen
data_Nb12AlGa3(AuN)4
_symmetry_space_group_name_H-M   'P 1'
_cell_length_a   7.11839026
_cell_length_b   7.11839026
_cell_length_c   7.11839026
_cell_angle_alpha   89.92238158
_cell_angle_beta   89.92238158
_cell_angle_gamma   89.92238158
_symmetry_Int_Tables_number   1
_chemical_formula_structural   Nb12AlGa3(AuN)4
_chemical_formula_sum   'Nb12 Al1 Ga3 Au4 N4'
_cell_volume   360.69837746
_cell_formula_units_Z   1
loop_
 _symmetry_equiv_pos_site_id
 _symmetry_equiv_pos_as_xyz
  1  'x, y, z'
loop_
 _atom_site_type_symbol
 _atom_site_label
 _atom_site_symmetry_multiplicity
 _atom_site_fract_x
 _atom_site_fract_y
 _atom_site_fract_z
 _atom_site_occupancy
  Nb  Nb0  1  0.785430  0.956036  0.376773  1
  Nb  Nb1  1  0.714199  0.043906  0.877656  1
  Nb  Nb2  1  0.214635  0.456436  0.123203  1
  Nb  Nb3  1  0.286088  0.543617  0.622895  1
  Nb  Nb4  1  0.956036  0.376773  0.785430  1
  Nb  Nb5  1  0.043906  0.877656  0.714199  1
  Nb  Nb6  1  0.456436  0.123203  0.214635  1
  Nb  Nb7  1  0.543617  0.622895  0.286088  1
  Nb  Nb8  1  0.376773  0.785430  0.956036  1
  Nb  Nb9  1  0.877656  0.714199  0.043906  1
  Nb  Nb10  1  0.123203  0.214635  0.456436  1
  Nb  Nb11  1  0.622895  0.286088  0.543617  1
  Al  Al12  1  0.072142  0.072142  0.072142  1
  Ga  Ga13  1  0.571064  0.428560  0.928935  1
  Ga  Ga14  1  0.428560  0.928935  0.571064  1
  Ga  Ga15  1  0.928935  0.571064  0.428560  1
  Au  Au16  1  0.179126  0.822048  0.318057  1
  Au  Au17  1  0.318057  0.179126  0.822048  1
  Au  Au18  1  0.822048  0.318057  0.179126  1
  Au  Au19  1  0.680056  0.680056  0.680056  1
  N  N20  1  0.876291  0.123199  0.622678  1
  N  N21  1  0.622678  0.876291  0.123199  1
  N  N22  1  0.123199  0.622678  0.876291  1
  N  N23  1  0.376970  0.376970  0.376970  1
