# generated using pymatgen
data_Pr3HoIn2Ir3
_symmetry_space_group_name_H-M   'P 1'
_cell_length_a   7.69216574
_cell_length_b   7.60085935
_cell_length_c   4.24187500
_cell_angle_alpha   90.00000000
_cell_angle_beta   90.00000000
_cell_angle_gamma   119.60810883
_symmetry_Int_Tables_number   1
_chemical_formula_structural   Pr3HoIn2Ir3
_chemical_formula_sum   'Pr3 Ho1 In2 Ir3'
_cell_volume   215.62609990
_cell_formula_units_Z   1
loop_
 _symmetry_equiv_pos_site_id
 _symmetry_equiv_pos_as_xyz
  1  'x, y, z'
loop_
 _atom_site_type_symbol
 _atom_site_label
 _atom_site_symmetry_multiplicity
 _atom_site_fract_x
 _atom_site_fract_y
 _atom_site_fract_z
 _atom_site_occupancy
  Pr  Pr0  1  0.433503  0.413895  0.000000  1
  Pr  Pr1  1  0.566497  0.980392  0.000000  1
  Pr  Pr2  1  0.000000  0.611809  0.000000  1
  Ho  Ho3  1  0.000000  0.241544  0.500000  1
  In  In4  1  0.746627  0.753120  0.500000  1
  In  In5  1  0.253373  0.006492  0.500000  1
  Ir  Ir6  1  0.000000  0.999914  0.000000  1
  Ir  Ir7  1  0.326787  0.659811  0.500000  1
  Ir  Ir8  1  0.673213  0.333023  0.500000  1
