# generated using pymatgen
data_YbErTh3Si3C
_symmetry_space_group_name_H-M   'P 1'
_cell_length_a   8.73823000
_cell_length_b   8.73823072
_cell_length_c   6.39026500
_cell_angle_alpha   90.00000000
_cell_angle_beta   90.00000000
_cell_angle_gamma   119.99999726
_symmetry_Int_Tables_number   1
_chemical_formula_structural   YbErTh3Si3C
_chemical_formula_sum   'Yb2 Er2 Th6 Si6 C2'
_cell_volume   422.56788853
_cell_formula_units_Z   2
loop_
 _symmetry_equiv_pos_site_id
 _symmetry_equiv_pos_as_xyz
  1  'x, y, z'
loop_
 _atom_site_type_symbol
 _atom_site_label
 _atom_site_symmetry_multiplicity
 _atom_site_fract_x
 _atom_site_fract_y
 _atom_site_fract_z
 _atom_site_occupancy
  Yb  Yb0  1  0.666667  0.333333  0.000000  1
  Yb  Yb1  1  0.333333  0.666667  0.000000  1
  Er  Er2  1  0.333333  0.666667  0.500000  1
  Er  Er3  1  0.666667  0.333333  0.500000  1
  Th  Th4  1  0.765149  0.765149  0.750554  1
  Th  Th5  1  0.234851  0.000000  0.750554  1
  Th  Th6  1  0.000000  0.234851  0.750554  1
  Th  Th7  1  0.234851  0.234851  0.249446  1
  Th  Th8  1  0.765149  0.000000  0.249446  1
  Th  Th9  1  0.000000  0.765149  0.249446  1
  Si  Si10  1  0.399248  0.399248  0.732914  1
  Si  Si11  1  0.600752  0.000000  0.732914  1
  Si  Si12  1  0.000000  0.600752  0.732914  1
  Si  Si13  1  0.600752  0.600752  0.267086  1
  Si  Si14  1  0.399248  0.000000  0.267086  1
  Si  Si15  1  0.000000  0.399248  0.267086  1
  C  C16  1  0.000000  0.000000  0.000000  1
  C  C17  1  0.000000  0.000000  0.500000  1
