# generated using pymatgen
data_Dy5Y(CdHg2)6
_symmetry_space_group_name_H-M   'P 1'
_cell_length_a   5.13621664
_cell_length_b   7.09316700
_cell_length_c   15.52314900
_cell_angle_alpha   90.00000000
_cell_angle_beta   89.94236117
_cell_angle_gamma   90.00000000
_symmetry_Int_Tables_number   1
_chemical_formula_structural   Dy5Y(CdHg2)6
_chemical_formula_sum   'Dy5 Y1 Cd6 Hg12'
_cell_volume   565.53973577
_cell_formula_units_Z   1
loop_
 _symmetry_equiv_pos_site_id
 _symmetry_equiv_pos_as_xyz
  1  'x, y, z'
loop_
 _atom_site_type_symbol
 _atom_site_label
 _atom_site_symmetry_multiplicity
 _atom_site_fract_x
 _atom_site_fract_y
 _atom_site_fract_z
 _atom_site_occupancy
  Dy  Dy0  1  0.000043  0.000000  0.999992  1
  Dy  Dy1  1  0.499877  0.500000  0.166506  1
  Dy  Dy2  1  0.999907  0.000000  0.333312  1
  Dy  Dy3  1  0.499968  0.500000  0.500256  1
  Dy  Dy4  1  0.000117  0.000000  0.666683  1
  Y  Y5  1  0.500098  0.500000  0.833302  1
  Cd  Cd6  1  0.000015  0.500000  0.999682  1
  Cd  Cd7  1  0.499838  0.000000  0.166838  1
  Cd  Cd8  1  0.999955  0.500000  0.333224  1
  Cd  Cd9  1  0.499999  0.000000  0.499884  1
  Cd  Cd10  1  0.000120  0.500000  0.667085  1
  Cd  Cd11  1  0.500078  0.000000  0.833251  1
  Hg  Hg12  1  0.499908  0.251951  0.000414  1
  Hg  Hg13  1  0.499908  0.748048  0.000414  1
  Hg  Hg14  1  0.999873  0.247142  0.166603  1
  Hg  Hg15  1  0.999873  0.752859  0.166603  1
  Hg  Hg16  1  0.499893  0.252475  0.333313  1
  Hg  Hg17  1  0.499893  0.747526  0.333313  1
  Hg  Hg18  1  0.000093  0.247390  0.500006  1
  Hg  Hg19  1  0.000093  0.752611  0.500006  1
  Hg  Hg20  1  0.500115  0.252033  0.666293  1
  Hg  Hg21  1  0.500115  0.747968  0.666293  1
  Hg  Hg22  1  0.000110  0.246344  0.833363  1
  Hg  Hg23  1  0.000110  0.753657  0.833363  1
