# generated using pymatgen
data_Yb2EuPd2
_symmetry_space_group_name_H-M   'P 1'
_cell_length_a   7.71393508
_cell_length_b   7.71393403
_cell_length_c   7.71393501
_cell_angle_alpha   71.31465335
_cell_angle_beta   71.31465277
_cell_angle_gamma   71.31465830
_symmetry_Int_Tables_number   1
_chemical_formula_structural   Yb2EuPd2
_chemical_formula_sum   'Yb6 Eu3 Pd6'
_cell_volume   399.59499044
_cell_formula_units_Z   3
loop_
 _symmetry_equiv_pos_site_id
 _symmetry_equiv_pos_as_xyz
  1  'x, y, z'
loop_
 _atom_site_type_symbol
 _atom_site_label
 _atom_site_symmetry_multiplicity
 _atom_site_fract_x
 _atom_site_fract_y
 _atom_site_fract_z
 _atom_site_occupancy
  Yb  Yb0  1  0.499889  0.499889  0.499889  1
  Yb  Yb1  1  0.699065  0.699065  0.699065  1
  Yb  Yb2  1  0.299835  0.299835  0.299835  1
  Yb  Yb3  1  0.890459  0.175533  0.655923  1
  Yb  Yb4  1  0.655923  0.890459  0.175533  1
  Yb  Yb5  1  0.175533  0.655923  0.890459  1
  Eu  Eu6  1  0.101888  0.833862  0.343444  1
  Eu  Eu7  1  0.343444  0.101888  0.833862  1
  Eu  Eu8  1  0.833862  0.343444  0.101888  1
  Pd  Pd9  1  0.907424  0.540149  0.349653  1
  Pd  Pd10  1  0.349653  0.907424  0.540149  1
  Pd  Pd11  1  0.540149  0.349653  0.907424  1
  Pd  Pd12  1  0.088808  0.459358  0.654710  1
  Pd  Pd13  1  0.654710  0.088808  0.459358  1
  Pd  Pd14  1  0.459358  0.654710  0.088808  1
