# generated using pymatgen
data_TbYb3(Ru2O7)2
_symmetry_space_group_name_H-M   'P 1'
_cell_length_a   7.22506782
_cell_length_b   7.22506836
_cell_length_c   7.22506869
_cell_angle_alpha   60.14510122
_cell_angle_beta   60.14509896
_cell_angle_gamma   60.14509990
_symmetry_Int_Tables_number   1
_chemical_formula_structural   TbYb3(Ru2O7)2
_chemical_formula_sum   'Tb1 Yb3 Ru4 O14'
_cell_volume   267.56909616
_cell_formula_units_Z   1
loop_
 _symmetry_equiv_pos_site_id
 _symmetry_equiv_pos_as_xyz
  1  'x, y, z'
loop_
 _atom_site_type_symbol
 _atom_site_label
 _atom_site_symmetry_multiplicity
 _atom_site_fract_x
 _atom_site_fract_y
 _atom_site_fract_z
 _atom_site_occupancy
  Tb  Tb0  1  0.625000  0.625000  0.625000  1
  Yb  Yb1  1  0.625000  0.625000  0.125000  1
  Yb  Yb2  1  0.625000  0.125000  0.625000  1
  Yb  Yb3  1  0.125000  0.625000  0.625000  1
  Ru  Ru4  1  0.125000  0.125000  0.625000  1
  Ru  Ru5  1  0.125000  0.625000  0.125000  1
  Ru  Ru6  1  0.625000  0.125000  0.125000  1
  Ru  Ru7  1  0.125000  0.125000  0.125000  1
  O  O8  1  0.748581  0.748581  0.748581  1
  O  O9  1  0.501419  0.501419  0.501419  1
  O  O10  1  0.054097  0.447090  0.054097  1
  O  O11  1  0.797312  0.201322  0.797312  1
  O  O12  1  0.054097  0.054097  0.447090  1
  O  O13  1  0.447090  0.054097  0.054097  1
  O  O14  1  0.048678  0.452688  0.452688  1
  O  O15  1  0.452688  0.452688  0.048678  1
  O  O16  1  0.452688  0.048678  0.452688  1
  O  O17  1  0.201322  0.797312  0.797312  1
  O  O18  1  0.802910  0.195903  0.195903  1
  O  O19  1  0.195903  0.802910  0.195903  1
  O  O20  1  0.797312  0.797312  0.201322  1
  O  O21  1  0.195903  0.195903  0.802910  1
