# generated using pymatgen
data_YbZn3AgIr
_symmetry_space_group_name_H-M   'P 1'
_cell_length_a   5.10871888
_cell_length_b   5.10871845
_cell_length_c   5.10871921
_cell_angle_alpha   64.04720751
_cell_angle_beta   64.04719970
_cell_angle_gamma   64.04719941
_symmetry_Int_Tables_number   1
_chemical_formula_structural   YbZn3AgIr
_chemical_formula_sum   'Yb1 Zn3 Ag1 Ir1'
_cell_volume   102.68064898
_cell_formula_units_Z   1
loop_
 _symmetry_equiv_pos_site_id
 _symmetry_equiv_pos_as_xyz
  1  'x, y, z'
loop_
 _atom_site_type_symbol
 _atom_site_label
 _atom_site_symmetry_multiplicity
 _atom_site_fract_x
 _atom_site_fract_y
 _atom_site_fract_z
 _atom_site_occupancy
  Yb  Yb0  1  0.002144  0.002144  0.002144  1
  Zn  Zn1  1  0.621526  0.621526  0.126234  1
  Zn  Zn2  1  0.621526  0.126234  0.621526  1
  Zn  Zn3  1  0.126234  0.621526  0.621526  1
  Ag  Ag4  1  0.254975  0.254975  0.254975  1
  Ir  Ir5  1  0.623592  0.623592  0.623592  1
