# generated using pymatgen
data_Tb2Lu6Hf12Si15Ir
_symmetry_space_group_name_H-M   'P 1'
_cell_length_a   7.25132121
_cell_length_b   7.24888286
_cell_length_c   13.32437989
_cell_angle_alpha   89.87479179
_cell_angle_beta   89.97048299
_cell_angle_gamma   90.05811028
_symmetry_Int_Tables_number   1
_chemical_formula_structural   Tb2Lu6Hf12Si15Ir
_chemical_formula_sum   'Tb2 Lu6 Hf12 Si15 Ir1'
_cell_volume   700.38028561
_cell_formula_units_Z   1
loop_
 _symmetry_equiv_pos_site_id
 _symmetry_equiv_pos_as_xyz
  1  'x, y, z'
loop_
 _atom_site_type_symbol
 _atom_site_label
 _atom_site_symmetry_multiplicity
 _atom_site_fract_x
 _atom_site_fract_y
 _atom_site_fract_z
 _atom_site_occupancy
  Tb  Tb0  1  0.344513  0.994510  0.784655  1
  Tb  Tb1  1  0.657451  0.002436  0.284415  1
  Lu  Lu2  1  0.996706  0.349128  0.214462  1
  Lu  Lu3  1  0.004718  0.653699  0.714750  1
  Lu  Lu4  1  0.157695  0.494071  0.463854  1
  Lu  Lu5  1  0.504059  0.843124  0.033715  1
  Lu  Lu6  1  0.844550  0.503297  0.965435  1
  Lu  Lu7  1  0.495507  0.156413  0.535052  1
  Hf  Hf8  1  0.175060  0.175132  0.998425  1
  Hf  Hf9  1  0.827800  0.824518  0.500528  1
  Hf  Hf10  1  0.322648  0.667621  0.252400  1
  Hf  Hf11  1  0.676290  0.325147  0.750314  1
  Hf  Hf12  1  0.151940  0.007947  0.374138  1
  Hf  Hf13  1  0.852402  0.002203  0.875531  1
  Hf  Hf14  1  0.504141  0.647892  0.625517  1
  Hf  Hf15  1  0.354478  0.497073  0.873506  1
  Hf  Hf16  1  0.493583  0.349615  0.125485  1
  Hf  Hf17  1  0.644064  0.502047  0.378971  1
  Hf  Hf18  1  0.998855  0.147017  0.626307  1
  Hf  Hf19  1  0.997847  0.849568  0.123400  1
  Si  Si20  1  0.643612  0.703681  0.819132  1
  Si  Si21  1  0.204685  0.858138  0.567910  1
  Si  Si22  1  0.139587  0.793157  0.932469  1
  Si  Si23  1  0.796868  0.141400  0.067258  1
  Si  Si24  1  0.857694  0.201282  0.436582  1
  Si  Si25  1  0.296087  0.360786  0.681825  1
  Si  Si26  1  0.702549  0.640315  0.181068  1
  Si  Si27  1  0.291624  0.045349  0.182951  1
  Si  Si28  1  0.705705  0.950346  0.685378  1
  Si  Si29  1  0.450146  0.799851  0.438684  1
  Si  Si30  1  0.201872  0.549964  0.061192  1
  Si  Si31  1  0.549858  0.202753  0.935621  1
  Si  Si32  1  0.798741  0.451301  0.566357  1
  Si  Si33  1  0.047550  0.298998  0.814675  1
  Si  Si34  1  0.949565  0.707128  0.313962  1
  Ir  Ir35  1  0.359550  0.303095  0.314077  1
