# generated using pymatgen
data_Sm5PuU4O20
_symmetry_space_group_name_H-M   'P 1'
_cell_length_a   6.71676904
_cell_length_b   7.60996077
_cell_length_c   8.52134200
_cell_angle_alpha   101.20923502
_cell_angle_beta   97.69517736
_cell_angle_gamma   107.22118981
_symmetry_Int_Tables_number   1
_chemical_formula_structural   Sm5PuU4O20
_chemical_formula_sum   'Sm5 Pu1 U4 O20'
_cell_volume   399.48891361
_cell_formula_units_Z   1
loop_
 _symmetry_equiv_pos_site_id
 _symmetry_equiv_pos_as_xyz
  1  'x, y, z'
loop_
 _atom_site_type_symbol
 _atom_site_label
 _atom_site_symmetry_multiplicity
 _atom_site_fract_x
 _atom_site_fract_y
 _atom_site_fract_z
 _atom_site_occupancy
  Sm  Sm0  1  0.609020  0.701928  0.700187  1
  Sm  Sm1  1  0.390980  0.298072  0.299813  1
  Sm  Sm2  1  0.199699  0.897979  0.895421  1
  Sm  Sm3  1  0.000000  0.500000  0.500000  1
  Sm  Sm4  1  0.800301  0.102021  0.104579  1
  Pu  Pu5  1  0.000000  0.000000  0.500000  1
  U  U6  1  0.400680  0.802593  0.301169  1
  U  U7  1  0.198942  0.400410  0.900196  1
  U  U8  1  0.801058  0.599590  0.099804  1
  U  U9  1  0.599320  0.197407  0.698831  1
  O  O10  1  0.442474  0.535095  0.137015  1
  O  O11  1  0.555167  0.989973  0.839473  1
  O  O12  1  0.265261  0.144753  0.742450  1
  O  O13  1  0.358209  0.595176  0.440543  1
  O  O14  1  0.053607  0.732701  0.333085  1
  O  O15  1  0.444833  0.010027  0.160527  1
  O  O16  1  0.151398  0.187251  0.032782  1
  O  O17  1  0.557526  0.464905  0.862985  1
  O  O18  1  0.854669  0.338312  0.947722  1
  O  O19  1  0.254112  0.605535  0.760969  1
  O  O20  1  0.954185  0.778719  0.647589  1
  O  O21  1  0.351013  0.060430  0.455312  1
  O  O22  1  0.648987  0.939570  0.544688  1
  O  O23  1  0.045815  0.221281  0.352411  1
  O  O24  1  0.745888  0.394465  0.239031  1
  O  O25  1  0.145331  0.661688  0.052278  1
  O  O26  1  0.848602  0.812749  0.967218  1
  O  O27  1  0.946393  0.267299  0.666915  1
  O  O28  1  0.641791  0.404824  0.559457  1
  O  O29  1  0.734739  0.855247  0.257550  1
