# generated using pymatgen
data_YbPrCuS3
_symmetry_space_group_name_H-M   'P 1'
_cell_length_a   10.22780900
_cell_length_b   3.88862800
_cell_length_c   12.60139200
_cell_angle_alpha   90.00000000
_cell_angle_beta   90.00000000
_cell_angle_gamma   90.00000000
_symmetry_Int_Tables_number   1
_chemical_formula_structural   YbPrCuS3
_chemical_formula_sum   'Yb4 Pr4 Cu4 S12'
_cell_volume   501.18438297
_cell_formula_units_Z   4
loop_
 _symmetry_equiv_pos_site_id
 _symmetry_equiv_pos_as_xyz
  1  'x, y, z'
loop_
 _atom_site_type_symbol
 _atom_site_label
 _atom_site_symmetry_multiplicity
 _atom_site_fract_x
 _atom_site_fract_y
 _atom_site_fract_z
 _atom_site_occupancy
  Yb  Yb0  1  0.006135  0.250002  0.245041  1
  Yb  Yb1  1  0.506134  0.250002  0.254960  1
  Yb  Yb2  1  0.493866  0.750002  0.745040  1
  Yb  Yb3  1  0.993866  0.750002  0.754960  1
  Pr  Pr4  1  0.261918  0.250002  0.001101  1
  Pr  Pr5  1  0.761918  0.250002  0.498900  1
  Pr  Pr6  1  0.238083  0.750002  0.501101  1
  Pr  Pr7  1  0.738082  0.750002  0.998899  1
  Cu  Cu8  1  0.255894  0.750002  0.224433  1
  Cu  Cu9  1  0.755894  0.750002  0.275567  1
  Cu  Cu10  1  0.244106  0.250002  0.724433  1
  Cu  Cu11  1  0.744107  0.250002  0.775567  1
  S  S12  1  0.087247  0.750002  0.101000  1
  S  S13  1  0.432686  0.750002  0.105978  1
  S  S14  1  0.753350  0.250002  0.167639  1
  S  S15  1  0.253351  0.250002  0.332361  1
  S  S16  1  0.932687  0.750002  0.394021  1
  S  S17  1  0.587247  0.750002  0.399000  1
  S  S18  1  0.412752  0.250002  0.601000  1
  S  S19  1  0.067313  0.250002  0.605979  1
  S  S20  1  0.746650  0.750002  0.667639  1
  S  S21  1  0.246650  0.750002  0.832361  1
  S  S22  1  0.567314  0.250002  0.894022  1
  S  S23  1  0.912753  0.250002  0.899001  1
