# generated using pymatgen
data_Sr3SmHgPb11
_symmetry_space_group_name_H-M   'P 1'
_cell_length_a   10.05030500
_cell_length_b   7.07179966
_cell_length_c   7.04882487
_cell_angle_alpha   88.85476714
_cell_angle_beta   90.00000000
_cell_angle_gamma   90.00000000
_symmetry_Int_Tables_number   1
_chemical_formula_structural   Sr3SmHgPb11
_chemical_formula_sum   'Sr3 Sm1 Hg1 Pb11'
_cell_volume   500.88629602
_cell_formula_units_Z   1
loop_
 _symmetry_equiv_pos_site_id
 _symmetry_equiv_pos_as_xyz
  1  'x, y, z'
loop_
 _atom_site_type_symbol
 _atom_site_label
 _atom_site_symmetry_multiplicity
 _atom_site_fract_x
 _atom_site_fract_y
 _atom_site_fract_z
 _atom_site_occupancy
  Sr  Sr0  1  0.250000  0.496254  0.505726  1
  Sr  Sr1  1  0.750000  0.994762  0.000504  1
  Sr  Sr2  1  0.750000  0.510474  0.498349  1
  Sm  Sm3  1  0.250000  0.009825  0.002809  1
  Hg  Hg4  1  0.750000  0.491706  0.996347  1
  Pb  Pb5  1  0.000171  0.237355  0.743304  1
  Pb  Pb6  1  0.500807  0.253013  0.245307  1
  Pb  Pb7  1  0.495409  0.753756  0.246167  1
  Pb  Pb8  1  0.001741  0.747143  0.759708  1
  Pb  Pb9  1  0.004591  0.753756  0.246167  1
  Pb  Pb10  1  0.498259  0.747143  0.759708  1
  Pb  Pb11  1  0.499829  0.237355  0.743304  1
  Pb  Pb12  1  0.999193  0.253013  0.245307  1
  Pb  Pb13  1  0.250000  0.996314  0.502610  1
  Pb  Pb14  1  0.250000  0.510737  0.005732  1
  Pb  Pb15  1  0.750000  0.007392  0.498950  1
