# generated using pymatgen
data_Er4HgPd2PtPb2
_symmetry_space_group_name_H-M   'P 1'
_cell_length_a   8.10991529
_cell_length_b   8.09757124
_cell_length_c   3.54839800
_cell_angle_alpha   90.00000000
_cell_angle_beta   90.00000000
_cell_angle_gamma   90.79212258
_symmetry_Int_Tables_number   1
_chemical_formula_structural   Er4HgPd2PtPb2
_chemical_formula_sum   'Er4 Hg1 Pd2 Pt1 Pb2'
_cell_volume   233.00321601
_cell_formula_units_Z   1
loop_
 _symmetry_equiv_pos_site_id
 _symmetry_equiv_pos_as_xyz
  1  'x, y, z'
loop_
 _atom_site_type_symbol
 _atom_site_label
 _atom_site_symmetry_multiplicity
 _atom_site_fract_x
 _atom_site_fract_y
 _atom_site_fract_z
 _atom_site_occupancy
  Er  Er0  1  0.689069  0.161010  0.500000  1
  Er  Er1  1  0.152423  0.353861  0.500000  1
  Er  Er2  1  0.835497  0.670832  0.500000  1
  Er  Er3  1  0.333318  0.808218  0.500000  1
  Hg  Hg4  1  0.373463  0.125695  0.000000  1
  Pd  Pd5  1  0.624489  0.874987  0.000000  1
  Pd  Pd6  1  0.865726  0.375633  0.000000  1
  Pt  Pt7  1  0.120126  0.629388  0.000000  1
  Pb  Pb8  1  0.997445  0.998277  0.000000  1
  Pb  Pb9  1  0.508443  0.502101  0.000000  1
