# generated using pymatgen
data_Tm7HfNb12(Si7Ge)2
_symmetry_space_group_name_H-M   'P 1'
_cell_length_a   6.82697720
_cell_length_b   7.03588445
_cell_length_c   13.31215319
_cell_angle_alpha   90.10531781
_cell_angle_beta   90.05973421
_cell_angle_gamma   90.03567620
_symmetry_Int_Tables_number   1
_chemical_formula_structural   Tm7HfNb12(Si7Ge)2
_chemical_formula_sum   'Tm7 Hf1 Nb12 Si14 Ge2'
_cell_volume   639.43205396
_cell_formula_units_Z   1
loop_
 _symmetry_equiv_pos_site_id
 _symmetry_equiv_pos_as_xyz
  1  'x, y, z'
loop_
 _atom_site_type_symbol
 _atom_site_label
 _atom_site_symmetry_multiplicity
 _atom_site_fract_x
 _atom_site_fract_y
 _atom_site_fract_z
 _atom_site_occupancy
  Tm  Tm0  1  0.500221  0.673230  0.595722  1
  Tm  Tm1  1  0.002383  0.827682  0.903604  1
  Tm  Tm2  1  0.498703  0.330751  0.093916  1
  Tm  Tm3  1  0.998968  0.169086  0.407872  1
  Tm  Tm4  1  0.498214  0.329806  0.407479  1
  Tm  Tm5  1  0.998593  0.170582  0.093831  1
  Tm  Tm6  1  0.501717  0.673068  0.902530  1
  Hf  Hf7  1  0.001687  0.823929  0.599573  1
  Nb  Nb8  1  0.663642  0.173803  0.624278  1
  Nb  Nb9  1  0.161002  0.323960  0.872887  1
  Nb  Nb10  1  0.338617  0.822666  0.124622  1
  Nb  Nb11  1  0.839937  0.680234  0.377135  1
  Nb  Nb12  1  0.337843  0.822643  0.376052  1
  Nb  Nb13  1  0.837785  0.677378  0.124765  1
  Nb  Nb14  1  0.663712  0.175063  0.873287  1
  Nb  Nb15  1  0.160948  0.323788  0.624278  1
  Nb  Nb16  1  0.836196  0.494094  0.748086  1
  Nb  Nb17  1  0.334265  0.004958  0.748248  1
  Nb  Nb18  1  0.165381  0.511909  0.250919  1
  Nb  Nb19  1  0.666171  0.989589  0.251007  1
  Si  Si20  1  0.665929  0.963778  0.461617  1
  Si  Si21  1  0.163475  0.535696  0.039789  1
  Si  Si22  1  0.336078  0.036292  0.958918  1
  Si  Si23  1  0.836389  0.468175  0.541426  1
  Si  Si24  1  0.327980  0.032141  0.541108  1
  Si  Si25  1  0.834572  0.464098  0.959088  1
  Si  Si26  1  0.663432  0.964602  0.039841  1
  Si  Si27  1  0.163451  0.538882  0.462039  1
  Si  Si28  1  0.456934  0.377331  0.748866  1
  Si  Si29  1  0.958185  0.118107  0.748130  1
  Si  Si30  1  0.542095  0.623067  0.250635  1
  Si  Si31  1  0.042113  0.878072  0.249886  1
  Si  Si32  1  0.704108  0.869693  0.748593  1
  Si  Si33  1  0.200660  0.630364  0.748367  1
  Ge  Ge34  1  0.299261  0.136637  0.250578  1
  Ge  Ge35  1  0.799353  0.364850  0.251033  1
