# generated using pymatgen
data_Sc4Cr7Si10Ru
_symmetry_space_group_name_H-M   'P 1'
_cell_length_a   4.91479202
_cell_length_b   7.57196815
_cell_length_c   9.25804007
_cell_angle_alpha   114.08521172
_cell_angle_beta   105.39271576
_cell_angle_gamma   90.00000379
_symmetry_Int_Tables_number   1
_chemical_formula_structural   Sc4Cr7Si10Ru
_chemical_formula_sum   'Sc4 Cr7 Si10 Ru1'
_cell_volume   300.95133783
_cell_formula_units_Z   1
loop_
 _symmetry_equiv_pos_site_id
 _symmetry_equiv_pos_as_xyz
  1  'x, y, z'
loop_
 _atom_site_type_symbol
 _atom_site_label
 _atom_site_symmetry_multiplicity
 _atom_site_fract_x
 _atom_site_fract_y
 _atom_site_fract_z
 _atom_site_occupancy
  Sc  Sc0  1  0.143882  0.022026  0.287764  1
  Sc  Sc1  1  0.642285  0.259978  0.284572  1
  Sc  Sc2  1  0.357788  0.739179  0.715578  1
  Sc  Sc3  1  0.857639  0.976704  0.715282  1
  Cr  Cr4  1  0.562176  0.810329  0.124355  1
  Cr  Cr5  1  0.443554  0.691985  0.382507  1
  Cr  Cr6  1  0.938951  0.691985  0.382507  1
  Cr  Cr7  1  0.059659  0.309595  0.616948  1
  Cr  Cr8  1  0.557288  0.309595  0.616948  1
  Cr  Cr9  1  0.436539  0.191068  0.873077  1
  Cr  Cr10  1  0.938679  0.683475  0.877360  1
  Si  Si11  1  0.251216  0.996198  0.998152  1
  Si  Si12  1  0.746936  0.996198  0.998152  1
  Si  Si13  1  0.563459  0.487895  0.126919  1
  Si  Si14  1  0.064109  0.644305  0.128217  1
  Si  Si15  1  0.711159  0.003493  0.422321  1
  Si  Si16  1  0.213039  0.421226  0.426079  1
  Si  Si17  1  0.789415  0.581183  0.578833  1
  Si  Si18  1  0.289255  0.997035  0.578510  1
  Si  Si19  1  0.934185  0.358107  0.868373  1
  Si  Si20  1  0.436177  0.513882  0.872355  1
  Ru  Ru21  1  0.062596  0.314556  0.125192  1
