# generated using pymatgen
data_TbDy2Fe9
_symmetry_space_group_name_H-M   'P 1'
_cell_length_a   8.59236398
_cell_length_b   8.59233453
_cell_length_c   8.59224680
_cell_angle_alpha   34.42406573
_cell_angle_beta   34.42529810
_cell_angle_gamma   34.42608652
_symmetry_Int_Tables_number   1
_chemical_formula_structural   TbDy2Fe9
_chemical_formula_sum   'Tb1 Dy2 Fe9'
_cell_volume   180.84368957
_cell_formula_units_Z   1
loop_
 _symmetry_equiv_pos_site_id
 _symmetry_equiv_pos_as_xyz
  1  'x, y, z'
loop_
 _atom_site_type_symbol
 _atom_site_label
 _atom_site_symmetry_multiplicity
 _atom_site_fract_x
 _atom_site_fract_y
 _atom_site_fract_z
 _atom_site_occupancy
  Tb  Tb0  1  0.000000  0.000000  0.000000  1
  Dy  Dy1  1  0.141709  0.141699  0.141696  1
  Dy  Dy2  1  0.858292  0.858302  0.858305  1
  Fe  Fe3  1  0.580983  0.580983  0.082826  1
  Fe  Fe4  1  0.332524  0.332509  0.332502  1
  Fe  Fe5  1  0.419016  0.917172  0.419018  1
  Fe  Fe6  1  0.917176  0.419016  0.419018  1
  Fe  Fe7  1  0.500000  0.500000  0.500000  1
  Fe  Fe8  1  0.580984  0.082828  0.580982  1
  Fe  Fe9  1  0.082824  0.580984  0.580982  1
  Fe  Fe10  1  0.667476  0.667491  0.667498  1
  Fe  Fe11  1  0.419018  0.419018  0.917174  1
