# generated using pymatgen
data_Er16Al4CuRh3
_symmetry_space_group_name_H-M   'P 1'
_cell_length_a   9.44102375
_cell_length_b   9.46790226
_cell_length_c   9.46790100
_cell_angle_alpha   59.99999393
_cell_angle_beta   59.90577141
_cell_angle_gamma   59.90577101
_symmetry_Int_Tables_number   1
_chemical_formula_structural   Er16Al4CuRh3
_chemical_formula_sum   'Er16 Al4 Cu1 Rh3'
_cell_volume   597.57376741
_cell_formula_units_Z   1
loop_
 _symmetry_equiv_pos_site_id
 _symmetry_equiv_pos_as_xyz
  1  'x, y, z'
loop_
 _atom_site_type_symbol
 _atom_site_label
 _atom_site_symmetry_multiplicity
 _atom_site_fract_x
 _atom_site_fract_y
 _atom_site_fract_z
 _atom_site_occupancy
  Er  Er0  1  0.351325  0.355036  0.355036  1
  Er  Er1  1  0.351325  0.355036  0.938602  1
  Er  Er2  1  0.351325  0.938602  0.355036  1
  Er  Er3  1  0.942278  0.352574  0.352574  1
  Er  Er4  1  0.811237  0.191558  0.191558  1
  Er  Er5  1  0.190865  0.809402  0.809402  1
  Er  Er6  1  0.190865  0.809402  0.190329  1
  Er  Er7  1  0.811237  0.191558  0.805646  1
  Er  Er8  1  0.190865  0.190329  0.809402  1
  Er  Er9  1  0.811237  0.805646  0.191558  1
  Er  Er10  1  0.935782  0.563539  0.563539  1
  Er  Er11  1  0.561382  0.936694  0.936694  1
  Er  Er12  1  0.561382  0.936694  0.565232  1
  Er  Er13  1  0.935782  0.563539  0.937141  1
  Er  Er14  1  0.561382  0.565232  0.936694  1
  Er  Er15  1  0.935782  0.937141  0.563539  1
  Al  Al16  1  0.578642  0.578297  0.578297  1
  Al  Al17  1  0.578642  0.578297  0.264761  1
  Al  Al18  1  0.578642  0.264761  0.578297  1
  Al  Al19  1  0.267345  0.577551  0.577551  1
  Cu  Cu20  1  0.568152  0.143950  0.143950  1
  Rh  Rh21  1  0.144842  0.142885  0.142885  1
  Rh  Rh22  1  0.144842  0.142885  0.569387  1
  Rh  Rh23  1  0.144842  0.569387  0.142885  1
