# generated using pymatgen
data_Sm4MgCo2Hg
_symmetry_space_group_name_H-M   'P 1'
_cell_length_a   8.94344199
_cell_length_b   8.94344254
_cell_length_c   8.94344100
_cell_angle_alpha   130.79248841
_cell_angle_beta   130.79248300
_cell_angle_gamma   72.14298368
_symmetry_Int_Tables_number   1
_chemical_formula_structural   Sm4MgCo2Hg
_chemical_formula_sum   'Sm8 Mg2 Co4 Hg2'
_cell_volume   400.89866343
_cell_formula_units_Z   2
loop_
 _symmetry_equiv_pos_site_id
 _symmetry_equiv_pos_as_xyz
  1  'x, y, z'
loop_
 _atom_site_type_symbol
 _atom_site_label
 _atom_site_symmetry_multiplicity
 _atom_site_fract_x
 _atom_site_fract_y
 _atom_site_fract_z
 _atom_site_occupancy
  Sm  Sm0  1  0.805458  0.305458  0.857878  1
  Sm  Sm1  1  0.194542  0.694542  0.142123  1
  Sm  Sm2  1  0.447582  0.947582  0.142123  1
  Sm  Sm3  1  0.305458  0.447582  0.500000  1
  Sm  Sm4  1  0.052418  0.194542  0.500000  1
  Sm  Sm5  1  0.552418  0.052418  0.857877  1
  Sm  Sm6  1  0.694542  0.552418  0.500000  1
  Sm  Sm7  1  0.947582  0.805458  0.500000  1
  Mg  Mg8  1  0.000000  0.000000  0.000000  1
  Mg  Mg9  1  0.500000  0.500000  0.000000  1
  Co  Co10  1  0.112465  0.612465  0.724931  1
  Co  Co11  1  0.887535  0.387535  0.275069  1
  Co  Co12  1  0.612465  0.887535  0.500000  1
  Co  Co13  1  0.387535  0.112465  0.500000  1
  Hg  Hg14  1  0.250000  0.250000  0.000000  1
  Hg  Hg15  1  0.750000  0.750000  0.000000  1
