# generated using pymatgen
data_Er4AgHgPt2
_symmetry_space_group_name_H-M   'P 1'
_cell_length_a   4.64216000
_cell_length_b   5.61403533
_cell_length_c   7.22824604
_cell_angle_alpha   87.49812150
_cell_angle_beta   90.00000000
_cell_angle_gamma   90.00000000
_symmetry_Int_Tables_number   1
_chemical_formula_structural   Er4AgHgPt2
_chemical_formula_sum   'Er4 Ag1 Hg1 Pt2'
_cell_volume   188.19756607
_cell_formula_units_Z   1
loop_
 _symmetry_equiv_pos_site_id
 _symmetry_equiv_pos_as_xyz
  1  'x, y, z'
loop_
 _atom_site_type_symbol
 _atom_site_label
 _atom_site_symmetry_multiplicity
 _atom_site_fract_x
 _atom_site_fract_y
 _atom_site_fract_z
 _atom_site_occupancy
  Er  Er0  1  0.250000  0.639069  0.209429  1
  Er  Er1  1  0.750000  0.361944  0.791012  1
  Er  Er2  1  0.750000  0.152575  0.337083  1
  Er  Er3  1  0.250000  0.845738  0.662597  1
  Ag  Ag4  1  0.250000  0.156372  0.034479  1
  Hg  Hg5  1  0.750000  0.848506  0.967676  1
  Pt  Pt6  1  0.750000  0.661458  0.452689  1
  Pt  Pt7  1  0.250000  0.334338  0.545035  1
