# generated using pymatgen
data_Nd6Mn2Ni17P13Pt
_symmetry_space_group_name_H-M   'P 1'
_cell_length_a   12.89549454
_cell_length_b   12.90193833
_cell_length_c   3.85024500
_cell_angle_alpha   90.00000000
_cell_angle_beta   90.00000000
_cell_angle_gamma   120.07956585
_symmetry_Int_Tables_number   1
_chemical_formula_structural   Nd6Mn2Ni17P13Pt
_chemical_formula_sum   'Nd6 Mn2 Ni17 P13 Pt1'
_cell_volume   554.32338846
_cell_formula_units_Z   1
loop_
 _symmetry_equiv_pos_site_id
 _symmetry_equiv_pos_as_xyz
  1  'x, y, z'
loop_
 _atom_site_type_symbol
 _atom_site_label
 _atom_site_symmetry_multiplicity
 _atom_site_fract_x
 _atom_site_fract_y
 _atom_site_fract_z
 _atom_site_occupancy
  Nd  Nd0  1  0.797926  0.948530  0.000000  1
  Nd  Nd1  1  0.051720  0.849158  0.000000  1
  Nd  Nd2  1  0.151276  0.203429  0.000000  1
  Nd  Nd3  1  0.518991  0.134861  0.500000  1
  Nd  Nd4  1  0.865480  0.384530  0.500000  1
  Nd  Nd5  1  0.615470  0.481459  0.500000  1
  Mn  Mn6  1  0.401784  0.814188  0.500000  1
  Mn  Mn7  1  0.185337  0.585658  0.500000  1
  Ni  Ni8  1  0.528090  0.771776  0.000000  1
  Ni  Ni9  1  0.226950  0.755651  0.000000  1
  Ni  Ni10  1  0.245280  0.472683  0.000000  1
  Ni  Ni11  1  0.411338  0.596893  0.500000  1
  Ni  Ni12  1  0.666456  0.333263  0.000000  1
  Ni  Ni13  1  0.769799  0.687711  0.000000  1
  Ni  Ni14  1  0.312974  0.083143  0.000000  1
  Ni  Ni15  1  0.917385  0.230320  0.000000  1
  Ni  Ni16  1  0.642823  0.735044  0.500000  1
  Ni  Ni17  1  0.263712  0.908688  0.500000  1
  Ni  Ni18  1  0.091834  0.354870  0.500000  1
  Ni  Ni19  1  0.359742  0.258837  0.500000  1
  Ni  Ni20  1  0.740603  0.101445  0.500000  1
  Ni  Ni21  1  0.899186  0.639528  0.500000  1
  Ni  Ni22  1  0.571637  0.983161  0.000000  1
  Ni  Ni23  1  0.016893  0.587879  0.000000  1
  Ni  Ni24  1  0.412138  0.427508  0.000000  1
  P  P25  1  0.845699  0.789572  0.500000  1
  P  P26  1  0.209295  0.055996  0.500000  1
  P  P27  1  0.944034  0.153642  0.500000  1
  P  P28  1  0.607098  0.898702  0.500000  1
  P  P29  1  0.101992  0.708779  0.500000  1
  P  P30  1  0.293147  0.395777  0.500000  1
  P  P31  1  0.468576  0.282574  0.000000  1
  P  P32  1  0.717821  0.186284  0.000000  1
  P  P33  1  0.813418  0.531654  0.000000  1
  P  P34  1  0.377131  0.944839  0.000000  1
  P  P35  1  0.055614  0.432119  0.000000  1
  P  P36  1  0.567630  0.623065  0.000000  1
  P  P37  1  0.333962  0.667126  0.000000  1
  Pt  Pt38  1  0.999759  0.999658  0.500000  1
