# generated using pymatgen
data_Zn3Ge2(PN2)6
_symmetry_space_group_name_H-M   'P 1'
_cell_length_a   7.20663407
_cell_length_b   7.15554896
_cell_length_c   7.20663453
_cell_angle_alpha   109.32768901
_cell_angle_beta   109.61436193
_cell_angle_gamma   109.32769801
_symmetry_Int_Tables_number   1
_chemical_formula_structural   Zn3Ge2(PN2)6
_chemical_formula_sum   'Zn3 Ge2 P6 N12'
_cell_volume   286.58421415
_cell_formula_units_Z   1
loop_
 _symmetry_equiv_pos_site_id
 _symmetry_equiv_pos_as_xyz
  1  'x, y, z'
loop_
 _atom_site_type_symbol
 _atom_site_label
 _atom_site_symmetry_multiplicity
 _atom_site_fract_x
 _atom_site_fract_y
 _atom_site_fract_z
 _atom_site_occupancy
  Zn  Zn0  1  0.667173  0.673858  0.667173  1
  Zn  Zn1  1  0.332827  0.006685  0.000000  1
  Zn  Zn2  1  0.000000  0.006685  0.332827  1
  Ge  Ge3  1  0.000000  0.335241  0.000000  1
  Ge  Ge4  1  0.000000  0.992766  0.000000  1
  P  P5  1  0.752248  0.250251  0.499602  1
  P  P6  1  0.252647  0.750650  0.500398  1
  P  P7  1  0.500398  0.750650  0.252647  1
  P  P8  1  0.499602  0.250251  0.752248  1
  P  P9  1  0.747353  0.498002  0.247752  1
  P  P10  1  0.247752  0.498002  0.747353  1
  N  N11  1  0.564619  0.269212  0.000000  1
  N  N12  1  0.444356  0.445240  0.722242  1
  N  N13  1  0.000000  0.269212  0.564619  1
  N  N14  1  0.277885  0.000884  0.555644  1
  N  N15  1  0.722242  0.445240  0.444356  1
  N  N16  1  0.000000  0.556536  0.263914  1
  N  N17  1  0.555644  0.000884  0.277885  1
  N  N18  1  0.435381  0.704593  0.435381  1
  N  N19  1  0.263914  0.556536  0.000000  1
  N  N20  1  0.736086  0.292621  0.736086  1
  N  N21  1  0.722115  0.722999  0.277758  1
  N  N22  1  0.277758  0.722999  0.722115  1
