# generated using pymatgen
data_Ce2Fe3P7(Ir2W)3
_symmetry_space_group_name_H-M   'P 1'
_cell_length_a   9.41999300
_cell_length_b   9.41999304
_cell_length_c   3.91391900
_cell_angle_alpha   90.00000000
_cell_angle_beta   90.00000000
_cell_angle_gamma   120.00000337
_symmetry_Int_Tables_number   1
_chemical_formula_structural   Ce2Fe3P7(Ir2W)3
_chemical_formula_sum   'Ce2 Fe3 P7 Ir6 W3'
_cell_volume   300.77629997
_cell_formula_units_Z   1
loop_
 _symmetry_equiv_pos_site_id
 _symmetry_equiv_pos_as_xyz
  1  'x, y, z'
loop_
 _atom_site_type_symbol
 _atom_site_label
 _atom_site_symmetry_multiplicity
 _atom_site_fract_x
 _atom_site_fract_y
 _atom_site_fract_z
 _atom_site_occupancy
  Ce  Ce0  1  0.000000  0.000000  0.000000  1
  Ce  Ce1  1  0.333333  0.666667  0.500000  1
  Fe  Fe2  1  0.824384  0.599817  0.000000  1
  Fe  Fe3  1  0.775434  0.175616  0.000000  1
  Fe  Fe4  1  0.400183  0.224566  0.000000  1
  P  P5  1  0.070026  0.629859  0.000000  1
  P  P6  1  0.559833  0.929974  0.000000  1
  P  P7  1  0.370141  0.440167  0.000000  1
  P  P8  1  0.784926  0.731080  0.500000  1
  P  P9  1  0.946154  0.215074  0.500000  1
  P  P10  1  0.268920  0.053846  0.500000  1
  P  P11  1  0.666667  0.333333  0.000000  1
  Ir  Ir12  1  0.096856  0.399795  0.000000  1
  Ir  Ir13  1  0.302939  0.903144  0.000000  1
  Ir  Ir14  1  0.600205  0.697061  0.000000  1
  Ir  Ir15  1  0.051692  0.772605  0.500000  1
  Ir  Ir16  1  0.720912  0.948308  0.500000  1
  Ir  Ir17  1  0.227395  0.279088  0.500000  1
  W  W18  1  0.877525  0.424342  0.500000  1
  W  W19  1  0.546817  0.122475  0.500000  1
  W  W20  1  0.575658  0.453183  0.500000  1
