# generated using pymatgen
data_PrGd(MoN3)2
_symmetry_space_group_name_H-M   'P 1'
_cell_length_a   7.43390794
_cell_length_b   7.43390761
_cell_length_c   6.22004000
_cell_angle_alpha   77.81273478
_cell_angle_beta   77.81274322
_cell_angle_gamma   87.46483613
_symmetry_Int_Tables_number   1
_chemical_formula_structural   PrGd(MoN3)2
_chemical_formula_sum   'Pr2 Gd2 Mo4 N12'
_cell_volume   328.41880353
_cell_formula_units_Z   2
loop_
 _symmetry_equiv_pos_site_id
 _symmetry_equiv_pos_as_xyz
  1  'x, y, z'
loop_
 _atom_site_type_symbol
 _atom_site_label
 _atom_site_symmetry_multiplicity
 _atom_site_fract_x
 _atom_site_fract_y
 _atom_site_fract_z
 _atom_site_occupancy
  Pr  Pr0  1  0.309668  0.690332  0.750000  1
  Pr  Pr1  1  0.690332  0.309668  0.250000  1
  Gd  Gd2  1  0.089249  0.910751  0.250000  1
  Gd  Gd3  1  0.910751  0.089249  0.750000  1
  Mo  Mo4  1  0.383072  0.201442  0.756428  1
  Mo  Mo5  1  0.616928  0.798558  0.243572  1
  Mo  Mo6  1  0.798558  0.616928  0.743572  1
  Mo  Mo7  1  0.201442  0.383072  0.256428  1
  N  N8  1  0.994817  0.782043  0.647140  1
  N  N9  1  0.875350  0.387214  0.840093  1
  N  N10  1  0.782043  0.994817  0.147140  1
  N  N11  1  0.124650  0.612786  0.159907  1
  N  N12  1  0.005183  0.217957  0.352860  1
  N  N13  1  0.217957  0.005183  0.852860  1
  N  N14  1  0.612786  0.124650  0.659907  1
  N  N15  1  0.628837  0.660692  0.005844  1
  N  N16  1  0.371163  0.339308  0.994156  1
  N  N17  1  0.387214  0.875350  0.340093  1
  N  N18  1  0.660692  0.628837  0.505844  1
  N  N19  1  0.339308  0.371163  0.494156  1
