# generated using pymatgen
data_Ce8CoHS16
_symmetry_space_group_name_H-M   'P 1'
_cell_length_a   7.88018351
_cell_length_b   7.88018277
_cell_length_c   10.41710526
_cell_angle_alpha   80.54260912
_cell_angle_beta   80.54261101
_cell_angle_gamma   65.14166231
_symmetry_Int_Tables_number   1
_chemical_formula_structural   Ce8CoHS16
_chemical_formula_sum   'Ce8 Co1 H1 S16'
_cell_volume   575.67612103
_cell_formula_units_Z   1
loop_
 _symmetry_equiv_pos_site_id
 _symmetry_equiv_pos_as_xyz
  1  'x, y, z'
loop_
 _atom_site_type_symbol
 _atom_site_label
 _atom_site_symmetry_multiplicity
 _atom_site_fract_x
 _atom_site_fract_y
 _atom_site_fract_z
 _atom_site_occupancy
  Ce  Ce0  1  0.186392  0.695705  0.708968  1
  Ce  Ce1  1  0.695705  0.186392  0.708968  1
  Ce  Ce2  1  0.813608  0.304295  0.291032  1
  Ce  Ce3  1  0.304295  0.813608  0.291032  1
  Ce  Ce4  1  0.205799  0.205799  0.548895  1
  Ce  Ce5  1  0.794201  0.794201  0.451105  1
  Ce  Ce6  1  0.682922  0.682922  0.974524  1
  Ce  Ce7  1  0.317078  0.317078  0.025476  1
  Co  Co8  1  0.000000  0.000000  0.000000  1
  H  H9  1  0.000000  0.000000  0.500000  1
  S  S10  1  0.828570  0.418625  0.530092  1
  S  S11  1  0.418625  0.828570  0.530092  1
  S  S12  1  0.171430  0.581375  0.469908  1
  S  S13  1  0.581375  0.171430  0.469908  1
  S  S14  1  0.054049  0.686216  0.976730  1
  S  S15  1  0.686216  0.054049  0.976730  1
  S  S16  1  0.945951  0.313784  0.023270  1
  S  S17  1  0.313784  0.945951  0.023270  1
  S  S18  1  0.054255  0.054255  0.776293  1
  S  S19  1  0.945745  0.945745  0.223707  1
  S  S20  1  0.202803  0.202803  0.285137  1
  S  S21  1  0.797197  0.797197  0.714863  1
  S  S22  1  0.301354  0.301354  0.760382  1
  S  S23  1  0.698646  0.698646  0.239618  1
  S  S24  1  0.520989  0.520989  0.831611  1
  S  S25  1  0.479011  0.479011  0.168389  1
