# generated using pymatgen
data_Sm2P7(Ru5Rh)2
_symmetry_space_group_name_H-M   'P 1'
_cell_length_a   9.44662598
_cell_length_b   9.50449564
_cell_length_c   3.95631200
_cell_angle_alpha   90.00000000
_cell_angle_beta   90.00000000
_cell_angle_gamma   120.14142863
_symmetry_Int_Tables_number   1
_chemical_formula_structural   Sm2P7(Ru5Rh)2
_chemical_formula_sum   'Sm2 P7 Ru10 Rh2'
_cell_volume   307.18943150
_cell_formula_units_Z   1
loop_
 _symmetry_equiv_pos_site_id
 _symmetry_equiv_pos_as_xyz
  1  'x, y, z'
loop_
 _atom_site_type_symbol
 _atom_site_label
 _atom_site_symmetry_multiplicity
 _atom_site_fract_x
 _atom_site_fract_y
 _atom_site_fract_z
 _atom_site_occupancy
  Sm  Sm0  1  0.667655  0.332782  0.500000  1
  Sm  Sm1  1  0.330553  0.665460  0.000000  1
  P  P2  1  0.602832  0.713940  0.500000  1
  P  P3  1  0.000072  0.002024  0.000000  1
  P  P4  1  0.280814  0.884133  0.500000  1
  P  P5  1  0.110402  0.400347  0.500000  1
  P  P6  1  0.887130  0.578887  0.000000  1
  P  P7  1  0.421462  0.302188  0.000000  1
  P  P8  1  0.697563  0.116488  0.000000  1
  Ru  Ru9  1  0.913462  0.125253  0.500000  1
  Ru  Ru10  1  0.214368  0.088689  0.500000  1
  Ru  Ru11  1  0.876317  0.791512  0.500000  1
  Ru  Ru12  1  0.726934  0.890015  0.000000  1
  Ru  Ru13  1  0.108962  0.840407  0.000000  1
  Ru  Ru14  1  0.164136  0.272327  0.000000  1
  Ru  Ru15  1  0.429220  0.063024  0.000000  1
  Ru  Ru16  1  0.936808  0.362463  0.000000  1
  Ru  Ru17  1  0.637085  0.571561  0.000000  1
  Ru  Ru18  1  0.049846  0.611240  0.500000  1
  Rh  Rh19  1  0.554576  0.944211  0.500000  1
  Rh  Rh20  1  0.389806  0.443047  0.500000  1
