# generated using pymatgen
data_La2Ho3Ge4
_symmetry_space_group_name_H-M   'P 1'
_cell_length_a   7.94765100
_cell_length_b   7.94765100
_cell_length_c   14.59378000
_cell_angle_alpha   90.00000000
_cell_angle_beta   90.00000000
_cell_angle_gamma   90.00000000
_symmetry_Int_Tables_number   1
_chemical_formula_structural   La2Ho3Ge4
_chemical_formula_sum   'La8 Ho12 Ge16'
_cell_volume   921.81839643
_cell_formula_units_Z   4
loop_
 _symmetry_equiv_pos_site_id
 _symmetry_equiv_pos_as_xyz
  1  'x, y, z'
loop_
 _atom_site_type_symbol
 _atom_site_label
 _atom_site_symmetry_multiplicity
 _atom_site_fract_x
 _atom_site_fract_y
 _atom_site_fract_z
 _atom_site_occupancy
  La  La0  1  0.993272  0.644349  0.039298  1
  La  La1  1  0.006728  0.355651  0.539298  1
  La  La2  1  0.644349  0.993272  0.960702  1
  La  La3  1  0.144349  0.506728  0.789298  1
  La  La4  1  0.855651  0.493272  0.289298  1
  La  La5  1  0.506728  0.144349  0.210702  1
  La  La6  1  0.493272  0.855651  0.710702  1
  La  La7  1  0.355651  0.006728  0.460702  1
  Ho  Ho8  1  0.353252  0.493217  0.375719  1
  Ho  Ho9  1  0.853252  0.006783  0.374281  1
  Ho  Ho10  1  0.993217  0.146748  0.125719  1
  Ho  Ho11  1  0.006783  0.853252  0.625719  1
  Ho  Ho12  1  0.646748  0.506783  0.875719  1
  Ho  Ho13  1  0.493217  0.353252  0.624281  1
  Ho  Ho14  1  0.506783  0.646748  0.124281  1
  Ho  Ho15  1  0.146748  0.993217  0.874281  1
  Ho  Ho16  1  0.680403  0.680403  0.500000  1
  Ho  Ho17  1  0.819597  0.180403  0.750000  1
  Ho  Ho18  1  0.180403  0.819597  0.250000  1
  Ho  Ho19  1  0.319597  0.319597  0.000000  1
  Ge  Ge20  1  0.053013  0.711321  0.433646  1
  Ge  Ge21  1  0.946987  0.288679  0.933646  1
  Ge  Ge22  1  0.711321  0.053013  0.566354  1
  Ge  Ge23  1  0.211322  0.446987  0.183646  1
  Ge  Ge24  1  0.788679  0.553013  0.683646  1
  Ge  Ge25  1  0.446987  0.211322  0.816354  1
  Ge  Ge26  1  0.553013  0.788679  0.316354  1
  Ge  Ge27  1  0.288679  0.946987  0.066354  1
  Ge  Ge28  1  0.853007  0.802113  0.815519  1
  Ge  Ge29  1  0.146993  0.197887  0.315519  1
  Ge  Ge30  1  0.802113  0.853007  0.184481  1
  Ge  Ge31  1  0.302113  0.646993  0.565519  1
  Ge  Ge32  1  0.697887  0.353007  0.065519  1
  Ge  Ge33  1  0.646993  0.302113  0.434481  1
  Ge  Ge34  1  0.353007  0.697887  0.934481  1
  Ge  Ge35  1  0.197887  0.146993  0.684481  1
