# generated using pymatgen
data_Sc4Tc4B8IrRu5
_symmetry_space_group_name_H-M   'P 1'
_cell_length_a   3.03931500
_cell_length_b   8.58003044
_cell_length_c   10.00893831
_cell_angle_alpha   90.15356667
_cell_angle_beta   90.00000000
_cell_angle_gamma   90.00000000
_symmetry_Int_Tables_number   1
_chemical_formula_structural   Sc4Tc4B8IrRu5
_chemical_formula_sum   'Sc4 Tc4 B8 Ir1 Ru5'
_cell_volume   261.00630248
_cell_formula_units_Z   1
loop_
 _symmetry_equiv_pos_site_id
 _symmetry_equiv_pos_as_xyz
  1  'x, y, z'
loop_
 _atom_site_type_symbol
 _atom_site_label
 _atom_site_symmetry_multiplicity
 _atom_site_fract_x
 _atom_site_fract_y
 _atom_site_fract_z
 _atom_site_occupancy
  Sc  Sc0  1  0.500000  0.840844  0.181988  1
  Sc  Sc1  1  0.500000  0.153477  0.820407  1
  Sc  Sc2  1  0.500000  0.663816  0.678957  1
  Sc  Sc3  1  0.500000  0.341174  0.317354  1
  Tc  Tc4  1  0.000000  0.659858  0.952061  1
  Tc  Tc5  1  0.000000  0.339365  0.045937  1
  Tc  Tc6  1  0.000000  0.840257  0.453142  1
  Tc  Tc7  1  0.000000  0.160654  0.548653  1
  B  B8  1  0.500000  0.965045  0.587500  1
  B  B9  1  0.500000  0.034756  0.412376  1
  B  B10  1  0.500000  0.848573  0.900975  1
  B  B11  1  0.500000  0.150721  0.099538  1
  B  B12  1  0.500000  0.651970  0.400118  1
  B  B13  1  0.500000  0.348508  0.594923  1
  B  B14  1  0.500000  0.465982  0.914650  1
  B  B15  1  0.500000  0.534767  0.088503  1
  Ir  Ir16  1  0.000000  0.405188  0.761114  1
  Ru  Ru17  1  0.000000  0.999226  0.000532  1
  Ru  Ru18  1  0.000000  0.594750  0.239852  1
  Ru  Ru19  1  0.000000  0.500602  0.500937  1
  Ru  Ru20  1  0.000000  0.904810  0.739308  1
  Ru  Ru21  1  0.000000  0.095658  0.261173  1
