# generated using pymatgen
data_Cs12Zn3FeBr20
_symmetry_space_group_name_H-M   'P 1'
_cell_length_a   9.63672666
_cell_length_b   11.09159000
_cell_length_c   14.32806500
_cell_angle_alpha   90.00009298
_cell_angle_beta   90.04253457
_cell_angle_gamma   89.99999993
_symmetry_Int_Tables_number   1
_chemical_formula_structural   Cs12Zn3FeBr20
_chemical_formula_sum   'Cs12 Zn3 Fe1 Br20'
_cell_volume   1531.47803137
_cell_formula_units_Z   1
loop_
 _symmetry_equiv_pos_site_id
 _symmetry_equiv_pos_as_xyz
  1  'x, y, z'
loop_
 _atom_site_type_symbol
 _atom_site_label
 _atom_site_symmetry_multiplicity
 _atom_site_fract_x
 _atom_site_fract_y
 _atom_site_fract_z
 _atom_site_occupancy
  Cs  Cs0  1  0.090161  0.750000  0.046076  1
  Cs  Cs1  1  0.587499  0.519307  0.172462  1
  Cs  Cs2  1  0.587500  0.980695  0.172463  1
  Cs  Cs3  1  0.087435  0.519052  0.327188  1
  Cs  Cs4  1  0.087435  0.980947  0.327188  1
  Cs  Cs5  1  0.590092  0.750000  0.453909  1
  Cs  Cs6  1  0.410041  0.250000  0.546044  1
  Cs  Cs7  1  0.912583  0.018947  0.672678  1
  Cs  Cs8  1  0.912582  0.481055  0.672678  1
  Cs  Cs9  1  0.412458  0.019056  0.827595  1
  Cs  Cs10  1  0.412458  0.480944  0.827595  1
  Cs  Cs11  1  0.909951  0.249999  0.954063  1
  Zn  Zn12  1  0.811317  0.250000  0.394158  1
  Zn  Zn13  1  0.188673  0.750000  0.605947  1
  Zn  Zn14  1  0.688740  0.750000  0.894098  1
  Fe  Fe15  1  0.311286  0.250000  0.105906  1
  Br  Br16  1  0.528287  0.249999  0.015880  1
  Br  Br17  1  0.189949  0.064812  0.063551  1
  Br  Br18  1  0.189948  0.435189  0.063551  1
  Br  Br19  1  0.860545  0.250001  0.227417  1
  Br  Br20  1  0.839075  0.750000  0.238398  1
  Br  Br21  1  0.339050  0.749999  0.261607  1
  Br  Br22  1  0.361813  0.250001  0.272291  1
  Br  Br23  1  0.690379  0.065136  0.436180  1
  Br  Br24  1  0.690378  0.434864  0.436180  1
  Br  Br25  1  0.028141  0.250000  0.484527  1
  Br  Br26  1  0.971951  0.750000  0.515283  1
  Br  Br27  1  0.309582  0.565054  0.563694  1
  Br  Br28  1  0.309582  0.934946  0.563694  1
  Br  Br29  1  0.639006  0.750000  0.727561  1
  Br  Br30  1  0.660740  0.250001  0.738543  1
  Br  Br31  1  0.160915  0.249999  0.761655  1
  Br  Br32  1  0.139300  0.749999  0.772457  1
  Br  Br33  1  0.809566  0.565043  0.936392  1
  Br  Br34  1  0.809565  0.934956  0.936393  1
  Br  Br35  1  0.472001  0.749999  0.984692  1
