# generated using pymatgen
data_Sr2Ca4ThNi4Sn13
_symmetry_space_group_name_H-M   'P 1'
_cell_length_a   11.32999200
_cell_length_b   11.32999200
_cell_length_c   4.66750900
_cell_angle_alpha   90.00000000
_cell_angle_beta   90.00000000
_cell_angle_gamma   90.00000000
_symmetry_Int_Tables_number   1
_chemical_formula_structural   Sr2Ca4ThNi4Sn13
_chemical_formula_sum   'Sr2 Ca4 Th1 Ni4 Sn13'
_cell_volume   599.16214994
_cell_formula_units_Z   1
loop_
 _symmetry_equiv_pos_site_id
 _symmetry_equiv_pos_as_xyz
  1  'x, y, z'
loop_
 _atom_site_type_symbol
 _atom_site_label
 _atom_site_symmetry_multiplicity
 _atom_site_fract_x
 _atom_site_fract_y
 _atom_site_fract_z
 _atom_site_occupancy
  Sr  Sr0  1  0.000000  0.500000  0.000000  1
  Sr  Sr1  1  0.500000  0.000000  0.000000  1
  Ca  Ca2  1  0.838540  0.169869  0.000000  1
  Ca  Ca3  1  0.830131  0.838540  0.000000  1
  Ca  Ca4  1  0.161460  0.830131  0.000000  1
  Ca  Ca5  1  0.169869  0.161460  0.000000  1
  Th  Th6  1  0.500000  0.500000  0.500000  1
  Ni  Ni7  1  0.772867  0.617258  0.500000  1
  Ni  Ni8  1  0.382742  0.772867  0.500000  1
  Ni  Ni9  1  0.617258  0.227133  0.500000  1
  Ni  Ni10  1  0.227133  0.382742  0.500000  1
  Sn  Sn11  1  0.019680  0.280705  0.500000  1
  Sn  Sn12  1  0.980320  0.719295  0.500000  1
  Sn  Sn13  1  0.215050  0.613167  0.500000  1
  Sn  Sn14  1  0.577894  0.306641  0.000000  1
  Sn  Sn15  1  0.693359  0.577894  0.000000  1
  Sn  Sn16  1  0.784950  0.386833  0.500000  1
  Sn  Sn17  1  0.719295  0.019680  0.500000  1
  Sn  Sn18  1  0.000000  0.000000  0.500000  1
  Sn  Sn19  1  0.280705  0.980320  0.500000  1
  Sn  Sn20  1  0.422106  0.693359  0.000000  1
  Sn  Sn21  1  0.613167  0.784950  0.500000  1
  Sn  Sn22  1  0.306641  0.422106  0.000000  1
  Sn  Sn23  1  0.386833  0.215050  0.500000  1
