# generated using pymatgen
data_K4CeZrI12
_symmetry_space_group_name_H-M   'P 1'
_cell_length_a   8.77860476
_cell_length_b   8.19298031
_cell_length_c   14.10152106
_cell_angle_alpha   54.88836895
_cell_angle_beta   90.13613703
_cell_angle_gamma   90.48404878
_symmetry_Int_Tables_number   1
_chemical_formula_structural   K4CeZrI12
_chemical_formula_sum   'K4 Ce1 Zr1 I12'
_cell_volume   829.63426025
_cell_formula_units_Z   1
loop_
 _symmetry_equiv_pos_site_id
 _symmetry_equiv_pos_as_xyz
  1  'x, y, z'
loop_
 _atom_site_type_symbol
 _atom_site_label
 _atom_site_symmetry_multiplicity
 _atom_site_fract_x
 _atom_site_fract_y
 _atom_site_fract_z
 _atom_site_occupancy
  K  K0  1  0.589155  0.729476  0.246154  1
  K  K1  1  0.088210  0.278662  0.245315  1
  K  K2  1  0.410845  0.270524  0.753846  1
  K  K3  1  0.911790  0.721338  0.754685  1
  Ce  Ce4  1  0.500000  0.000000  0.500000  1
  Zr  Zr5  1  0.000000  0.000000  0.000000  1
  I  I6  1  0.982883  0.855248  0.240223  1
  I  I7  1  0.481711  0.156382  0.246178  1
  I  I8  1  0.017117  0.144752  0.759777  1
  I  I9  1  0.518289  0.843618  0.753822  1
  I  I10  1  0.683810  0.641365  0.554043  1
  I  I11  1  0.178849  0.340091  0.949945  1
  I  I12  1  0.316190  0.358635  0.445957  1
  I  I13  1  0.821151  0.659909  0.050055  1
  I  I14  1  0.719514  0.219668  0.953560  1
  I  I15  1  0.202568  0.770533  0.548639  1
  I  I16  1  0.280486  0.780332  0.046440  1
  I  I17  1  0.797432  0.229467  0.451361  1
