# generated using pymatgen
data_YHo3(Si2Rh)2
_symmetry_space_group_name_H-M   'P 1'
_cell_length_a   5.68597196
_cell_length_b   5.68597253
_cell_length_c   10.05160000
_cell_angle_alpha   63.61078253
_cell_angle_beta   63.61077872
_cell_angle_gamma   43.30122318
_symmetry_Int_Tables_number   1
_chemical_formula_structural   YHo3(Si2Rh)2
_chemical_formula_sum   'Y1 Ho3 Si4 Rh2'
_cell_volume   195.74078304
_cell_formula_units_Z   1
loop_
 _symmetry_equiv_pos_site_id
 _symmetry_equiv_pos_as_xyz
  1  'x, y, z'
loop_
 _atom_site_type_symbol
 _atom_site_label
 _atom_site_symmetry_multiplicity
 _atom_site_fract_x
 _atom_site_fract_y
 _atom_site_fract_z
 _atom_site_occupancy
  Y  Y0  1  0.814571  0.814571  0.108912  1
  Ho  Ho1  1  0.001355  0.001355  0.325626  1
  Ho  Ho2  1  0.185161  0.185161  0.890076  1
  Ho  Ho3  1  0.998316  0.998316  0.674733  1
  Si  Si4  1  0.360957  0.360957  0.565486  1
  Si  Si5  1  0.489098  0.489098  0.878672  1
  Si  Si6  1  0.638785  0.638785  0.435142  1
  Si  Si7  1  0.511883  0.511883  0.120542  1
  Rh  Rh8  1  0.725572  0.725572  0.627898  1
  Rh  Rh9  1  0.274302  0.274302  0.372913  1
