# generated using pymatgen
data_Er3ZrAl17GaRh6
_symmetry_space_group_name_H-M   'P 1'
_cell_length_a   7.51689088
_cell_length_b   7.50587586
_cell_length_c   9.39626900
_cell_angle_alpha   90.00000000
_cell_angle_beta   90.00000000
_cell_angle_gamma   119.41153643
_symmetry_Int_Tables_number   1
_chemical_formula_structural   Er3ZrAl17GaRh6
_chemical_formula_sum   'Er3 Zr1 Al17 Ga1 Rh6'
_cell_volume   461.81765511
_cell_formula_units_Z   1
loop_
 _symmetry_equiv_pos_site_id
 _symmetry_equiv_pos_as_xyz
  1  'x, y, z'
loop_
 _atom_site_type_symbol
 _atom_site_label
 _atom_site_symmetry_multiplicity
 _atom_site_fract_x
 _atom_site_fract_y
 _atom_site_fract_z
 _atom_site_occupancy
  Er  Er0  1  0.006654  0.324622  0.250000  1
  Er  Er1  1  0.672311  0.995852  0.750000  1
  Er  Er2  1  0.325857  0.007060  0.250000  1
  Zr  Zr3  1  0.996216  0.671831  0.750000  1
  Al  Al4  1  0.125012  0.122655  0.750000  1
  Al  Al5  1  0.000065  0.338529  0.579631  1
  Al  Al6  1  0.999577  0.664266  0.427549  1
  Al  Al7  1  0.999577  0.664266  0.072451  1
  Al  Al8  1  0.332875  0.997808  0.920280  1
  Al  Al9  1  0.000065  0.338529  0.920369  1
  Al  Al10  1  0.663648  0.998382  0.075870  1
  Al  Al11  1  0.663648  0.998382  0.424130  1
  Al  Al12  1  0.332875  0.997808  0.579720  1
  Al  Al13  1  0.333968  0.334055  0.048005  1
  Al  Al14  1  0.669854  0.667874  0.942890  1
  Al  Al15  1  0.669854  0.667874  0.557110  1
  Al  Al16  1  0.333968  0.334055  0.451995  1
  Al  Al17  1  0.336455  0.552068  0.750000  1
  Al  Al18  1  0.661042  0.449453  0.250000  1
  Al  Al19  1  0.557098  0.344203  0.750000  1
  Al  Al20  1  0.447672  0.659097  0.250000  1
  Ga  Ga21  1  0.868818  0.867408  0.250000  1
  Rh  Rh22  1  0.673235  0.328740  0.500644  1
  Rh  Rh23  1  0.328272  0.673173  0.501258  1
  Rh  Rh24  1  0.328272  0.673173  0.998742  1
  Rh  Rh25  1  0.673235  0.328740  0.999356  1
  Rh  Rh26  1  0.999939  0.000048  0.502887  1
  Rh  Rh27  1  0.999939  0.000048  0.997113  1
