# generated using pymatgen
data_DyTa(SnRu2)2
_symmetry_space_group_name_H-M   'P 1'
_cell_length_a   4.59196500
_cell_length_b   6.50032700
_cell_length_c   13.80527200
_cell_angle_alpha   90.00000000
_cell_angle_beta   89.99982135
_cell_angle_gamma   90.00000000
_symmetry_Int_Tables_number   1
_chemical_formula_structural   DyTa(SnRu2)2
_chemical_formula_sum   'Dy3 Ta3 Sn6 Ru12'
_cell_volume   412.07734757
_cell_formula_units_Z   3
loop_
 _symmetry_equiv_pos_site_id
 _symmetry_equiv_pos_as_xyz
  1  'x, y, z'
loop_
 _atom_site_type_symbol
 _atom_site_label
 _atom_site_symmetry_multiplicity
 _atom_site_fract_x
 _atom_site_fract_y
 _atom_site_fract_z
 _atom_site_occupancy
  Dy  Dy0  1  0.000002  0.000000  0.997494  1
  Dy  Dy1  1  0.500001  0.500001  0.166676  1
  Dy  Dy2  1  0.999993  0.000000  0.335833  1
  Ta  Ta3  1  0.499985  0.500001  0.500750  1
  Ta  Ta4  1  0.999987  0.000000  0.666668  1
  Ta  Ta5  1  0.499993  0.500001  0.832588  1
  Sn  Sn6  1  0.000004  0.500001  0.999957  1
  Sn  Sn7  1  0.499991  0.000000  0.166670  1
  Sn  Sn8  1  0.999994  0.500001  0.333379  1
  Sn  Sn9  1  0.499997  0.000000  0.502880  1
  Sn  Sn10  1  0.000001  0.500001  0.666663  1
  Sn  Sn11  1  0.500017  0.000000  0.830443  1
  Ru  Ru12  1  0.500007  0.261229  0.987137  1
  Ru  Ru13  1  0.500007  0.738771  0.987137  1
  Ru  Ru14  1  0.000005  0.247793  0.166668  1
  Ru  Ru15  1  0.000005  0.752208  0.166668  1
  Ru  Ru16  1  0.499995  0.261227  0.346199  1
  Ru  Ru17  1  0.499995  0.738773  0.346199  1
  Ru  Ru18  1  0.999994  0.258087  0.509990  1
  Ru  Ru19  1  0.999994  0.741914  0.509990  1
  Ru  Ru20  1  0.500001  0.246936  0.666663  1
  Ru  Ru21  1  0.500001  0.753064  0.666663  1
  Ru  Ru22  1  0.000016  0.258087  0.823343  1
  Ru  Ru23  1  0.000016  0.741914  0.823343  1
