# generated using pymatgen
data_DyHo2MoO7
_symmetry_space_group_name_H-M   'P 1'
_cell_length_a   6.43444346
_cell_length_b   6.43444546
_cell_length_c   7.47456700
_cell_angle_alpha   90.00000000
_cell_angle_beta   90.00000000
_cell_angle_gamma   109.16940227
_symmetry_Int_Tables_number   1
_chemical_formula_structural   DyHo2MoO7
_chemical_formula_sum   'Dy2 Ho4 Mo2 O14'
_cell_volume   292.30346262
_cell_formula_units_Z   2
loop_
 _symmetry_equiv_pos_site_id
 _symmetry_equiv_pos_as_xyz
  1  'x, y, z'
loop_
 _atom_site_type_symbol
 _atom_site_label
 _atom_site_symmetry_multiplicity
 _atom_site_fract_x
 _atom_site_fract_y
 _atom_site_fract_z
 _atom_site_occupancy
  Dy  Dy0  1  0.517109  0.517109  0.500000  1
  Dy  Dy1  1  0.482891  0.482891  0.000000  1
  Ho  Ho2  1  0.999147  0.464840  0.747267  1
  Ho  Ho3  1  0.000853  0.535160  0.247267  1
  Ho  Ho4  1  0.535160  0.000853  0.752733  1
  Ho  Ho5  1  0.464840  0.999147  0.252733  1
  Mo  Mo6  1  0.001012  0.001012  0.500000  1
  Mo  Mo7  1  0.998988  0.998988  0.000000  1
  O  O8  1  0.637388  0.362612  0.750000  1
  O  O9  1  0.362612  0.637388  0.250000  1
  O  O10  1  0.925633  0.074367  0.750000  1
  O  O11  1  0.074367  0.925633  0.250000  1
  O  O12  1  0.919146  0.673340  0.528082  1
  O  O13  1  0.080854  0.326660  0.028082  1
  O  O14  1  0.326660  0.080854  0.971918  1
  O  O15  1  0.673340  0.919146  0.471918  1
  O  O16  1  0.368704  0.631296  0.750000  1
  O  O17  1  0.631296  0.368704  0.250000  1
  O  O18  1  0.933220  0.681724  0.966563  1
  O  O19  1  0.066780  0.318276  0.466563  1
  O  O20  1  0.318276  0.066780  0.533437  1
  O  O21  1  0.681724  0.933220  0.033437  1
