# generated using pymatgen
data_Th12(OsC3)5
_symmetry_space_group_name_H-M   'P 1'
_cell_length_a   5.30283900
_cell_length_b   10.97512147
_cell_length_c   10.97511700
_cell_angle_alpha   119.99998955
_cell_angle_beta   90.00000000
_cell_angle_gamma   90.00000000
_symmetry_Int_Tables_number   1
_chemical_formula_structural   Th12(OsC3)5
_chemical_formula_sum   'Th12 Os5 C15'
_cell_volume   553.16871893
_cell_formula_units_Z   1
loop_
 _symmetry_equiv_pos_site_id
 _symmetry_equiv_pos_as_xyz
  1  'x, y, z'
loop_
 _atom_site_type_symbol
 _atom_site_label
 _atom_site_symmetry_multiplicity
 _atom_site_fract_x
 _atom_site_fract_y
 _atom_site_fract_z
 _atom_site_occupancy
  Th  Th0  1  0.500000  0.210610  0.210610  1
  Th  Th1  1  0.500000  0.000000  0.789391  1
  Th  Th2  1  0.500000  0.789390  0.000000  1
  Th  Th3  1  0.000000  0.727692  0.188472  1
  Th  Th4  1  0.000000  0.460779  0.272307  1
  Th  Th5  1  0.000000  0.539221  0.811528  1
  Th  Th6  1  0.000000  0.811529  0.539221  1
  Th  Th7  1  0.000000  0.188471  0.727692  1
  Th  Th8  1  0.000000  0.272308  0.460779  1
  Th  Th9  1  0.500000  0.564320  0.564319  1
  Th  Th10  1  0.500000  0.000000  0.435680  1
  Th  Th11  1  0.500000  0.435680  0.000000  1
  Os  Os12  1  0.000000  0.850255  0.850255  1
  Os  Os13  1  0.000000  0.000000  0.149746  1
  Os  Os14  1  0.000000  0.149745  0.000000  1
  Os  Os15  1  0.500000  0.666667  0.333333  1
  Os  Os16  1  0.500000  0.333333  0.666667  1
  C  C17  1  0.000000  0.676453  0.676453  1
  C  C18  1  0.000000  0.000000  0.323548  1
  C  C19  1  0.000000  0.323547  0.000000  1
  C  C20  1  0.000000  0.217091  0.217091  1
  C  C21  1  0.000000  0.000000  0.782910  1
  C  C22  1  0.000000  0.782909  0.000000  1
  C  C23  1  0.000000  0.551526  0.551524  1
  C  C24  1  0.000000  0.000000  0.448476  1
  C  C25  1  0.000000  0.448474  0.999998  1
  C  C26  1  0.500000  0.722918  0.184945  1
  C  C27  1  0.500000  0.462026  0.277081  1
  C  C28  1  0.500000  0.537974  0.815055  1
  C  C29  1  0.500000  0.815054  0.537973  1
  C  C30  1  0.500000  0.184946  0.722919  1
  C  C31  1  0.500000  0.277082  0.462027  1
