# generated using pymatgen
data_La3Sm5GaPd24
_symmetry_space_group_name_H-M   'P 1'
_cell_length_a   8.49761276
_cell_length_b   8.49761276
_cell_length_c   8.48998803
_cell_angle_alpha   90.00669698
_cell_angle_beta   90.00669698
_cell_angle_gamma   90.04800693
_symmetry_Int_Tables_number   1
_chemical_formula_structural   La3Sm5GaPd24
_chemical_formula_sum   'La3 Sm5 Ga1 Pd24'
_cell_volume   613.05691007
_cell_formula_units_Z   1
loop_
 _symmetry_equiv_pos_site_id
 _symmetry_equiv_pos_as_xyz
  1  'x, y, z'
loop_
 _atom_site_type_symbol
 _atom_site_label
 _atom_site_symmetry_multiplicity
 _atom_site_fract_x
 _atom_site_fract_y
 _atom_site_fract_z
 _atom_site_occupancy
  La  La0  1  0.252562  0.252562  0.252871  1
  La  La1  1  0.747080  0.747080  0.747227  1
  La  La2  1  0.747928  0.747928  0.252263  1
  Sm  Sm3  1  0.748601  0.251436  0.748656  1
  Sm  Sm4  1  0.251882  0.251882  0.747978  1
  Sm  Sm5  1  0.251425  0.748435  0.251543  1
  Sm  Sm6  1  0.251436  0.748601  0.748656  1
  Sm  Sm7  1  0.748435  0.251425  0.251543  1
  Ga  Ga8  1  0.000216  0.000216  0.999679  1
  Pd  Pd9  1  0.261580  0.501193  0.998088  1
  Pd  Pd10  1  0.738614  0.497221  0.000012  1
  Pd  Pd11  1  0.998305  0.261604  0.501633  1
  Pd  Pd12  1  0.501193  0.261580  0.998088  1
  Pd  Pd13  1  0.003537  0.738564  0.500148  1
  Pd  Pd14  1  0.497221  0.738614  0.000012  1
  Pd  Pd15  1  0.499960  0.999919  0.261452  1
  Pd  Pd16  1  0.261604  0.998305  0.501633  1
  Pd  Pd17  1  0.498486  0.001857  0.738414  1
  Pd  Pd18  1  0.738564  0.003537  0.500148  1
  Pd  Pd19  1  0.999919  0.499960  0.261452  1
  Pd  Pd20  1  0.001857  0.498486  0.738414  1
  Pd  Pd21  1  0.253812  0.501892  0.501976  1
  Pd  Pd22  1  0.746155  0.496295  0.499904  1
  Pd  Pd23  1  0.501892  0.253812  0.501976  1
  Pd  Pd24  1  0.496295  0.746155  0.499904  1
  Pd  Pd25  1  0.500144  0.500144  0.253962  1
  Pd  Pd26  1  0.498079  0.498079  0.745983  1
  Pd  Pd27  1  0.294007  0.998349  0.998114  1
  Pd  Pd28  1  0.705625  0.003481  0.999890  1
  Pd  Pd29  1  0.998349  0.294007  0.998114  1
  Pd  Pd30  1  0.003481  0.705625  0.999890  1
  Pd  Pd31  1  0.999989  0.999989  0.294573  1
  Pd  Pd32  1  0.001766  0.001766  0.705805  1
