# generated using pymatgen
data_Sm2Ho4FeCl10
_symmetry_space_group_name_H-M   'P 1'
_cell_length_a   7.15205300
_cell_length_b   8.95769456
_cell_length_c   8.80770600
_cell_angle_alpha   108.37458428
_cell_angle_beta   95.11066725
_cell_angle_gamma   107.46930849
_symmetry_Int_Tables_number   1
_chemical_formula_structural   Sm2Ho4FeCl10
_chemical_formula_sum   'Sm2 Ho4 Fe1 Cl10'
_cell_volume   500.17692587
_cell_formula_units_Z   1
loop_
 _symmetry_equiv_pos_site_id
 _symmetry_equiv_pos_as_xyz
  1  'x, y, z'
loop_
 _atom_site_type_symbol
 _atom_site_label
 _atom_site_symmetry_multiplicity
 _atom_site_fract_x
 _atom_site_fract_y
 _atom_site_fract_z
 _atom_site_occupancy
  Sm  Sm0  1  0.626185  0.049736  0.768896  1
  Sm  Sm1  1  0.373815  0.950264  0.231104  1
  Ho  Ho2  1  0.868628  0.143500  0.187805  1
  Ho  Ho3  1  0.131372  0.856500  0.812195  1
  Ho  Ho4  1  0.522962  0.691599  0.896846  1
  Ho  Ho5  1  0.477038  0.308401  0.103154  1
  Fe  Fe6  1  0.500000  0.000000  0.000000  1
  Cl  Cl7  1  0.747603  0.082797  0.447158  1
  Cl  Cl8  1  0.252397  0.917203  0.552842  1
  Cl  Cl9  1  0.951158  0.828489  0.075462  1
  Cl  Cl10  1  0.048842  0.171511  0.924538  1
  Cl  Cl11  1  0.287462  0.255582  0.342020  1
  Cl  Cl12  1  0.712538  0.744418  0.657980  1
  Cl  Cl13  1  0.589317  0.373687  0.840613  1
  Cl  Cl14  1  0.410683  0.626313  0.159387  1
  Cl  Cl15  1  0.851095  0.451039  0.274877  1
  Cl  Cl16  1  0.148905  0.548961  0.725123  1
