# generated using pymatgen
data_CeS23
_symmetry_space_group_name_H-M   'P 1'
_cell_length_a   5.59544714
_cell_length_b   9.59366147
_cell_length_c   16.29899500
_cell_angle_alpha   82.42591977
_cell_angle_beta   85.98404499
_cell_angle_gamma   91.36398319
_symmetry_Int_Tables_number   1
_chemical_formula_structural   CeS23
_chemical_formula_sum   'Ce1 S23'
_cell_volume   864.69732289
_cell_formula_units_Z   1
loop_
 _symmetry_equiv_pos_site_id
 _symmetry_equiv_pos_as_xyz
  1  'x, y, z'
loop_
 _atom_site_type_symbol
 _atom_site_label
 _atom_site_symmetry_multiplicity
 _atom_site_fract_x
 _atom_site_fract_y
 _atom_site_fract_z
 _atom_site_occupancy
  Ce  Ce0  1  0.591116  0.182707  0.420136  1
  S  S1  1  0.731860  0.918305  0.398038  1
  S  S2  1  0.024452  0.298999  0.096911  1
  S  S3  1  0.774645  0.229126  0.562278  1
  S  S4  1  0.473809  0.889298  0.493801  1
  S  S5  1  0.176567  0.280527  0.979971  1
  S  S6  1  0.821089  0.736573  0.024254  1
  S  S7  1  0.104940  0.189647  0.371062  1
  S  S8  1  0.576507  0.396489  0.293630  1
  S  S9  1  0.863118  0.107791  0.147098  1
  S  S10  1  0.274934  0.869563  0.114959  1
  S  S11  1  0.702279  0.650237  0.635937  1
  S  S12  1  0.306615  0.447194  0.567452  1
  S  S13  1  0.152180  0.902649  0.859819  1
  S  S14  1  0.735243  0.141348  0.884002  1
  S  S15  1  0.070147  0.689009  0.110541  1
  S  S16  1  0.618068  0.856868  0.611623  1
  S  S17  1  0.413486  0.236256  0.586621  1
  S  S18  1  0.974497  0.715120  0.907791  1
  S  S19  1  0.927039  0.324700  0.893340  1
  S  S20  1  0.267847  0.389872  0.368194  1
  S  S21  1  0.117509  0.982175  0.202659  1
  S  S22  1  0.386490  0.531985  0.671563  1
  S  S23  1  0.915564  0.033560  0.798322  1
