# generated using pymatgen
data_Y9ScCd3Ni
_symmetry_space_group_name_H-M   'P 1'
_cell_length_a   9.59507200
_cell_length_b   9.59512880
_cell_length_c   9.71076700
_cell_angle_alpha   90.00000000
_cell_angle_beta   90.00000000
_cell_angle_gamma   119.99975271
_symmetry_Int_Tables_number   1
_chemical_formula_structural   Y9ScCd3Ni
_chemical_formula_sum   'Y18 Sc2 Cd6 Ni2'
_cell_volume   774.25549184
_cell_formula_units_Z   2
loop_
 _symmetry_equiv_pos_site_id
 _symmetry_equiv_pos_as_xyz
  1  'x, y, z'
loop_
 _atom_site_type_symbol
 _atom_site_label
 _atom_site_symmetry_multiplicity
 _atom_site_fract_x
 _atom_site_fract_y
 _atom_site_fract_z
 _atom_site_occupancy
  Y  Y0  1  0.543456  0.456543  0.250000  1
  Y  Y1  1  0.543458  0.086913  0.250000  1
  Y  Y2  1  0.913088  0.456544  0.250000  1
  Y  Y3  1  0.456544  0.543457  0.750000  1
  Y  Y4  1  0.456542  0.913087  0.750000  1
  Y  Y5  1  0.086912  0.543456  0.750000  1
  Y  Y6  1  0.208403  0.791597  0.437729  1
  Y  Y7  1  0.208402  0.416804  0.437728  1
  Y  Y8  1  0.583195  0.791597  0.437730  1
  Y  Y9  1  0.791597  0.208403  0.562271  1
  Y  Y10  1  0.791598  0.583196  0.562272  1
  Y  Y11  1  0.416805  0.208403  0.562270  1
  Y  Y12  1  0.791597  0.208403  0.937729  1
  Y  Y13  1  0.791598  0.583196  0.937728  1
  Y  Y14  1  0.416805  0.208403  0.937730  1
  Y  Y15  1  0.208403  0.791597  0.062271  1
  Y  Y16  1  0.208402  0.416804  0.062272  1
  Y  Y17  1  0.583195  0.791597  0.062270  1
  Sc  Sc18  1  0.000000  0.000000  0.500000  1
  Sc  Sc19  1  0.000000  0.000000  0.000000  1
  Cd  Cd20  1  0.888798  0.111202  0.250000  1
  Cd  Cd21  1  0.888798  0.777595  0.250000  1
  Cd  Cd22  1  0.222406  0.111203  0.250000  1
  Cd  Cd23  1  0.111202  0.888798  0.750000  1
  Cd  Cd24  1  0.111202  0.222405  0.750000  1
  Cd  Cd25  1  0.777594  0.888797  0.750000  1
  Ni  Ni26  1  0.333334  0.666668  0.250000  1
  Ni  Ni27  1  0.666666  0.333332  0.750000  1
