# generated using pymatgen
data_Y4IrRh3O14
_symmetry_space_group_name_H-M   'P 1'
_cell_length_a   7.24672186
_cell_length_b   7.24672227
_cell_length_c   7.24672236
_cell_angle_alpha   60.02931932
_cell_angle_beta   60.02931729
_cell_angle_gamma   60.02932153
_symmetry_Int_Tables_number   1
_chemical_formula_structural   Y4IrRh3O14
_chemical_formula_sum   'Y4 Ir1 Rh3 O14'
_cell_volume   269.27645415
_cell_formula_units_Z   1
loop_
 _symmetry_equiv_pos_site_id
 _symmetry_equiv_pos_as_xyz
  1  'x, y, z'
loop_
 _atom_site_type_symbol
 _atom_site_label
 _atom_site_symmetry_multiplicity
 _atom_site_fract_x
 _atom_site_fract_y
 _atom_site_fract_z
 _atom_site_occupancy
  Y  Y0  1  0.625000  0.125000  0.125000  1
  Y  Y1  1  0.125000  0.625000  0.125000  1
  Y  Y2  1  0.125000  0.125000  0.625000  1
  Y  Y3  1  0.125000  0.125000  0.125000  1
  Ir  Ir4  1  0.625000  0.625000  0.625000  1
  Rh  Rh5  1  0.125000  0.625000  0.625000  1
  Rh  Rh6  1  0.625000  0.125000  0.625000  1
  Rh  Rh7  1  0.625000  0.625000  0.125000  1
  O  O8  1  0.710132  0.710132  0.292284  1
  O  O9  1  0.286956  0.286956  0.711023  1
  O  O10  1  0.710132  0.292284  0.710132  1
  O  O11  1  0.286956  0.711023  0.286956  1
  O  O12  1  0.292284  0.710132  0.710132  1
  O  O13  1  0.711023  0.286956  0.286956  1
  O  O14  1  0.539868  0.539868  0.957716  1
  O  O15  1  0.963044  0.963044  0.538977  1
  O  O16  1  0.539868  0.957716  0.539868  1
  O  O17  1  0.963044  0.538977  0.963044  1
  O  O18  1  0.957716  0.539868  0.539868  1
  O  O19  1  0.538977  0.963044  0.963044  1
  O  O20  1  0.250557  0.250557  0.250557  1
  O  O21  1  0.999443  0.999443  0.999443  1
