# generated using pymatgen
data_Ho5Er12Th3Pb16
_symmetry_space_group_name_H-M   'P 1'
_cell_length_a   8.22400876
_cell_length_b   8.29262200
_cell_length_c   15.58441100
_cell_angle_alpha   89.97555508
_cell_angle_beta   90.21659422
_cell_angle_gamma   90.01413190
_symmetry_Int_Tables_number   1
_chemical_formula_structural   Ho5Er12Th3Pb16
_chemical_formula_sum   'Ho5 Er12 Th3 Pb16'
_cell_volume   1062.82722719
_cell_formula_units_Z   1
loop_
 _symmetry_equiv_pos_site_id
 _symmetry_equiv_pos_as_xyz
  1  'x, y, z'
loop_
 _atom_site_type_symbol
 _atom_site_label
 _atom_site_symmetry_multiplicity
 _atom_site_fract_x
 _atom_site_fract_y
 _atom_site_fract_z
 _atom_site_occupancy
  Ho  Ho0  1  0.967034  0.827558  0.099180  1
  Ho  Ho1  1  0.460936  0.674526  0.102094  1
  Ho  Ho2  1  0.963979  0.825335  0.399149  1
  Ho  Ho3  1  0.537969  0.325788  0.600878  1
  Ho  Ho4  1  0.040249  0.173224  0.898725  1
  Er  Er5  1  0.372634  0.841799  0.878123  1
  Er  Er6  1  0.870322  0.657215  0.622690  1
  Er  Er7  1  0.630212  0.157359  0.376817  1
  Er  Er8  1  0.128141  0.343114  0.122463  1
  Er  Er9  1  0.629508  0.159891  0.122614  1
  Er  Er10  1  0.131974  0.341563  0.376609  1
  Er  Er11  1  0.368644  0.838577  0.622411  1
  Er  Er12  1  0.870185  0.660613  0.878900  1
  Er  Er13  1  0.202333  0.502209  0.750285  1
  Er  Er14  1  0.702969  0.996992  0.750723  1
  Er  Er15  1  0.797665  0.497516  0.249111  1
  Er  Er16  1  0.297283  0.002454  0.248946  1
  Th  Th17  1  0.528251  0.322623  0.903162  1
  Th  Th18  1  0.025801  0.175720  0.596797  1
  Th  Th19  1  0.473149  0.676895  0.402065  1
  Pb  Pb20  1  0.287551  0.037706  0.042468  1
  Pb  Pb21  1  0.792036  0.458839  0.457997  1
  Pb  Pb22  1  0.707538  0.957729  0.541783  1
  Pb  Pb23  1  0.210003  0.539196  0.957561  1
  Pb  Pb24  1  0.719632  0.970040  0.956033  1
  Pb  Pb25  1  0.215813  0.529661  0.544750  1
  Pb  Pb26  1  0.285607  0.031726  0.454931  1
  Pb  Pb27  1  0.783854  0.471569  0.045245  1
  Pb  Pb28  1  0.565040  0.628420  0.751000  1
  Pb  Pb29  1  0.064594  0.870489  0.749593  1
  Pb  Pb30  1  0.435220  0.371767  0.250899  1
  Pb  Pb31  1  0.935845  0.128503  0.249725  1
  Pb  Pb32  1  0.343880  0.150967  0.746302  1
  Pb  Pb33  1  0.843307  0.348445  0.753168  1
  Pb  Pb34  1  0.658407  0.848521  0.246801  1
  Pb  Pb35  1  0.152431  0.655453  0.250005  1
