# generated using pymatgen
data_Cd(OsO3)3
_symmetry_space_group_name_H-M   'P 1'
_cell_length_a   7.39857600
_cell_length_b   5.37849511
_cell_length_c   8.17249845
_cell_angle_alpha   87.38361977
_cell_angle_beta   90.00000000
_cell_angle_gamma   90.00000000
_symmetry_Int_Tables_number   1
_chemical_formula_structural   Cd(OsO3)3
_chemical_formula_sum   'Cd2 Os6 O18'
_cell_volume   324.87089320
_cell_formula_units_Z   2
loop_
 _symmetry_equiv_pos_site_id
 _symmetry_equiv_pos_as_xyz
  1  'x, y, z'
loop_
 _atom_site_type_symbol
 _atom_site_label
 _atom_site_symmetry_multiplicity
 _atom_site_fract_x
 _atom_site_fract_y
 _atom_site_fract_z
 _atom_site_occupancy
  Cd  Cd0  1  0.250000  0.977168  0.429975  1
  Cd  Cd1  1  0.750000  0.022832  0.570025  1
  Os  Os2  1  0.497752  0.529503  0.694016  1
  Os  Os3  1  0.002248  0.529503  0.694016  1
  Os  Os4  1  0.997752  0.470497  0.305984  1
  Os  Os5  1  0.000000  0.000000  0.000000  1
  Os  Os6  1  0.502248  0.470497  0.305984  1
  Os  Os7  1  0.500000  0.000000  0.000000  1
  O  O8  1  0.976282  0.700972  0.124964  1
  O  O9  1  0.023718  0.299028  0.875036  1
  O  O10  1  0.061738  0.165070  0.206788  1
  O  O11  1  0.750000  0.417853  0.306480  1
  O  O12  1  0.028455  0.267524  0.517953  1
  O  O13  1  0.438262  0.165070  0.206788  1
  O  O14  1  0.523718  0.700972  0.124964  1
  O  O15  1  0.528455  0.732476  0.482047  1
  O  O16  1  0.750000  0.060806  0.025066  1
  O  O17  1  0.938262  0.834930  0.793212  1
  O  O18  1  0.750000  0.435467  0.680869  1
  O  O19  1  0.561738  0.834930  0.793212  1
  O  O20  1  0.250000  0.564533  0.319131  1
  O  O21  1  0.476282  0.299028  0.875036  1
  O  O22  1  0.971545  0.732476  0.482047  1
  O  O23  1  0.471545  0.267524  0.517953  1
  O  O24  1  0.250000  0.582147  0.693520  1
  O  O25  1  0.250000  0.939194  0.974934  1
