# generated using pymatgen
data_Sc12Fe2Si12RuPt
_symmetry_space_group_name_H-M   'P 1'
_cell_length_a   4.01127900
_cell_length_b   10.16225521
_cell_length_c   11.65578100
_cell_angle_alpha   90.10167007
_cell_angle_beta   90.00000000
_cell_angle_gamma   90.00000000
_symmetry_Int_Tables_number   1
_chemical_formula_structural   Sc12Fe2Si12RuPt
_chemical_formula_sum   'Sc12 Fe2 Si12 Ru1 Pt1'
_cell_volume   475.13132344
_cell_formula_units_Z   1
loop_
 _symmetry_equiv_pos_site_id
 _symmetry_equiv_pos_as_xyz
  1  'x, y, z'
loop_
 _atom_site_type_symbol
 _atom_site_label
 _atom_site_symmetry_multiplicity
 _atom_site_fract_x
 _atom_site_fract_y
 _atom_site_fract_z
 _atom_site_occupancy
  Sc  Sc0  1  0.250000  0.882467  0.024249  1
  Sc  Sc1  1  0.250000  0.618892  0.522077  1
  Sc  Sc2  1  0.750000  0.125939  0.981144  1
  Sc  Sc3  1  0.750000  0.377057  0.477596  1
  Sc  Sc4  1  0.250000  0.920615  0.603745  1
  Sc  Sc5  1  0.250000  0.580178  0.103710  1
  Sc  Sc6  1  0.750000  0.078215  0.400795  1
  Sc  Sc7  1  0.750000  0.421547  0.899609  1
  Sc  Sc8  1  0.250000  0.652380  0.797661  1
  Sc  Sc9  1  0.250000  0.845388  0.297423  1
  Sc  Sc10  1  0.750000  0.335637  0.200649  1
  Sc  Sc11  1  0.750000  0.165320  0.698466  1
  Fe  Fe12  1  0.250000  0.390281  0.675974  1
  Fe  Fe13  1  0.250000  0.108974  0.174787  1
  Si  Si14  1  0.250000  0.021247  0.824685  1
  Si  Si15  1  0.250000  0.483344  0.321873  1
  Si  Si16  1  0.750000  0.996116  0.179580  1
  Si  Si17  1  0.750000  0.502530  0.679029  1
  Si  Si18  1  0.250000  0.257663  0.837091  1
  Si  Si19  1  0.250000  0.241927  0.337393  1
  Si  Si20  1  0.750000  0.751389  0.158373  1
  Si  Si21  1  0.750000  0.745650  0.655316  1
  Si  Si22  1  0.250000  0.200396  0.545877  1
  Si  Si23  1  0.250000  0.302404  0.046743  1
  Si  Si24  1  0.750000  0.805817  0.454320  1
  Si  Si25  1  0.750000  0.690799  0.956387  1
  Ru  Ru26  1  0.750000  0.609405  0.322434  1
  Pt  Pt27  1  0.750000  0.888422  0.823012  1
