# generated using pymatgen
data_Rb7Cr2O8
_symmetry_space_group_name_H-M   'P 1'
_cell_length_a   10.38710700
_cell_length_b   6.36499709
_cell_length_c   20.50006200
_cell_angle_alpha   87.04644129
_cell_angle_beta   90.00000000
_cell_angle_gamma   90.00000000
_symmetry_Int_Tables_number   1
_chemical_formula_structural   Rb7Cr2O8
_chemical_formula_sum   'Rb28 Cr8 O32'
_cell_volume   1353.53877265
_cell_formula_units_Z   4
loop_
 _symmetry_equiv_pos_site_id
 _symmetry_equiv_pos_as_xyz
  1  'x, y, z'
loop_
 _atom_site_type_symbol
 _atom_site_label
 _atom_site_symmetry_multiplicity
 _atom_site_fract_x
 _atom_site_fract_y
 _atom_site_fract_z
 _atom_site_occupancy
  Rb  Rb0  1  0.544878  0.583970  0.861767  1
  Rb  Rb1  1  0.044878  0.416030  0.638233  1
  Rb  Rb2  1  0.455122  0.416030  0.138233  1
  Rb  Rb3  1  0.955122  0.583970  0.361767  1
  Rb  Rb4  1  0.886220  0.789086  0.530182  1
  Rb  Rb5  1  0.386220  0.210914  0.969818  1
  Rb  Rb6  1  0.113780  0.210914  0.469818  1
  Rb  Rb7  1  0.613780  0.789086  0.030182  1
  Rb  Rb8  1  0.852475  0.887816  0.885101  1
  Rb  Rb9  1  0.352475  0.112184  0.614899  1
  Rb  Rb10  1  0.147525  0.112184  0.114899  1
  Rb  Rb11  1  0.647525  0.887816  0.385101  1
  Rb  Rb12  1  0.835718  0.390984  0.803691  1
  Rb  Rb13  1  0.335718  0.609016  0.696309  1
  Rb  Rb14  1  0.164282  0.609016  0.196309  1
  Rb  Rb15  1  0.664282  0.390984  0.303691  1
  Rb  Rb16  1  0.561843  0.704039  0.549683  1
  Rb  Rb17  1  0.061843  0.295961  0.950317  1
  Rb  Rb18  1  0.438157  0.295961  0.450317  1
  Rb  Rb19  1  0.938157  0.704039  0.049683  1
  Rb  Rb20  1  0.995428  0.892185  0.714625  1
  Rb  Rb21  1  0.495428  0.107815  0.785375  1
  Rb  Rb22  1  0.004572  0.107815  0.285375  1
  Rb  Rb23  1  0.504572  0.892185  0.214625  1
  Rb  Rb24  1  0.712783  0.213228  0.641799  1
  Rb  Rb25  1  0.212783  0.786772  0.858201  1
  Rb  Rb26  1  0.287217  0.786772  0.358201  1
  Rb  Rb27  1  0.787217  0.213228  0.141799  1
  Cr  Cr28  1  0.221863  0.725207  0.524779  1
  Cr  Cr29  1  0.721863  0.274793  0.975221  1
  Cr  Cr30  1  0.778137  0.274793  0.475221  1
  Cr  Cr31  1  0.278137  0.725207  0.024779  1
  Cr  Cr32  1  0.334695  0.287709  0.294544  1
  Cr  Cr33  1  0.165305  0.287709  0.794544  1
  Cr  Cr34  1  0.834695  0.712291  0.205456  1
  Cr  Cr35  1  0.665305  0.712291  0.705456  1
  O  O36  1  0.728934  0.839039  0.774823  1
  O  O37  1  0.228934  0.160961  0.725177  1
  O  O38  1  0.271066  0.160961  0.225177  1
  O  O39  1  0.771066  0.839039  0.274823  1
  O  O40  1  0.791846  0.657532  0.648816  1
  O  O41  1  0.291846  0.342468  0.851184  1
  O  O42  1  0.208154  0.342468  0.351184  1
  O  O43  1  0.708154  0.657532  0.148816  1
  O  O44  1  0.588017  0.466695  0.731956  1
  O  O45  1  0.088017  0.533305  0.768044  1
  O  O46  1  0.411983  0.533305  0.268044  1
  O  O47  1  0.911983  0.466695  0.231956  1
  O  O48  1  0.540505  0.878645  0.669030  1
  O  O49  1  0.040505  0.121355  0.830970  1
  O  O50  1  0.459495  0.121355  0.330970  1
  O  O51  1  0.959495  0.878645  0.169030  1
  O  O52  1  0.794026  0.507738  0.946197  1
  O  O53  1  0.205974  0.492262  0.053803  1
  O  O54  1  0.705974  0.507738  0.446197  1
  O  O55  1  0.341455  0.889743  0.492911  1
  O  O56  1  0.888973  0.302577  0.536527  1
  O  O57  1  0.388973  0.697423  0.963473  1
  O  O58  1  0.111027  0.697423  0.463473  1
  O  O59  1  0.611027  0.302577  0.036527  1
  O  O60  1  0.140947  0.828928  0.589580  1
  O  O61  1  0.640947  0.171072  0.910420  1
  O  O62  1  0.859053  0.171072  0.410420  1
  O  O63  1  0.359053  0.828928  0.089580  1
  O  O64  1  0.158545  0.889743  0.992911  1
  O  O65  1  0.658545  0.110257  0.507089  1
  O  O66  1  0.841455  0.110257  0.007089  1
  O  O67  1  0.294026  0.492262  0.553803  1
