# generated using pymatgen
data_Nd4Lu9Th3(CdIr)4
_symmetry_space_group_name_H-M   'P 1'
_cell_length_a   9.67484716
_cell_length_b   9.67950235
_cell_length_c   9.67950205
_cell_angle_alpha   60.01115829
_cell_angle_beta   59.99047053
_cell_angle_gamma   59.99047413
_symmetry_Int_Tables_number   1
_chemical_formula_structural   Nd4Lu9Th3(CdIr)4
_chemical_formula_sum   'Nd4 Lu9 Th3 Cd4 Ir4'
_cell_volume   640.92793692
_cell_formula_units_Z   1
loop_
 _symmetry_equiv_pos_site_id
 _symmetry_equiv_pos_as_xyz
  1  'x, y, z'
loop_
 _atom_site_type_symbol
 _atom_site_label
 _atom_site_symmetry_multiplicity
 _atom_site_fract_x
 _atom_site_fract_y
 _atom_site_fract_z
 _atom_site_occupancy
  Nd  Nd0  1  0.567126  0.933138  0.567394  1
  Nd  Nd1  1  0.937896  0.563364  0.935588  1
  Nd  Nd2  1  0.567126  0.567394  0.933138  1
  Nd  Nd3  1  0.937896  0.935588  0.563364  1
  Lu  Lu4  1  0.950409  0.349817  0.349817  1
  Lu  Lu5  1  0.813963  0.186676  0.186676  1
  Lu  Lu6  1  0.184111  0.817239  0.817239  1
  Lu  Lu7  1  0.185443  0.814875  0.185077  1
  Lu  Lu8  1  0.814183  0.183952  0.813185  1
  Lu  Lu9  1  0.185443  0.185077  0.814875  1
  Lu  Lu10  1  0.814183  0.813185  0.183952  1
  Lu  Lu11  1  0.944434  0.555650  0.555650  1
  Lu  Lu12  1  0.555929  0.942987  0.942987  1
  Th  Th13  1  0.347918  0.348983  0.348983  1
  Th  Th14  1  0.346485  0.352156  0.952713  1
  Th  Th15  1  0.346485  0.952713  0.352156  1
  Cd  Cd16  1  0.588438  0.575943  0.575943  1
  Cd  Cd17  1  0.580452  0.582743  0.258106  1
  Cd  Cd18  1  0.580452  0.258106  0.582743  1
  Cd  Cd19  1  0.255562  0.579223  0.579223  1
  Ir  Ir20  1  0.144837  0.139813  0.139813  1
  Ir  Ir21  1  0.138712  0.145156  0.575389  1
  Ir  Ir22  1  0.138712  0.575389  0.145156  1
  Ir  Ir23  1  0.573798  0.140833  0.140833  1
