# generated using pymatgen
data_Ho8Sc12Ga15Bi
_symmetry_space_group_name_H-M   'P 1'
_cell_length_a   7.28119426
_cell_length_b   7.56959929
_cell_length_c   14.53309989
_cell_angle_alpha   90.15123436
_cell_angle_beta   89.77939463
_cell_angle_gamma   89.90752307
_symmetry_Int_Tables_number   1
_chemical_formula_structural   Ho8Sc12Ga15Bi
_chemical_formula_sum   'Ho8 Sc12 Ga15 Bi1'
_cell_volume   800.99252286
_cell_formula_units_Z   1
loop_
 _symmetry_equiv_pos_site_id
 _symmetry_equiv_pos_as_xyz
  1  'x, y, z'
loop_
 _atom_site_type_symbol
 _atom_site_label
 _atom_site_symmetry_multiplicity
 _atom_site_fract_x
 _atom_site_fract_y
 _atom_site_fract_z
 _atom_site_occupancy
  Ho  Ho0  1  0.010257  0.180520  0.094530  1
  Ho  Ho1  1  0.991248  0.820325  0.906292  1
  Ho  Ho2  1  0.490468  0.677283  0.906329  1
  Ho  Ho3  1  0.986847  0.829802  0.596745  1
  Ho  Ho4  1  0.510342  0.320825  0.094436  1
  Ho  Ho5  1  0.001719  0.172826  0.399687  1
  Ho  Ho6  1  0.514165  0.314041  0.400608  1
  Ho  Ho7  1  0.505815  0.689593  0.599419  1
  Sc  Sc8  1  0.166514  0.502449  0.756803  1
  Sc  Sc9  1  0.834367  0.497782  0.248224  1
  Sc  Sc10  1  0.332516  0.005604  0.248907  1
  Sc  Sc11  1  0.669791  0.997859  0.753824  1
  Sc  Sc12  1  0.341468  0.153321  0.629791  1
  Sc  Sc13  1  0.664742  0.833213  0.373082  1
  Sc  Sc14  1  0.164058  0.682184  0.369672  1
  Sc  Sc15  1  0.667388  0.827408  0.123034  1
  Sc  Sc16  1  0.820872  0.325420  0.625831  1
  Sc  Sc17  1  0.329527  0.171947  0.877010  1
  Sc  Sc18  1  0.831720  0.327286  0.876787  1
  Sc  Sc19  1  0.171388  0.671855  0.124075  1
  Ga  Ga20  1  0.034684  0.118835  0.749706  1
  Ga  Ga21  1  0.963832  0.883920  0.246042  1
  Ga  Ga22  1  0.467019  0.615953  0.250686  1
  Ga  Ga23  1  0.532829  0.382001  0.751994  1
  Ga  Ga24  1  0.287064  0.866368  0.752325  1
  Ga  Ga25  1  0.712079  0.128530  0.247438  1
  Ga  Ga26  1  0.212073  0.372578  0.251099  1
  Ga  Ga27  1  0.790105  0.628434  0.750434  1
  Ga  Ga28  1  0.821914  0.540399  0.456269  1
  Ga  Ga29  1  0.335583  0.964920  0.459666  1
  Ga  Ga30  1  0.838114  0.533445  0.040916  1
  Ga  Ga31  1  0.662508  0.038351  0.538006  1
  Ga  Ga32  1  0.161546  0.465361  0.960650  1
  Ga  Ga33  1  0.661108  0.035541  0.959564  1
  Ga  Ga34  1  0.338681  0.963960  0.040562  1
  Bi  Bi35  1  0.175648  0.459857  0.539556  1
