# generated using pymatgen
data_Ba6ScFe5O18
_symmetry_space_group_name_H-M   'P 1'
_cell_length_a   5.77573000
_cell_length_b   5.77560886
_cell_length_c   14.15813000
_cell_angle_alpha   89.99825785
_cell_angle_beta   90.00078934
_cell_angle_gamma   120.00067446
_symmetry_Int_Tables_number   1
_chemical_formula_structural   Ba6ScFe5O18
_chemical_formula_sum   'Ba6 Sc1 Fe5 O18'
_cell_volume   409.01405551
_cell_formula_units_Z   1
loop_
 _symmetry_equiv_pos_site_id
 _symmetry_equiv_pos_as_xyz
  1  'x, y, z'
loop_
 _atom_site_type_symbol
 _atom_site_label
 _atom_site_symmetry_multiplicity
 _atom_site_fract_x
 _atom_site_fract_y
 _atom_site_fract_z
 _atom_site_occupancy
  Ba  Ba0  1  0.666690  0.333359  0.090873  1
  Ba  Ba1  1  0.000035  0.000047  0.251859  1
  Ba  Ba2  1  0.666670  0.333342  0.411797  1
  Ba  Ba3  1  0.333325  0.666658  0.588079  1
  Ba  Ba4  1  0.999968  0.999957  0.748114  1
  Ba  Ba5  1  0.333326  0.666650  0.909280  1
  Sc  Sc6  1  0.000013  0.999988  0.999939  1
  Fe  Fe7  1  0.333394  0.666727  0.158222  1
  Fe  Fe8  1  0.333325  0.666644  0.347973  1
  Fe  Fe9  1  0.999987  0.999981  0.500026  1
  Fe  Fe10  1  0.666659  0.333337  0.652017  1
  Fe  Fe11  1  0.666621  0.333269  0.841751  1
  O  O12  1  0.174118  0.348208  0.085615  1
  O  O13  1  0.174059  0.825928  0.085599  1
  O  O14  1  0.651868  0.825913  0.085601  1
  O  O15  1  0.038823  0.519438  0.247285  1
  O  O16  1  0.480651  0.519440  0.247301  1
  O  O17  1  0.480692  0.961345  0.247192  1
  O  O18  1  0.165657  0.331307  0.419459  1
  O  O19  1  0.165807  0.834178  0.419384  1
  O  O20  1  0.668415  0.834197  0.419391  1
  O  O21  1  0.331567  0.165805  0.580612  1
  O  O22  1  0.834192  0.165822  0.580617  1
  O  O23  1  0.834340  0.668705  0.580547  1
  O  O24  1  0.519319  0.038657  0.752831  1
  O  O25  1  0.519363  0.480547  0.752720  1
  O  O26  1  0.961169  0.480551  0.752733  1
  O  O27  1  0.348122  0.174097  0.914396  1
  O  O28  1  0.825942  0.174088  0.914402  1
  O  O29  1  0.825888  0.651815  0.914383  1
