# generated using pymatgen
data_LiTb6Dy10Tl2CdIr4
_symmetry_space_group_name_H-M   'P 1'
_cell_length_a   9.67334559
_cell_length_b   9.67334500
_cell_length_c   9.67334500
_cell_angle_alpha   59.80520479
_cell_angle_beta   59.80520681
_cell_angle_gamma   59.80520889
_symmetry_Int_Tables_number   1
_chemical_formula_structural   LiTb6Dy10Tl2CdIr4
_chemical_formula_sum   'Li1 Tb6 Dy10 Tl2 Cd1 Ir4'
_cell_volume   637.22150782
_cell_formula_units_Z   1
loop_
 _symmetry_equiv_pos_site_id
 _symmetry_equiv_pos_as_xyz
  1  'x, y, z'
loop_
 _atom_site_type_symbol
 _atom_site_label
 _atom_site_symmetry_multiplicity
 _atom_site_fract_x
 _atom_site_fract_y
 _atom_site_fract_z
 _atom_site_occupancy
  Li  Li0  1  0.820326  0.820682  0.820682  1
  Tb  Tb1  1  0.190646  0.809977  0.809977  1
  Tb  Tb2  1  0.810326  0.189495  0.189495  1
  Tb  Tb3  1  0.810932  0.189454  0.810000  1
  Tb  Tb4  1  0.191397  0.809984  0.186834  1
  Tb  Tb5  1  0.810932  0.810000  0.189454  1
  Tb  Tb6  1  0.191397  0.186834  0.809984  1
  Dy  Dy7  1  0.600480  0.600405  0.600405  1
  Dy  Dy8  1  0.598223  0.598861  0.206291  1
  Dy  Dy9  1  0.598223  0.206291  0.598861  1
  Dy  Dy10  1  0.205386  0.598395  0.598395  1
  Dy  Dy11  1  0.058756  0.441562  0.441562  1
  Dy  Dy12  1  0.434290  0.062969  0.062969  1
  Dy  Dy13  1  0.440592  0.059750  0.441023  1
  Dy  Dy14  1  0.061555  0.436070  0.062124  1
  Dy  Dy15  1  0.440592  0.441023  0.059750  1
  Dy  Dy16  1  0.061555  0.062124  0.436070  1
  Tl  Tl17  1  0.833335  0.836909  0.499721  1
  Tl  Tl18  1  0.833335  0.499721  0.836909  1
  Cd  Cd19  1  0.502852  0.833936  0.833936  1
  Ir  Ir20  1  0.392332  0.392495  0.392495  1
  Ir  Ir21  1  0.393188  0.393969  0.825808  1
  Ir  Ir22  1  0.393188  0.825808  0.393969  1
  Ir  Ir23  1  0.826170  0.393292  0.393292  1
