# generated using pymatgen
data_Dy5Ho(ScAu5)2
_symmetry_space_group_name_H-M   'P 1'
_cell_length_a   7.91545780
_cell_length_b   7.91727314
_cell_length_c   7.91578721
_cell_angle_alpha   66.25579786
_cell_angle_beta   66.27482442
_cell_angle_gamma   66.26599797
_symmetry_Int_Tables_number   1
_chemical_formula_structural   Dy5Ho(ScAu5)2
_chemical_formula_sum   'Dy5 Ho1 Sc2 Au10'
_cell_volume   398.21997299
_cell_formula_units_Z   1
loop_
 _symmetry_equiv_pos_site_id
 _symmetry_equiv_pos_as_xyz
  1  'x, y, z'
loop_
 _atom_site_type_symbol
 _atom_site_label
 _atom_site_symmetry_multiplicity
 _atom_site_fract_x
 _atom_site_fract_y
 _atom_site_fract_z
 _atom_site_occupancy
  Dy  Dy0  1  0.891565  0.189153  0.618531  1
  Dy  Dy1  1  0.618602  0.891573  0.189164  1
  Dy  Dy2  1  0.189109  0.618604  0.891577  1
  Dy  Dy3  1  0.108434  0.810843  0.381349  1
  Dy  Dy4  1  0.381364  0.108450  0.810852  1
  Ho  Ho5  1  0.810840  0.381343  0.108423  1
  Sc  Sc6  1  0.658545  0.658552  0.658698  1
  Sc  Sc7  1  0.341496  0.341429  0.341373  1
  Au  Au8  1  0.999859  0.000259  0.000057  1
  Au  Au9  1  0.500104  0.499939  0.499926  1
  Au  Au10  1  0.806682  0.806601  0.806800  1
  Au  Au11  1  0.193030  0.193427  0.193234  1
  Au  Au12  1  0.937106  0.550973  0.317873  1
  Au  Au13  1  0.317969  0.937198  0.551020  1
  Au  Au14  1  0.551151  0.317967  0.937271  1
  Au  Au15  1  0.062725  0.448915  0.682260  1
  Au  Au16  1  0.682136  0.063018  0.448723  1
  Au  Au17  1  0.449281  0.681755  0.062867  1
