# generated using pymatgen
data_HoScGa3Au
_symmetry_space_group_name_H-M   'P 1'
_cell_length_a   4.42672700
_cell_length_b   4.42672622
_cell_length_c   6.98749800
_cell_angle_alpha   90.00000000
_cell_angle_beta   90.00000000
_cell_angle_gamma   119.99998343
_symmetry_Int_Tables_number   1
_chemical_formula_structural   HoScGa3Au
_chemical_formula_sum   'Ho1 Sc1 Ga3 Au1'
_cell_volume   118.58173573
_cell_formula_units_Z   1
loop_
 _symmetry_equiv_pos_site_id
 _symmetry_equiv_pos_as_xyz
  1  'x, y, z'
loop_
 _atom_site_type_symbol
 _atom_site_label
 _atom_site_symmetry_multiplicity
 _atom_site_fract_x
 _atom_site_fract_y
 _atom_site_fract_z
 _atom_site_occupancy
  Ho  Ho0  1  0.333333  0.666667  0.252711  1
  Sc  Sc1  1  0.333333  0.666667  0.732996  1
  Ga  Ga2  1  0.666667  0.333333  0.481742  1
  Ga  Ga3  1  0.666667  0.333333  0.037299  1
  Ga  Ga4  1  0.000000  0.000000  0.945926  1
  Au  Au5  1  0.000000  0.000000  0.549326  1
