# generated using pymatgen
data_Er5Sc(AlPt2)2
_symmetry_space_group_name_H-M   'P 1'
_cell_length_a   4.42817600
_cell_length_b   7.15573180
_cell_length_c   8.10968712
_cell_angle_alpha   89.19994411
_cell_angle_beta   90.00000000
_cell_angle_gamma   90.00000000
_symmetry_Int_Tables_number   1
_chemical_formula_structural   Er5Sc(AlPt2)2
_chemical_formula_sum   'Er5 Sc1 Al2 Pt4'
_cell_volume   256.94530479
_cell_formula_units_Z   1
loop_
 _symmetry_equiv_pos_site_id
 _symmetry_equiv_pos_as_xyz
  1  'x, y, z'
loop_
 _atom_site_type_symbol
 _atom_site_label
 _atom_site_symmetry_multiplicity
 _atom_site_fract_x
 _atom_site_fract_y
 _atom_site_fract_z
 _atom_site_occupancy
  Er  Er0  1  0.250000  0.995396  0.331891  1
  Er  Er1  1  0.750000  0.053328  0.681524  1
  Er  Er2  1  0.250000  0.445177  0.171097  1
  Er  Er3  1  0.750000  0.512613  0.827381  1
  Er  Er4  1  0.750000  0.637970  0.430945  1
  Sc  Sc5  1  0.250000  0.868989  0.939019  1
  Al  Al6  1  0.250000  0.359453  0.567188  1
  Al  Al7  1  0.750000  0.135953  0.066457  1
  Pt  Pt8  1  0.250000  0.238783  0.880233  1
  Pt  Pt9  1  0.750000  0.759371  0.102273  1
  Pt  Pt10  1  0.250000  0.739381  0.623341  1
  Pt  Pt11  1  0.750000  0.253584  0.378651  1
