# generated using pymatgen
data_Pm4AlPt3
_symmetry_space_group_name_H-M   'P 1'
_cell_length_a   7.53579119
_cell_length_b   5.76898785
_cell_length_c   4.54569000
_cell_angle_alpha   90.00000000
_cell_angle_beta   90.00000000
_cell_angle_gamma   89.70085708
_symmetry_Int_Tables_number   1
_chemical_formula_structural   Pm4AlPt3
_chemical_formula_sum   'Pm4 Al1 Pt3'
_cell_volume   197.61612353
_cell_formula_units_Z   1
loop_
 _symmetry_equiv_pos_site_id
 _symmetry_equiv_pos_as_xyz
  1  'x, y, z'
loop_
 _atom_site_type_symbol
 _atom_site_label
 _atom_site_symmetry_multiplicity
 _atom_site_fract_x
 _atom_site_fract_y
 _atom_site_fract_z
 _atom_site_occupancy
  Pm  Pm0  1  0.112281  0.497123  0.000000  1
  Pm  Pm1  1  0.584926  0.740892  0.000000  1
  Pm  Pm2  1  0.242233  0.024199  0.499999  1
  Pm  Pm3  1  0.723124  0.245743  0.499999  1
  Al  Al4  1  0.890259  0.751280  0.499999  1
  Pt  Pt5  1  0.461296  0.225025  0.000000  1
  Pt  Pt6  1  0.947460  0.977332  0.000000  1
  Pt  Pt7  1  0.371754  0.538407  0.499999  1
