# generated using pymatgen
data_DyHo5Si4(GeRu2)2
_symmetry_space_group_name_H-M   'P 1'
_cell_length_a   5.73916815
_cell_length_b   5.73916844
_cell_length_c   13.87055400
_cell_angle_alpha   90.00000000
_cell_angle_beta   90.00000000
_cell_angle_gamma   137.26965155
_symmetry_Int_Tables_number   1
_chemical_formula_structural   DyHo5Si4(GeRu2)2
_chemical_formula_sum   'Dy1 Ho5 Si4 Ge2 Ru4'
_cell_volume   310.00795840
_cell_formula_units_Z   1
loop_
 _symmetry_equiv_pos_site_id
 _symmetry_equiv_pos_as_xyz
  1  'x, y, z'
loop_
 _atom_site_type_symbol
 _atom_site_label
 _atom_site_symmetry_multiplicity
 _atom_site_fract_x
 _atom_site_fract_y
 _atom_site_fract_z
 _atom_site_occupancy
  Dy  Dy0  1  0.855465  0.144535  0.250000  1
  Ho  Ho1  1  0.144641  0.855359  0.750000  1
  Ho  Ho2  1  0.424286  0.575714  0.887194  1
  Ho  Ho3  1  0.575714  0.424286  0.112810  1
  Ho  Ho4  1  0.575714  0.424286  0.387190  1
  Ho  Ho5  1  0.424286  0.575714  0.612806  1
  Si  Si6  1  0.117428  0.882572  0.538952  1
  Si  Si7  1  0.882589  0.117411  0.461107  1
  Si  Si8  1  0.882589  0.117411  0.038893  1
  Si  Si9  1  0.117428  0.882572  0.961048  1
  Ge  Ge10  1  0.162513  0.837487  0.250000  1
  Ge  Ge11  1  0.837402  0.162598  0.750000  1
  Ru  Ru12  1  0.711861  0.288139  0.578934  1
  Ru  Ru13  1  0.288110  0.711890  0.421157  1
  Ru  Ru14  1  0.288110  0.711890  0.078843  1
  Ru  Ru15  1  0.711861  0.288139  0.921066  1
