# generated using pymatgen
data_Er4MgB4SbRh10
_symmetry_space_group_name_H-M   'P 1'
_cell_length_a   9.53078100
_cell_length_b   9.53078100
_cell_length_c   3.25785800
_cell_angle_alpha   90.00000000
_cell_angle_beta   90.00000000
_cell_angle_gamma   90.00000000
_symmetry_Int_Tables_number   1
_chemical_formula_structural   Er4MgB4SbRh10
_chemical_formula_sum   'Er4 Mg1 B4 Sb1 Rh10'
_cell_volume   295.93009364
_cell_formula_units_Z   1
loop_
 _symmetry_equiv_pos_site_id
 _symmetry_equiv_pos_as_xyz
  1  'x, y, z'
loop_
 _atom_site_type_symbol
 _atom_site_label
 _atom_site_symmetry_multiplicity
 _atom_site_fract_x
 _atom_site_fract_y
 _atom_site_fract_z
 _atom_site_occupancy
  Er  Er0  1  0.673106  0.176690  0.000000  1
  Er  Er1  1  0.326894  0.823310  0.000000  1
  Er  Er2  1  0.176690  0.326894  0.000000  1
  Er  Er3  1  0.823310  0.673106  0.000000  1
  Mg  Mg4  1  0.500000  0.500000  0.000000  1
  B  B5  1  0.123123  0.617715  0.000000  1
  B  B6  1  0.876877  0.382285  0.000000  1
  B  B7  1  0.617715  0.876877  0.000000  1
  B  B8  1  0.382285  0.123123  0.000000  1
  Sb  Sb9  1  0.000000  0.000000  0.000000  1
  Rh  Rh10  1  0.500000  0.000000  0.500000  1
  Rh  Rh11  1  0.000000  0.500000  0.500000  1
  Rh  Rh12  1  0.222731  0.070307  0.500000  1
  Rh  Rh13  1  0.777269  0.929693  0.500000  1
  Rh  Rh14  1  0.070307  0.777269  0.500000  1
  Rh  Rh15  1  0.723664  0.428144  0.500000  1
  Rh  Rh16  1  0.929693  0.222731  0.500000  1
  Rh  Rh17  1  0.276336  0.571856  0.500000  1
  Rh  Rh18  1  0.571856  0.723664  0.500000  1
  Rh  Rh19  1  0.428144  0.276336  0.500000  1
