# generated using pymatgen
data_Ba4NbSbO9
_symmetry_space_group_name_H-M   'P 1'
_cell_length_a   6.18339604
_cell_length_b   6.18325626
_cell_length_c   16.74596600
_cell_angle_alpha   90.00000000
_cell_angle_beta   90.00000000
_cell_angle_gamma   119.99457936
_symmetry_Int_Tables_number   1
_chemical_formula_structural   Ba4NbSbO9
_chemical_formula_sum   'Ba8 Nb2 Sb2 O18'
_cell_volume   554.50933975
_cell_formula_units_Z   2
loop_
 _symmetry_equiv_pos_site_id
 _symmetry_equiv_pos_as_xyz
  1  'x, y, z'
loop_
 _atom_site_type_symbol
 _atom_site_label
 _atom_site_symmetry_multiplicity
 _atom_site_fract_x
 _atom_site_fract_y
 _atom_site_fract_z
 _atom_site_occupancy
  Ba  Ba0  1  0.000010  0.000004  0.756277  1
  Ba  Ba1  1  0.999990  0.999996  0.256277  1
  Ba  Ba2  1  0.666670  0.333352  0.637040  1
  Ba  Ba3  1  0.333330  0.666648  0.137040  1
  Ba  Ba4  1  0.333321  0.666633  0.370752  1
  Ba  Ba5  1  0.666679  0.333367  0.870752  1
  Ba  Ba6  1  0.999984  0.000027  0.496777  1
  Ba  Ba7  1  0.000016  0.999973  0.996777  1
  Nb  Nb8  1  0.333398  0.666707  0.655040  1
  Nb  Nb9  1  0.666602  0.333293  0.155040  1
  Sb  Sb10  1  0.666653  0.333330  0.335616  1
  Sb  Sb11  1  0.333347  0.666670  0.835616  1
  O  O12  1  0.528174  0.953232  0.750715  1
  O  O13  1  0.046802  0.574988  0.750711  1
  O  O14  1  0.425048  0.471838  0.750708  1
  O  O15  1  0.471826  0.046768  0.250715  1
  O  O16  1  0.953198  0.425012  0.250711  1
  O  O17  1  0.574952  0.528162  0.250708  1
  O  O18  1  0.102890  0.357764  0.606810  1
  O  O19  1  0.642219  0.745159  0.606821  1
  O  O20  1  0.254883  0.897028  0.606849  1
  O  O21  1  0.897110  0.642236  0.106810  1
  O  O22  1  0.357781  0.254841  0.106821  1
  O  O23  1  0.745117  0.102972  0.106849  1
  O  O24  1  0.891063  0.646766  0.391964  1
  O  O25  1  0.353209  0.244284  0.391961  1
  O  O26  1  0.755708  0.108891  0.391958  1
  O  O27  1  0.108937  0.353234  0.891964  1
  O  O28  1  0.646791  0.755716  0.891961  1
  O  O29  1  0.244292  0.891109  0.891958  1
