# generated using pymatgen
data_Hf6Mg3Al13Pd7
_symmetry_space_group_name_H-M   'P 1'
_cell_length_a   8.83693537
_cell_length_b   8.83693476
_cell_length_c   8.83693476
_cell_angle_alpha   59.97976664
_cell_angle_beta   59.97976515
_cell_angle_gamma   59.97975823
_symmetry_Int_Tables_number   1
_chemical_formula_structural   Hf6Mg3Al13Pd7
_chemical_formula_sum   'Hf6 Mg3 Al13 Pd7'
_cell_volume   487.74255194
_cell_formula_units_Z   1
loop_
 _symmetry_equiv_pos_site_id
 _symmetry_equiv_pos_as_xyz
  1  'x, y, z'
loop_
 _atom_site_type_symbol
 _atom_site_label
 _atom_site_symmetry_multiplicity
 _atom_site_fract_x
 _atom_site_fract_y
 _atom_site_fract_z
 _atom_site_occupancy
  Hf  Hf0  1  0.680032  0.680032  0.319126  1
  Hf  Hf1  1  0.322749  0.677543  0.322749  1
  Hf  Hf2  1  0.677543  0.322749  0.322749  1
  Hf  Hf3  1  0.322749  0.322748  0.677543  1
  Hf  Hf4  1  0.680032  0.319127  0.680032  1
  Hf  Hf5  1  0.319126  0.680033  0.680032  1
  Mg  Mg6  1  0.882475  0.882475  0.354956  1
  Mg  Mg7  1  0.882475  0.354957  0.882475  1
  Mg  Mg8  1  0.354956  0.882475  0.882475  1
  Al  Al9  1  0.879068  0.879068  0.879068  1
  Al  Al10  1  0.121397  0.121397  0.637205  1
  Al  Al11  1  0.121397  0.637205  0.121397  1
  Al  Al12  1  0.637205  0.121397  0.121397  1
  Al  Al13  1  0.120401  0.120401  0.120401  1
  Al  Al14  1  0.663625  0.663626  0.007995  1
  Al  Al15  1  0.663625  0.007995  0.663625  1
  Al  Al16  1  0.007995  0.663625  0.663625  1
  Al  Al17  1  0.664215  0.664215  0.664215  1
  Al  Al18  1  0.335720  0.335720  0.991869  1
  Al  Al19  1  0.335720  0.991869  0.335720  1
  Al  Al20  1  0.991869  0.335720  0.335720  1
  Al  Al21  1  0.336417  0.336417  0.336417  1
  Pd  Pd22  1  0.994943  0.994944  0.994943  1
  Pd  Pd23  1  0.000468  0.000470  0.505641  1
  Pd  Pd24  1  0.497835  0.002009  0.497835  1
  Pd  Pd25  1  0.002009  0.497835  0.497835  1
  Pd  Pd26  1  0.497835  0.497834  0.002010  1
  Pd  Pd27  1  0.000469  0.505641  0.000470  1
  Pd  Pd28  1  0.505641  0.000469  0.000469  1
