# generated using pymatgen
data_Pr9NdSi5Ge
_symmetry_space_group_name_H-M   'P 1'
_cell_length_a   7.88305572
_cell_length_b   7.88305564
_cell_length_c   8.95294143
_cell_angle_alpha   116.11980122
_cell_angle_beta   116.11980684
_cell_angle_gamma   90.00000030
_symmetry_Int_Tables_number   1
_chemical_formula_structural   Pr9NdSi5Ge
_chemical_formula_sum   'Pr9 Nd1 Si5 Ge1'
_cell_volume   435.37007956
_cell_formula_units_Z   1
loop_
 _symmetry_equiv_pos_site_id
 _symmetry_equiv_pos_as_xyz
  1  'x, y, z'
loop_
 _atom_site_type_symbol
 _atom_site_label
 _atom_site_symmetry_multiplicity
 _atom_site_fract_x
 _atom_site_fract_y
 _atom_site_fract_z
 _atom_site_occupancy
  Pr  Pr0  1  0.000964  0.000964  0.001927  1
  Pr  Pr1  1  0.968049  0.824752  0.290661  1
  Pr  Pr2  1  0.322612  0.465909  0.290661  1
  Pr  Pr3  1  0.824752  0.322612  0.290661  1
  Pr  Pr4  1  0.465909  0.968049  0.290661  1
  Pr  Pr5  1  0.034143  0.177440  0.709341  1
  Pr  Pr6  1  0.675198  0.531901  0.709341  1
  Pr  Pr7  1  0.177440  0.675198  0.709341  1
  Pr  Pr8  1  0.531901  0.034143  0.709341  1
  Nd  Nd9  1  0.499040  0.499040  0.998082  1
  Si  Si10  1  0.250054  0.250054  0.500109  1
  Si  Si11  1  0.613721  0.886098  0.999995  1
  Si  Si12  1  0.386274  0.113896  0.999995  1
  Si  Si13  1  0.886098  0.386274  0.999995  1
  Si  Si14  1  0.113896  0.613721  0.999995  1
  Ge  Ge15  1  0.749950  0.749950  0.499899  1
