# generated using pymatgen
data_RbPuP3O11
_symmetry_space_group_name_H-M   'P 1'
_cell_length_a   6.95454784
_cell_length_b   10.86475900
_cell_length_c   13.20548200
_cell_angle_alpha   90.00000000
_cell_angle_beta   104.23830536
_cell_angle_gamma   90.00000000
_symmetry_Int_Tables_number   1
_chemical_formula_structural   RbPuP3O11
_chemical_formula_sum   'Rb4 Pu4 P12 O44'
_cell_volume   967.14816585
_cell_formula_units_Z   4
loop_
 _symmetry_equiv_pos_site_id
 _symmetry_equiv_pos_as_xyz
  1  'x, y, z'
loop_
 _atom_site_type_symbol
 _atom_site_label
 _atom_site_symmetry_multiplicity
 _atom_site_fract_x
 _atom_site_fract_y
 _atom_site_fract_z
 _atom_site_occupancy
  Rb  Rb0  1  0.770106  0.499427  0.112667  1
  Rb  Rb1  1  0.729894  0.999427  0.387333  1
  Rb  Rb2  1  0.229894  0.500573  0.887333  1
  Rb  Rb3  1  0.270106  0.000573  0.612667  1
  Pu  Pu4  1  0.164484  0.733151  0.325054  1
  Pu  Pu5  1  0.335516  0.233151  0.174946  1
  Pu  Pu6  1  0.664484  0.766849  0.825054  1
  Pu  Pu7  1  0.835516  0.266849  0.674946  1
  P  P8  1  0.401439  0.801176  0.115821  1
  P  P9  1  0.598561  0.198824  0.884179  1
  P  P10  1  0.207213  0.127749  0.894362  1
  P  P11  1  0.901439  0.698824  0.615821  1
  P  P12  1  0.792787  0.872251  0.105638  1
  P  P13  1  0.707213  0.372251  0.394362  1
  P  P14  1  0.292787  0.627749  0.605638  1
  P  P15  1  0.812925  0.140897  0.098936  1
  P  P16  1  0.098561  0.301176  0.384179  1
  P  P17  1  0.187075  0.859103  0.901064  1
  P  P18  1  0.312925  0.359103  0.598936  1
  P  P19  1  0.687075  0.640897  0.401064  1
  O  O20  1  0.442881  0.677492  0.077922  1
  O  O21  1  0.514766  0.727661  0.387296  1
  O  O22  1  0.420823  0.726100  0.666829  1
  O  O23  1  0.227989  0.385292  0.477349  1
  O  O24  1  0.772011  0.614708  0.522651  1
  O  O25  1  0.807340  0.679933  0.705324  1
  O  O26  1  0.727989  0.114708  0.977349  1
  O  O27  1  0.900984  0.386967  0.349210  1
  O  O28  1  0.605427  0.504967  0.361811  1
  O  O29  1  0.272011  0.885292  0.022651  1
  O  O30  1  0.348394  0.380360  0.116375  1
  O  O31  1  0.942881  0.822508  0.577922  1
  O  O32  1  0.485234  0.272339  0.612704  1
  O  O33  1  0.400984  0.113033  0.849210  1
  O  O34  1  0.579177  0.273900  0.333171  1
  O  O35  1  0.014766  0.772339  0.887296  1
  O  O36  1  0.920823  0.773900  0.166829  1
  O  O37  1  0.057119  0.177492  0.422078  1
  O  O38  1  0.267361  0.140961  0.010389  1
  O  O39  1  0.307340  0.820067  0.205324  1
  O  O40  1  0.599016  0.886967  0.150790  1
  O  O41  1  0.557119  0.322508  0.922078  1
  O  O42  1  0.674085  0.912438  0.766484  1
  O  O43  1  0.651606  0.619640  0.883625  1
  O  O44  1  0.825915  0.412438  0.733516  1
  O  O45  1  0.153481  0.322107  0.651193  1
  O  O46  1  0.346519  0.822107  0.848807  1
  O  O47  1  0.105427  0.995033  0.861811  1
  O  O48  1  0.732639  0.859039  0.989611  1
  O  O49  1  0.653481  0.177893  0.151193  1
  O  O50  1  0.692660  0.179933  0.794676  1
  O  O51  1  0.325915  0.087562  0.233516  1
  O  O52  1  0.846519  0.677893  0.348807  1
  O  O53  1  0.151606  0.880360  0.383625  1
  O  O54  1  0.848394  0.119640  0.616375  1
  O  O55  1  0.174085  0.587562  0.266484  1
  O  O56  1  0.894573  0.004967  0.138189  1
  O  O57  1  0.079177  0.226100  0.833171  1
  O  O58  1  0.232639  0.640961  0.489611  1
  O  O59  1  0.985234  0.227661  0.112704  1
  O  O60  1  0.767361  0.359039  0.510389  1
  O  O61  1  0.099016  0.613033  0.650790  1
  O  O62  1  0.394573  0.495033  0.638189  1
  O  O63  1  0.192660  0.320067  0.294676  1
