# generated using pymatgen
data_Y5Tm5(GaSb2)2
_symmetry_space_group_name_H-M   'P 1'
_cell_length_a   8.77986953
_cell_length_b   8.80551515
_cell_length_c   6.36250200
_cell_angle_alpha   90.00000000
_cell_angle_beta   90.00000000
_cell_angle_gamma   119.94331860
_symmetry_Int_Tables_number   1
_chemical_formula_structural   Y5Tm5(GaSb2)2
_chemical_formula_sum   'Y5 Tm5 Ga2 Sb4'
_cell_volume   426.23505289
_cell_formula_units_Z   1
loop_
 _symmetry_equiv_pos_site_id
 _symmetry_equiv_pos_as_xyz
  1  'x, y, z'
loop_
 _atom_site_type_symbol
 _atom_site_label
 _atom_site_symmetry_multiplicity
 _atom_site_fract_x
 _atom_site_fract_y
 _atom_site_fract_z
 _atom_site_occupancy
  Y  Y0  1  0.243877  0.999390  0.250000  1
  Y  Y1  1  0.755813  0.999894  0.750000  1
  Y  Y2  1  0.987559  0.234603  0.250000  1
  Y  Y3  1  0.754257  0.765909  0.250000  1
  Y  Y4  1  0.245709  0.233417  0.750000  1
  Tm  Tm5  1  0.342211  0.684717  0.999963  1
  Tm  Tm6  1  0.657451  0.315106  0.499972  1
  Tm  Tm7  1  0.657451  0.315106  0.000028  1
  Tm  Tm8  1  0.342211  0.684717  0.500037  1
  Tm  Tm9  1  0.013578  0.766912  0.750000  1
  Ga  Ga10  1  0.601436  0.999963  0.250000  1
  Ga  Ga11  1  0.397114  0.999191  0.750000  1
  Sb  Sb12  1  0.993716  0.603608  0.250000  1
  Sb  Sb13  1  0.390025  0.396124  0.250000  1
  Sb  Sb14  1  0.611556  0.604205  0.750000  1
  Sb  Sb15  1  0.006036  0.397139  0.750000  1
