# generated using pymatgen
data_Li3Nd4Si8Rh
_symmetry_space_group_name_H-M   'P 1'
_cell_length_a   3.88832200
_cell_length_b   7.58053523
_cell_length_c   10.42123412
_cell_angle_alpha   89.88998774
_cell_angle_beta   90.00000000
_cell_angle_gamma   90.00000000
_symmetry_Int_Tables_number   1
_chemical_formula_structural   Li3Nd4Si8Rh
_chemical_formula_sum   'Li3 Nd4 Si8 Rh1'
_cell_volume   307.17116516
_cell_formula_units_Z   1
loop_
 _symmetry_equiv_pos_site_id
 _symmetry_equiv_pos_as_xyz
  1  'x, y, z'
loop_
 _atom_site_type_symbol
 _atom_site_label
 _atom_site_symmetry_multiplicity
 _atom_site_fract_x
 _atom_site_fract_y
 _atom_site_fract_z
 _atom_site_occupancy
  Li  Li0  1  0.250000  0.492903  0.111214  1
  Li  Li1  1  0.750000  0.005039  0.606103  1
  Li  Li2  1  0.750000  0.501403  0.889934  1
  Nd  Nd3  1  0.250000  0.139507  0.866643  1
  Nd  Nd4  1  0.250000  0.644194  0.628127  1
  Nd  Nd5  1  0.750000  0.858681  0.133972  1
  Nd  Nd6  1  0.750000  0.369303  0.367755  1
  Si  Si7  1  0.250000  0.210229  0.565809  1
  Si  Si8  1  0.250000  0.725944  0.925196  1
  Si  Si9  1  0.750000  0.795341  0.428292  1
  Si  Si10  1  0.750000  0.264964  0.077457  1
  Si  Si11  1  0.250000  0.672441  0.324616  1
  Si  Si12  1  0.250000  0.157010  0.192205  1
  Si  Si13  1  0.750000  0.332659  0.671496  1
  Si  Si14  1  0.750000  0.838695  0.819632  1
  Rh  Rh15  1  0.250000  0.991687  0.391548  1
