# generated using pymatgen
data_Pu2AlGa2Au
_symmetry_space_group_name_H-M   'P 1'
_cell_length_a   5.56004312
_cell_length_b   5.42647062
_cell_length_c   5.56004387
_cell_angle_alpha   60.78893003
_cell_angle_beta   61.23196876
_cell_angle_gamma   60.78893330
_symmetry_Int_Tables_number   1
_chemical_formula_structural   Pu2AlGa2Au
_chemical_formula_sum   'Pu2 Al1 Ga2 Au1'
_cell_volume   121.11914963
_cell_formula_units_Z   1
loop_
 _symmetry_equiv_pos_site_id
 _symmetry_equiv_pos_as_xyz
  1  'x, y, z'
loop_
 _atom_site_type_symbol
 _atom_site_label
 _atom_site_symmetry_multiplicity
 _atom_site_fract_x
 _atom_site_fract_y
 _atom_site_fract_z
 _atom_site_occupancy
  Pu  Pu0  1  0.382595  0.374237  0.382595  1
  Pu  Pu1  1  0.617405  0.625763  0.617405  1
  Al  Al2  1  0.000000  0.500000  0.000000  1
  Ga  Ga3  1  0.500000  0.000000  0.000000  1
  Ga  Ga4  1  0.000000  0.000000  0.500000  1
  Au  Au5  1  0.000000  0.000000  0.000000  1
