# generated using pymatgen
data_Tb3YbEr4(B6Os)4
_symmetry_space_group_name_H-M   'P 1'
_cell_length_a   3.64531200
_cell_length_b   9.13611112
_cell_length_c   11.52742468
_cell_angle_alpha   90.07815897
_cell_angle_beta   90.00000000
_cell_angle_gamma   90.00000000
_symmetry_Int_Tables_number   1
_chemical_formula_structural   Tb3YbEr4(B6Os)4
_chemical_formula_sum   'Tb3 Yb1 Er4 B24 Os4'
_cell_volume   383.90871217
_cell_formula_units_Z   1
loop_
 _symmetry_equiv_pos_site_id
 _symmetry_equiv_pos_as_xyz
  1  'x, y, z'
loop_
 _atom_site_type_symbol
 _atom_site_label
 _atom_site_symmetry_multiplicity
 _atom_site_fract_x
 _atom_site_fract_y
 _atom_site_fract_z
 _atom_site_occupancy
  Tb  Tb0  1  0.000000  0.321252  0.414764  1
  Tb  Tb1  1  0.000000  0.678115  0.586300  1
  Tb  Tb2  1  0.000000  0.823230  0.084818  1
  Yb  Yb3  1  0.000000  0.177532  0.913961  1
  Er  Er4  1  0.000000  0.943741  0.372163  1
  Er  Er5  1  0.000000  0.057140  0.629279  1
  Er  Er6  1  0.000000  0.442034  0.127416  1
  Er  Er7  1  0.000000  0.555898  0.871672  1
  B  B8  1  0.500000  0.554468  0.432286  1
  B  B9  1  0.500000  0.446149  0.567212  1
  B  B10  1  0.500000  0.054567  0.067241  1
  B  B11  1  0.500000  0.946390  0.932162  1
  B  B12  1  0.500000  0.749039  0.418674  1
  B  B13  1  0.500000  0.251591  0.581717  1
  B  B14  1  0.500000  0.248413  0.081157  1
  B  B15  1  0.500000  0.751331  0.918387  1
  B  B16  1  0.500000  0.790649  0.265864  1
  B  B17  1  0.500000  0.209751  0.734580  1
  B  B18  1  0.500000  0.290188  0.234231  1
  B  B19  1  0.500000  0.708901  0.765906  1
  B  B20  1  0.500000  0.630630  0.184925  1
  B  B21  1  0.500000  0.369030  0.814633  1
  B  B22  1  0.500000  0.130640  0.315144  1
  B  B23  1  0.500000  0.869242  0.685806  1
  B  B24  1  0.500000  0.983433  0.212779  1
  B  B25  1  0.500000  0.017150  0.787712  1
  B  B26  1  0.500000  0.483044  0.286875  1
  B  B27  1  0.500000  0.516634  0.712436  1
  B  B28  1  0.500000  0.603257  0.028391  1
  B  B29  1  0.500000  0.397174  0.971563  1
  B  B30  1  0.500000  0.104451  0.471575  1
  B  B31  1  0.500000  0.895503  0.529035  1
  Os  Os32  1  0.000000  0.637707  0.320693  1
  Os  Os33  1  0.000000  0.362851  0.678361  1
  Os  Os34  1  0.000000  0.137875  0.180000  1
  Os  Os35  1  0.000000  0.861001  0.820282  1
