# generated using pymatgen
data_YHo3(IrO4)4
_symmetry_space_group_name_H-M   'P 1'
_cell_length_a   5.34147414
_cell_length_b   7.62420313
_cell_length_c   7.38603322
_cell_angle_alpha   80.76347886
_cell_angle_beta   90.76021596
_cell_angle_gamma   92.74640252
_symmetry_Int_Tables_number   1
_chemical_formula_structural   YHo3(IrO4)4
_chemical_formula_sum   'Y1 Ho3 Ir4 O16'
_cell_volume   296.54660675
_cell_formula_units_Z   1
loop_
 _symmetry_equiv_pos_site_id
 _symmetry_equiv_pos_as_xyz
  1  'x, y, z'
loop_
 _atom_site_type_symbol
 _atom_site_label
 _atom_site_symmetry_multiplicity
 _atom_site_fract_x
 _atom_site_fract_y
 _atom_site_fract_z
 _atom_site_occupancy
  Y  Y0  1  0.795646  0.836238  0.895033  1
  Ho  Ho1  1  0.265286  0.128409  0.610768  1
  Ho  Ho2  1  0.734556  0.872300  0.389023  1
  Ho  Ho3  1  0.203736  0.163800  0.105470  1
  Ir  Ir4  1  0.238061  0.659868  0.204920  1
  Ir  Ir5  1  0.761763  0.339783  0.795505  1
  Ir  Ir6  1  0.719652  0.337474  0.300082  1
  Ir  Ir7  1  0.280119  0.662266  0.699653  1
  O  O8  1  0.078701  0.447143  0.686773  1
  O  O9  1  0.920711  0.552938  0.312977  1
  O  O10  1  0.607212  0.328736  0.552115  1
  O  O11  1  0.392699  0.670668  0.448049  1
  O  O12  1  0.865392  0.332462  0.054604  1
  O  O13  1  0.136409  0.666889  0.945699  1
  O  O14  1  0.403286  0.438314  0.191559  1
  O  O15  1  0.595608  0.560899  0.808282  1
  O  O16  1  0.042926  0.887160  0.174524  1
  O  O17  1  0.959223  0.114282  0.825970  1
  O  O18  1  0.499636  0.108480  0.322560  1
  O  O19  1  0.499315  0.891957  0.675655  1
  O  O20  1  0.460571  0.196971  0.874685  1
  O  O21  1  0.538835  0.802901  0.127147  1
  O  O22  1  0.985972  0.169768  0.381950  1
  O  O23  1  0.014684  0.830292  0.616995  1
