# generated using pymatgen
data_LiDy10Er6Ni4Ag3
_symmetry_space_group_name_H-M   'P 1'
_cell_length_a   9.43640077
_cell_length_b   9.44849814
_cell_length_c   9.44849800
_cell_angle_alpha   59.99999347
_cell_angle_beta   59.95757654
_cell_angle_gamma   59.95757338
_symmetry_Int_Tables_number   1
_chemical_formula_structural   LiDy10Er6Ni4Ag3
_chemical_formula_sum   'Li1 Dy10 Er6 Ni4 Ag3'
_cell_volume   595.30307308
_cell_formula_units_Z   1
loop_
 _symmetry_equiv_pos_site_id
 _symmetry_equiv_pos_as_xyz
  1  'x, y, z'
loop_
 _atom_site_type_symbol
 _atom_site_label
 _atom_site_symmetry_multiplicity
 _atom_site_fract_x
 _atom_site_fract_y
 _atom_site_fract_z
 _atom_site_occupancy
  Li  Li0  1  0.547277  0.817574  0.817574  1
  Dy  Dy1  1  0.183398  0.815119  0.815119  1
  Dy  Dy2  1  0.812589  0.186001  0.186001  1
  Dy  Dy3  1  0.812589  0.186001  0.815409  1
  Dy  Dy4  1  0.183398  0.815119  0.186366  1
  Dy  Dy5  1  0.812589  0.815409  0.186001  1
  Dy  Dy6  1  0.183398  0.186366  0.815119  1
  Dy  Dy7  1  0.600426  0.600172  0.600172  1
  Dy  Dy8  1  0.600426  0.600172  0.199233  1
  Dy  Dy9  1  0.600426  0.199233  0.600172  1
  Dy  Dy10  1  0.188971  0.603676  0.603676  1
  Er  Er11  1  0.060315  0.438120  0.438120  1
  Er  Er12  1  0.434091  0.065642  0.065642  1
  Er  Er13  1  0.434091  0.065642  0.434625  1
  Er  Er14  1  0.060315  0.438120  0.063446  1
  Er  Er15  1  0.434091  0.434625  0.065642  1
  Er  Er16  1  0.060315  0.063446  0.438120  1
  Ni  Ni17  1  0.391213  0.393557  0.393557  1
  Ni  Ni18  1  0.391213  0.393557  0.821673  1
  Ni  Ni19  1  0.391213  0.821673  0.393557  1
  Ni  Ni20  1  0.819918  0.393360  0.393360  1
  Ag  Ag21  1  0.832578  0.833886  0.833886  1
  Ag  Ag22  1  0.832578  0.833886  0.499650  1
  Ag  Ag23  1  0.832578  0.499650  0.833886  1
