# generated using pymatgen
data_Ca4Re15Si8Mo
_symmetry_space_group_name_H-M   'P 1'
_cell_length_a   4.18240900
_cell_length_b   7.32326667
_cell_length_c   15.47918539
_cell_angle_alpha   90.04158037
_cell_angle_beta   90.00000000
_cell_angle_gamma   90.00000000
_symmetry_Int_Tables_number   1
_chemical_formula_structural   Ca4Re15Si8Mo
_chemical_formula_sum   'Ca4 Re15 Si8 Mo1'
_cell_volume   474.11024118
_cell_formula_units_Z   1
loop_
 _symmetry_equiv_pos_site_id
 _symmetry_equiv_pos_as_xyz
  1  'x, y, z'
loop_
 _atom_site_type_symbol
 _atom_site_label
 _atom_site_symmetry_multiplicity
 _atom_site_fract_x
 _atom_site_fract_y
 _atom_site_fract_z
 _atom_site_occupancy
  Ca  Ca0  1  0.000000  0.581511  0.118856  1
  Ca  Ca1  1  0.000000  0.422079  0.881023  1
  Ca  Ca2  1  0.500000  0.079071  0.381054  1
  Ca  Ca3  1  0.500000  0.921368  0.619214  1
  Re  Re4  1  0.000000  0.863988  0.946812  1
  Re  Re5  1  0.500000  0.637033  0.447376  1
  Re  Re6  1  0.500000  0.365813  0.551704  1
  Re  Re7  1  0.000000  0.734404  0.321099  1
  Re  Re8  1  0.000000  0.267523  0.679293  1
  Re  Re9  1  0.500000  0.231886  0.180173  1
  Re  Re10  1  0.500000  0.765057  0.820348  1
  Re  Re11  1  0.000000  0.435876  0.417300  1
  Re  Re12  1  0.000000  0.565806  0.581693  1
  Re  Re13  1  0.500000  0.933511  0.082801  1
  Re  Re14  1  0.500000  0.063510  0.917322  1
  Re  Re15  1  0.000000  0.988161  0.208297  1
  Re  Re16  1  0.000000  0.010944  0.792389  1
  Re  Re17  1  0.500000  0.488532  0.293472  1
  Re  Re18  1  0.500000  0.509362  0.706691  1
  Si  Si19  1  0.000000  0.832311  0.476494  1
  Si  Si20  1  0.000000  0.170427  0.523987  1
  Si  Si21  1  0.500000  0.330760  0.023660  1
  Si  Si22  1  0.500000  0.669604  0.975655  1
  Si  Si23  1  0.000000  0.289782  0.273738  1
  Si  Si24  1  0.000000  0.709875  0.725471  1
  Si  Si25  1  0.500000  0.788214  0.226287  1
  Si  Si26  1  0.500000  0.209762  0.774463  1
  Mo  Mo27  1  0.000000  0.133830  0.053327  1
