# generated using pymatgen
data_Hf3Zr3Al2Co
_symmetry_space_group_name_H-M   'P 1'
_cell_length_a   3.30991400
_cell_length_b   7.92141276
_cell_length_c   7.92383017
_cell_angle_alpha   119.98990901
_cell_angle_beta   90.00000000
_cell_angle_gamma   90.00000000
_symmetry_Int_Tables_number   1
_chemical_formula_structural   Hf3Zr3Al2Co
_chemical_formula_sum   'Hf3 Zr3 Al2 Co1'
_cell_volume   179.94065456
_cell_formula_units_Z   1
loop_
 _symmetry_equiv_pos_site_id
 _symmetry_equiv_pos_as_xyz
  1  'x, y, z'
loop_
 _atom_site_type_symbol
 _atom_site_label
 _atom_site_symmetry_multiplicity
 _atom_site_fract_x
 _atom_site_fract_y
 _atom_site_fract_z
 _atom_site_occupancy
  Hf  Hf0  1  0.000000  0.248555  0.000000  1
  Hf  Hf1  1  0.000000  0.751414  0.751456  1
  Hf  Hf2  1  0.000000  0.999958  0.248544  1
  Zr  Zr3  1  0.500000  0.599019  0.000000  1
  Zr  Zr4  1  0.500000  0.400942  0.400939  1
  Zr  Zr5  1  0.500000  0.000003  0.599061  1
  Al  Al6  1  0.000000  0.333382  0.666738  1
  Al  Al7  1  0.000000  0.666644  0.333262  1
  Co  Co8  1  0.500000  0.999984  0.000000  1
