# generated using pymatgen
data_Cs2H9Os
_symmetry_space_group_name_H-M   'P 1'
_cell_length_a   10.89621900
_cell_length_b   10.89621849
_cell_length_c   5.77341700
_cell_angle_alpha   90.00000000
_cell_angle_beta   90.00000000
_cell_angle_gamma   120.00001067
_symmetry_Int_Tables_number   1
_chemical_formula_structural   Cs2H9Os
_chemical_formula_sum   'Cs6 H27 Os3'
_cell_volume   593.62903975
_cell_formula_units_Z   3
loop_
 _symmetry_equiv_pos_site_id
 _symmetry_equiv_pos_as_xyz
  1  'x, y, z'
loop_
 _atom_site_type_symbol
 _atom_site_label
 _atom_site_symmetry_multiplicity
 _atom_site_fract_x
 _atom_site_fract_y
 _atom_site_fract_z
 _atom_site_occupancy
  Cs  Cs0  1  0.000000  0.278592  0.500000  1
  Cs  Cs1  1  0.721408  0.721408  0.500000  1
  Cs  Cs2  1  0.278592  0.000000  0.500000  1
  Cs  Cs3  1  0.000000  0.609213  0.000000  1
  Cs  Cs4  1  0.390787  0.390787  0.000000  1
  Cs  Cs5  1  0.609213  0.000000  0.000000  1
  H  H6  1  0.760585  0.311755  0.709194  1
  H  H7  1  0.688245  0.448829  0.709194  1
  H  H8  1  0.551171  0.239415  0.709194  1
  H  H9  1  0.239415  0.551171  0.290806  1
  H  H10  1  0.551171  0.239415  0.290806  1
  H  H11  1  0.760585  0.311755  0.290806  1
  H  H12  1  0.688245  0.448829  0.290806  1
  H  H13  1  0.311755  0.760585  0.709194  1
  H  H14  1  0.448829  0.688245  0.709194  1
  H  H15  1  0.154484  0.000000  0.000000  1
  H  H16  1  0.845516  0.845516  0.000000  1
  H  H17  1  0.000000  0.154484  0.000000  1
  H  H18  1  0.891154  0.000000  0.204104  1
  H  H19  1  0.108846  0.108846  0.795896  1
  H  H20  1  0.000000  0.891154  0.795896  1
  H  H21  1  0.000000  0.891154  0.204104  1
  H  H22  1  0.108846  0.108846  0.204104  1
  H  H23  1  0.891154  0.000000  0.795896  1
  H  H24  1  0.166637  0.635628  0.500000  1
  H  H25  1  0.468991  0.833363  0.500000  1
  H  H26  1  0.364372  0.531009  0.500000  1
  H  H27  1  0.531009  0.364372  0.500000  1
  H  H28  1  0.833363  0.468991  0.500000  1
  H  H29  1  0.635628  0.166637  0.500000  1
  H  H30  1  0.239415  0.551171  0.709194  1
  H  H31  1  0.311755  0.760585  0.290806  1
  H  H32  1  0.448829  0.688245  0.290806  1
  Os  Os33  1  0.666667  0.333333  0.500000  1
  Os  Os34  1  0.333333  0.666667  0.500000  1
  Os  Os35  1  0.000000  0.000000  0.000000  1
