# generated using pymatgen
data_Ce10Si2BiPb5
_symmetry_space_group_name_H-M   'P 1'
_cell_length_a   9.64192000
_cell_length_b   9.64191968
_cell_length_c   6.50334700
_cell_angle_alpha   90.00000000
_cell_angle_beta   90.00000000
_cell_angle_gamma   119.99703933
_symmetry_Int_Tables_number   1
_chemical_formula_structural   Ce10Si2BiPb5
_chemical_formula_sum   'Ce10 Si2 Bi1 Pb5'
_cell_volume   523.60953716
_cell_formula_units_Z   1
loop_
 _symmetry_equiv_pos_site_id
 _symmetry_equiv_pos_as_xyz
  1  'x, y, z'
loop_
 _atom_site_type_symbol
 _atom_site_label
 _atom_site_symmetry_multiplicity
 _atom_site_fract_x
 _atom_site_fract_y
 _atom_site_fract_z
 _atom_site_occupancy
  Ce  Ce0  1  0.667223  0.333263  0.500711  1
  Ce  Ce1  1  0.333263  0.667223  0.500711  1
  Ce  Ce2  1  0.333263  0.667223  0.999289  1
  Ce  Ce3  1  0.667223  0.333263  0.999289  1
  Ce  Ce4  1  0.748008  0.748008  0.250000  1
  Ce  Ce5  1  0.251488  0.999301  0.250000  1
  Ce  Ce6  1  0.999301  0.251488  0.250000  1
  Ce  Ce7  1  0.251914  0.251914  0.750000  1
  Ce  Ce8  1  0.748040  0.999970  0.750000  1
  Ce  Ce9  1  0.999970  0.748040  0.750000  1
  Si  Si10  1  0.999796  0.999796  0.499844  1
  Si  Si11  1  0.999796  0.999796  0.000156  1
  Bi  Bi12  1  0.386434  0.386434  0.250000  1
  Pb  Pb13  1  0.613259  0.999901  0.250000  1
  Pb  Pb14  1  0.999901  0.613259  0.250000  1
  Pb  Pb15  1  0.614427  0.614427  0.750000  1
  Pb  Pb16  1  0.386597  0.000099  0.750000  1
  Pb  Pb17  1  0.000099  0.386597  0.750000  1
