# generated using pymatgen
data_TiBe2Nb5Si2
_symmetry_space_group_name_H-M   'P 1'
_cell_length_a   6.62988008
_cell_length_b   6.62822808
_cell_length_c   3.43208800
_cell_angle_alpha   90.00000000
_cell_angle_beta   90.00000000
_cell_angle_gamma   89.98216922
_symmetry_Int_Tables_number   1
_chemical_formula_structural   TiBe2Nb5Si2
_chemical_formula_sum   'Ti1 Be2 Nb5 Si2'
_cell_volume   150.82089411
_cell_formula_units_Z   1
loop_
 _symmetry_equiv_pos_site_id
 _symmetry_equiv_pos_as_xyz
  1  'x, y, z'
loop_
 _atom_site_type_symbol
 _atom_site_label
 _atom_site_symmetry_multiplicity
 _atom_site_fract_x
 _atom_site_fract_y
 _atom_site_fract_z
 _atom_site_occupancy
  Ti  Ti0  1  0.997755  0.994100  0.000000  1
  Be  Be1  1  0.621412  0.880878  0.000000  1
  Be  Be2  1  0.118568  0.622006  0.000000  1
  Nb  Nb3  1  0.498100  0.506592  0.000000  1
  Nb  Nb4  1  0.676671  0.173528  0.500000  1
  Nb  Nb5  1  0.178770  0.328518  0.500000  1
  Nb  Nb6  1  0.820975  0.682196  0.500000  1
  Nb  Nb7  1  0.323377  0.816515  0.500000  1
  Si  Si8  1  0.884473  0.383407  0.000000  1
  Si  Si9  1  0.379899  0.112260  0.000000  1
