# generated using pymatgen
data_Er8Ta3Si16W9
_symmetry_space_group_name_H-M   'P 1'
_cell_length_a   6.88055534
_cell_length_b   6.88055663
_cell_length_c   12.81537750
_cell_angle_alpha   89.99000506
_cell_angle_beta   90.00999589
_cell_angle_gamma   89.64318646
_symmetry_Int_Tables_number   1
_chemical_formula_structural   Er8Ta3Si16W9
_chemical_formula_sum   'Er8 Ta3 Si16 W9'
_cell_volume   606.69446741
_cell_formula_units_Z   1
loop_
 _symmetry_equiv_pos_site_id
 _symmetry_equiv_pos_as_xyz
  1  'x, y, z'
loop_
 _atom_site_type_symbol
 _atom_site_label
 _atom_site_symmetry_multiplicity
 _atom_site_fract_x
 _atom_site_fract_y
 _atom_site_fract_z
 _atom_site_occupancy
  Er  Er0  1  0.336505  0.998768  0.468953  1
  Er  Er1  1  0.500101  0.836656  0.719732  1
  Er  Er2  1  0.497604  0.164378  0.218824  1
  Er  Er3  1  0.836656  0.500101  0.280268  1
  Er  Er4  1  0.164378  0.497604  0.781176  1
  Er  Er5  1  0.662182  0.002764  0.968980  1
  Er  Er6  1  0.998768  0.336505  0.531047  1
  Er  Er7  1  0.002764  0.662182  0.031020  1
  Ta  Ta8  1  0.167742  0.833636  0.248377  1
  Ta  Ta9  1  0.833636  0.167742  0.751623  1
  Ta  Ta10  1  0.665675  0.665675  0.500000  1
  Si  Si11  1  0.204920  0.126908  0.682174  1
  Si  Si12  1  0.374984  0.699635  0.933398  1
  Si  Si13  1  0.627293  0.295657  0.432237  1
  Si  Si14  1  0.699635  0.374984  0.066602  1
  Si  Si15  1  0.295657  0.627293  0.567763  1
  Si  Si16  1  0.794168  0.872792  0.182418  1
  Si  Si17  1  0.126908  0.204920  0.317826  1
  Si  Si18  1  0.872792  0.794168  0.817582  1
  Si  Si19  1  0.289480  0.968966  0.059862  1
  Si  Si20  1  0.537478  0.791700  0.313290  1
  Si  Si21  1  0.460225  0.210281  0.815485  1
  Si  Si22  1  0.791700  0.537478  0.686710  1
  Si  Si23  1  0.210281  0.460225  0.184515  1
  Si  Si24  1  0.707189  0.037627  0.562932  1
  Si  Si25  1  0.968966  0.289480  0.940138  1
  Si  Si26  1  0.037627  0.707189  0.437068  1
  W  W27  1  0.334801  0.334801  0.000000  1
  W  W28  1  0.160682  0.999566  0.870925  1
  W  W29  1  0.497482  0.669952  0.124205  1
  W  W30  1  0.501563  0.336248  0.623978  1
  W  W31  1  0.669952  0.497482  0.875795  1
  W  W32  1  0.336248  0.501563  0.376022  1
  W  W33  1  0.838377  0.996020  0.373900  1
  W  W34  1  0.999566  0.160682  0.129075  1
  W  W35  1  0.996020  0.838377  0.626100  1
