# generated using pymatgen
data_Ho3MnAl12FePd2
_symmetry_space_group_name_H-M   'P 1'
_cell_length_a   8.78031577
_cell_length_b   8.78031529
_cell_length_c   9.42168384
_cell_angle_alpha   90.08400322
_cell_angle_beta   89.91600620
_cell_angle_gamma   119.88818658
_symmetry_Int_Tables_number   1
_chemical_formula_structural   Ho3MnAl12FePd2
_chemical_formula_sum   'Ho6 Mn2 Al24 Fe2 Pd4'
_cell_volume   629.74829779
_cell_formula_units_Z   2
loop_
 _symmetry_equiv_pos_site_id
 _symmetry_equiv_pos_as_xyz
  1  'x, y, z'
loop_
 _atom_site_type_symbol
 _atom_site_label
 _atom_site_symmetry_multiplicity
 _atom_site_fract_x
 _atom_site_fract_y
 _atom_site_fract_z
 _atom_site_occupancy
  Ho  Ho0  1  0.190230  0.384651  0.254965  1
  Ho  Ho1  1  0.809770  0.615349  0.745035  1
  Ho  Ho2  1  0.615349  0.809770  0.254965  1
  Ho  Ho3  1  0.384651  0.190230  0.745035  1
  Ho  Ho4  1  0.193061  0.806939  0.252457  1
  Ho  Ho5  1  0.806939  0.193061  0.747543  1
  Mn  Mn6  1  0.000000  0.000000  0.000000  1
  Mn  Mn7  1  0.000000  0.000000  0.500000  1
  Al  Al8  1  0.333371  0.666629  0.023223  1
  Al  Al9  1  0.666629  0.333371  0.976777  1
  Al  Al10  1  0.672439  0.327561  0.521353  1
  Al  Al11  1  0.327561  0.672439  0.478647  1
  Al  Al12  1  0.152082  0.320317  0.575904  1
  Al  Al13  1  0.847918  0.679683  0.424096  1
  Al  Al14  1  0.679683  0.847918  0.575904  1
  Al  Al15  1  0.842070  0.684395  0.080508  1
  Al  Al16  1  0.320317  0.152082  0.424096  1
  Al  Al17  1  0.157930  0.315605  0.919492  1
  Al  Al18  1  0.161253  0.838747  0.574606  1
  Al  Al19  1  0.315605  0.157930  0.080508  1
  Al  Al20  1  0.838747  0.161253  0.425394  1
  Al  Al21  1  0.684395  0.842070  0.919492  1
  Al  Al22  1  0.841492  0.158508  0.081378  1
  Al  Al23  1  0.158508  0.841492  0.918622  1
  Al  Al24  1  0.561539  0.121843  0.258471  1
  Al  Al25  1  0.438461  0.878157  0.741529  1
  Al  Al26  1  0.878157  0.438461  0.258471  1
  Al  Al27  1  0.121843  0.561539  0.741529  1
  Al  Al28  1  0.564034  0.435966  0.250091  1
  Al  Al29  1  0.435966  0.564034  0.749909  1
  Al  Al30  1  0.999553  0.000447  0.251263  1
  Al  Al31  1  0.000447  0.999553  0.748737  1
  Fe  Fe32  1  0.500000  0.000000  0.500000  1
  Fe  Fe33  1  0.000000  0.500000  0.500000  1
  Pd  Pd34  1  0.500000  0.000000  0.000000  1
  Pd  Pd35  1  0.000000  0.500000  0.000000  1
  Pd  Pd36  1  0.500000  0.500000  0.000000  1
  Pd  Pd37  1  0.500000  0.500000  0.500000  1
