# generated using pymatgen
data_ScTlOs3Pb3O13
_symmetry_space_group_name_H-M   'P 1'
_cell_length_a   7.49376866
_cell_length_b   7.49377000
_cell_length_c   7.49376786
_cell_angle_alpha   59.23595812
_cell_angle_beta   59.23596746
_cell_angle_gamma   59.23596487
_symmetry_Int_Tables_number   1
_chemical_formula_structural   ScTlOs3Pb3O13
_chemical_formula_sum   'Sc1 Tl1 Os3 Pb3 O13'
_cell_volume   292.38894695
_cell_formula_units_Z   1
loop_
 _symmetry_equiv_pos_site_id
 _symmetry_equiv_pos_as_xyz
  1  'x, y, z'
loop_
 _atom_site_type_symbol
 _atom_site_label
 _atom_site_symmetry_multiplicity
 _atom_site_fract_x
 _atom_site_fract_y
 _atom_site_fract_z
 _atom_site_occupancy
  Sc  Sc0  1  0.501891  0.501891  0.501891  1
  Tl  Tl1  1  0.994388  0.994388  0.994388  1
  Os  Os2  1  0.000564  0.501374  0.501374  1
  Os  Os3  1  0.501374  0.501374  0.000564  1
  Os  Os4  1  0.501374  0.000564  0.501374  1
  Pb  Pb5  1  0.501895  0.004050  0.004050  1
  Pb  Pb6  1  0.004050  0.004050  0.501895  1
  Pb  Pb7  1  0.004050  0.501895  0.004050  1
  O  O8  1  0.848294  0.416944  0.416944  1
  O  O9  1  0.427724  0.805516  0.805516  1
  O  O10  1  0.416944  0.416944  0.848294  1
  O  O11  1  0.805516  0.805516  0.427724  1
  O  O12  1  0.805516  0.427724  0.805516  1
  O  O13  1  0.416944  0.848294  0.416944  1
  O  O14  1  0.160929  0.576653  0.576653  1
  O  O15  1  0.573786  0.190561  0.190561  1
  O  O16  1  0.576653  0.576653  0.160929  1
  O  O17  1  0.190561  0.190561  0.573786  1
  O  O18  1  0.190561  0.573786  0.190561  1
  O  O19  1  0.576653  0.160929  0.576653  1
  O  O20  1  0.125331  0.125331  0.125331  1
