# generated using pymatgen
data_Ho12Ni4SnOs
_symmetry_space_group_name_H-M   'P 1'
_cell_length_a   8.28766549
_cell_length_b   8.28766561
_cell_length_c   8.28766542
_cell_angle_alpha   111.88428784
_cell_angle_beta   109.76718977
_cell_angle_gamma   106.80215271
_symmetry_Int_Tables_number   1
_chemical_formula_structural   Ho12Ni4SnOs
_chemical_formula_sum   'Ho12 Ni4 Sn1 Os1'
_cell_volume   437.33631046
_cell_formula_units_Z   1
loop_
 _symmetry_equiv_pos_site_id
 _symmetry_equiv_pos_as_xyz
  1  'x, y, z'
loop_
 _atom_site_type_symbol
 _atom_site_label
 _atom_site_symmetry_multiplicity
 _atom_site_fract_x
 _atom_site_fract_y
 _atom_site_fract_z
 _atom_site_occupancy
  Ho  Ho0  1  0.408094  0.217376  0.190717  1
  Ho  Ho1  1  0.591906  0.782624  0.809283  1
  Ho  Ho2  1  0.026658  0.217376  0.809283  1
  Ho  Ho3  1  0.973342  0.782624  0.190717  1
  Ho  Ho4  1  0.180000  0.286267  0.466267  1
  Ho  Ho5  1  0.820000  0.713733  0.533733  1
  Ho  Ho6  1  0.180000  0.713733  0.893734  1
  Ho  Ho7  1  0.820000  0.286267  0.106266  1
  Ho  Ho8  1  0.320604  0.626934  0.306330  1
  Ho  Ho9  1  0.679396  0.373066  0.693670  1
  Ho  Ho10  1  0.320604  0.014274  0.693670  1
  Ho  Ho11  1  0.679396  0.985726  0.306330  1
  Ni  Ni12  1  0.361520  0.000000  0.361520  1
  Ni  Ni13  1  0.638480  0.000000  0.638480  1
  Ni  Ni14  1  0.122144  0.622144  0.500000  1
  Ni  Ni15  1  0.877856  0.377856  0.500000  1
  Sn  Sn16  1  0.500000  0.500000  0.000000  1
  Os  Os17  1  0.000000  0.000000  0.000000  1
