# generated using pymatgen
data_Ce4ZnIn2Rh3
_symmetry_space_group_name_H-M   'P 1'
_cell_length_a   7.76145655
_cell_length_b   7.76145655
_cell_length_c   3.78779500
_cell_angle_alpha   90.00000000
_cell_angle_beta   90.00000000
_cell_angle_gamma   89.36398529
_symmetry_Int_Tables_number   1
_chemical_formula_structural   Ce4ZnIn2Rh3
_chemical_formula_sum   'Ce4 Zn1 In2 Rh3'
_cell_volume   228.16349955
_cell_formula_units_Z   1
loop_
 _symmetry_equiv_pos_site_id
 _symmetry_equiv_pos_as_xyz
  1  'x, y, z'
loop_
 _atom_site_type_symbol
 _atom_site_label
 _atom_site_symmetry_multiplicity
 _atom_site_fract_x
 _atom_site_fract_y
 _atom_site_fract_z
 _atom_site_occupancy
  Ce  Ce0  1  0.676386  0.176386  0.500000  1
  Ce  Ce1  1  0.343774  0.843774  0.500000  1
  Ce  Ce2  1  0.167172  0.309975  0.500000  1
  Ce  Ce3  1  0.809975  0.667172  0.500000  1
  Zn  Zn4  1  0.124972  0.624972  0.000000  1
  In  In5  1  0.998336  0.994003  0.000000  1
  In  In6  1  0.494003  0.498336  0.000000  1
  Rh  Rh7  1  0.881729  0.381729  0.000000  1
  Rh  Rh8  1  0.638524  0.865129  0.000000  1
  Rh  Rh9  1  0.365129  0.138524  0.000000  1
