# generated using pymatgen
data_CaEr5(Si3Pt2)4
_symmetry_space_group_name_H-M   'P 1'
_cell_length_a   4.23187000
_cell_length_b   8.53365658
_cell_length_c   12.89764400
_cell_angle_alpha   80.25484029
_cell_angle_beta   90.00000000
_cell_angle_gamma   90.00000000
_symmetry_Int_Tables_number   1
_chemical_formula_structural   CaEr5(Si3Pt2)4
_chemical_formula_sum   'Ca1 Er5 Si12 Pt8'
_cell_volume   459.05582195
_cell_formula_units_Z   1
loop_
 _symmetry_equiv_pos_site_id
 _symmetry_equiv_pos_as_xyz
  1  'x, y, z'
loop_
 _atom_site_type_symbol
 _atom_site_label
 _atom_site_symmetry_multiplicity
 _atom_site_fract_x
 _atom_site_fract_y
 _atom_site_fract_z
 _atom_site_occupancy
  Ca  Ca0  1  0.250000  0.071405  0.187163  1
  Er  Er1  1  0.250000  0.766190  0.438812  1
  Er  Er2  1  0.250000  0.587198  0.185503  1
  Er  Er3  1  0.750000  0.234402  0.562038  1
  Er  Er4  1  0.750000  0.414953  0.811940  1
  Er  Er5  1  0.750000  0.928421  0.815153  1
  Si  Si6  1  0.750000  0.587646  0.570719  1
  Si  Si7  1  0.750000  0.127747  0.006146  1
  Si  Si8  1  0.750000  0.870087  0.576551  1
  Si  Si9  1  0.250000  0.697993  0.712321  1
  Si  Si10  1  0.750000  0.303911  0.287340  1
  Si  Si11  1  0.750000  0.804180  0.276569  1
  Si  Si12  1  0.250000  0.873377  0.991685  1
  Si  Si13  1  0.250000  0.193780  0.722619  1
  Si  Si14  1  0.250000  0.379175  0.000826  1
  Si  Si15  1  0.250000  0.124988  0.430154  1
  Si  Si16  1  0.750000  0.620829  0.996866  1
  Si  Si17  1  0.250000  0.410952  0.430099  1
  Pt  Pt18  1  0.750000  0.354422  0.100348  1
  Pt  Pt19  1  0.250000  0.972334  0.622717  1
  Pt  Pt20  1  0.750000  0.847580  0.087766  1
  Pt  Pt21  1  0.750000  0.028734  0.377797  1
  Pt  Pt22  1  0.250000  0.648276  0.898627  1
  Pt  Pt23  1  0.250000  0.151289  0.909689  1
  Pt  Pt24  1  0.750000  0.532675  0.376494  1
  Pt  Pt25  1  0.250000  0.467456  0.624057  1
