# generated using pymatgen
data_Ba3Ga10PdO20
_symmetry_space_group_name_H-M   'P 1'
_cell_length_a   9.99605812
_cell_length_b   9.99605805
_cell_length_c   5.25707729
_cell_angle_alpha   75.75373773
_cell_angle_beta   75.75373684
_cell_angle_gamma   72.54881424
_symmetry_Int_Tables_number   1
_chemical_formula_structural   Ba3Ga10PdO20
_chemical_formula_sum   'Ba3 Ga10 Pd1 O20'
_cell_volume   477.19849504
_cell_formula_units_Z   1
loop_
 _symmetry_equiv_pos_site_id
 _symmetry_equiv_pos_as_xyz
  1  'x, y, z'
loop_
 _atom_site_type_symbol
 _atom_site_label
 _atom_site_symmetry_multiplicity
 _atom_site_fract_x
 _atom_site_fract_y
 _atom_site_fract_z
 _atom_site_occupancy
  Ba  Ba0  1  0.500000  0.500000  0.500000  1
  Ba  Ba1  1  0.220717  0.220717  0.766621  1
  Ba  Ba2  1  0.779283  0.779283  0.233379  1
  Ga  Ga3  1  0.076881  0.648274  0.664127  1
  Ga  Ga4  1  0.648274  0.076881  0.664127  1
  Ga  Ga5  1  0.923119  0.351726  0.335873  1
  Ga  Ga6  1  0.351726  0.923119  0.335873  1
  Ga  Ga7  1  0.215834  0.492181  0.158140  1
  Ga  Ga8  1  0.492181  0.215834  0.158140  1
  Ga  Ga9  1  0.784166  0.507819  0.841860  1
  Ga  Ga10  1  0.507819  0.784166  0.841860  1
  Ga  Ga11  1  0.865493  0.134507  0.000000  1
  Ga  Ga12  1  0.134507  0.865493  0.000000  1
  Pd  Pd13  1  0.000000  0.000000  0.500000  1
  O  O14  1  0.100800  0.376061  0.169670  1
  O  O15  1  0.376061  0.100800  0.169670  1
  O  O16  1  0.899200  0.623939  0.830330  1
  O  O17  1  0.623939  0.899200  0.830330  1
  O  O18  1  0.164225  0.670213  0.928480  1
  O  O19  1  0.670213  0.164225  0.928480  1
  O  O20  1  0.835775  0.329787  0.071520  1
  O  O21  1  0.329787  0.835775  0.071520  1
  O  O22  1  0.063747  0.063747  0.107499  1
  O  O23  1  0.936253  0.936253  0.892501  1
  O  O24  1  0.214225  0.505044  0.506713  1
  O  O25  1  0.505044  0.214225  0.506713  1
  O  O26  1  0.785775  0.494956  0.493287  1
  O  O27  1  0.494956  0.785775  0.493287  1
  O  O28  1  0.399991  0.399991  0.015861  1
  O  O29  1  0.600009  0.600009  0.984139  1
  O  O30  1  0.953435  0.191837  0.613855  1
  O  O31  1  0.191837  0.953435  0.613855  1
  O  O32  1  0.046565  0.808163  0.386145  1
  O  O33  1  0.808163  0.046565  0.386145  1
