# generated using pymatgen
data_Tb4YCoPd2
_symmetry_space_group_name_H-M   'P 1'
_cell_length_a   7.97453900
_cell_length_b   8.20220500
_cell_length_c   11.82865500
_cell_angle_alpha   90.00000000
_cell_angle_beta   90.00000000
_cell_angle_gamma   90.00000000
_symmetry_Int_Tables_number   1
_chemical_formula_structural   Tb4YCoPd2
_chemical_formula_sum   'Tb16 Y4 Co4 Pd8'
_cell_volume   773.69817244
_cell_formula_units_Z   4
loop_
 _symmetry_equiv_pos_site_id
 _symmetry_equiv_pos_as_xyz
  1  'x, y, z'
loop_
 _atom_site_type_symbol
 _atom_site_label
 _atom_site_symmetry_multiplicity
 _atom_site_fract_x
 _atom_site_fract_y
 _atom_site_fract_z
 _atom_site_occupancy
  Tb  Tb0  1  0.457791  0.750000  0.007268  1
  Tb  Tb1  1  0.957791  0.250000  0.492732  1
  Tb  Tb2  1  0.542209  0.250000  0.992732  1
  Tb  Tb3  1  0.042209  0.750000  0.507268  1
  Tb  Tb4  1  0.626017  0.750000  0.305491  1
  Tb  Tb5  1  0.126017  0.250000  0.194509  1
  Tb  Tb6  1  0.373983  0.250000  0.694509  1
  Tb  Tb7  1  0.873983  0.750000  0.805491  1
  Tb  Tb8  1  0.828798  0.963593  0.080496  1
  Tb  Tb9  1  0.328798  0.036407  0.419504  1
  Tb  Tb10  1  0.171202  0.463593  0.919504  1
  Tb  Tb11  1  0.671202  0.536407  0.580496  1
  Tb  Tb12  1  0.171202  0.036407  0.919504  1
  Tb  Tb13  1  0.671202  0.963593  0.580496  1
  Tb  Tb14  1  0.828798  0.536407  0.080496  1
  Tb  Tb15  1  0.328798  0.463593  0.419504  1
  Y  Y16  1  0.165515  0.750000  0.215598  1
  Y  Y17  1  0.665515  0.250000  0.284402  1
  Y  Y18  1  0.834485  0.250000  0.784402  1
  Y  Y19  1  0.334485  0.750000  0.715598  1
  Co  Co20  1  0.432717  0.750000  0.494023  1
  Co  Co21  1  0.932717  0.250000  0.005977  1
  Co  Co22  1  0.567283  0.250000  0.505977  1
  Co  Co23  1  0.067283  0.750000  0.994023  1
  Pd  Pd24  1  0.933100  0.977519  0.330962  1
  Pd  Pd25  1  0.433100  0.022481  0.169038  1
  Pd  Pd26  1  0.066900  0.477519  0.669038  1
  Pd  Pd27  1  0.566900  0.522481  0.830962  1
  Pd  Pd28  1  0.066900  0.022481  0.669038  1
  Pd  Pd29  1  0.566900  0.977519  0.830962  1
  Pd  Pd30  1  0.933100  0.522481  0.330962  1
  Pd  Pd31  1  0.433100  0.477519  0.169038  1
