# generated using pymatgen
data_La4Ho2Sn7Hg3
_symmetry_space_group_name_H-M   'P 1'
_cell_length_a   6.60709271
_cell_length_b   6.60709235
_cell_length_c   10.42833667
_cell_angle_alpha   90.48739942
_cell_angle_beta   90.48740938
_cell_angle_gamma   102.37435878
_symmetry_Int_Tables_number   1
_chemical_formula_structural   La4Ho2Sn7Hg3
_chemical_formula_sum   'La4 Ho2 Sn7 Hg3'
_cell_volume   444.61833350
_cell_formula_units_Z   1
loop_
 _symmetry_equiv_pos_site_id
 _symmetry_equiv_pos_as_xyz
  1  'x, y, z'
loop_
 _atom_site_type_symbol
 _atom_site_label
 _atom_site_symmetry_multiplicity
 _atom_site_fract_x
 _atom_site_fract_y
 _atom_site_fract_z
 _atom_site_occupancy
  La  La0  1  0.205886  0.796775  0.500281  1
  La  La1  1  0.206831  0.791623  0.000182  1
  La  La2  1  0.796775  0.205886  0.500281  1
  La  La3  1  0.791623  0.206831  0.000182  1
  Ho  Ho4  1  0.629800  0.629800  0.250849  1
  Ho  Ho5  1  0.370307  0.370307  0.744704  1
  Sn  Sn6  1  0.014423  0.014423  0.246561  1
  Sn  Sn7  1  0.985176  0.985176  0.752241  1
  Sn  Sn8  1  0.687281  0.687281  0.544785  1
  Sn  Sn9  1  0.489746  0.069842  0.248650  1
  Sn  Sn10  1  0.932389  0.509661  0.752660  1
  Sn  Sn11  1  0.509661  0.932389  0.752660  1
  Sn  Sn12  1  0.069842  0.489746  0.248650  1
  Hg  Hg13  1  0.314794  0.314794  0.036797  1
  Hg  Hg14  1  0.684785  0.684785  0.962569  1
  Hg  Hg15  1  0.310682  0.310682  0.457949  1
