# generated using pymatgen
data_Sm3YAl4(CoO5)4
_symmetry_space_group_name_H-M   'P 1'
_cell_length_a   5.66420100
_cell_length_b   7.30352243
_cell_length_c   8.41357249
_cell_angle_alpha   90.03909039
_cell_angle_beta   90.00000000
_cell_angle_gamma   90.00000000
_symmetry_Int_Tables_number   1
_chemical_formula_structural   Sm3YAl4(CoO5)4
_chemical_formula_sum   'Sm3 Y1 Al4 Co4 O20'
_cell_volume   348.05779394
_cell_formula_units_Z   1
loop_
 _symmetry_equiv_pos_site_id
 _symmetry_equiv_pos_as_xyz
  1  'x, y, z'
loop_
 _atom_site_type_symbol
 _atom_site_label
 _atom_site_symmetry_multiplicity
 _atom_site_fract_x
 _atom_site_fract_y
 _atom_site_fract_z
 _atom_site_occupancy
  Sm  Sm0  1  0.500000  0.363520  0.329169  1
  Sm  Sm1  1  0.500000  0.636602  0.670604  1
  Sm  Sm2  1  0.500000  0.135512  0.830224  1
  Y  Y3  1  0.500000  0.862990  0.170544  1
  Al  Al4  1  0.000000  0.107073  0.142241  1
  Al  Al5  1  0.000000  0.890596  0.858848  1
  Al  Al6  1  0.000000  0.390626  0.641376  1
  Al  Al7  1  0.000000  0.609976  0.357455  1
  Co  Co8  1  0.244390  0.999197  0.499340  1
  Co  Co9  1  0.755610  0.999197  0.499340  1
  Co  Co10  1  0.755849  0.501627  0.000719  1
  Co  Co11  1  0.244151  0.501627  0.000719  1
  O  O12  1  0.500000  0.345438  0.052271  1
  O  O13  1  0.500000  0.660095  0.949011  1
  O  O14  1  0.500000  0.155818  0.551954  1
  O  O15  1  0.500000  0.841891  0.444456  1
  O  O16  1  0.218656  0.997148  0.001792  1
  O  O17  1  0.781344  0.997148  0.001792  1
  O  O18  1  0.783126  0.499603  0.498989  1
  O  O19  1  0.216874  0.499603  0.498989  1
  O  O20  1  0.247939  0.097178  0.290470  1
  O  O21  1  0.754412  0.899521  0.708579  1
  O  O22  1  0.245588  0.899521  0.708579  1
  O  O23  1  0.754103  0.399888  0.791666  1
  O  O24  1  0.752061  0.097178  0.290470  1
  O  O25  1  0.247103  0.605901  0.207856  1
  O  O26  1  0.752897  0.605901  0.207856  1
  O  O27  1  0.245897  0.399888  0.791666  1
  O  O28  1  0.000000  0.344726  0.071047  1
  O  O29  1  0.000000  0.654990  0.932024  1
  O  O30  1  0.000000  0.155764  0.566756  1
  O  O31  1  0.000000  0.844257  0.433196  1
