# generated using pymatgen
data_Ba8Be3Si12Ag
_symmetry_space_group_name_H-M   'P 1'
_cell_length_a   12.50079374
_cell_length_b   11.00953708
_cell_length_c   8.25975859
_cell_angle_alpha   79.53077397
_cell_angle_beta   60.03822131
_cell_angle_gamma   41.04736939
_symmetry_Int_Tables_number   1
_chemical_formula_structural   Ba8Be3Si12Ag
_chemical_formula_sum   'Ba8 Be3 Si12 Ag1'
_cell_volume   607.58558340
_cell_formula_units_Z   1
loop_
 _symmetry_equiv_pos_site_id
 _symmetry_equiv_pos_as_xyz
  1  'x, y, z'
loop_
 _atom_site_type_symbol
 _atom_site_label
 _atom_site_symmetry_multiplicity
 _atom_site_fract_x
 _atom_site_fract_y
 _atom_site_fract_z
 _atom_site_occupancy
  Ba  Ba0  1  0.125665  0.125402  0.374687  1
  Ba  Ba1  1  0.876176  0.874870  0.123858  1
  Ba  Ba2  1  0.124742  0.125368  0.875642  1
  Ba  Ba3  1  0.374147  0.374107  0.125162  1
  Ba  Ba4  1  0.623315  0.621674  0.376730  1
  Ba  Ba5  1  0.376522  0.377231  0.623149  1
  Ba  Ba6  1  0.628372  0.631252  0.871321  1
  Ba  Ba7  1  0.870657  0.870068  0.629534  1
  Be  Be8  1  0.082713  0.416454  0.082575  1
  Be  Be9  1  0.167058  0.833738  0.167835  1
  Be  Be10  1  0.416552  0.083273  0.417611  1
  Si  Si11  1  0.331520  0.667740  0.837022  1
  Si  Si12  1  0.179351  0.826552  0.660110  1
  Si  Si13  1  0.839142  0.161944  0.329901  1
  Si  Si14  1  0.658097  0.336426  0.180816  1
  Si  Si15  1  0.924162  0.582290  0.404329  1
  Si  Si16  1  0.092090  0.403812  0.579707  1
  Si  Si17  1  0.403880  0.090334  0.924539  1
  Si  Si18  1  0.923056  0.578389  0.922159  1
  Si  Si19  1  0.660652  0.339103  0.664331  1
  Si  Si20  1  0.329462  0.668971  0.329857  1
  Si  Si21  1  0.578233  0.922525  0.576466  1
  Si  Si22  1  0.580236  0.922694  0.091797  1
  Ag  Ag23  1  0.834203  0.165780  0.830862  1
