# generated using pymatgen
data_Yb11Y(SiIr)8
_symmetry_space_group_name_H-M   'P 1'
_cell_length_a   5.66553300
_cell_length_b   7.61676321
_cell_length_c   13.30548500
_cell_angle_alpha   90.00000000
_cell_angle_beta   90.00000000
_cell_angle_gamma   90.07314712
_symmetry_Int_Tables_number   1
_chemical_formula_structural   Yb11Y(SiIr)8
_chemical_formula_sum   'Yb11 Y1 Si8 Ir8'
_cell_volume   574.17143636
_cell_formula_units_Z   1
loop_
 _symmetry_equiv_pos_site_id
 _symmetry_equiv_pos_as_xyz
  1  'x, y, z'
loop_
 _atom_site_type_symbol
 _atom_site_label
 _atom_site_symmetry_multiplicity
 _atom_site_fract_x
 _atom_site_fract_y
 _atom_site_fract_z
 _atom_site_occupancy
  Yb  Yb0  1  0.138909  0.607719  0.097996  1
  Yb  Yb1  1  0.138737  0.895468  0.903262  1
  Yb  Yb2  1  0.862227  0.107956  0.400823  1
  Yb  Yb3  1  0.864558  0.387470  0.597288  1
  Yb  Yb4  1  0.864558  0.387470  0.902712  1
  Yb  Yb5  1  0.862227  0.107956  0.099177  1
  Yb  Yb6  1  0.138737  0.895468  0.596738  1
  Yb  Yb7  1  0.138909  0.607719  0.402004  1
  Yb  Yb8  1  0.365206  0.269503  0.250000  1
  Yb  Yb9  1  0.364517  0.236963  0.750000  1
  Yb  Yb10  1  0.635693  0.769268  0.250000  1
  Y  Y11  1  0.629607  0.729023  0.750000  1
  Si  Si12  1  0.847521  0.419270  0.250000  1
  Si  Si13  1  0.844667  0.078037  0.750000  1
  Si  Si14  1  0.154050  0.917099  0.250000  1
  Si  Si15  1  0.142511  0.591511  0.750000  1
  Si  Si16  1  0.406183  0.249406  0.999093  1
  Si  Si17  1  0.593633  0.749120  0.500033  1
  Si  Si18  1  0.593633  0.749120  0.999967  1
  Si  Si19  1  0.406183  0.249406  0.500907  1
  Ir  Ir20  1  0.639474  0.472833  0.091438  1
  Ir  Ir21  1  0.639355  0.023447  0.907247  1
  Ir  Ir22  1  0.362794  0.973201  0.407182  1
  Ir  Ir23  1  0.362245  0.528043  0.593584  1
  Ir  Ir24  1  0.362245  0.528043  0.906416  1
  Ir  Ir25  1  0.362794  0.973201  0.092818  1
  Ir  Ir26  1  0.639355  0.023447  0.592753  1
  Ir  Ir27  1  0.639474  0.472833  0.408562  1
