# generated using pymatgen
data_Li3YTm2Au3
_symmetry_space_group_name_H-M   'P 1'
_cell_length_a   7.34944500
_cell_length_b   7.34944605
_cell_length_c   4.17296600
_cell_angle_alpha   90.00000000
_cell_angle_beta   90.00000000
_cell_angle_gamma   119.94219697
_symmetry_Int_Tables_number   1
_chemical_formula_structural   Li3YTm2Au3
_chemical_formula_sum   'Li3 Y1 Tm2 Au3'
_cell_volume   195.31576262
_cell_formula_units_Z   1
loop_
 _symmetry_equiv_pos_site_id
 _symmetry_equiv_pos_as_xyz
  1  'x, y, z'
loop_
 _atom_site_type_symbol
 _atom_site_label
 _atom_site_symmetry_multiplicity
 _atom_site_fract_x
 _atom_site_fract_y
 _atom_site_fract_z
 _atom_site_occupancy
  Li  Li0  1  0.237096  0.999967  0.500000  1
  Li  Li1  1  0.999967  0.237096  0.500000  1
  Li  Li2  1  0.764889  0.764889  0.500000  1
  Y  Y3  1  0.411033  0.411033  0.000000  1
  Tm  Tm4  1  0.589781  0.001616  0.000000  1
  Tm  Tm5  1  0.001616  0.589781  0.000000  1
  Au  Au6  1  0.332105  0.668937  0.500000  1
  Au  Au7  1  0.668937  0.332105  0.500000  1
  Au  Au8  1  0.994577  0.994577  0.000000  1
