# generated using pymatgen
data_La6TbTmSb20
_symmetry_space_group_name_H-M   'P 1'
_cell_length_a   4.32570600
_cell_length_b   13.64868937
_cell_length_c   15.24692517
_cell_angle_alpha   78.23623110
_cell_angle_beta   90.00000000
_cell_angle_gamma   90.00000000
_symmetry_Int_Tables_number   1
_chemical_formula_structural   La6TbTmSb20
_chemical_formula_sum   'La6 Tb1 Tm1 Sb20'
_cell_volume   881.27481605
_cell_formula_units_Z   1
loop_
 _symmetry_equiv_pos_site_id
 _symmetry_equiv_pos_as_xyz
  1  'x, y, z'
loop_
 _atom_site_type_symbol
 _atom_site_label
 _atom_site_symmetry_multiplicity
 _atom_site_fract_x
 _atom_site_fract_y
 _atom_site_fract_z
 _atom_site_occupancy
  La  La0  1  0.750000  0.334010  0.142001  1
  La  La1  1  0.250000  0.947427  0.364763  1
  La  La2  1  0.250000  0.665664  0.857226  1
  La  La3  1  0.250000  0.666403  0.578087  1
  La  La4  1  0.750000  0.052792  0.635276  1
  La  La5  1  0.750000  0.333431  0.422582  1
  Tb  Tb6  1  0.750000  0.602756  0.227912  1
  Tm  Tm7  1  0.250000  0.397952  0.771990  1
  Sb  Sb8  1  0.750000  0.856067  0.817182  1
  Sb  Sb9  1  0.250000  0.863159  0.675504  1
  Sb  Sb10  1  0.250000  0.145688  0.475136  1
  Sb  Sb11  1  0.750000  0.287927  0.930989  1
  Sb  Sb12  1  0.250000  0.150602  0.781166  1
  Sb  Sb13  1  0.750000  0.575841  0.439883  1
  Sb  Sb14  1  0.750000  0.137053  0.324431  1
  Sb  Sb15  1  0.250000  0.703329  0.351971  1
  Sb  Sb16  1  0.750000  0.296892  0.649291  1
  Sb  Sb17  1  0.750000  0.850832  0.219201  1
  Sb  Sb18  1  0.250000  0.419868  0.969827  1
  Sb  Sb19  1  0.250000  0.424203  0.561768  1
  Sb  Sb20  1  0.750000  0.568188  0.738778  1
  Sb  Sb21  1  0.250000  0.429020  0.261816  1
  Sb  Sb22  1  0.750000  0.854284  0.524926  1
  Sb  Sb23  1  0.750000  0.036795  0.886637  1
  Sb  Sb24  1  0.250000  0.712235  0.067050  1
  Sb  Sb25  1  0.250000  0.963534  0.113403  1
  Sb  Sb26  1  0.250000  0.144041  0.182728  1
  Sb  Sb27  1  0.750000  0.580008  0.028478  1
