# generated using pymatgen
data_SmThNi7
_symmetry_space_group_name_H-M   'P 1'
_cell_length_a   4.95773960
_cell_length_b   4.95773915
_cell_length_c   12.55199606
_cell_angle_alpha   78.60989523
_cell_angle_beta   78.60989461
_cell_angle_gamma   59.99999955
_symmetry_Int_Tables_number   1
_chemical_formula_structural   SmThNi7
_chemical_formula_sum   'Sm2 Th2 Ni14'
_cell_volume   260.14441763
_cell_formula_units_Z   2
loop_
 _symmetry_equiv_pos_site_id
 _symmetry_equiv_pos_as_xyz
  1  'x, y, z'
loop_
 _atom_site_type_symbol
 _atom_site_label
 _atom_site_symmetry_multiplicity
 _atom_site_fract_x
 _atom_site_fract_y
 _atom_site_fract_z
 _atom_site_occupancy
  Sm  Sm0  1  0.852505  0.852505  0.442486  1
  Sm  Sm1  1  0.147495  0.147495  0.557514  1
  Th  Th2  1  0.949225  0.949225  0.152326  1
  Th  Th3  1  0.050775  0.050775  0.847674  1
  Ni  Ni4  1  0.500000  0.500000  0.500000  1
  Ni  Ni5  1  0.721712  0.721712  0.834864  1
  Ni  Ni6  1  0.278288  0.278288  0.165136  1
  Ni  Ni7  1  0.611847  0.611847  0.164460  1
  Ni  Ni8  1  0.388153  0.388153  0.835540  1
  Ni  Ni9  1  0.000000  0.500000  0.000000  1
  Ni  Ni10  1  0.500000  0.000000  0.000000  1
  Ni  Ni11  1  0.500000  0.500000  0.000000  1
  Ni  Ni12  1  0.390551  0.390551  0.328384  1
  Ni  Ni13  1  0.890516  0.390551  0.328384  1
  Ni  Ni14  1  0.390551  0.890516  0.328384  1
  Ni  Ni15  1  0.609449  0.609449  0.671616  1
  Ni  Ni16  1  0.109484  0.609449  0.671616  1
  Ni  Ni17  1  0.609449  0.109484  0.671616  1
