# generated using pymatgen
data_NaCr(SeO3)2
_symmetry_space_group_name_H-M   'P 1'
_cell_length_a   5.51282900
_cell_length_b   8.34410004
_cell_length_c   13.21201200
_cell_angle_alpha   89.99419084
_cell_angle_beta   90.00047809
_cell_angle_gamma   89.99967045
_symmetry_Int_Tables_number   1
_chemical_formula_structural   NaCr(SeO3)2
_chemical_formula_sum   'Na4 Cr4 Se8 O24'
_cell_volume   607.74722041
_cell_formula_units_Z   4
loop_
 _symmetry_equiv_pos_site_id
 _symmetry_equiv_pos_as_xyz
  1  'x, y, z'
loop_
 _atom_site_type_symbol
 _atom_site_label
 _atom_site_symmetry_multiplicity
 _atom_site_fract_x
 _atom_site_fract_y
 _atom_site_fract_z
 _atom_site_occupancy
  Na  Na0  1  0.250076  0.513609  0.889597  1
  Na  Na1  1  0.250013  0.986364  0.389582  1
  Na  Na2  1  0.749951  0.486443  0.110403  1
  Na  Na3  1  0.750044  0.013568  0.610384  1
  Cr  Cr4  1  0.249939  0.809034  0.109663  1
  Cr  Cr5  1  0.750014  0.309169  0.390517  1
  Cr  Cr6  1  0.250052  0.690986  0.609586  1
  Cr  Cr7  1  0.750021  0.191052  0.890388  1
  Se  Se8  1  0.750030  0.014163  0.206386  1
  Se  Se9  1  0.249965  0.985855  0.793642  1
  Se  Se10  1  0.250006  0.514127  0.293667  1
  Se  Se11  1  0.749951  0.791634  0.944792  1
  Se  Se12  1  0.750026  0.708297  0.444775  1
  Se  Se13  1  0.249991  0.208375  0.055186  1
  Se  Se14  1  0.750008  0.485885  0.706339  1
  Se  Se15  1  0.250033  0.291632  0.555239  1
  O  O16  1  0.499936  0.613734  0.714481  1
  O  O17  1  0.999888  0.386305  0.285504  1
  O  O18  1  0.249977  0.008804  0.023769  1
  O  O19  1  0.491885  0.211320  0.486547  1
  O  O20  1  0.250065  0.579835  0.169205  1
  O  O21  1  0.008174  0.211335  0.486557  1
  O  O22  1  0.000143  0.886309  0.214543  1
  O  O23  1  0.249986  0.491203  0.523774  1
  O  O24  1  0.000112  0.613735  0.714484  1
  O  O25  1  0.508144  0.788603  0.513412  1
  O  O26  1  0.749977  0.508710  0.476255  1
  O  O27  1  0.991838  0.711383  0.013486  1
  O  O28  1  0.999860  0.113666  0.785455  1
  O  O29  1  0.249961  0.920210  0.669177  1
  O  O30  1  0.500022  0.886233  0.214496  1
  O  O31  1  0.500049  0.386233  0.285508  1
  O  O32  1  0.991876  0.788560  0.513455  1
  O  O33  1  0.500013  0.113726  0.785480  1
  O  O34  1  0.508063  0.711374  0.013480  1
  O  O35  1  0.749962  0.991222  0.976171  1
  O  O36  1  0.008108  0.288655  0.986511  1
  O  O37  1  0.491857  0.288675  0.986485  1
  O  O38  1  0.749947  0.420217  0.830784  1
  O  O39  1  0.750034  0.079758  0.330833  1
