# generated using pymatgen
data_CeMnAl10Rh
_symmetry_space_group_name_H-M   'P 1'
_cell_length_a   6.85269115
_cell_length_b   6.85289642
_cell_length_c   9.11665479
_cell_angle_alpha   89.97177014
_cell_angle_beta   90.02881877
_cell_angle_gamma   97.45128960
_symmetry_Int_Tables_number   1
_chemical_formula_structural   CeMnAl10Rh
_chemical_formula_sum   'Ce2 Mn2 Al20 Rh2'
_cell_volume   424.50983498
_cell_formula_units_Z   2
loop_
 _symmetry_equiv_pos_site_id
 _symmetry_equiv_pos_as_xyz
  1  'x, y, z'
loop_
 _atom_site_type_symbol
 _atom_site_label
 _atom_site_symmetry_multiplicity
 _atom_site_fract_x
 _atom_site_fract_y
 _atom_site_fract_z
 _atom_site_occupancy
  Ce  Ce0  1  0.875911  0.124038  0.756222  1
  Ce  Ce1  1  0.124089  0.875962  0.243778  1
  Mn  Mn2  1  0.500000  0.000000  0.000000  1
  Mn  Mn3  1  0.000000  0.500000  0.000000  1
  Al  Al4  1  0.589109  0.863074  0.245346  1
  Al  Al5  1  0.777855  0.520121  0.244692  1
  Al  Al6  1  0.160822  0.839137  0.901093  1
  Al  Al7  1  0.410891  0.136926  0.754654  1
  Al  Al8  1  0.625024  0.374998  0.952341  1
  Al  Al9  1  0.842296  0.157714  0.397036  1
  Al  Al10  1  0.773250  0.773226  0.000018  1
  Al  Al11  1  0.863108  0.589092  0.754638  1
  Al  Al12  1  0.839178  0.160863  0.098907  1
  Al  Al13  1  0.222145  0.479879  0.755308  1
  Al  Al14  1  0.157704  0.842286  0.602964  1
  Al  Al15  1  0.774194  0.774179  0.500010  1
  Al  Al16  1  0.479876  0.222187  0.244708  1
  Al  Al17  1  0.621832  0.378194  0.553272  1
  Al  Al18  1  0.225806  0.225821  0.499990  1
  Al  Al19  1  0.378168  0.621806  0.446728  1
  Al  Al20  1  0.136892  0.410908  0.245362  1
  Al  Al21  1  0.520124  0.777813  0.755292  1
  Al  Al22  1  0.374976  0.625002  0.047659  1
  Al  Al23  1  0.226750  0.226774  0.999982  1
  Rh  Rh24  1  0.500000  0.000000  0.500000  1
  Rh  Rh25  1  0.000000  0.500000  0.500000  1
