# generated using pymatgen
data_Ba8HoTm(CuO3)6
_symmetry_space_group_name_H-M   'P 1'
_cell_length_a   8.14076900
_cell_length_b   8.14076900
_cell_length_c   8.14076900
_cell_angle_alpha   90.00000000
_cell_angle_beta   90.00000000
_cell_angle_gamma   90.00000000
_symmetry_Int_Tables_number   1
_chemical_formula_structural   Ba8HoTm(CuO3)6
_chemical_formula_sum   'Ba8 Ho1 Tm1 Cu6 O18'
_cell_volume   539.50601934
_cell_formula_units_Z   1
loop_
 _symmetry_equiv_pos_site_id
 _symmetry_equiv_pos_as_xyz
  1  'x, y, z'
loop_
 _atom_site_type_symbol
 _atom_site_label
 _atom_site_symmetry_multiplicity
 _atom_site_fract_x
 _atom_site_fract_y
 _atom_site_fract_z
 _atom_site_occupancy
  Ba  Ba0  1  0.249724  0.249724  0.249724  1
  Ba  Ba1  1  0.750277  0.249724  0.249724  1
  Ba  Ba2  1  0.249724  0.750277  0.249724  1
  Ba  Ba3  1  0.750277  0.750277  0.249724  1
  Ba  Ba4  1  0.249724  0.249724  0.750277  1
  Ba  Ba5  1  0.750277  0.249724  0.750277  1
  Ba  Ba6  1  0.249724  0.750277  0.750277  1
  Ba  Ba7  1  0.750277  0.750277  0.750277  1
  Ho  Ho8  1  0.500000  0.500000  0.500000  1
  Tm  Tm9  1  0.000000  0.000000  0.000000  1
  Cu  Cu10  1  0.500000  0.000000  0.000000  1
  Cu  Cu11  1  0.000000  0.500000  0.000000  1
  Cu  Cu12  1  0.500000  0.500000  0.000000  1
  Cu  Cu13  1  0.000000  0.000000  0.500000  1
  Cu  Cu14  1  0.500000  0.000000  0.500000  1
  Cu  Cu15  1  0.000000  0.500000  0.500000  1
  O  O16  1  0.270916  0.000000  0.000000  1
  O  O17  1  0.729084  0.000000  0.000000  1
  O  O18  1  0.000000  0.270916  0.000000  1
  O  O19  1  0.249929  0.500000  0.000000  1
  O  O20  1  0.750072  0.500000  0.000000  1
  O  O21  1  0.000000  0.729084  0.000000  1
  O  O22  1  0.500000  0.500000  0.227572  1
  O  O23  1  0.500000  0.000000  0.249929  1
  O  O24  1  0.000000  0.000000  0.270916  1
  O  O25  1  0.500000  0.227572  0.500000  1
  O  O26  1  0.000000  0.249929  0.500000  1
  O  O27  1  0.227572  0.500000  0.500000  1
  O  O28  1  0.772428  0.500000  0.500000  1
  O  O29  1  0.000000  0.750072  0.500000  1
  O  O30  1  0.500000  0.772428  0.500000  1
  O  O31  1  0.000000  0.000000  0.729084  1
  O  O32  1  0.500000  0.000000  0.750072  1
  O  O33  1  0.500000  0.500000  0.772428  1
