# generated using pymatgen
data_U3Cd(PO5)4
_symmetry_space_group_name_H-M   'P 1'
_cell_length_a   5.48906615
_cell_length_b   8.76254427
_cell_length_c   9.30919549
_cell_angle_alpha   100.63731438
_cell_angle_beta   104.45825736
_cell_angle_gamma   96.40943883
_symmetry_Int_Tables_number   1
_chemical_formula_structural   U3Cd(PO5)4
_chemical_formula_sum   'U3 Cd1 P4 O20'
_cell_volume   420.23149606
_cell_formula_units_Z   1
loop_
 _symmetry_equiv_pos_site_id
 _symmetry_equiv_pos_as_xyz
  1  'x, y, z'
loop_
 _atom_site_type_symbol
 _atom_site_label
 _atom_site_symmetry_multiplicity
 _atom_site_fract_x
 _atom_site_fract_y
 _atom_site_fract_z
 _atom_site_occupancy
  U  U0  1  0.646082  0.704363  0.953357  1
  U  U1  1  0.331754  0.800330  0.550390  1
  U  U2  1  0.659272  0.202504  0.443809  1
  Cd  Cd3  1  0.328115  0.280269  0.037491  1
  P  P4  1  0.095252  0.517593  0.771528  1
  P  P5  1  0.917922  0.486224  0.239383  1
  P  P6  1  0.281566  0.922948  0.177080  1
  P  P7  1  0.724402  0.077912  0.821319  1
  O  O8  1  0.009742  0.108644  0.876411  1
  O  O9  1  0.995902  0.858006  0.094560  1
  O  O10  1  0.973635  0.379292  0.640536  1
  O  O11  1  0.022175  0.625213  0.376606  1
  O  O12  1  0.712862  0.369434  0.268330  1
  O  O13  1  0.267186  0.651893  0.735380  1
  O  O14  1  0.432161  0.816828  0.084449  1
  O  O15  1  0.581652  0.183935  0.902502  1
  O  O16  1  0.422877  0.306451  0.497026  1
  O  O17  1  0.571063  0.685379  0.517348  1
  O  O18  1  0.876726  0.591172  0.830088  1
  O  O19  1  0.117509  0.417609  0.177115  1
  O  O20  1  0.299006  0.485894  0.907646  1
  O  O21  1  0.755748  0.568736  0.106794  1
  O  O22  1  0.888709  0.096124  0.384216  1
  O  O23  1  0.099332  0.911469  0.599501  1
  O  O24  1  0.359210  0.910964  0.343643  1
  O  O25  1  0.626808  0.052627  0.643022  1
  O  O26  1  0.366407  0.095793  0.182713  1
  O  O27  1  0.636925  0.892394  0.837757  1
