# generated using pymatgen
data_Nb3V(P5W3)2
_symmetry_space_group_name_H-M   'P 1'
_cell_length_a   3.26417040
_cell_length_b   6.48135490
_cell_length_c   14.59837110
_cell_angle_alpha   77.17412616
_cell_angle_beta   83.58095799
_cell_angle_gamma   89.99999882
_symmetry_Int_Tables_number   1
_chemical_formula_structural   Nb3V(P5W3)2
_chemical_formula_sum   'Nb3 V1 P10 W6'
_cell_volume   299.15468315
_cell_formula_units_Z   1
loop_
 _symmetry_equiv_pos_site_id
 _symmetry_equiv_pos_as_xyz
  1  'x, y, z'
loop_
 _atom_site_type_symbol
 _atom_site_label
 _atom_site_symmetry_multiplicity
 _atom_site_fract_x
 _atom_site_fract_y
 _atom_site_fract_z
 _atom_site_occupancy
  Nb  Nb0  1  0.012869  0.512869  0.974265  1
  Nb  Nb1  1  0.410921  0.910921  0.178157  1
  Nb  Nb2  1  0.808622  0.308622  0.382756  1
  V  V3  1  0.209836  0.709836  0.580326  1
  P  P4  1  0.944592  0.199766  0.110814  1
  P  P5  1  0.343160  0.596073  0.313680  1
  P  P6  1  0.741594  0.983106  0.516812  1
  P  P7  1  0.145403  0.398975  0.709195  1
  P  P8  1  0.545757  0.803144  0.908486  1
  P  P9  1  0.944592  0.689419  0.110814  1
  P  P10  1  0.343160  0.090249  0.313680  1
  P  P11  1  0.741594  0.500081  0.516812  1
  P  P12  1  0.145403  0.891831  0.709195  1
  P  P13  1  0.545757  0.288371  0.908486  1
  W  W14  1  0.210291  0.210291  0.579418  1
  W  W15  1  0.611676  0.611676  0.776649  1
  W  W16  1  0.011603  0.011603  0.976795  1
  W  W17  1  0.410366  0.410366  0.179268  1
  W  W18  1  0.809778  0.809778  0.380445  1
  W  W19  1  0.613026  0.113026  0.773949  1
