# generated using pymatgen
data_Y5HoAl19Si5Os8
_symmetry_space_group_name_H-M   'P 1'
_cell_length_a   8.69811100
_cell_length_b   8.68364500
_cell_length_c   9.58833600
_cell_angle_alpha   90.00003037
_cell_angle_beta   90.00018185
_cell_angle_gamma   120.05808735
_symmetry_Int_Tables_number   1
_chemical_formula_structural   Y5HoAl19Si5Os8
_chemical_formula_sum   'Y5 Ho1 Al19 Si5 Os8'
_cell_volume   626.82510244
_cell_formula_units_Z   1
loop_
 _symmetry_equiv_pos_site_id
 _symmetry_equiv_pos_as_xyz
  1  'x, y, z'
loop_
 _atom_site_type_symbol
 _atom_site_label
 _atom_site_symmetry_multiplicity
 _atom_site_fract_x
 _atom_site_fract_y
 _atom_site_fract_z
 _atom_site_occupancy
  Y  Y0  1  0.194607  0.389375  0.250000  1
  Y  Y1  1  0.805924  0.611857  0.750000  1
  Y  Y2  1  0.608580  0.806576  0.249998  1
  Y  Y3  1  0.389231  0.194843  0.750000  1
  Y  Y4  1  0.805615  0.194845  0.750001  1
  Ho  Ho5  1  0.198289  0.806359  0.249996  1
  Al  Al6  1  0.164752  0.329497  0.578034  1
  Al  Al7  1  0.834818  0.669398  0.422014  1
  Al  Al8  1  0.669753  0.835234  0.576748  1
  Al  Al9  1  0.834818  0.669398  0.077985  1
  Al  Al10  1  0.329158  0.165422  0.422167  1
  Al  Al11  1  0.164753  0.329497  0.921968  1
  Al  Al12  1  0.165487  0.835234  0.576586  1
  Al  Al13  1  0.329159  0.165422  0.077831  1
  Al  Al14  1  0.836339  0.165588  0.422263  1
  Al  Al15  1  0.669753  0.835234  0.923254  1
  Al  Al16  1  0.836337  0.165587  0.077736  1
  Al  Al17  1  0.165488  0.835235  0.923415  1
  Al  Al18  1  0.436955  0.873910  0.750002  1
  Al  Al19  1  0.872872  0.433681  0.249999  1
  Al  Al20  1  0.127796  0.564498  0.750001  1
  Al  Al21  1  0.560779  0.433433  0.249998  1
  Al  Al22  1  0.436691  0.564510  0.750002  1
  Al  Al23  1  0.000153  0.999608  0.249999  1
  Al  Al24  1  0.000408  0.000818  0.750002  1
  Si  Si25  1  0.332446  0.665317  0.037502  1
  Si  Si26  1  0.667256  0.334538  0.961414  1
  Si  Si27  1  0.667256  0.334537  0.538587  1
  Si  Si28  1  0.332444  0.665317  0.462497  1
  Si  Si29  1  0.563612  0.127620  0.249998  1
  Os  Os30  1  0.500589  0.001460  0.006458  1
  Os  Os31  1  0.999099  0.499165  0.000660  1
  Os  Os32  1  0.500589  0.001458  0.493543  1
  Os  Os33  1  0.499986  0.499011  0.000512  1
  Os  Os34  1  0.999099  0.499166  0.499342  1
  Os  Os35  1  0.499986  0.499010  0.499487  1
  Os  Os36  1  0.999562  0.999168  0.999995  1
  Os  Os37  1  0.999564  0.999169  0.500004  1
