# generated using pymatgen
data_SrGa6Cu7
_symmetry_space_group_name_H-M   'P 1'
_cell_length_a   8.44705615
_cell_length_b   8.44705574
_cell_length_c   8.44705600
_cell_angle_alpha   121.76565667
_cell_angle_beta   118.75162362
_cell_angle_gamma   89.57257018
_symmetry_Int_Tables_number   1
_chemical_formula_structural   SrGa6Cu7
_chemical_formula_sum   'Sr2 Ga12 Cu14'
_cell_volume   424.13843459
_cell_formula_units_Z   2
loop_
 _symmetry_equiv_pos_site_id
 _symmetry_equiv_pos_as_xyz
  1  'x, y, z'
loop_
 _atom_site_type_symbol
 _atom_site_label
 _atom_site_symmetry_multiplicity
 _atom_site_fract_x
 _atom_site_fract_y
 _atom_site_fract_z
 _atom_site_occupancy
  Sr  Sr0  1  0.250000  0.750000  0.500000  1
  Sr  Sr1  1  0.750000  0.250000  0.500000  1
  Ga  Ga2  1  0.554522  0.546307  0.359214  1
  Ga  Ga3  1  0.445478  0.453693  0.640786  1
  Ga  Ga4  1  0.187092  0.195307  0.640786  1
  Ga  Ga5  1  0.312908  0.953693  0.008214  1
  Ga  Ga6  1  0.812908  0.804693  0.359214  1
  Ga  Ga7  1  0.687092  0.046307  0.991786  1
  Ga  Ga8  1  0.945478  0.304693  0.991786  1
  Ga  Ga9  1  0.054522  0.695307  0.008214  1
  Ga  Ga10  1  0.053229  0.308385  0.361614  1
  Ga  Ga11  1  0.946771  0.691615  0.638386  1
  Ga  Ga12  1  0.553229  0.191615  0.744843  1
  Ga  Ga13  1  0.446771  0.808385  0.255157  1
  Cu  Cu14  1  0.286704  0.295394  0.230852  1
  Cu  Cu15  1  0.713296  0.704606  0.769148  1
  Cu  Cu16  1  0.064542  0.055852  0.769148  1
  Cu  Cu17  1  0.435458  0.204606  0.991310  1
  Cu  Cu18  1  0.935458  0.944148  0.230852  1
  Cu  Cu19  1  0.564542  0.795394  0.008690  1
  Cu  Cu20  1  0.213296  0.444148  0.008690  1
  Cu  Cu21  1  0.786704  0.555852  0.991310  1
  Cu  Cu22  1  0.000000  0.000000  0.000000  1
  Cu  Cu23  1  0.500000  0.500000  0.000000  1
  Cu  Cu24  1  0.287565  0.064365  0.351931  1
  Cu  Cu25  1  0.712435  0.935635  0.648069  1
  Cu  Cu26  1  0.787565  0.435635  0.223199  1
  Cu  Cu27  1  0.212435  0.564365  0.776801  1
