# generated using pymatgen
data_Yb4Ce3Sm(B6Ru)4
_symmetry_space_group_name_H-M   'P 1'
_cell_length_a   3.71847600
_cell_length_b   9.12389414
_cell_length_c   11.47881625
_cell_angle_alpha   90.10939586
_cell_angle_beta   90.00000000
_cell_angle_gamma   90.00000000
_symmetry_Int_Tables_number   1
_chemical_formula_structural   Yb4Ce3Sm(B6Ru)4
_chemical_formula_sum   'Yb4 Ce3 Sm1 B24 Ru4'
_cell_volume   389.44087550
_cell_formula_units_Z   1
loop_
 _symmetry_equiv_pos_site_id
 _symmetry_equiv_pos_as_xyz
  1  'x, y, z'
loop_
 _atom_site_type_symbol
 _atom_site_label
 _atom_site_symmetry_multiplicity
 _atom_site_fract_x
 _atom_site_fract_y
 _atom_site_fract_z
 _atom_site_occupancy
  Yb  Yb0  1  0.000000  0.944855  0.375106  1
  Yb  Yb1  1  0.000000  0.055599  0.625403  1
  Yb  Yb2  1  0.000000  0.443048  0.127873  1
  Yb  Yb3  1  0.000000  0.556676  0.872159  1
  Ce  Ce4  1  0.000000  0.320719  0.413587  1
  Ce  Ce5  1  0.000000  0.678311  0.587280  1
  Ce  Ce6  1  0.000000  0.822201  0.086726  1
  Sm  Sm7  1  0.000000  0.177354  0.912654  1
  B  B8  1  0.500000  0.554895  0.431086  1
  B  B9  1  0.500000  0.445495  0.568566  1
  B  B10  1  0.500000  0.054730  0.069201  1
  B  B11  1  0.500000  0.944625  0.931255  1
  B  B12  1  0.500000  0.749579  0.419403  1
  B  B13  1  0.500000  0.250290  0.580678  1
  B  B14  1  0.500000  0.249836  0.081679  1
  B  B15  1  0.500000  0.750720  0.918949  1
  B  B16  1  0.500000  0.790434  0.267282  1
  B  B17  1  0.500000  0.209631  0.732479  1
  B  B18  1  0.500000  0.290354  0.232976  1
  B  B19  1  0.500000  0.709744  0.766877  1
  B  B20  1  0.500000  0.630605  0.185235  1
  B  B21  1  0.500000  0.370283  0.814678  1
  B  B22  1  0.500000  0.130958  0.315403  1
  B  B23  1  0.500000  0.869136  0.684718  1
  B  B24  1  0.500000  0.983918  0.213763  1
  B  B25  1  0.500000  0.016034  0.785583  1
  B  B26  1  0.500000  0.484184  0.286562  1
  B  B27  1  0.500000  0.516065  0.713551  1
  B  B28  1  0.500000  0.602885  0.028644  1
  B  B29  1  0.500000  0.396955  0.971257  1
  B  B30  1  0.500000  0.110020  0.469739  1
  B  B31  1  0.500000  0.889733  0.530396  1
  Ru  Ru32  1  0.000000  0.638662  0.320574  1
  Ru  Ru33  1  0.000000  0.362963  0.677603  1
  Ru  Ru34  1  0.000000  0.138403  0.180899  1
  Ru  Ru35  1  0.000000  0.860099  0.820176  1
