# generated using pymatgen
data_Pa3TiSn3Sb2
_symmetry_space_group_name_H-M   'P 1'
_cell_length_a   9.17052726
_cell_length_b   9.17052783
_cell_length_c   6.14437500
_cell_angle_alpha   90.00000000
_cell_angle_beta   90.00000000
_cell_angle_gamma   120.12277600
_symmetry_Int_Tables_number   1
_chemical_formula_structural   Pa3TiSn3Sb2
_chemical_formula_sum   'Pa6 Ti2 Sn6 Sb4'
_cell_volume   446.94939838
_cell_formula_units_Z   2
loop_
 _symmetry_equiv_pos_site_id
 _symmetry_equiv_pos_as_xyz
  1  'x, y, z'
loop_
 _atom_site_type_symbol
 _atom_site_label
 _atom_site_symmetry_multiplicity
 _atom_site_fract_x
 _atom_site_fract_y
 _atom_site_fract_z
 _atom_site_occupancy
  Pa  Pa0  1  0.613759  0.002690  0.750000  1
  Pa  Pa1  1  0.386241  0.997310  0.250000  1
  Pa  Pa2  1  0.002690  0.613759  0.750000  1
  Pa  Pa3  1  0.997310  0.386241  0.250000  1
  Pa  Pa4  1  0.383641  0.383641  0.750000  1
  Pa  Pa5  1  0.616359  0.616359  0.250000  1
  Ti  Ti6  1  0.000000  0.000000  0.500000  1
  Ti  Ti7  1  0.000000  0.000000  0.000000  1
  Sn  Sn8  1  0.734500  0.734500  0.750000  1
  Sn  Sn9  1  0.265500  0.265500  0.250000  1
  Sn  Sn10  1  0.334424  0.665576  0.500000  1
  Sn  Sn11  1  0.665576  0.334424  0.500000  1
  Sn  Sn12  1  0.665576  0.334424  0.000000  1
  Sn  Sn13  1  0.334424  0.665576  0.000000  1
  Sb  Sb14  1  0.263619  0.000100  0.750000  1
  Sb  Sb15  1  0.736381  0.999900  0.250000  1
  Sb  Sb16  1  0.000100  0.263619  0.750000  1
  Sb  Sb17  1  0.999900  0.736381  0.250000  1
