# generated using pymatgen
data_TbYbHo6(ReC2)4
_symmetry_space_group_name_H-M   'P 1'
_cell_length_a   5.10091600
_cell_length_b   6.55956893
_cell_length_c   9.89336800
_cell_angle_alpha   89.46787749
_cell_angle_beta   90.00000000
_cell_angle_gamma   90.00000000
_symmetry_Int_Tables_number   1
_chemical_formula_structural   TbYbHo6(ReC2)4
_chemical_formula_sum   'Tb1 Yb1 Ho6 Re4 C8'
_cell_volume   331.01593829
_cell_formula_units_Z   1
loop_
 _symmetry_equiv_pos_site_id
 _symmetry_equiv_pos_as_xyz
  1  'x, y, z'
loop_
 _atom_site_type_symbol
 _atom_site_label
 _atom_site_symmetry_multiplicity
 _atom_site_fract_x
 _atom_site_fract_y
 _atom_site_fract_z
 _atom_site_occupancy
  Tb  Tb0  1  0.250000  0.532841  0.218741  1
  Yb  Yb1  1  0.250000  0.034534  0.281597  1
  Ho  Ho2  1  0.250000  0.681534  0.555004  1
  Ho  Ho3  1  0.750000  0.317011  0.443783  1
  Ho  Ho4  1  0.750000  0.820515  0.056521  1
  Ho  Ho5  1  0.250000  0.178223  0.944809  1
  Ho  Ho6  1  0.750000  0.465452  0.782274  1
  Ho  Ho7  1  0.750000  0.965215  0.717853  1
  Re  Re8  1  0.250000  0.720004  0.863448  1
  Re  Re9  1  0.750000  0.280023  0.134581  1
  Re  Re10  1  0.750000  0.778660  0.365333  1
  Re  Re11  1  0.250000  0.223375  0.635556  1
  C  C12  1  0.250000  0.453531  0.760195  1
  C  C13  1  0.750000  0.546512  0.240929  1
  C  C14  1  0.750000  0.045827  0.259139  1
  C  C15  1  0.250000  0.954846  0.739225  1
  C  C16  1  0.250000  0.816969  0.044981  1
  C  C17  1  0.750000  0.176574  0.951786  1
  C  C18  1  0.750000  0.681118  0.550065  1
  C  C19  1  0.250000  0.327236  0.454178  1
