# generated using pymatgen
data_CeNp2Sb4Pt3
_symmetry_space_group_name_H-M   'P 1'
_cell_length_a   8.50332884
_cell_length_b   8.50332858
_cell_length_c   8.50332876
_cell_angle_alpha   109.17566302
_cell_angle_beta   109.17565657
_cell_angle_gamma   110.06397584
_symmetry_Int_Tables_number   1
_chemical_formula_structural   CeNp2Sb4Pt3
_chemical_formula_sum   'Ce2 Np4 Sb8 Pt6'
_cell_volume   473.27122176
_cell_formula_units_Z   2
loop_
 _symmetry_equiv_pos_site_id
 _symmetry_equiv_pos_as_xyz
  1  'x, y, z'
loop_
 _atom_site_type_symbol
 _atom_site_label
 _atom_site_symmetry_multiplicity
 _atom_site_fract_x
 _atom_site_fract_y
 _atom_site_fract_z
 _atom_site_occupancy
  Ce  Ce0  1  0.125000  0.875000  0.250000  1
  Ce  Ce1  1  0.375000  0.625000  0.750000  1
  Np  Np2  1  0.874881  0.250000  0.124881  1
  Np  Np3  1  0.625119  0.750000  0.375119  1
  Np  Np4  1  0.250000  0.125119  0.875119  1
  Np  Np5  1  0.750000  0.374881  0.624881  1
  Sb  Sb6  1  0.671184  0.497395  0.998423  1
  Sb  Sb7  1  0.501028  0.002605  0.673789  1
  Sb  Sb8  1  0.998972  0.672761  0.501577  1
  Sb  Sb9  1  0.828816  0.827239  0.826211  1
  Sb  Sb10  1  0.502605  0.001028  0.173789  1
  Sb  Sb11  1  0.172761  0.498972  0.001577  1
  Sb  Sb12  1  0.997395  0.171184  0.498423  1
  Sb  Sb13  1  0.327239  0.328816  0.326211  1
  Pt  Pt14  1  0.375089  0.250000  0.625089  1
  Pt  Pt15  1  0.124911  0.750000  0.874911  1
  Pt  Pt16  1  0.250000  0.624911  0.374911  1
  Pt  Pt17  1  0.750000  0.875089  0.125089  1
  Pt  Pt18  1  0.625000  0.375000  0.250000  1
  Pt  Pt19  1  0.875000  0.125000  0.750000  1
