# generated using pymatgen
data_TbHo2Sn3HgIr2
_symmetry_space_group_name_H-M   'P 1'
_cell_length_a   7.60567070
_cell_length_b   7.62235282
_cell_length_c   4.03331400
_cell_angle_alpha   90.00000000
_cell_angle_beta   90.00000000
_cell_angle_gamma   120.10071175
_symmetry_Int_Tables_number   1
_chemical_formula_structural   TbHo2Sn3HgIr2
_chemical_formula_sum   'Tb1 Ho2 Sn3 Hg1 Ir2'
_cell_volume   202.29148252
_cell_formula_units_Z   1
loop_
 _symmetry_equiv_pos_site_id
 _symmetry_equiv_pos_as_xyz
  1  'x, y, z'
loop_
 _atom_site_type_symbol
 _atom_site_label
 _atom_site_symmetry_multiplicity
 _atom_site_fract_x
 _atom_site_fract_y
 _atom_site_fract_z
 _atom_site_occupancy
  Tb  Tb0  1  0.390454  0.411512  0.500000  1
  Ho  Ho1  1  0.588483  0.977576  0.500000  1
  Ho  Ho2  1  0.022420  0.611264  0.500000  1
  Sn  Sn3  1  0.745038  0.752769  0.000000  1
  Sn  Sn4  1  0.247083  0.991711  0.000000  1
  Sn  Sn5  1  0.007233  0.254719  0.000000  1
  Hg  Hg6  1  0.667493  0.333242  0.000000  1
  Ir  Ir7  1  0.332666  0.667964  0.000000  1
  Ir  Ir8  1  0.999132  0.999243  0.500000  1
