# generated using pymatgen
data_Tm24Tc7Te
_symmetry_space_group_name_H-M   'P 1'
_cell_length_a   6.15848191
_cell_length_b   9.04302500
_cell_length_c   14.95781518
_cell_angle_alpha   90.00000000
_cell_angle_beta   89.10123395
_cell_angle_gamma   90.00000000
_symmetry_Int_Tables_number   1
_chemical_formula_structural   Tm24Tc7Te
_chemical_formula_sum   'Tm24 Tc7 Te1'
_cell_volume   832.91777454
_cell_formula_units_Z   1
loop_
 _symmetry_equiv_pos_site_id
 _symmetry_equiv_pos_as_xyz
  1  'x, y, z'
loop_
 _atom_site_type_symbol
 _atom_site_label
 _atom_site_symmetry_multiplicity
 _atom_site_fract_x
 _atom_site_fract_y
 _atom_site_fract_z
 _atom_site_occupancy
  Tm  Tm0  1  0.525370  0.750000  0.351823  1
  Tm  Tm1  1  0.030968  0.250000  0.148570  1
  Tm  Tm2  1  0.465718  0.250000  0.648685  1
  Tm  Tm3  1  0.962344  0.750000  0.863818  1
  Tm  Tm4  1  0.782459  0.750000  0.113605  1
  Tm  Tm5  1  0.278476  0.250000  0.383006  1
  Tm  Tm6  1  0.215492  0.250000  0.889416  1
  Tm  Tm7  1  0.711963  0.750000  0.601731  1
  Tm  Tm8  1  0.471936  0.941378  0.805491  1
  Tm  Tm9  1  0.936063  0.071118  0.706885  1
  Tm  Tm10  1  0.556066  0.435383  0.210107  1
  Tm  Tm11  1  0.055060  0.564232  0.286521  1
  Tm  Tm12  1  0.556066  0.064617  0.210107  1
  Tm  Tm13  1  0.055060  0.935768  0.286521  1
  Tm  Tm14  1  0.471936  0.558622  0.805491  1
  Tm  Tm15  1  0.936063  0.428882  0.706885  1
  Tm  Tm16  1  0.228227  0.945847  0.517053  1
  Tm  Tm17  1  0.747074  0.065724  0.972851  1
  Tm  Tm18  1  0.745086  0.434542  0.462660  1
  Tm  Tm19  1  0.256346  0.561384  0.038347  1
  Tm  Tm20  1  0.745086  0.065458  0.462660  1
  Tm  Tm21  1  0.256346  0.938616  0.038347  1
  Tm  Tm22  1  0.228227  0.554153  0.517053  1
  Tm  Tm23  1  0.747074  0.434276  0.972851  1
  Tc  Tc24  1  0.921779  0.750000  0.437301  1
  Tc  Tc25  1  0.421403  0.250000  0.057311  1
  Tc  Tc26  1  0.073197  0.250000  0.554816  1
  Tc  Tc27  1  0.574127  0.750000  0.949870  1
  Tc  Tc28  1  0.350206  0.750000  0.183546  1
  Tc  Tc29  1  0.846270  0.250000  0.315524  1
  Tc  Tc30  1  0.653822  0.250000  0.818579  1
  Te  Te31  1  0.194690  0.750000  0.682566  1
