# generated using pymatgen
data_CsLi(NdSe2)2
_symmetry_space_group_name_H-M   'P 1'
_cell_length_a   4.37991600
_cell_length_b   7.73145191
_cell_length_c   15.02098900
_cell_angle_alpha   90.00000000
_cell_angle_beta   90.00000000
_cell_angle_gamma   106.45445065
_symmetry_Int_Tables_number   1
_chemical_formula_structural   CsLi(NdSe2)2
_chemical_formula_sum   'Cs2 Li2 Nd4 Se8'
_cell_volume   487.82544983
_cell_formula_units_Z   2
loop_
 _symmetry_equiv_pos_site_id
 _symmetry_equiv_pos_as_xyz
  1  'x, y, z'
loop_
 _atom_site_type_symbol
 _atom_site_label
 _atom_site_symmetry_multiplicity
 _atom_site_fract_x
 _atom_site_fract_y
 _atom_site_fract_z
 _atom_site_occupancy
  Cs  Cs0  1  0.106675  0.213350  0.250000  1
  Cs  Cs1  1  0.893324  0.786649  0.750000  1
  Li  Li2  1  0.832630  0.665262  0.250000  1
  Li  Li3  1  0.167369  0.334738  0.750000  1
  Nd  Nd4  1  0.366330  0.732659  0.059276  1
  Nd  Nd5  1  0.366330  0.732659  0.440724  1
  Nd  Nd6  1  0.633669  0.267341  0.559276  1
  Nd  Nd7  1  0.633669  0.267341  0.940724  1
  Se  Se8  1  0.000000  0.000000  0.000000  1
  Se  Se9  1  0.742363  0.484727  0.106192  1
  Se  Se10  1  0.416918  0.833836  0.250000  1
  Se  Se11  1  0.742363  0.484727  0.393808  1
  Se  Se12  1  0.000000  0.000000  0.500000  1
  Se  Se13  1  0.257637  0.515273  0.606192  1
  Se  Se14  1  0.583081  0.166163  0.750000  1
  Se  Se15  1  0.257637  0.515273  0.893808  1
