# generated using pymatgen
data_Er2Nb3Co9As7
_symmetry_space_group_name_H-M   'P 1'
_cell_length_a   3.81490800
_cell_length_b   9.55501412
_cell_length_c   9.55501400
_cell_angle_alpha   119.99999957
_cell_angle_beta   90.00000000
_cell_angle_gamma   90.00000000
_symmetry_Int_Tables_number   1
_chemical_formula_structural   Er2Nb3Co9As7
_chemical_formula_sum   'Er2 Nb3 Co9 As7'
_cell_volume   301.63196519
_cell_formula_units_Z   1
loop_
 _symmetry_equiv_pos_site_id
 _symmetry_equiv_pos_as_xyz
  1  'x, y, z'
loop_
 _atom_site_type_symbol
 _atom_site_label
 _atom_site_symmetry_multiplicity
 _atom_site_fract_x
 _atom_site_fract_y
 _atom_site_fract_z
 _atom_site_occupancy
  Er  Er0  1  0.000000  0.666667  0.333333  1
  Er  Er1  1  0.500000  0.333333  0.666667  1
  Nb  Nb2  1  0.500000  0.775819  0.897086  1
  Nb  Nb3  1  0.500000  0.121267  0.224181  1
  Nb  Nb4  1  0.500000  0.102914  0.878733  1
  Co  Co5  1  0.000000  0.570054  0.937449  1
  Co  Co6  1  0.000000  0.367396  0.429946  1
  Co  Co7  1  0.000000  0.062551  0.632604  1
  Co  Co8  1  0.000000  0.876639  0.161021  1
  Co  Co9  1  0.000000  0.284382  0.123361  1
  Co  Co10  1  0.000000  0.838979  0.715618  1
  Co  Co11  1  0.500000  0.947871  0.385135  1
  Co  Co12  1  0.500000  0.437263  0.052129  1
  Co  Co13  1  0.500000  0.614865  0.562737  1
  As  As14  1  0.000000  0.000000  0.000000  1
  As  As15  1  0.500000  0.708419  0.125574  1
  As  As16  1  0.500000  0.417156  0.291581  1
  As  As17  1  0.500000  0.874426  0.582844  1
  As  As18  1  0.000000  0.579580  0.692330  1
  As  As19  1  0.000000  0.112751  0.420420  1
  As  As20  1  0.000000  0.307670  0.887249  1
