# generated using pymatgen
data_La4Tb3Y(SiO5)4
_symmetry_space_group_name_H-M   'P 1'
_cell_length_a   8.18808635
_cell_length_b   8.18629928
_cell_length_c   10.94245803
_cell_angle_alpha   61.17666135
_cell_angle_beta   61.18782331
_cell_angle_gamma   50.34026809
_symmetry_Int_Tables_number   1
_chemical_formula_structural   La4Tb3Y(SiO5)4
_chemical_formula_sum   'La4 Tb3 Y1 Si4 O20'
_cell_volume   477.91446895
_cell_formula_units_Z   1
loop_
 _symmetry_equiv_pos_site_id
 _symmetry_equiv_pos_as_xyz
  1  'x, y, z'
loop_
 _atom_site_type_symbol
 _atom_site_label
 _atom_site_symmetry_multiplicity
 _atom_site_fract_x
 _atom_site_fract_y
 _atom_site_fract_z
 _atom_site_occupancy
  La  La0  1  0.783725  0.292088  0.033880  1
  La  La1  1  0.707810  0.216172  0.466253  1
  La  La2  1  0.216328  0.707649  0.966031  1
  La  La3  1  0.292061  0.783641  0.534000  1
  Tb  Tb4  1  0.236525  0.476230  0.337422  1
  Tb  Tb5  1  0.523769  0.763590  0.162471  1
  Tb  Tb6  1  0.763507  0.523700  0.662578  1
  Y  Y7  1  0.476024  0.237111  0.837331  1
  Si  Si8  1  0.728070  0.902923  0.307180  1
  Si  Si9  1  0.097197  0.271946  0.192643  1
  Si  Si10  1  0.271970  0.097086  0.692964  1
  Si  Si11  1  0.902926  0.728119  0.807137  1
  O  O12  1  0.421324  0.610402  0.110331  1
  O  O13  1  0.389630  0.578681  0.389641  1
  O  O14  1  0.578450  0.389128  0.889736  1
  O  O15  1  0.610311  0.420939  0.610681  1
  O  O16  1  0.866245  0.723875  0.431852  1
  O  O17  1  0.276441  0.133921  0.067777  1
  O  O18  1  0.133870  0.276018  0.568231  1
  O  O19  1  0.723548  0.867097  0.931439  1
  O  O20  1  0.568078  0.840830  0.315972  1
  O  O21  1  0.159089  0.431919  0.184070  1
  O  O22  1  0.431822  0.159120  0.684690  1
  O  O23  1  0.840814  0.568099  0.815973  1
  O  O24  1  0.156668  0.585301  0.824681  1
  O  O25  1  0.414667  0.843459  0.675302  1
  O  O26  1  0.843469  0.414604  0.175237  1
  O  O27  1  0.585388  0.156587  0.324719  1
  O  O28  1  0.908703  0.905042  0.647547  1
  O  O29  1  0.094715  0.091533  0.852359  1
  O  O30  1  0.091621  0.094761  0.352212  1
  O  O31  1  0.905236  0.908426  0.147659  1
