# generated using pymatgen
data_Hf2Co12AsP6
_symmetry_space_group_name_H-M   'P 1'
_cell_length_a   8.97681600
_cell_length_b   8.97681639
_cell_length_c   3.52500200
_cell_angle_alpha   90.00000000
_cell_angle_beta   90.00000000
_cell_angle_gamma   120.00001329
_symmetry_Int_Tables_number   1
_chemical_formula_structural   Hf2Co12AsP6
_chemical_formula_sum   'Hf2 Co12 As1 P6'
_cell_volume   245.99971680
_cell_formula_units_Z   1
loop_
 _symmetry_equiv_pos_site_id
 _symmetry_equiv_pos_as_xyz
  1  'x, y, z'
loop_
 _atom_site_type_symbol
 _atom_site_label
 _atom_site_symmetry_multiplicity
 _atom_site_fract_x
 _atom_site_fract_y
 _atom_site_fract_z
 _atom_site_occupancy
  Hf  Hf0  1  0.333333  0.666667  0.000000  1
  Hf  Hf1  1  0.666667  0.333333  0.500000  1
  Co  Co2  1  0.442141  0.065932  0.000000  1
  Co  Co3  1  0.934068  0.376209  0.000000  1
  Co  Co4  1  0.623791  0.557859  0.000000  1
  Co  Co5  1  0.386180  0.444386  0.500000  1
  Co  Co6  1  0.555614  0.941793  0.500000  1
  Co  Co7  1  0.058207  0.613820  0.500000  1
  Co  Co8  1  0.164100  0.287450  0.000000  1
  Co  Co9  1  0.712550  0.876650  0.000000  1
  Co  Co10  1  0.123350  0.835900  0.000000  1
  Co  Co11  1  0.253948  0.112493  0.500000  1
  Co  Co12  1  0.887507  0.141454  0.500000  1
  Co  Co13  1  0.858546  0.746052  0.500000  1
  As  As14  1  0.000000  0.000000  0.000000  1
  P  P15  1  0.117122  0.407465  0.500000  1
  P  P16  1  0.592535  0.709658  0.500000  1
  P  P17  1  0.290342  0.882878  0.500000  1
  P  P18  1  0.410638  0.292282  0.000000  1
  P  P19  1  0.707718  0.118357  0.000000  1
  P  P20  1  0.881643  0.589362  0.000000  1
