# generated using pymatgen
data_Tb4Ga6Pt7
_symmetry_space_group_name_H-M   'P 1'
_cell_length_a   7.40746502
_cell_length_b   7.40746537
_cell_length_c   7.40746500
_cell_angle_alpha   109.47121963
_cell_angle_beta   109.47122058
_cell_angle_gamma   109.47122362
_symmetry_Int_Tables_number   1
_chemical_formula_structural   Tb4Ga6Pt7
_chemical_formula_sum   'Tb4 Ga6 Pt7'
_cell_volume   312.88658712
_cell_formula_units_Z   1
loop_
 _symmetry_equiv_pos_site_id
 _symmetry_equiv_pos_as_xyz
  1  'x, y, z'
loop_
 _atom_site_type_symbol
 _atom_site_label
 _atom_site_symmetry_multiplicity
 _atom_site_fract_x
 _atom_site_fract_y
 _atom_site_fract_z
 _atom_site_occupancy
  Tb  Tb0  1  0.500000  0.500000  0.500000  1
  Tb  Tb1  1  0.000000  0.500000  0.000000  1
  Tb  Tb2  1  0.000000  0.000000  0.500000  1
  Tb  Tb3  1  0.500000  0.000000  0.000000  1
  Ga  Ga4  1  0.681346  0.000000  0.681346  1
  Ga  Ga5  1  0.318654  0.000000  0.318654  1
  Ga  Ga6  1  0.000000  0.318654  0.318654  1
  Ga  Ga7  1  0.000000  0.681346  0.681346  1
  Ga  Ga8  1  0.681346  0.681346  0.000000  1
  Ga  Ga9  1  0.318654  0.318654  0.000000  1
  Pt  Pt10  1  0.250000  0.500000  0.750000  1
  Pt  Pt11  1  0.250000  0.750000  0.500000  1
  Pt  Pt12  1  0.500000  0.250000  0.750000  1
  Pt  Pt13  1  0.500000  0.750000  0.250000  1
  Pt  Pt14  1  0.750000  0.500000  0.250000  1
  Pt  Pt15  1  0.000000  0.000000  0.000000  1
  Pt  Pt16  1  0.750000  0.250000  0.500000  1
