# generated using pymatgen
data_Li8Np3U5N16
_symmetry_space_group_name_H-M   'P 1'
_cell_length_a   22.33299714
_cell_length_b   4.34045402
_cell_length_c   4.34560203
_cell_angle_alpha   90.00014414
_cell_angle_beta   90.00319269
_cell_angle_gamma   89.99963666
_symmetry_Int_Tables_number   1
_chemical_formula_structural   Li8Np3U5N16
_chemical_formula_sum   'Li8 Np3 U5 N16'
_cell_volume   421.24244074
_cell_formula_units_Z   1
loop_
 _symmetry_equiv_pos_site_id
 _symmetry_equiv_pos_as_xyz
  1  'x, y, z'
loop_
 _atom_site_type_symbol
 _atom_site_label
 _atom_site_symmetry_multiplicity
 _atom_site_fract_x
 _atom_site_fract_y
 _atom_site_fract_z
 _atom_site_occupancy
  Li  Li0  1  0.186850  0.999753  0.748852  1
  Li  Li1  1  0.814618  0.000245  0.250904  1
  Li  Li2  1  0.314812  0.999736  0.248983  1
  Li  Li3  1  0.685706  0.000268  0.750977  1
  Li  Li4  1  0.056855  0.499849  0.749923  1
  Li  Li5  1  0.937933  0.500171  0.250284  1
  Li  Li6  1  0.438219  0.499814  0.249837  1
  Li  Li7  1  0.564844  0.500172  0.750265  1
  Np  Np8  1  0.688214  0.500244  0.250924  1
  Np  Np9  1  0.187214  0.499790  0.248913  1
  Np  Np10  1  0.811912  0.500238  0.750910  1
  U  U11  1  0.438062  0.999810  0.749863  1
  U  U12  1  0.563431  0.000171  0.250206  1
  U  U13  1  0.062249  0.999843  0.249946  1
  U  U14  1  0.936587  0.000162  0.750212  1
  U  U15  1  0.312328  0.499752  0.748989  1
  N  N16  1  0.334550  0.999752  0.749077  1
  N  N17  1  0.664222  0.000245  0.250885  1
  N  N18  1  0.163802  0.999770  0.248990  1
  N  N19  1  0.835674  0.000232  0.750881  1
  N  N20  1  0.416974  0.499802  0.749700  1
  N  N21  1  0.580028  0.500180  0.250328  1
  N  N22  1  0.078428  0.499835  0.249827  1
  N  N23  1  0.920382  0.500165  0.750309  1
  N  N24  1  0.039981  0.999896  0.749973  1
  N  N25  1  0.958289  0.000101  0.250190  1
  N  N26  1  0.458987  0.999873  0.249904  1
  N  N27  1  0.542066  0.000111  0.750176  1
  N  N28  1  0.210806  0.499753  0.748894  1
  N  N29  1  0.792681  0.500260  0.250951  1
  N  N30  1  0.296052  0.499739  0.248959  1
  N  N31  1  0.707246  0.500266  0.750965  1
