# generated using pymatgen
data_PrSmB2(Pt3Rh)2
_symmetry_space_group_name_H-M   'P 1'
_cell_length_a   5.47262605
_cell_length_b   5.47262591
_cell_length_c   7.62518100
_cell_angle_alpha   90.00000000
_cell_angle_beta   90.00000000
_cell_angle_gamma   119.85369746
_symmetry_Int_Tables_number   1
_chemical_formula_structural   PrSmB2(Pt3Rh)2
_chemical_formula_sum   'Pr1 Sm1 B2 Pt6 Rh2'
_cell_volume   198.06634782
_cell_formula_units_Z   1
loop_
 _symmetry_equiv_pos_site_id
 _symmetry_equiv_pos_as_xyz
  1  'x, y, z'
loop_
 _atom_site_type_symbol
 _atom_site_label
 _atom_site_symmetry_multiplicity
 _atom_site_fract_x
 _atom_site_fract_y
 _atom_site_fract_z
 _atom_site_occupancy
  Pr  Pr0  1  0.000000  0.000000  0.000000  1
  Sm  Sm1  1  0.000000  0.000000  0.500000  1
  B  B2  1  0.667278  0.332722  0.500000  1
  B  B3  1  0.332722  0.667278  0.500000  1
  Pt  Pt4  1  0.671462  0.328538  0.000000  1
  Pt  Pt5  1  0.500000  0.500000  0.299626  1
  Pt  Pt6  1  0.500000  0.000000  0.697650  1
  Pt  Pt7  1  0.500000  0.500000  0.700374  1
  Pt  Pt8  1  0.328538  0.671462  0.000000  1
  Pt  Pt9  1  0.000000  0.500000  0.302350  1
  Rh  Rh10  1  0.500000  0.000000  0.308927  1
  Rh  Rh11  1  0.000000  0.500000  0.691073  1
