# generated using pymatgen
data_YbTa11(BOs)12
_symmetry_space_group_name_H-M   'P 1'
_cell_length_a   3.12321900
_cell_length_b   9.11889975
_cell_length_c   15.88143287
_cell_angle_alpha   90.03656403
_cell_angle_beta   90.00000000
_cell_angle_gamma   90.00000000
_symmetry_Int_Tables_number   1
_chemical_formula_structural   YbTa11(BOs)12
_chemical_formula_sum   'Yb1 Ta11 B12 Os12'
_cell_volume   452.30821318
_cell_formula_units_Z   1
loop_
 _symmetry_equiv_pos_site_id
 _symmetry_equiv_pos_as_xyz
  1  'x, y, z'
loop_
 _atom_site_type_symbol
 _atom_site_label
 _atom_site_symmetry_multiplicity
 _atom_site_fract_x
 _atom_site_fract_y
 _atom_site_fract_z
 _atom_site_occupancy
  Yb  Yb0  1  0.000000  0.820532  0.710196  1
  Ta  Ta1  1  0.000000  0.800208  0.493924  1
  Ta  Ta2  1  0.000000  0.196566  0.504773  1
  Ta  Ta3  1  0.000000  0.298327  0.005211  1
  Ta  Ta4  1  0.000000  0.699386  0.996480  1
  Ta  Ta5  1  0.000000  0.515870  0.593646  1
  Ta  Ta6  1  0.000000  0.482707  0.405879  1
  Ta  Ta7  1  0.000000  0.013970  0.905758  1
  Ta  Ta8  1  0.000000  0.984784  0.094254  1
  Ta  Ta9  1  0.000000  0.687440  0.202839  1
  Ta  Ta10  1  0.000000  0.317690  0.796426  1
  Ta  Ta11  1  0.000000  0.187453  0.296641  1
  B  B12  1  0.500000  0.604669  0.494361  1
  B  B13  1  0.500000  0.393329  0.502581  1
  B  B14  1  0.500000  0.104672  0.003196  1
  B  B15  1  0.500000  0.895416  0.998506  1
  B  B16  1  0.000000  0.608888  0.831750  1
  B  B17  1  0.000000  0.391318  0.167263  1
  B  B18  1  0.000000  0.108404  0.665722  1
  B  B19  1  0.000000  0.889979  0.331956  1
  B  B20  1  0.500000  0.712404  0.591563  1
  B  B21  1  0.500000  0.284034  0.401167  1
  B  B22  1  0.500000  0.215131  0.902298  1
  B  B23  1  0.500000  0.785115  0.099249  1
  Os  Os24  1  0.500000  0.718248  0.354697  1
  Os  Os25  1  0.500000  0.282197  0.641197  1
  Os  Os26  1  0.500000  0.218838  0.144453  1
  Os  Os27  1  0.500000  0.776395  0.863388  1
  Os  Os28  1  0.500000  0.515644  0.095275  1
  Os  Os29  1  0.500000  0.480886  0.908725  1
  Os  Os30  1  0.500000  0.017075  0.402591  1
  Os  Os31  1  0.500000  0.989304  0.589789  1
  Os  Os32  1  0.500000  0.552381  0.737360  1
  Os  Os33  1  0.500000  0.436735  0.265958  1
  Os  Os34  1  0.500000  0.076460  0.767659  1
  Os  Os35  1  0.500000  0.937548  0.233267  1
