# generated using pymatgen
data_Nd8TmLuIr6
_symmetry_space_group_name_H-M   'P 1'
_cell_length_a   11.17297300
_cell_length_b   11.17297300
_cell_length_c   6.50940000
_cell_angle_alpha   90.00000000
_cell_angle_beta   90.00000000
_cell_angle_gamma   90.00000000
_symmetry_Int_Tables_number   1
_chemical_formula_structural   Nd8TmLuIr6
_chemical_formula_sum   'Nd16 Tm2 Lu2 Ir12'
_cell_volume   812.60306884
_cell_formula_units_Z   2
loop_
 _symmetry_equiv_pos_site_id
 _symmetry_equiv_pos_as_xyz
  1  'x, y, z'
loop_
 _atom_site_type_symbol
 _atom_site_label
 _atom_site_symmetry_multiplicity
 _atom_site_fract_x
 _atom_site_fract_y
 _atom_site_fract_z
 _atom_site_occupancy
  Nd  Nd0  1  0.087737  0.288655  0.117629  1
  Nd  Nd1  1  0.788655  0.412263  0.117629  1
  Nd  Nd2  1  0.211345  0.587737  0.117629  1
  Nd  Nd3  1  0.912263  0.711345  0.117629  1
  Nd  Nd4  1  0.412233  0.788533  0.382402  1
  Nd  Nd5  1  0.587767  0.211467  0.382402  1
  Nd  Nd6  1  0.288533  0.087767  0.382402  1
  Nd  Nd7  1  0.711467  0.912233  0.382402  1
  Nd  Nd8  1  0.412263  0.211345  0.882371  1
  Nd  Nd9  1  0.711345  0.087737  0.882371  1
  Nd  Nd10  1  0.288655  0.912263  0.882371  1
  Nd  Nd11  1  0.587737  0.788655  0.882371  1
  Nd  Nd12  1  0.087767  0.711467  0.617598  1
  Nd  Nd13  1  0.912233  0.288533  0.617598  1
  Nd  Nd14  1  0.211467  0.412233  0.617598  1
  Nd  Nd15  1  0.788533  0.587767  0.617598  1
  Tm  Tm16  1  0.000000  0.000000  0.000000  1
  Tm  Tm17  1  0.500000  0.500000  0.000000  1
  Lu  Lu18  1  0.500000  0.500000  0.500000  1
  Lu  Lu19  1  0.000000  0.000000  0.500000  1
  Ir  Ir20  1  0.147235  0.852731  0.250388  1
  Ir  Ir21  1  0.352731  0.352765  0.250388  1
  Ir  Ir22  1  0.647269  0.647235  0.250388  1
  Ir  Ir23  1  0.852765  0.147269  0.250388  1
  Ir  Ir24  1  0.352765  0.647269  0.749612  1
  Ir  Ir25  1  0.147269  0.147235  0.749612  1
  Ir  Ir26  1  0.852731  0.852765  0.749612  1
  Ir  Ir27  1  0.647235  0.352731  0.749612  1
  Ir  Ir28  1  0.000000  0.500000  0.378798  1
  Ir  Ir29  1  0.500000  0.000000  0.121129  1
  Ir  Ir30  1  0.500000  0.000000  0.621202  1
  Ir  Ir31  1  0.000000  0.500000  0.878871  1
