# generated using pymatgen
data_La2ReC2
_symmetry_space_group_name_H-M   'P 1'
_cell_length_a   6.77221100
_cell_length_b   5.47676200
_cell_length_c   10.44808700
_cell_angle_alpha   90.00000000
_cell_angle_beta   90.00000000
_cell_angle_gamma   90.00000000
_symmetry_Int_Tables_number   1
_chemical_formula_structural   La2ReC2
_chemical_formula_sum   'La8 Re4 C8'
_cell_volume   387.51733038
_cell_formula_units_Z   4
loop_
 _symmetry_equiv_pos_site_id
 _symmetry_equiv_pos_as_xyz
  1  'x, y, z'
loop_
 _atom_site_type_symbol
 _atom_site_label
 _atom_site_symmetry_multiplicity
 _atom_site_fract_x
 _atom_site_fract_y
 _atom_site_fract_z
 _atom_site_occupancy
  La  La0  1  0.806801  0.250000  0.048817  1
  La  La1  1  0.524757  0.750000  0.213757  1
  La  La2  1  0.024757  0.750000  0.286243  1
  La  La3  1  0.306801  0.250000  0.451183  1
  La  La4  1  0.693198  0.750000  0.548817  1
  La  La5  1  0.975243  0.250000  0.713757  1
  La  La6  1  0.475244  0.250000  0.786243  1
  La  La7  1  0.193200  0.750000  0.951183  1
  Re  Re8  1  0.267807  0.250000  0.146334  1
  Re  Re9  1  0.767808  0.250000  0.353666  1
  Re  Re10  1  0.232194  0.750000  0.646334  1
  Re  Re11  1  0.732193  0.750000  0.853666  1
  C  C12  1  0.808505  0.750000  0.030801  1
  C  C13  1  0.529032  0.250000  0.243406  1
  C  C14  1  0.029032  0.250000  0.256594  1
  C  C15  1  0.308505  0.750000  0.469198  1
  C  C16  1  0.691495  0.250000  0.530803  1
  C  C17  1  0.970968  0.750000  0.743406  1
  C  C18  1  0.470968  0.750000  0.756595  1
  C  C19  1  0.191495  0.250000  0.969199  1
