# generated using pymatgen
data_Sr2CaThPt4
_symmetry_space_group_name_H-M   'P 1'
_cell_length_a   4.54371700
_cell_length_b   5.90204497
_cell_length_c   7.74475500
_cell_angle_alpha   90.97010640
_cell_angle_beta   90.00000000
_cell_angle_gamma   90.00000000
_symmetry_Int_Tables_number   1
_chemical_formula_structural   Sr2CaThPt4
_chemical_formula_sum   'Sr2 Ca1 Th1 Pt4'
_cell_volume   207.66304501
_cell_formula_units_Z   1
loop_
 _symmetry_equiv_pos_site_id
 _symmetry_equiv_pos_as_xyz
  1  'x, y, z'
loop_
 _atom_site_type_symbol
 _atom_site_label
 _atom_site_symmetry_multiplicity
 _atom_site_fract_x
 _atom_site_fract_y
 _atom_site_fract_z
 _atom_site_occupancy
  Sr  Sr0  1  0.250000  0.138193  0.180691  1
  Sr  Sr1  1  0.750000  0.643038  0.316092  1
  Ca  Ca2  1  0.750000  0.861777  0.822231  1
  Th  Th3  1  0.250000  0.362661  0.685036  1
  Pt  Pt4  1  0.250000  0.844956  0.564881  1
  Pt  Pt5  1  0.250000  0.632657  0.013215  1
  Pt  Pt6  1  0.750000  0.157116  0.492627  1
  Pt  Pt7  1  0.750000  0.359599  0.925227  1
