# generated using pymatgen
data_Eu5Nb3(Ni4As3)4
_symmetry_space_group_name_H-M   'P 1'
_cell_length_a   12.68529700
_cell_length_b   12.68529685
_cell_length_c   3.89415200
_cell_angle_alpha   90.00000000
_cell_angle_beta   90.00000000
_cell_angle_gamma   120.00000299
_symmetry_Int_Tables_number   1
_chemical_formula_structural   Eu5Nb3(Ni4As3)4
_chemical_formula_sum   'Eu5 Nb3 Ni16 As12'
_cell_volume   542.68121979
_cell_formula_units_Z   1
loop_
 _symmetry_equiv_pos_site_id
 _symmetry_equiv_pos_as_xyz
  1  'x, y, z'
loop_
 _atom_site_type_symbol
 _atom_site_label
 _atom_site_symmetry_multiplicity
 _atom_site_fract_x
 _atom_site_fract_y
 _atom_site_fract_z
 _atom_site_occupancy
  Eu  Eu0  1  0.185197  0.185197  0.500000  1
  Eu  Eu1  1  0.814803  0.000000  0.500000  1
  Eu  Eu2  1  0.000000  0.814803  0.500000  1
  Eu  Eu3  1  0.333333  0.666667  0.000000  1
  Eu  Eu4  1  0.666667  0.333333  0.000000  1
  Nb  Nb5  1  0.563854  0.563854  0.000000  1
  Nb  Nb6  1  0.436146  0.000000  0.000000  1
  Nb  Nb7  1  0.000000  0.436146  0.000000  1
  Ni  Ni8  1  0.719628  0.719628  0.500000  1
  Ni  Ni9  1  0.280372  0.000000  0.500000  1
  Ni  Ni10  1  0.000000  0.280372  0.500000  1
  Ni  Ni11  1  0.182271  0.377898  0.000000  1
  Ni  Ni12  1  0.622102  0.804374  0.000000  1
  Ni  Ni13  1  0.195626  0.817729  0.000000  1
  Ni  Ni14  1  0.804374  0.622102  0.000000  1
  Ni  Ni15  1  0.817729  0.195626  0.000000  1
  Ni  Ni16  1  0.377898  0.182271  0.000000  1
  Ni  Ni17  1  0.362060  0.482443  0.500000  1
  Ni  Ni18  1  0.517557  0.879617  0.500000  1
  Ni  Ni19  1  0.120383  0.637940  0.500000  1
  Ni  Ni20  1  0.879617  0.517557  0.500000  1
  Ni  Ni21  1  0.637940  0.120383  0.500000  1
  Ni  Ni22  1  0.482443  0.362060  0.500000  1
  Ni  Ni23  1  0.000000  0.000000  0.000000  1
  As  As24  1  0.819998  0.819998  0.000000  1
  As  As25  1  0.180002  0.000000  0.000000  1
  As  As26  1  0.000000  0.180002  0.000000  1
  As  As27  1  0.169223  0.479337  0.500000  1
  As  As28  1  0.520663  0.689886  0.500000  1
  As  As29  1  0.310114  0.830777  0.500000  1
  As  As30  1  0.689886  0.520663  0.500000  1
  As  As31  1  0.830777  0.310114  0.500000  1
  As  As32  1  0.479337  0.169223  0.500000  1
  As  As33  1  0.362444  0.362444  0.000000  1
  As  As34  1  0.637556  0.000000  0.000000  1
  As  As35  1  0.000000  0.637556  0.000000  1
