# generated using pymatgen
data_Tm5VOsO12
_symmetry_space_group_name_H-M   'P 1'
_cell_length_a   6.70880170
_cell_length_b   6.70880143
_cell_length_c   7.32048609
_cell_angle_alpha   74.01857962
_cell_angle_beta   74.01858125
_cell_angle_gamma   50.32448928
_symmetry_Int_Tables_number   1
_chemical_formula_structural   Tm5VOsO12
_chemical_formula_sum   'Tm5 V1 Os1 O12'
_cell_volume   241.57466859
_cell_formula_units_Z   1
loop_
 _symmetry_equiv_pos_site_id
 _symmetry_equiv_pos_as_xyz
  1  'x, y, z'
loop_
 _atom_site_type_symbol
 _atom_site_label
 _atom_site_symmetry_multiplicity
 _atom_site_fract_x
 _atom_site_fract_y
 _atom_site_fract_z
 _atom_site_occupancy
  Tm  Tm0  1  0.805146  0.802221  0.360035  1
  Tm  Tm1  1  0.197779  0.194854  0.639965  1
  Tm  Tm2  1  0.185839  0.189957  0.174352  1
  Tm  Tm3  1  0.810043  0.814161  0.825648  1
  Tm  Tm4  1  0.499100  0.500900  0.500000  1
  V  V5  1  0.279671  0.720329  0.000000  1
  Os  Os6  1  0.731416  0.268584  0.000000  1
  O  O7  1  0.402535  0.917621  0.917181  1
  O  O8  1  0.082379  0.597465  0.082819  1
  O  O9  1  0.589040  0.073467  0.084739  1
  O  O10  1  0.926533  0.410960  0.915261  1
  O  O11  1  0.597807  0.094311  0.574744  1
  O  O12  1  0.905689  0.402193  0.425256  1
  O  O13  1  0.401832  0.904272  0.426576  1
  O  O14  1  0.998307  0.002478  0.817627  1
  O  O15  1  0.997522  0.001693  0.182373  1
  O  O16  1  0.495872  0.502236  0.801226  1
  O  O17  1  0.497764  0.504128  0.198774  1
  O  O18  1  0.095728  0.598168  0.573424  1
