# generated using pymatgen
data_Li4LaNd5Pd13
_symmetry_space_group_name_H-M   'P 1'
_cell_length_a   8.40799312
_cell_length_b   8.40799317
_cell_length_c   8.40799331
_cell_angle_alpha   109.42878111
_cell_angle_beta   109.42878514
_cell_angle_gamma   109.55613398
_symmetry_Int_Tables_number   1
_chemical_formula_structural   Li4LaNd5Pd13
_chemical_formula_sum   'Li4 La1 Nd5 Pd13'
_cell_volume   457.56671215
_cell_formula_units_Z   1
loop_
 _symmetry_equiv_pos_site_id
 _symmetry_equiv_pos_as_xyz
  1  'x, y, z'
loop_
 _atom_site_type_symbol
 _atom_site_label
 _atom_site_symmetry_multiplicity
 _atom_site_fract_x
 _atom_site_fract_y
 _atom_site_fract_z
 _atom_site_occupancy
  Li  Li0  1  0.000460  0.000460  0.500909  1
  Li  Li1  1  0.000460  0.499551  0.000000  1
  Li  Li2  1  0.499551  0.000460  0.000000  1
  Li  Li3  1  0.499551  0.499551  0.499091  1
  La  La4  1  0.692797  0.692797  0.000000  1
  Nd  Nd5  1  0.307317  0.000314  0.307004  1
  Nd  Nd6  1  0.000314  0.307317  0.307004  1
  Nd  Nd7  1  0.305517  0.305517  0.000000  1
  Nd  Nd8  1  0.693310  0.000314  0.692996  1
  Nd  Nd9  1  0.000314  0.693310  0.692996  1
  Pd  Pd10  1  0.332140  0.332140  0.664580  1
  Pd  Pd11  1  0.667530  0.000556  0.333026  1
  Pd  Pd12  1  0.000556  0.667530  0.333026  1
  Pd  Pd13  1  0.667560  0.332140  0.000000  1
  Pd  Pd14  1  0.332587  0.664993  0.332406  1
  Pd  Pd15  1  0.000181  0.332587  0.667594  1
  Pd  Pd16  1  0.332140  0.667560  0.000000  1
  Pd  Pd17  1  0.332587  0.000181  0.667594  1
  Pd  Pd18  1  0.664993  0.332587  0.332406  1
  Pd  Pd19  1  0.667560  0.667560  0.335420  1
  Pd  Pd20  1  0.667530  0.334504  0.666974  1
  Pd  Pd21  1  0.334504  0.667530  0.666974  1
  Pd  Pd22  1  0.000544  0.000544  0.000000  1
