# generated using pymatgen
data_Y2Ho2CdPt
_symmetry_space_group_name_H-M   'P 1'
_cell_length_a   9.67524430
_cell_length_b   9.67524497
_cell_length_c   9.69733200
_cell_angle_alpha   59.92445552
_cell_angle_beta   59.92445320
_cell_angle_gamma   60.15109356
_symmetry_Int_Tables_number   1
_chemical_formula_structural   Y2Ho2CdPt
_chemical_formula_sum   'Y8 Ho8 Cd4 Pt4'
_cell_volume   641.88414237
_cell_formula_units_Z   4
loop_
 _symmetry_equiv_pos_site_id
 _symmetry_equiv_pos_as_xyz
  1  'x, y, z'
loop_
 _atom_site_type_symbol
 _atom_site_label
 _atom_site_symmetry_multiplicity
 _atom_site_fract_x
 _atom_site_fract_y
 _atom_site_fract_z
 _atom_site_occupancy
  Y  Y0  1  0.189721  0.189721  0.810279  1
  Y  Y1  1  0.810279  0.810279  0.189721  1
  Y  Y2  1  0.936254  0.563746  0.563746  1
  Y  Y3  1  0.563746  0.936254  0.936254  1
  Y  Y4  1  0.563746  0.936254  0.563746  1
  Y  Y5  1  0.936254  0.563746  0.936254  1
  Y  Y6  1  0.563455  0.563455  0.936545  1
  Y  Y7  1  0.936545  0.936545  0.563455  1
  Ho  Ho8  1  0.352452  0.352452  0.352279  1
  Ho  Ho9  1  0.352452  0.352452  0.942816  1
  Ho  Ho10  1  0.352279  0.942816  0.352452  1
  Ho  Ho11  1  0.942816  0.352279  0.352452  1
  Ho  Ho12  1  0.810324  0.189676  0.189676  1
  Ho  Ho13  1  0.189676  0.810324  0.810324  1
  Ho  Ho14  1  0.189676  0.810324  0.189676  1
  Ho  Ho15  1  0.810324  0.189676  0.810324  1
  Cd  Cd16  1  0.581851  0.581851  0.581764  1
  Cd  Cd17  1  0.581851  0.581851  0.254535  1
  Cd  Cd18  1  0.581764  0.254535  0.581851  1
  Cd  Cd19  1  0.254535  0.581764  0.581851  1
  Pt  Pt20  1  0.142921  0.142921  0.144987  1
  Pt  Pt21  1  0.142921  0.142921  0.569172  1
  Pt  Pt22  1  0.144987  0.569172  0.142921  1
  Pt  Pt23  1  0.569172  0.144987  0.142921  1
