# generated using pymatgen
data_Dy11ErCu3Si8Ni
_symmetry_space_group_name_H-M   'P 1'
_cell_length_a   4.15463000
_cell_length_b   11.34337565
_cell_length_c   11.28712258
_cell_angle_alpha   90.01930011
_cell_angle_beta   90.00000000
_cell_angle_gamma   90.00000000
_symmetry_Int_Tables_number   1
_chemical_formula_structural   Dy11ErCu3Si8Ni
_chemical_formula_sum   'Dy11 Er1 Cu3 Si8 Ni1'
_cell_volume   531.93416403
_cell_formula_units_Z   1
loop_
 _symmetry_equiv_pos_site_id
 _symmetry_equiv_pos_as_xyz
  1  'x, y, z'
loop_
 _atom_site_type_symbol
 _atom_site_label
 _atom_site_symmetry_multiplicity
 _atom_site_fract_x
 _atom_site_fract_y
 _atom_site_fract_z
 _atom_site_occupancy
  Dy  Dy0  1  0.250000  0.436920  0.377667  1
  Dy  Dy1  1  0.750000  0.936221  0.117907  1
  Dy  Dy2  1  0.750000  0.560964  0.620706  1
  Dy  Dy3  1  0.250000  0.120773  0.559412  1
  Dy  Dy4  1  0.250000  0.379102  0.058651  1
  Dy  Dy5  1  0.750000  0.877858  0.440484  1
  Dy  Dy6  1  0.750000  0.627152  0.939687  1
  Dy  Dy7  1  0.250000  0.805835  0.713176  1
  Dy  Dy8  1  0.250000  0.696840  0.208772  1
  Dy  Dy9  1  0.750000  0.195166  0.290614  1
  Dy  Dy10  1  0.750000  0.303061  0.791774  1
  Er  Er11  1  0.250000  0.058741  0.877877  1
  Cu  Cu12  1  0.250000  0.363532  0.631709  1
  Cu  Cu13  1  0.250000  0.134371  0.130106  1
  Cu  Cu14  1  0.750000  0.635243  0.368932  1
  Si  Si15  1  0.250000  0.816205  0.973784  1
  Si  Si16  1  0.250000  0.685245  0.476298  1
  Si  Si17  1  0.750000  0.186140  0.024491  1
  Si  Si18  1  0.750000  0.312875  0.524573  1
  Si  Si19  1  0.250000  0.495114  0.806990  1
  Si  Si20  1  0.250000  0.004379  0.305743  1
  Si  Si21  1  0.750000  0.506108  0.193492  1
  Si  Si22  1  0.750000  0.993377  0.696087  1
  Ni  Ni23  1  0.750000  0.868777  0.871069  1
