# generated using pymatgen
data_KLa6OsBr12
_symmetry_space_group_name_H-M   'P 1'
_cell_length_a   9.75532811
_cell_length_b   9.74260883
_cell_length_c   9.74810557
_cell_angle_alpha   105.80439858
_cell_angle_beta   105.92410006
_cell_angle_gamma   105.79714517
_symmetry_Int_Tables_number   1
_chemical_formula_structural   KLa6OsBr12
_chemical_formula_sum   'K1 La6 Os1 Br12'
_cell_volume   794.70018106
_cell_formula_units_Z   1
loop_
 _symmetry_equiv_pos_site_id
 _symmetry_equiv_pos_as_xyz
  1  'x, y, z'
loop_
 _atom_site_type_symbol
 _atom_site_label
 _atom_site_symmetry_multiplicity
 _atom_site_fract_x
 _atom_site_fract_y
 _atom_site_fract_z
 _atom_site_occupancy
  K  K0  1  0.500007  0.500007  0.499998  1
  La  La1  1  0.106923  0.313571  0.021041  1
  La  La2  1  0.312638  0.020751  0.106674  1
  La  La3  1  0.021267  0.106954  0.313683  1
  La  La4  1  0.978765  0.893117  0.686324  1
  La  La5  1  0.687388  0.979317  0.893355  1
  La  La6  1  0.893082  0.686447  0.978996  1
  Os  Os7  1  0.999932  0.999858  0.999976  1
  Br  Br8  1  0.213957  0.678444  0.071688  1
  Br  Br9  1  0.438315  0.351322  0.131480  1
  Br  Br10  1  0.679071  0.072296  0.215133  1
  Br  Br11  1  0.928553  0.785967  0.321652  1
  Br  Br12  1  0.131529  0.438777  0.351566  1
  Br  Br13  1  0.351357  0.131434  0.438408  1
  Br  Br14  1  0.648667  0.868582  0.561596  1
  Br  Br15  1  0.868468  0.561222  0.648446  1
  Br  Br16  1  0.071427  0.214010  0.678340  1
  Br  Br17  1  0.320937  0.927707  0.784839  1
  Br  Br18  1  0.561681  0.648670  0.868507  1
  Br  Br19  1  0.786033  0.321547  0.928298  1
