# generated using pymatgen
data_Rb3Li2NbP3
_symmetry_space_group_name_H-M   'P 1'
_cell_length_a   9.95289363
_cell_length_b   9.95289332
_cell_length_c   15.81034700
_cell_angle_alpha   90.00000000
_cell_angle_beta   90.00000000
_cell_angle_gamma   142.56560901
_symmetry_Int_Tables_number   1
_chemical_formula_structural   Rb3Li2NbP3
_chemical_formula_sum   'Rb12 Li8 Nb4 P12'
_cell_volume   952.00311237
_cell_formula_units_Z   4
loop_
 _symmetry_equiv_pos_site_id
 _symmetry_equiv_pos_as_xyz
  1  'x, y, z'
loop_
 _atom_site_type_symbol
 _atom_site_label
 _atom_site_symmetry_multiplicity
 _atom_site_fract_x
 _atom_site_fract_y
 _atom_site_fract_z
 _atom_site_occupancy
  Rb  Rb0  1  0.949298  0.610840  0.829226  1
  Rb  Rb1  1  0.550702  0.889160  0.329226  1
  Rb  Rb2  1  0.389160  0.050702  0.170774  1
  Rb  Rb3  1  0.050702  0.389160  0.170774  1
  Rb  Rb4  1  0.889160  0.550702  0.329226  1
  Rb  Rb5  1  0.449298  0.110840  0.670774  1
  Rb  Rb6  1  0.610840  0.949298  0.829226  1
  Rb  Rb7  1  0.284099  0.284099  0.317196  1
  Rb  Rb8  1  0.784099  0.784099  0.182804  1
  Rb  Rb9  1  0.215901  0.215901  0.817196  1
  Rb  Rb10  1  0.715901  0.715901  0.682804  1
  Rb  Rb11  1  0.110840  0.449298  0.670774  1
  Li  Li12  1  0.919032  0.080968  0.000000  1
  Li  Li13  1  0.580968  0.419032  0.500000  1
  Li  Li14  1  0.080968  0.919032  0.000000  1
  Li  Li15  1  0.419032  0.580968  0.500000  1
  Li  Li16  1  0.750020  0.249980  0.000000  1
  Li  Li17  1  0.749980  0.250020  0.500000  1
  Li  Li18  1  0.249980  0.750020  0.000000  1
  Li  Li19  1  0.250020  0.749980  0.500000  1
  Nb  Nb20  1  0.583651  0.416349  0.000000  1
  Nb  Nb21  1  0.916349  0.083651  0.500000  1
  Nb  Nb22  1  0.416349  0.583651  0.000000  1
  Nb  Nb23  1  0.083651  0.916349  0.500000  1
  P  P24  1  0.884888  0.566248  0.084075  1
  P  P25  1  0.433752  0.115112  0.915925  1
  P  P26  1  0.615112  0.933752  0.584075  1
  P  P27  1  0.933752  0.615112  0.584075  1
  P  P28  1  0.115112  0.433752  0.915925  1
  P  P29  1  0.566248  0.884888  0.084075  1
  P  P30  1  0.384888  0.066248  0.415925  1
  P  P31  1  0.220664  0.220664  0.583912  1
  P  P32  1  0.720664  0.720664  0.916088  1
  P  P33  1  0.279336  0.279336  0.083912  1
  P  P34  1  0.066248  0.384888  0.415925  1
  P  P35  1  0.779336  0.779336  0.416088  1
