# generated using pymatgen
data_Sm4Co17Si7P5Ru3
_symmetry_space_group_name_H-M   'P 1'
_cell_length_a   3.73450900
_cell_length_b   10.52241482
_cell_length_c   11.96399069
_cell_angle_alpha   90.03536891
_cell_angle_beta   90.00000000
_cell_angle_gamma   90.00000000
_symmetry_Int_Tables_number   1
_chemical_formula_structural   Sm4Co17Si7P5Ru3
_chemical_formula_sum   'Sm4 Co17 Si7 P5 Ru3'
_cell_volume   470.13752113
_cell_formula_units_Z   1
loop_
 _symmetry_equiv_pos_site_id
 _symmetry_equiv_pos_as_xyz
  1  'x, y, z'
loop_
 _atom_site_type_symbol
 _atom_site_label
 _atom_site_symmetry_multiplicity
 _atom_site_fract_x
 _atom_site_fract_y
 _atom_site_fract_z
 _atom_site_occupancy
  Sm  Sm0  1  0.250000  0.582409  0.700591  1
  Sm  Sm1  1  0.250000  0.915231  0.204589  1
  Sm  Sm2  1  0.750000  0.414156  0.298316  1
  Sm  Sm3  1  0.750000  0.085977  0.797891  1
  Co  Co4  1  0.750000  0.208658  0.508532  1
  Co  Co5  1  0.250000  0.402663  0.485606  1
  Co  Co6  1  0.250000  0.095047  0.987463  1
  Co  Co7  1  0.750000  0.591614  0.506258  1
  Co  Co8  1  0.750000  0.907915  0.007371  1
  Co  Co9  1  0.250000  0.214899  0.177722  1
  Co  Co10  1  0.250000  0.277032  0.673799  1
  Co  Co11  1  0.750000  0.787569  0.825180  1
  Co  Co12  1  0.750000  0.713764  0.326036  1
  Co  Co13  1  0.250000  0.889416  0.702383  1
  Co  Co14  1  0.250000  0.612838  0.202805  1
  Co  Co15  1  0.750000  0.118792  0.305936  1
  Co  Co16  1  0.750000  0.381017  0.800310  1
  Co  Co17  1  0.250000  0.465404  0.929745  1
  Co  Co18  1  0.250000  0.038095  0.435721  1
  Co  Co19  1  0.750000  0.531167  0.067042  1
  Co  Co20  1  0.750000  0.975322  0.571106  1
  Si  Si21  1  0.250000  0.415934  0.110690  1
  Si  Si22  1  0.750000  0.583932  0.887704  1
  Si  Si23  1  0.750000  0.917133  0.392016  1
  Si  Si24  1  0.750000  0.725529  0.132516  1
  Si  Si25  1  0.750000  0.776116  0.631204  1
  Si  Si26  1  0.750000  0.395040  0.605331  1
  Si  Si27  1  0.750000  0.100655  0.109423  1
  P  P28  1  0.250000  0.081142  0.612540  1
  P  P29  1  0.250000  0.276052  0.863842  1
  P  P30  1  0.250000  0.225195  0.367031  1
  P  P31  1  0.250000  0.599523  0.392359  1
  P  P32  1  0.250000  0.901124  0.892787  1
  Ru  Ru33  1  0.250000  0.708441  0.988196  1
  Ru  Ru34  1  0.250000  0.791658  0.488883  1
  Ru  Ru35  1  0.750000  0.293539  0.011080  1
