# generated using pymatgen
data_Lu17Sc3(GaBi2)4
_symmetry_space_group_name_H-M   'P 1'
_cell_length_a   7.90593304
_cell_length_b   9.14029000
_cell_length_c   11.58692305
_cell_angle_alpha   90.00000000
_cell_angle_beta   89.98911571
_cell_angle_gamma   90.00000000
_symmetry_Int_Tables_number   1
_chemical_formula_structural   Lu17Sc3(GaBi2)4
_chemical_formula_sum   'Lu17 Sc3 Ga4 Bi8'
_cell_volume   837.30025142
_cell_formula_units_Z   1
loop_
 _symmetry_equiv_pos_site_id
 _symmetry_equiv_pos_as_xyz
  1  'x, y, z'
loop_
 _atom_site_type_symbol
 _atom_site_label
 _atom_site_symmetry_multiplicity
 _atom_site_fract_x
 _atom_site_fract_y
 _atom_site_fract_z
 _atom_site_occupancy
  Lu  Lu0  1  0.537148  0.250000  0.991484  1
  Lu  Lu1  1  0.345616  0.250000  0.295935  1
  Lu  Lu2  1  0.654245  0.750000  0.703854  1
  Lu  Lu3  1  0.153447  0.750000  0.795536  1
  Lu  Lu4  1  0.847479  0.250000  0.205101  1
  Lu  Lu5  1  0.180075  0.250000  0.786476  1
  Lu  Lu6  1  0.819971  0.750000  0.213199  1
  Lu  Lu7  1  0.319401  0.750000  0.287157  1
  Lu  Lu8  1  0.680719  0.250000  0.711704  1
  Lu  Lu9  1  0.184755  0.057160  0.055889  1
  Lu  Lu10  1  0.814216  0.940839  0.944186  1
  Lu  Lu11  1  0.313323  0.941634  0.555307  1
  Lu  Lu12  1  0.814216  0.559161  0.944186  1
  Lu  Lu13  1  0.686440  0.057975  0.444636  1
  Lu  Lu14  1  0.184755  0.442840  0.055889  1
  Lu  Lu15  1  0.686440  0.442025  0.444636  1
  Lu  Lu16  1  0.313323  0.558366  0.555307  1
  Sc  Sc17  1  0.036678  0.250000  0.510018  1
  Sc  Sc18  1  0.963246  0.750000  0.489898  1
  Sc  Sc19  1  0.463682  0.750000  0.009935  1
  Ga  Ga20  1  0.405151  0.250000  0.540522  1
  Ga  Ga21  1  0.594635  0.750000  0.459569  1
  Ga  Ga22  1  0.094655  0.750000  0.040875  1
  Ga  Ga23  1  0.908850  0.250000  0.958485  1
  Bi  Bi24  1  0.055450  0.000774  0.324910  1
  Bi  Bi25  1  0.944657  0.998824  0.675206  1
  Bi  Bi26  1  0.443590  0.996729  0.822589  1
  Bi  Bi27  1  0.944657  0.501176  0.675206  1
  Bi  Bi28  1  0.555069  0.998165  0.177402  1
  Bi  Bi29  1  0.055450  0.499226  0.324910  1
  Bi  Bi30  1  0.555069  0.501835  0.177402  1
  Bi  Bi31  1  0.443590  0.503271  0.822589  1
