# generated using pymatgen
data_Y7TmMg2(SiB4)4
_symmetry_space_group_name_H-M   'P 1'
_cell_length_a   7.17161203
_cell_length_b   7.17160803
_cell_length_c   7.85136002
_cell_angle_alpha   89.99402708
_cell_angle_beta   89.99405766
_cell_angle_gamma   89.99090808
_symmetry_Int_Tables_number   1
_chemical_formula_structural   Y7TmMg2(SiB4)4
_chemical_formula_sum   'Y7 Tm1 Mg2 Si4 B16'
_cell_volume   403.81106422
_cell_formula_units_Z   1
loop_
 _symmetry_equiv_pos_site_id
 _symmetry_equiv_pos_as_xyz
  1  'x, y, z'
loop_
 _atom_site_type_symbol
 _atom_site_label
 _atom_site_symmetry_multiplicity
 _atom_site_fract_x
 _atom_site_fract_y
 _atom_site_fract_z
 _atom_site_occupancy
  Y  Y0  1  0.316921  0.816922  0.766118  1
  Y  Y1  1  0.317027  0.817029  0.233813  1
  Y  Y2  1  0.816709  0.683174  0.233693  1
  Y  Y3  1  0.816685  0.683117  0.766179  1
  Y  Y4  1  0.683283  0.183283  0.766243  1
  Y  Y5  1  0.183118  0.316683  0.766178  1
  Y  Y6  1  0.183171  0.316707  0.233694  1
  Tm  Tm7  1  0.683115  0.183115  0.230615  1
  Mg  Mg8  1  0.999361  0.000398  0.499409  1
  Mg  Mg9  1  0.500400  0.499356  0.499394  1
  Si  Si10  1  0.114778  0.614779  0.499758  1
  Si  Si11  1  0.883695  0.383696  0.498479  1
  Si  Si12  1  0.386022  0.115949  0.498804  1
  Si  Si13  1  0.615949  0.886022  0.498804  1
  B  B14  1  0.173351  0.040061  0.000460  1
  B  B15  1  0.826053  0.960814  0.000681  1
  B  B16  1  0.959592  0.173859  0.000447  1
  B  B17  1  0.326628  0.539580  0.000400  1
  B  B18  1  0.039581  0.826628  0.000402  1
  B  B19  1  0.673859  0.459593  0.000448  1
  B  B20  1  0.540061  0.673351  0.000459  1
  B  B21  1  0.460813  0.326053  0.000681  1
  B  B22  1  0.089684  0.589685  0.000241  1
  B  B23  1  0.910142  0.410142  0.000381  1
  B  B24  1  0.410567  0.089794  0.001050  1
  B  B25  1  0.589795  0.910567  0.001051  1
  B  B26  1  0.998957  0.000563  0.162634  1
  B  B27  1  0.999954  0.000167  0.838425  1
  B  B28  1  0.500167  0.499954  0.838425  1
  B  B29  1  0.500563  0.498958  0.162635  1
