# generated using pymatgen
data_Rb4Ba2TiP4
_symmetry_space_group_name_H-M   'P 1'
_cell_length_a   10.50214523
_cell_length_b   10.50214599
_cell_length_c   8.00000818
_cell_angle_alpha   88.39611575
_cell_angle_beta   88.39611862
_cell_angle_gamma   119.40813906
_symmetry_Int_Tables_number   1
_chemical_formula_structural   Rb4Ba2TiP4
_chemical_formula_sum   'Rb8 Ba4 Ti2 P8'
_cell_volume   767.47986913
_cell_formula_units_Z   2
loop_
 _symmetry_equiv_pos_site_id
 _symmetry_equiv_pos_as_xyz
  1  'x, y, z'
loop_
 _atom_site_type_symbol
 _atom_site_label
 _atom_site_symmetry_multiplicity
 _atom_site_fract_x
 _atom_site_fract_y
 _atom_site_fract_z
 _atom_site_occupancy
  Rb  Rb0  1  0.056509  0.526598  0.612734  1
  Rb  Rb1  1  0.526598  0.056509  0.112734  1
  Rb  Rb2  1  0.275788  0.134053  0.824584  1
  Rb  Rb3  1  0.871604  0.731065  0.766916  1
  Rb  Rb4  1  0.860785  0.144661  0.799259  1
  Rb  Rb5  1  0.731065  0.871604  0.266916  1
  Rb  Rb6  1  0.134053  0.275788  0.324584  1
  Rb  Rb7  1  0.144661  0.860785  0.299259  1
  Ba  Ba8  1  0.466554  0.934890  0.606288  1
  Ba  Ba9  1  0.466633  0.524824  0.617861  1
  Ba  Ba10  1  0.934890  0.466554  0.106288  1
  Ba  Ba11  1  0.524824  0.466633  0.117861  1
  Ti  Ti12  1  0.665434  0.336047  0.509678  1
  Ti  Ti13  1  0.336047  0.665434  0.009678  1
  P  P14  1  0.668850  0.354596  0.815850  1
  P  P15  1  0.354596  0.668850  0.315850  1
  P  P16  1  0.582632  0.783760  0.879605  1
  P  P17  1  0.211006  0.411738  0.926872  1
  P  P18  1  0.205939  0.786035  0.909101  1
  P  P19  1  0.411738  0.211006  0.426872  1
  P  P20  1  0.783760  0.582632  0.379605  1
  P  P21  1  0.786035  0.205939  0.409101  1
