# generated using pymatgen
data_LuSc4In4CuRh
_symmetry_space_group_name_H-M   'P 1'
_cell_length_a   3.42265600
_cell_length_b   7.73836038
_cell_length_c   17.56339057
_cell_angle_alpha   89.76172076
_cell_angle_beta   90.00000000
_cell_angle_gamma   90.00000000
_symmetry_Int_Tables_number   1
_chemical_formula_structural   LuSc4In4CuRh
_chemical_formula_sum   'Lu2 Sc8 In8 Cu2 Rh2'
_cell_volume   465.17547132
_cell_formula_units_Z   2
loop_
 _symmetry_equiv_pos_site_id
 _symmetry_equiv_pos_as_xyz
  1  'x, y, z'
loop_
 _atom_site_type_symbol
 _atom_site_label
 _atom_site_symmetry_multiplicity
 _atom_site_fract_x
 _atom_site_fract_y
 _atom_site_fract_z
 _atom_site_occupancy
  Lu  Lu0  1  0.000000  0.738937  0.779993  1
  Lu  Lu1  1  0.000000  0.261063  0.220007  1
  Sc  Sc2  1  0.000000  0.000000  0.000000  1
  Sc  Sc3  1  0.000000  0.500000  0.500000  1
  Sc  Sc4  1  0.000000  0.257736  0.721009  1
  Sc  Sc5  1  0.000000  0.742264  0.278991  1
  Sc  Sc6  1  0.000000  0.874889  0.582056  1
  Sc  Sc7  1  0.000000  0.125111  0.417944  1
  Sc  Sc8  1  0.000000  0.374130  0.915191  1
  Sc  Sc9  1  0.000000  0.625870  0.084809  1
  In  In10  1  0.500000  0.797697  0.432918  1
  In  In11  1  0.500000  0.202303  0.567082  1
  In  In12  1  0.500000  0.298569  0.064417  1
  In  In13  1  0.500000  0.701431  0.935583  1
  In  In14  1  0.500000  0.926181  0.150692  1
  In  In15  1  0.500000  0.073819  0.849308  1
  In  In16  1  0.500000  0.429796  0.354127  1
  In  In17  1  0.500000  0.570204  0.645873  1
  Cu  Cu18  1  0.500000  0.968554  0.694641  1
  Cu  Cu19  1  0.500000  0.031446  0.305359  1
  Rh  Rh20  1  0.500000  0.456224  0.804935  1
  Rh  Rh21  1  0.500000  0.543776  0.195065  1
