# generated using pymatgen
data_Tb5OsPb2
_symmetry_space_group_name_H-M   'P 1'
_cell_length_a   8.01606500
_cell_length_b   9.06281300
_cell_length_c   12.53542400
_cell_angle_alpha   90.00000000
_cell_angle_beta   90.00000000
_cell_angle_gamma   90.00000000
_symmetry_Int_Tables_number   1
_chemical_formula_structural   Tb5OsPb2
_chemical_formula_sum   'Tb20 Os4 Pb8'
_cell_volume   910.67471236
_cell_formula_units_Z   4
loop_
 _symmetry_equiv_pos_site_id
 _symmetry_equiv_pos_as_xyz
  1  'x, y, z'
loop_
 _atom_site_type_symbol
 _atom_site_label
 _atom_site_symmetry_multiplicity
 _atom_site_fract_x
 _atom_site_fract_y
 _atom_site_fract_z
 _atom_site_occupancy
  Tb  Tb0  1  0.845521  0.750000  0.788519  1
  Tb  Tb1  1  0.154479  0.250000  0.211481  1
  Tb  Tb2  1  0.345521  0.250000  0.711481  1
  Tb  Tb3  1  0.654479  0.750000  0.288519  1
  Tb  Tb4  1  0.380078  0.750000  0.694369  1
  Tb  Tb5  1  0.619922  0.250000  0.305631  1
  Tb  Tb6  1  0.880078  0.250000  0.805631  1
  Tb  Tb7  1  0.119922  0.750000  0.194369  1
  Tb  Tb8  1  0.950185  0.750000  0.503670  1
  Tb  Tb9  1  0.049815  0.250000  0.496330  1
  Tb  Tb10  1  0.450185  0.250000  0.996330  1
  Tb  Tb11  1  0.549815  0.750000  0.003670  1
  Tb  Tb12  1  0.674486  0.037291  0.568343  1
  Tb  Tb13  1  0.325514  0.962709  0.431657  1
  Tb  Tb14  1  0.174486  0.962709  0.931657  1
  Tb  Tb15  1  0.325514  0.537291  0.431657  1
  Tb  Tb16  1  0.825514  0.037291  0.068343  1
  Tb  Tb17  1  0.674486  0.462709  0.568343  1
  Tb  Tb18  1  0.825514  0.462709  0.068343  1
  Tb  Tb19  1  0.174486  0.537291  0.931657  1
  Os  Os20  1  0.575388  0.750000  0.507712  1
  Os  Os21  1  0.424612  0.250000  0.492288  1
  Os  Os22  1  0.075388  0.250000  0.992288  1
  Os  Os23  1  0.924612  0.750000  0.007712  1
  Pb  Pb24  1  0.573663  0.494217  0.829944  1
  Pb  Pb25  1  0.426337  0.505783  0.170056  1
  Pb  Pb26  1  0.073663  0.505783  0.670056  1
  Pb  Pb27  1  0.426337  0.994217  0.170056  1
  Pb  Pb28  1  0.926337  0.494217  0.329944  1
  Pb  Pb29  1  0.573663  0.005783  0.829944  1
  Pb  Pb30  1  0.926337  0.005783  0.329944  1
  Pb  Pb31  1  0.073663  0.994217  0.670056  1
