# generated using pymatgen
data_FeI7
_symmetry_space_group_name_H-M   'P 1'
_cell_length_a   14.00938000
_cell_length_b   7.01969287
_cell_length_c   8.60332821
_cell_angle_alpha   84.14387715
_cell_angle_beta   90.00000000
_cell_angle_gamma   90.00000000
_symmetry_Int_Tables_number   1
_chemical_formula_structural   FeI7
_chemical_formula_sum   'Fe2 I14'
_cell_volume   841.64918380
_cell_formula_units_Z   2
loop_
 _symmetry_equiv_pos_site_id
 _symmetry_equiv_pos_as_xyz
  1  'x, y, z'
loop_
 _atom_site_type_symbol
 _atom_site_label
 _atom_site_symmetry_multiplicity
 _atom_site_fract_x
 _atom_site_fract_y
 _atom_site_fract_z
 _atom_site_occupancy
  Fe  Fe0  1  0.103788  0.509383  0.480283  1
  Fe  Fe1  1  0.603788  0.490617  0.519717  1
  I  I2  1  0.759383  0.991904  0.908435  1
  I  I3  1  0.259383  0.008096  0.091565  1
  I  I4  1  0.760165  0.634883  0.587664  1
  I  I5  1  0.260165  0.365117  0.412336  1
  I  I6  1  0.167894  0.719141  0.925981  1
  I  I7  1  0.667894  0.280859  0.074019  1
  I  I8  1  0.368694  0.272007  0.882636  1
  I  I9  1  0.868694  0.727993  0.117364  1
  I  I10  1  0.062887  0.410870  0.775740  1
  I  I11  1  0.562887  0.589130  0.224260  1
  I  I12  1  0.107801  0.867278  0.444449  1
  I  I13  1  0.607801  0.132722  0.555551  1
  I  I14  1  0.470389  0.607176  0.699615  1
  I  I15  1  0.970389  0.392824  0.300385  1
