# generated using pymatgen
data_Hf5Ga6Mo
_symmetry_space_group_name_H-M   'P 1'
_cell_length_a   5.53041600
_cell_length_b   8.52354900
_cell_length_c   9.12113700
_cell_angle_alpha   90.00000000
_cell_angle_beta   90.00000000
_cell_angle_gamma   90.00000000
_symmetry_Int_Tables_number   1
_chemical_formula_structural   Hf5Ga6Mo
_chemical_formula_sum   'Hf10 Ga12 Mo2'
_cell_volume   429.95919529
_cell_formula_units_Z   2
loop_
 _symmetry_equiv_pos_site_id
 _symmetry_equiv_pos_as_xyz
  1  'x, y, z'
loop_
 _atom_site_type_symbol
 _atom_site_label
 _atom_site_symmetry_multiplicity
 _atom_site_fract_x
 _atom_site_fract_y
 _atom_site_fract_z
 _atom_site_occupancy
  Hf  Hf0  1  0.000000  0.250000  0.886164  1
  Hf  Hf1  1  0.500000  0.750000  0.113836  1
  Hf  Hf2  1  0.755162  0.470789  0.619019  1
  Hf  Hf3  1  0.255162  0.529211  0.380981  1
  Hf  Hf4  1  0.744838  0.970789  0.380981  1
  Hf  Hf5  1  0.244838  0.029211  0.619019  1
  Hf  Hf6  1  0.747851  0.365567  0.184717  1
  Hf  Hf7  1  0.247851  0.634433  0.815283  1
  Hf  Hf8  1  0.752149  0.865567  0.815283  1
  Hf  Hf9  1  0.252149  0.134433  0.184717  1
  Ga  Ga10  1  0.000000  0.750000  0.571118  1
  Ga  Ga11  1  0.500000  0.250000  0.428882  1
  Ga  Ga12  1  0.000000  0.250000  0.431659  1
  Ga  Ga13  1  0.500000  0.750000  0.568341  1
  Ga  Ga14  1  0.750935  0.044904  0.082351  1
  Ga  Ga15  1  0.250935  0.955096  0.917649  1
  Ga  Ga16  1  0.749065  0.544904  0.917649  1
  Ga  Ga17  1  0.249065  0.455096  0.082351  1
  Ga  Ga18  1  0.734839  0.133070  0.653451  1
  Ga  Ga19  1  0.234839  0.866930  0.346549  1
  Ga  Ga20  1  0.765161  0.633070  0.346549  1
  Ga  Ga21  1  0.265161  0.366930  0.653451  1
  Mo  Mo22  1  0.000000  0.750000  0.104989  1
  Mo  Mo23  1  0.500000  0.250000  0.895011  1
