# generated using pymatgen
data_LiScB4Ru5
_symmetry_space_group_name_H-M   'P 1'
_cell_length_a   2.96868400
_cell_length_b   8.33056058
_cell_length_c   10.06632798
_cell_angle_alpha   88.90757630
_cell_angle_beta   90.00000000
_cell_angle_gamma   90.00000000
_symmetry_Int_Tables_number   1
_chemical_formula_structural   LiScB4Ru5
_chemical_formula_sum   'Li2 Sc2 B8 Ru10'
_cell_volume   248.90311496
_cell_formula_units_Z   2
loop_
 _symmetry_equiv_pos_site_id
 _symmetry_equiv_pos_as_xyz
  1  'x, y, z'
loop_
 _atom_site_type_symbol
 _atom_site_label
 _atom_site_symmetry_multiplicity
 _atom_site_fract_x
 _atom_site_fract_y
 _atom_site_fract_z
 _atom_site_occupancy
  Li  Li0  1  0.500000  0.846803  0.177890  1
  Li  Li1  1  0.500000  0.153197  0.822110  1
  Sc  Sc2  1  0.500000  0.655720  0.685548  1
  Sc  Sc3  1  0.500000  0.344280  0.314452  1
  B  B4  1  0.500000  0.962960  0.590154  1
  B  B5  1  0.500000  0.037040  0.409846  1
  B  B6  1  0.500000  0.855163  0.899025  1
  B  B7  1  0.500000  0.144837  0.100975  1
  B  B8  1  0.500000  0.651545  0.394860  1
  B  B9  1  0.500000  0.348455  0.605140  1
  B  B10  1  0.500000  0.460585  0.910205  1
  B  B11  1  0.500000  0.539415  0.089795  1
  Ru  Ru12  1  0.000000  0.657404  0.949829  1
  Ru  Ru13  1  0.000000  0.342596  0.050171  1
  Ru  Ru14  1  0.000000  0.841283  0.457876  1
  Ru  Ru15  1  0.000000  0.158717  0.542124  1
  Ru  Ru16  1  0.000000  0.000000  0.000000  1
  Ru  Ru17  1  0.000000  0.390156  0.763270  1
  Ru  Ru18  1  0.000000  0.609844  0.236730  1
  Ru  Ru19  1  0.000000  0.500000  0.500000  1
  Ru  Ru20  1  0.000000  0.912713  0.742182  1
  Ru  Ru21  1  0.000000  0.087287  0.257818  1
