# generated using pymatgen
data_Sm3DyY2(Si3Ru)8
_symmetry_space_group_name_H-M   'P 1'
_cell_length_a   10.14459415
_cell_length_b   10.14459357
_cell_length_c   8.18342000
_cell_angle_alpha   90.07218405
_cell_angle_beta   89.92782186
_cell_angle_gamma   132.45163532
_symmetry_Int_Tables_number   1
_chemical_formula_structural   Sm3DyY2(Si3Ru)8
_chemical_formula_sum   'Sm3 Dy1 Y2 Si24 Ru8'
_cell_volume   621.39861920
_cell_formula_units_Z   1
loop_
 _symmetry_equiv_pos_site_id
 _symmetry_equiv_pos_as_xyz
  1  'x, y, z'
loop_
 _atom_site_type_symbol
 _atom_site_label
 _atom_site_symmetry_multiplicity
 _atom_site_fract_x
 _atom_site_fract_y
 _atom_site_fract_z
 _atom_site_occupancy
  Sm  Sm0  1  0.502500  0.002500  0.750000  1
  Sm  Sm1  1  0.997459  0.497459  0.250000  1
  Sm  Sm2  1  0.497070  0.997070  0.250000  1
  Dy  Dy3  1  0.002420  0.502420  0.750000  1
  Y  Y4  1  0.499988  0.499976  0.500095  1
  Y  Y5  1  0.999976  0.999988  0.999905  1
  Si  Si6  1  0.795369  0.206222  0.501154  1
  Si  Si7  1  0.293679  0.704429  0.998901  1
  Si  Si8  1  0.204429  0.793679  0.501099  1
  Si  Si9  1  0.706222  0.295369  0.998846  1
  Si  Si10  1  0.332524  0.332383  0.833189  1
  Si  Si11  1  0.667461  0.667559  0.166969  1
  Si  Si12  1  0.167559  0.167461  0.333031  1
  Si  Si13  1  0.832383  0.832524  0.666811  1
  Si  Si14  1  0.121168  0.887745  0.727717  1
  Si  Si15  1  0.112843  0.879103  0.271429  1
  Si  Si16  1  0.611411  0.377442  0.228257  1
  Si  Si17  1  0.622020  0.388343  0.771745  1
  Si  Si18  1  0.877442  0.111411  0.271743  1
  Si  Si19  1  0.888343  0.122020  0.728255  1
  Si  Si20  1  0.387745  0.621168  0.772283  1
  Si  Si21  1  0.379103  0.612843  0.228571  1
  Si  Si22  1  0.345609  0.112142  0.504884  1
  Si  Si23  1  0.888656  0.656311  0.496275  1
  Si  Si24  1  0.387709  0.154262  0.005038  1
  Si  Si25  1  0.844170  0.611419  0.994115  1
  Si  Si26  1  0.654262  0.887709  0.494962  1
  Si  Si27  1  0.111419  0.344170  0.505885  1
  Si  Si28  1  0.612142  0.845609  0.995116  1
  Si  Si29  1  0.156311  0.388656  0.003725  1
  Ru  Ru30  1  0.670303  0.334058  0.500673  1
  Ru  Ru31  1  0.166053  0.829796  0.998427  1
  Ru  Ru32  1  0.329796  0.666053  0.501573  1
  Ru  Ru33  1  0.834058  0.170303  0.999327  1
  Ru  Ru34  1  0.125909  0.125800  0.626498  1
  Ru  Ru35  1  0.874218  0.874471  0.373209  1
  Ru  Ru36  1  0.374471  0.374218  0.126791  1
  Ru  Ru37  1  0.625800  0.625909  0.873502  1
