# generated using pymatgen
data_Y8Cd(InAu4)5
_symmetry_space_group_name_H-M   'P 1'
_cell_length_a   8.59424485
_cell_length_b   8.59424594
_cell_length_c   10.27125041
_cell_angle_alpha   90.06384082
_cell_angle_beta   89.93618553
_cell_angle_gamma   108.09972660
_symmetry_Int_Tables_number   1
_chemical_formula_structural   Y8Cd(InAu4)5
_chemical_formula_sum   'Y8 Cd1 In5 Au20'
_cell_volume   721.10481097
_cell_formula_units_Z   1
loop_
 _symmetry_equiv_pos_site_id
 _symmetry_equiv_pos_as_xyz
  1  'x, y, z'
loop_
 _atom_site_type_symbol
 _atom_site_label
 _atom_site_symmetry_multiplicity
 _atom_site_fract_x
 _atom_site_fract_y
 _atom_site_fract_z
 _atom_site_occupancy
  Y  Y0  1  0.699085  0.300130  0.001255  1
  Y  Y1  1  0.199136  0.801187  0.499398  1
  Y  Y2  1  0.803981  0.804713  0.299443  1
  Y  Y3  1  0.304714  0.303981  0.200557  1
  Y  Y4  1  0.800129  0.199084  0.498745  1
  Y  Y5  1  0.301187  0.699136  0.000602  1
  Y  Y6  1  0.697167  0.696996  0.800253  1
  Y  Y7  1  0.196995  0.197167  0.699747  1
  Cd  Cd8  1  0.520967  0.020967  0.250000  1
  In  In9  1  0.980442  0.480442  0.750000  1
  In  In10  1  0.999591  0.000457  0.000185  1
  In  In11  1  0.019777  0.519776  0.250000  1
  In  In12  1  0.480218  0.980218  0.750000  1
  In  In13  1  0.500457  0.499592  0.499815  1
  Au  Au14  1  0.151315  0.430245  0.483992  1
  Au  Au15  1  0.902227  0.903420  0.596085  1
  Au  Au16  1  0.568461  0.848347  0.514947  1
  Au  Au17  1  0.882929  0.165863  0.210959  1
  Au  Au18  1  0.383927  0.665462  0.289387  1
  Au  Au19  1  0.665863  0.382929  0.289041  1
  Au  Au20  1  0.403420  0.402227  0.903915  1
  Au  Au21  1  0.930245  0.651315  0.016008  1
  Au  Au22  1  0.334141  0.615711  0.711437  1
  Au  Au23  1  0.348346  0.068461  0.985053  1
  Au  Au24  1  0.597227  0.596752  0.097012  1
  Au  Au25  1  0.652118  0.930040  0.016442  1
  Au  Au26  1  0.096752  0.097227  0.402988  1
  Au  Au27  1  0.615576  0.333801  0.711863  1
  Au  Au28  1  0.115711  0.834142  0.788563  1
  Au  Au29  1  0.070320  0.348272  0.982769  1
  Au  Au30  1  0.848271  0.570320  0.517231  1
  Au  Au31  1  0.165462  0.883927  0.210613  1
  Au  Au32  1  0.430040  0.152118  0.483558  1
  Au  Au33  1  0.833801  0.115576  0.788137  1
