# generated using pymatgen
data_Be2AlV6GaN2
_symmetry_space_group_name_H-M   'P 1'
_cell_length_a   6.45383726
_cell_length_b   6.45362500
_cell_length_c   6.45420826
_cell_angle_alpha   90.00000000
_cell_angle_beta   90.09596611
_cell_angle_gamma   90.00000000
_symmetry_Int_Tables_number   1
_chemical_formula_structural   Be2AlV6GaN2
_chemical_formula_sum   'Be4 Al2 V12 Ga2 N4'
_cell_volume   268.82156333
_cell_formula_units_Z   2
loop_
 _symmetry_equiv_pos_site_id
 _symmetry_equiv_pos_as_xyz
  1  'x, y, z'
loop_
 _atom_site_type_symbol
 _atom_site_label
 _atom_site_symmetry_multiplicity
 _atom_site_fract_x
 _atom_site_fract_y
 _atom_site_fract_z
 _atom_site_occupancy
  Be  Be0  1  0.174862  0.823464  0.323343  1
  Be  Be1  1  0.322292  0.175792  0.824414  1
  Be  Be2  1  0.825138  0.323464  0.176657  1
  Be  Be3  1  0.677708  0.675792  0.675586  1
  Al  Al4  1  0.574512  0.425311  0.925537  1
  Al  Al5  1  0.425488  0.925311  0.574463  1
  V  V6  1  0.794228  0.959354  0.374242  1
  V  V7  1  0.706079  0.039934  0.871750  1
  V  V8  1  0.205772  0.459354  0.125758  1
  V  V9  1  0.293921  0.539934  0.628250  1
  V  V10  1  0.958418  0.373228  0.794486  1
  V  V11  1  0.041582  0.873228  0.705514  1
  V  V12  1  0.460406  0.127137  0.206173  1
  V  V13  1  0.539594  0.627137  0.293827  1
  V  V14  1  0.373211  0.794705  0.959887  1
  V  V15  1  0.872630  0.705974  0.040709  1
  V  V16  1  0.127370  0.205974  0.459291  1
  V  V17  1  0.626789  0.294705  0.540113  1
  Ga  Ga18  1  0.925939  0.573835  0.425641  1
  Ga  Ga19  1  0.074061  0.073835  0.074359  1
  N  N20  1  0.876926  0.124498  0.623913  1
  N  N21  1  0.624693  0.876768  0.124118  1
  N  N22  1  0.123074  0.624498  0.876087  1
  N  N23  1  0.375307  0.376768  0.375882  1
