# generated using pymatgen
data_Ce2YEr5AlPd24
_symmetry_space_group_name_H-M   'P 1'
_cell_length_a   8.34527008
_cell_length_b   8.34526943
_cell_length_c   8.34643181
_cell_angle_alpha   90.00618808
_cell_angle_beta   89.99381031
_cell_angle_gamma   90.20505877
_symmetry_Int_Tables_number   1
_chemical_formula_structural   Ce2YEr5AlPd24
_chemical_formula_sum   'Ce2 Y1 Er5 Al1 Pd24'
_cell_volume   581.27122193
_cell_formula_units_Z   1
loop_
 _symmetry_equiv_pos_site_id
 _symmetry_equiv_pos_as_xyz
  1  'x, y, z'
loop_
 _atom_site_type_symbol
 _atom_site_label
 _atom_site_symmetry_multiplicity
 _atom_site_fract_x
 _atom_site_fract_y
 _atom_site_fract_z
 _atom_site_occupancy
  Ce  Ce0  1  0.254489  0.745511  0.745859  1
  Ce  Ce1  1  0.745603  0.254397  0.253894  1
  Y  Y2  1  0.253662  0.746338  0.252277  1
  Er  Er3  1  0.250418  0.251759  0.251842  1
  Er  Er4  1  0.749423  0.748358  0.748093  1
  Er  Er5  1  0.748241  0.749582  0.251842  1
  Er  Er6  1  0.746066  0.253934  0.747465  1
  Er  Er7  1  0.251642  0.250577  0.748093  1
  Al  Al8  1  0.000688  0.999312  0.000672  1
  Pd  Pd9  1  0.258981  0.498220  0.998244  1
  Pd  Pd10  1  0.740724  0.500568  0.000753  1
  Pd  Pd11  1  0.997602  0.259246  0.499494  1
  Pd  Pd12  1  0.499432  0.259276  0.000753  1
  Pd  Pd13  1  0.000742  0.740872  0.501434  1
  Pd  Pd14  1  0.501780  0.741019  0.998244  1
  Pd  Pd15  1  0.501660  0.002579  0.258930  1
  Pd  Pd16  1  0.259128  0.999258  0.501434  1
  Pd  Pd17  1  0.499657  0.999198  0.740832  1
  Pd  Pd18  1  0.740754  0.002398  0.499494  1
  Pd  Pd19  1  0.997421  0.498340  0.258930  1
  Pd  Pd20  1  0.000802  0.500343  0.740832  1
  Pd  Pd21  1  0.252587  0.497763  0.501143  1
  Pd  Pd22  1  0.747178  0.500862  0.499650  1
  Pd  Pd23  1  0.499138  0.252822  0.499650  1
  Pd  Pd24  1  0.502237  0.747413  0.501143  1
  Pd  Pd25  1  0.501480  0.498520  0.252760  1
  Pd  Pd26  1  0.499942  0.500058  0.747210  1
  Pd  Pd27  1  0.288576  0.999263  0.000530  1
  Pd  Pd28  1  0.712634  0.002165  0.998373  1
  Pd  Pd29  1  0.997835  0.287366  0.998373  1
  Pd  Pd30  1  0.000737  0.711424  0.000530  1
  Pd  Pd31  1  0.000568  0.999432  0.288642  1
  Pd  Pd32  1  0.998173  0.001827  0.712583  1
