# generated using pymatgen
data_Tb4Y2CoCl10
_symmetry_space_group_name_H-M   'P 1'
_cell_length_a   7.12408495
_cell_length_b   8.78341159
_cell_length_c   8.94912355
_cell_angle_alpha   108.38288873
_cell_angle_beta   96.82601709
_cell_angle_gamma   105.14362328
_symmetry_Int_Tables_number   1
_chemical_formula_structural   Tb4Y2CoCl10
_chemical_formula_sum   'Tb4 Y2 Co1 Cl10'
_cell_volume   500.41949504
_cell_formula_units_Z   1
loop_
 _symmetry_equiv_pos_site_id
 _symmetry_equiv_pos_as_xyz
  1  'x, y, z'
loop_
 _atom_site_type_symbol
 _atom_site_label
 _atom_site_symmetry_multiplicity
 _atom_site_fract_x
 _atom_site_fract_y
 _atom_site_fract_z
 _atom_site_occupancy
  Tb  Tb0  1  0.534702  0.705877  0.905671  1
  Tb  Tb1  1  0.465298  0.294123  0.094329  1
  Tb  Tb2  1  0.633396  0.056010  0.756092  1
  Tb  Tb3  1  0.366604  0.943990  0.243908  1
  Y  Y4  1  0.861950  0.136712  0.186583  1
  Y  Y5  1  0.138050  0.863288  0.813417  1
  Co  Co6  1  0.500000  0.000000  0.000000  1
  Cl  Cl7  1  0.737313  0.079773  0.451320  1
  Cl  Cl8  1  0.262687  0.920227  0.548680  1
  Cl  Cl9  1  0.952892  0.824431  0.077290  1
  Cl  Cl10  1  0.047108  0.175569  0.922710  1
  Cl  Cl11  1  0.279007  0.245122  0.339809  1
  Cl  Cl12  1  0.720993  0.754878  0.660191  1
  Cl  Cl13  1  0.588383  0.372905  0.837458  1
  Cl  Cl14  1  0.411617  0.627095  0.162542  1
  Cl  Cl15  1  0.839877  0.447680  0.273963  1
  Cl  Cl16  1  0.160123  0.552320  0.726037  1
