# generated using pymatgen
data_Sc8CuPt3O2
_symmetry_space_group_name_H-M   'P 1'
_cell_length_a   8.73042838
_cell_length_b   8.73051721
_cell_length_c   8.75030500
_cell_angle_alpha   59.92487911
_cell_angle_beta   59.92452087
_cell_angle_gamma   59.84454753
_symmetry_Int_Tables_number   1
_chemical_formula_structural   Sc8CuPt3O2
_chemical_formula_sum   'Sc16 Cu2 Pt6 O4'
_cell_volume   470.51863059
_cell_formula_units_Z   2
loop_
 _symmetry_equiv_pos_site_id
 _symmetry_equiv_pos_as_xyz
  1  'x, y, z'
loop_
 _atom_site_type_symbol
 _atom_site_label
 _atom_site_symmetry_multiplicity
 _atom_site_fract_x
 _atom_site_fract_y
 _atom_site_fract_z
 _atom_site_occupancy
  Sc  Sc0  1  0.817324  0.179986  0.818726  1
  Sc  Sc1  1  0.183798  0.817620  0.181468  1
  Sc  Sc2  1  0.432384  0.066222  0.432875  1
  Sc  Sc3  1  0.432384  0.066222  0.068518  1
  Sc  Sc4  1  0.070038  0.432668  0.431263  1
  Sc  Sc5  1  0.070036  0.432668  0.066033  1
  Sc  Sc6  1  0.185890  0.180036  0.817036  1
  Sc  Sc7  1  0.430552  0.432541  0.068454  1
  Sc  Sc8  1  0.125942  0.624315  0.624871  1
  Sc  Sc9  1  0.625259  0.624747  0.124988  1
  Sc  Sc10  1  0.625259  0.624747  0.625006  1
  Sc  Sc11  1  0.625699  0.124018  0.625141  1
  Sc  Sc12  1  0.183799  0.817619  0.817115  1
  Sc  Sc13  1  0.817324  0.179986  0.183963  1
  Sc  Sc14  1  0.069979  0.064130  0.432945  1
  Sc  Sc15  1  0.817476  0.819457  0.181534  1
  Cu  Cu16  1  0.834145  0.496973  0.834439  1
  Cu  Cu17  1  0.752778  0.415920  0.415652  1
  Pt  Pt18  1  0.412903  0.764599  0.411249  1
  Pt  Pt19  1  0.840224  0.837632  0.482716  1
  Pt  Pt20  1  0.840224  0.837633  0.839428  1
  Pt  Pt21  1  0.485427  0.837069  0.838752  1
  Pt  Pt22  1  0.412364  0.409771  0.410587  1
  Pt  Pt23  1  0.412364  0.409771  0.767277  1
  O  O24  1  0.123244  0.126782  0.624984  1
  O  O25  1  0.625733  0.125808  0.124230  1
  O  O26  1  0.123243  0.126781  0.124991  1
  O  O27  1  0.124206  0.624279  0.125758  1
