# generated using pymatgen
data_Y3TmAlRu7
_symmetry_space_group_name_H-M   'P 1'
_cell_length_a   5.37752202
_cell_length_b   5.37752186
_cell_length_c   8.61558401
_cell_angle_alpha   89.99765481
_cell_angle_beta   90.00234921
_cell_angle_gamma   120.04295200
_symmetry_Int_Tables_number   1
_chemical_formula_structural   Y3TmAlRu7
_chemical_formula_sum   'Y3 Tm1 Al1 Ru7'
_cell_volume   215.67092658
_cell_formula_units_Z   1
loop_
 _symmetry_equiv_pos_site_id
 _symmetry_equiv_pos_as_xyz
  1  'x, y, z'
loop_
 _atom_site_type_symbol
 _atom_site_label
 _atom_site_symmetry_multiplicity
 _atom_site_fract_x
 _atom_site_fract_y
 _atom_site_fract_z
 _atom_site_occupancy
  Y  Y0  1  0.666641  0.333359  0.570959  1
  Y  Y1  1  0.333352  0.666648  0.429980  1
  Y  Y2  1  0.333372  0.666628  0.063454  1
  Tm  Tm3  1  0.666568  0.333432  0.935702  1
  Al  Al4  1  0.000077  0.999923  0.499995  1
  Ru  Ru5  1  0.000000  0.000000  0.999681  1
  Ru  Ru6  1  0.170754  0.341553  0.750180  1
  Ru  Ru7  1  0.170761  0.829239  0.750157  1
  Ru  Ru8  1  0.658447  0.829246  0.750180  1
  Ru  Ru9  1  0.828939  0.657675  0.249933  1
  Ru  Ru10  1  0.828764  0.171236  0.249846  1
  Ru  Ru11  1  0.342325  0.171061  0.249933  1
