# generated using pymatgen
data_Nd4Tm4Re(TcB8)3
_symmetry_space_group_name_H-M   'P 1'
_cell_length_a   3.71636000
_cell_length_b   9.20255473
_cell_length_c   11.65697806
_cell_angle_alpha   90.01712911
_cell_angle_beta   90.00000000
_cell_angle_gamma   90.00000000
_symmetry_Int_Tables_number   1
_chemical_formula_structural   Nd4Tm4Re(TcB8)3
_chemical_formula_sum   'Nd4 Tm4 Re1 Tc3 B24'
_cell_volume   398.66870510
_cell_formula_units_Z   1
loop_
 _symmetry_equiv_pos_site_id
 _symmetry_equiv_pos_as_xyz
  1  'x, y, z'
loop_
 _atom_site_type_symbol
 _atom_site_label
 _atom_site_symmetry_multiplicity
 _atom_site_fract_x
 _atom_site_fract_y
 _atom_site_fract_z
 _atom_site_occupancy
  Nd  Nd0  1  0.000000  0.323098  0.414560  1
  Nd  Nd1  1  0.000000  0.677017  0.585301  1
  Nd  Nd2  1  0.000000  0.822969  0.085655  1
  Nd  Nd3  1  0.000000  0.177397  0.914681  1
  Tm  Tm4  1  0.000000  0.942680  0.368473  1
  Tm  Tm5  1  0.000000  0.057808  0.630677  1
  Tm  Tm6  1  0.000000  0.442720  0.131608  1
  Tm  Tm7  1  0.000000  0.556322  0.868899  1
  Re  Re8  1  0.000000  0.860185  0.818703  1
  Tc  Tc9  1  0.000000  0.640187  0.318599  1
  Tc  Tc10  1  0.000000  0.359858  0.681346  1
  Tc  Tc11  1  0.000000  0.139990  0.181410  1
  B  B12  1  0.500000  0.555434  0.430304  1
  B  B13  1  0.500000  0.444709  0.569737  1
  B  B14  1  0.500000  0.055415  0.069736  1
  B  B15  1  0.500000  0.944761  0.930506  1
  B  B16  1  0.500000  0.750818  0.415793  1
  B  B17  1  0.500000  0.249451  0.584141  1
  B  B18  1  0.500000  0.250852  0.084279  1
  B  B19  1  0.500000  0.748844  0.915972  1
  B  B20  1  0.500000  0.791876  0.265690  1
  B  B21  1  0.500000  0.208080  0.734209  1
  B  B22  1  0.500000  0.291798  0.234377  1
  B  B23  1  0.500000  0.707811  0.765691  1
  B  B24  1  0.500000  0.629132  0.185880  1
  B  B25  1  0.500000  0.370690  0.814127  1
  B  B26  1  0.500000  0.129239  0.314256  1
  B  B27  1  0.500000  0.870885  0.685572  1
  B  B28  1  0.500000  0.983671  0.213222  1
  B  B29  1  0.500000  0.016689  0.786599  1
  B  B30  1  0.500000  0.483683  0.286849  1
  B  B31  1  0.500000  0.516254  0.713300  1
  B  B32  1  0.500000  0.595221  0.026297  1
  B  B33  1  0.500000  0.404331  0.973953  1
  B  B34  1  0.500000  0.095459  0.473454  1
  B  B35  1  0.500000  0.904668  0.526143  1
