# generated using pymatgen
data_PrTm(AgSn)2
_symmetry_space_group_name_H-M   'P 1'
_cell_length_a   4.77291700
_cell_length_b   4.77291606
_cell_length_c   7.54106700
_cell_angle_alpha   90.00000000
_cell_angle_beta   90.00000000
_cell_angle_gamma   120.00001343
_symmetry_Int_Tables_number   1
_chemical_formula_structural   PrTm(AgSn)2
_chemical_formula_sum   'Pr1 Tm1 Ag2 Sn2'
_cell_volume   148.77537417
_cell_formula_units_Z   1
loop_
 _symmetry_equiv_pos_site_id
 _symmetry_equiv_pos_as_xyz
  1  'x, y, z'
loop_
 _atom_site_type_symbol
 _atom_site_label
 _atom_site_symmetry_multiplicity
 _atom_site_fract_x
 _atom_site_fract_y
 _atom_site_fract_z
 _atom_site_occupancy
  Pr  Pr0  1  0.000000  0.000000  0.497431  1
  Tm  Tm1  1  0.000000  0.000000  0.995171  1
  Ag  Ag2  1  0.333333  0.666667  0.816692  1
  Ag  Ag3  1  0.666667  0.333333  0.286809  1
  Sn  Sn4  1  0.666667  0.333333  0.726635  1
  Sn  Sn5  1  0.333333  0.666667  0.210342  1
