# generated using pymatgen
data_Hf2ZrTiNbSi3
_symmetry_space_group_name_H-M   'P 1'
_cell_length_a   7.79512919
_cell_length_b   7.79512901
_cell_length_c   5.32266421
_cell_angle_alpha   89.98400158
_cell_angle_beta   89.98399988
_cell_angle_gamma   119.86870503
_symmetry_Int_Tables_number   1
_chemical_formula_structural   Hf2ZrTiNbSi3
_chemical_formula_sum   'Hf4 Zr2 Ti2 Nb2 Si6'
_cell_volume   280.46541598
_cell_formula_units_Z   2
loop_
 _symmetry_equiv_pos_site_id
 _symmetry_equiv_pos_as_xyz
  1  'x, y, z'
loop_
 _atom_site_type_symbol
 _atom_site_label
 _atom_site_symmetry_multiplicity
 _atom_site_fract_x
 _atom_site_fract_y
 _atom_site_fract_z
 _atom_site_occupancy
  Hf  Hf0  1  0.746304  0.746304  0.753233  1
  Hf  Hf1  1  0.251469  0.000988  0.753011  1
  Hf  Hf2  1  0.000988  0.251469  0.753011  1
  Hf  Hf3  1  0.253405  0.253405  0.246724  1
  Zr  Zr4  1  0.749425  0.000168  0.246953  1
  Zr  Zr5  1  0.000168  0.749425  0.246953  1
  Ti  Ti6  1  0.333198  0.666462  0.500461  1
  Ti  Ti7  1  0.666462  0.333198  0.500461  1
  Nb  Nb8  1  0.666545  0.333202  0.999685  1
  Nb  Nb9  1  0.333202  0.666545  0.999685  1
  Si  Si10  1  0.395716  0.395716  0.744596  1
  Si  Si11  1  0.603769  0.999965  0.744779  1
  Si  Si12  1  0.999965  0.603769  0.744779  1
  Si  Si13  1  0.602374  0.602374  0.255441  1
  Si  Si14  1  0.396161  0.000849  0.255113  1
  Si  Si15  1  0.000849  0.396161  0.255113  1
