# generated using pymatgen
data_HoTm6Sn23Ir6
_symmetry_space_group_name_H-M   'P 1'
_cell_length_a   9.81583400
_cell_length_b   9.81583161
_cell_length_c   10.10793400
_cell_angle_alpha   90.00000000
_cell_angle_beta   90.00000000
_cell_angle_gamma   119.99999457
_symmetry_Int_Tables_number   1
_chemical_formula_structural   HoTm6Sn23Ir6
_chemical_formula_sum   'Ho1 Tm6 Sn23 Ir6'
_cell_volume   843.42672446
_cell_formula_units_Z   1
loop_
 _symmetry_equiv_pos_site_id
 _symmetry_equiv_pos_as_xyz
  1  'x, y, z'
loop_
 _atom_site_type_symbol
 _atom_site_label
 _atom_site_symmetry_multiplicity
 _atom_site_fract_x
 _atom_site_fract_y
 _atom_site_fract_z
 _atom_site_occupancy
  Ho  Ho0  1  0.000000  0.000000  0.000000  1
  Tm  Tm1  1  0.519957  0.480043  0.692288  1
  Tm  Tm2  1  0.519957  0.039915  0.692288  1
  Tm  Tm3  1  0.960085  0.480043  0.692288  1
  Tm  Tm4  1  0.039915  0.519957  0.307712  1
  Tm  Tm5  1  0.480043  0.960085  0.307712  1
  Tm  Tm6  1  0.480043  0.519957  0.307712  1
  Sn  Sn7  1  0.666667  0.333333  0.176408  1
  Sn  Sn8  1  0.666667  0.333333  0.876576  1
  Sn  Sn9  1  0.333333  0.666667  0.123424  1
  Sn  Sn10  1  0.352817  0.352817  0.000000  1
  Sn  Sn11  1  0.000000  0.647183  0.000000  1
  Sn  Sn12  1  0.647183  0.000000  0.000000  1
  Sn  Sn13  1  0.647183  0.647183  0.000000  1
  Sn  Sn14  1  0.333333  0.666667  0.823592  1
  Sn  Sn15  1  0.443562  0.221781  0.456597  1
  Sn  Sn16  1  0.221781  0.778219  0.543403  1
  Sn  Sn17  1  0.221781  0.443562  0.543403  1
  Sn  Sn18  1  0.556438  0.778219  0.543403  1
  Sn  Sn19  1  0.119981  0.880019  0.282404  1
  Sn  Sn20  1  0.778219  0.556438  0.456597  1
  Sn  Sn21  1  0.778219  0.221781  0.456597  1
  Sn  Sn22  1  0.352817  0.000000  0.000000  1
  Sn  Sn23  1  0.119981  0.239962  0.282404  1
  Sn  Sn24  1  0.760038  0.880019  0.282404  1
  Sn  Sn25  1  0.239962  0.119981  0.717596  1
  Sn  Sn26  1  0.880019  0.760038  0.717596  1
  Sn  Sn27  1  0.880019  0.119981  0.717596  1
  Sn  Sn28  1  0.000000  0.000000  0.500000  1
  Sn  Sn29  1  0.000000  0.352817  0.000000  1
  Ir  Ir30  1  0.169159  0.830841  0.801596  1
  Ir  Ir31  1  0.169159  0.338318  0.801596  1
  Ir  Ir32  1  0.661682  0.830841  0.801596  1
  Ir  Ir33  1  0.338318  0.169159  0.198404  1
  Ir  Ir34  1  0.830841  0.661682  0.198404  1
  Ir  Ir35  1  0.830841  0.169159  0.198404  1
