# generated using pymatgen
data_Nd2Th6ZrSe17
_symmetry_space_group_name_H-M   'P 1'
_cell_length_a   8.45129021
_cell_length_b   8.45129117
_cell_length_c   11.19407000
_cell_angle_alpha   80.70200562
_cell_angle_beta   80.70201142
_cell_angle_gamma   65.32746085
_symmetry_Int_Tables_number   1
_chemical_formula_structural   Nd2Th6ZrSe17
_chemical_formula_sum   'Nd2 Th6 Zr1 Se17'
_cell_volume   713.03239176
_cell_formula_units_Z   1
loop_
 _symmetry_equiv_pos_site_id
 _symmetry_equiv_pos_as_xyz
  1  'x, y, z'
loop_
 _atom_site_type_symbol
 _atom_site_label
 _atom_site_symmetry_multiplicity
 _atom_site_fract_x
 _atom_site_fract_y
 _atom_site_fract_z
 _atom_site_occupancy
  Nd  Nd0  1  0.813145  0.305627  0.298244  1
  Nd  Nd1  1  0.305627  0.813145  0.298244  1
  Th  Th2  1  0.185952  0.696803  0.699541  1
  Th  Th3  1  0.696803  0.185952  0.699541  1
  Th  Th4  1  0.204724  0.204724  0.537376  1
  Th  Th5  1  0.792633  0.792633  0.460214  1
  Th  Th6  1  0.680425  0.680425  0.983685  1
  Th  Th7  1  0.320168  0.320168  0.021597  1
  Zr  Zr8  1  0.002936  0.002936  0.006043  1
  Se  Se9  1  0.822160  0.431204  0.537625  1
  Se  Se10  1  0.431204  0.822160  0.537625  1
  Se  Se11  1  0.174761  0.567996  0.469015  1
  Se  Se12  1  0.567996  0.174761  0.469015  1
  Se  Se13  1  0.944837  0.330096  0.023750  1
  Se  Se14  1  0.330096  0.944837  0.023750  1
  Se  Se15  1  0.058218  0.673601  0.969323  1
  Se  Se16  1  0.673601  0.058218  0.969323  1
  Se  Se17  1  0.210869  0.210869  0.275188  1
  Se  Se18  1  0.789845  0.789845  0.725971  1
  Se  Se19  1  0.060660  0.060660  0.768380  1
  Se  Se20  1  0.934867  0.934867  0.232843  1
  Se  Se21  1  0.303194  0.303194  0.754038  1
  Se  Se22  1  0.698118  0.698118  0.243995  1
  Se  Se23  1  0.519652  0.519652  0.831866  1
  Se  Se24  1  0.480290  0.480290  0.159809  1
  Se  Se25  1  0.997222  0.997222  0.504001  1
