# generated using pymatgen
data_Lu2Ga4CoNi
_symmetry_space_group_name_H-M   'P 1'
_cell_length_a   5.32027627
_cell_length_b   5.32027573
_cell_length_c   6.70857400
_cell_angle_alpha   90.00000000
_cell_angle_beta   90.00000000
_cell_angle_gamma   135.10379297
_symmetry_Int_Tables_number   1
_chemical_formula_structural   Lu2Ga4CoNi
_chemical_formula_sum   'Lu2 Ga4 Co1 Ni1'
_cell_volume   134.02795100
_cell_formula_units_Z   1
loop_
 _symmetry_equiv_pos_site_id
 _symmetry_equiv_pos_as_xyz
  1  'x, y, z'
loop_
 _atom_site_type_symbol
 _atom_site_label
 _atom_site_symmetry_multiplicity
 _atom_site_fract_x
 _atom_site_fract_y
 _atom_site_fract_z
 _atom_site_occupancy
  Lu  Lu0  1  0.568997  0.431003  0.250000  1
  Lu  Lu1  1  0.428861  0.571139  0.750000  1
  Ga  Ga2  1  0.855479  0.144521  0.053405  1
  Ga  Ga3  1  0.144913  0.855087  0.947851  1
  Ga  Ga4  1  0.144913  0.855087  0.552149  1
  Ga  Ga5  1  0.855479  0.144521  0.446595  1
  Co  Co6  1  0.291170  0.708830  0.250000  1
  Ni  Ni7  1  0.710188  0.289812  0.750000  1
