# generated using pymatgen
data_NdDyIrRhO7
_symmetry_space_group_name_H-M   'P 1'
_cell_length_a   7.31402752
_cell_length_b   7.31402852
_cell_length_c   7.28031900
_cell_angle_alpha   60.15233944
_cell_angle_beta   60.15233496
_cell_angle_gamma   60.38150564
_symmetry_Int_Tables_number   1
_chemical_formula_structural   NdDyIrRhO7
_chemical_formula_sum   'Nd2 Dy2 Ir2 Rh2 O14'
_cell_volume   276.81341799
_cell_formula_units_Z   2
loop_
 _symmetry_equiv_pos_site_id
 _symmetry_equiv_pos_as_xyz
  1  'x, y, z'
loop_
 _atom_site_type_symbol
 _atom_site_label
 _atom_site_symmetry_multiplicity
 _atom_site_fract_x
 _atom_site_fract_y
 _atom_site_fract_z
 _atom_site_occupancy
  Nd  Nd0  1  0.625000  0.125000  0.125000  1
  Nd  Nd1  1  0.125000  0.625000  0.125000  1
  Dy  Dy2  1  0.125000  0.125000  0.625000  1
  Dy  Dy3  1  0.125000  0.125000  0.125000  1
  Ir  Ir4  1  0.125000  0.625000  0.625000  1
  Ir  Ir5  1  0.625000  0.125000  0.625000  1
  Rh  Rh6  1  0.625000  0.625000  0.125000  1
  Rh  Rh7  1  0.625000  0.625000  0.625000  1
  O  O8  1  0.712288  0.712288  0.287712  1
  O  O9  1  0.293048  0.293048  0.706952  1
  O  O10  1  0.718740  0.287317  0.700242  1
  O  O11  1  0.287317  0.718740  0.293700  1
  O  O12  1  0.287317  0.718740  0.700242  1
  O  O13  1  0.718740  0.287317  0.293700  1
  O  O14  1  0.537712  0.537712  0.962288  1
  O  O15  1  0.956952  0.956952  0.543048  1
  O  O16  1  0.531260  0.962683  0.549758  1
  O  O17  1  0.962683  0.531260  0.956300  1
  O  O18  1  0.962683  0.531260  0.549758  1
  O  O19  1  0.531260  0.962683  0.956300  1
  O  O20  1  0.242076  0.242076  0.257924  1
  O  O21  1  0.007924  0.007924  0.992076  1
