# generated using pymatgen
data_Dy16Lu4Ir11Ru
_symmetry_space_group_name_H-M   'P 1'
_cell_length_a   10.83595000
_cell_length_b   10.83595000
_cell_length_c   6.36751800
_cell_angle_alpha   90.00000000
_cell_angle_beta   90.00000000
_cell_angle_gamma   90.00000000
_symmetry_Int_Tables_number   1
_chemical_formula_structural   Dy16Lu4Ir11Ru
_chemical_formula_sum   'Dy16 Lu4 Ir11 Ru1'
_cell_volume   747.66003399
_cell_formula_units_Z   1
loop_
 _symmetry_equiv_pos_site_id
 _symmetry_equiv_pos_as_xyz
  1  'x, y, z'
loop_
 _atom_site_type_symbol
 _atom_site_label
 _atom_site_symmetry_multiplicity
 _atom_site_fract_x
 _atom_site_fract_y
 _atom_site_fract_z
 _atom_site_occupancy
  Dy  Dy0  1  0.291434  0.087021  0.377744  1
  Dy  Dy1  1  0.291793  0.912857  0.880632  1
  Dy  Dy2  1  0.708207  0.087143  0.880632  1
  Dy  Dy3  1  0.708566  0.912979  0.377744  1
  Dy  Dy4  1  0.587143  0.791793  0.880632  1
  Dy  Dy5  1  0.587021  0.208566  0.377744  1
  Dy  Dy6  1  0.412979  0.791434  0.377744  1
  Dy  Dy7  1  0.412857  0.208207  0.880632  1
  Dy  Dy8  1  0.210009  0.411806  0.621234  1
  Dy  Dy9  1  0.209956  0.588008  0.120800  1
  Dy  Dy10  1  0.790044  0.411992  0.120800  1
  Dy  Dy11  1  0.789991  0.588194  0.621234  1
  Dy  Dy12  1  0.911992  0.709956  0.120800  1
  Dy  Dy13  1  0.911806  0.289991  0.621234  1
  Dy  Dy14  1  0.088194  0.710009  0.621234  1
  Dy  Dy15  1  0.088008  0.290044  0.120800  1
  Lu  Lu16  1  0.000000  0.000000  0.499219  1
  Lu  Lu17  1  0.000000  0.000000  0.999202  1
  Lu  Lu18  1  0.500000  0.500000  0.999202  1
  Lu  Lu19  1  0.500000  0.500000  0.499219  1
  Ir  Ir20  1  0.849273  0.151589  0.249806  1
  Ir  Ir21  1  0.849249  0.848840  0.749552  1
  Ir  Ir22  1  0.150751  0.151160  0.749552  1
  Ir  Ir23  1  0.150727  0.848411  0.249806  1
  Ir  Ir24  1  0.651160  0.349249  0.749552  1
  Ir  Ir25  1  0.651589  0.650727  0.249806  1
  Ir  Ir26  1  0.348411  0.349273  0.249806  1
  Ir  Ir27  1  0.348840  0.650751  0.749552  1
  Ir  Ir28  1  0.500000  0.000000  0.624387  1
  Ir  Ir29  1  0.000000  0.500000  0.877057  1
  Ir  Ir30  1  0.000000  0.500000  0.377231  1
  Ru  Ru31  1  0.500000  0.000000  0.125414  1
