# generated using pymatgen
data_ZrScPRh6
_symmetry_space_group_name_H-M   'P 1'
_cell_length_a   5.85426097
_cell_length_b   5.85426080
_cell_length_c   5.85426100
_cell_angle_alpha   60.00000450
_cell_angle_beta   60.00000548
_cell_angle_gamma   59.99999941
_symmetry_Int_Tables_number   1
_chemical_formula_structural   ZrScPRh6
_chemical_formula_sum   'Zr1 Sc1 P1 Rh6'
_cell_volume   141.87349175
_cell_formula_units_Z   1
loop_
 _symmetry_equiv_pos_site_id
 _symmetry_equiv_pos_as_xyz
  1  'x, y, z'
loop_
 _atom_site_type_symbol
 _atom_site_label
 _atom_site_symmetry_multiplicity
 _atom_site_fract_x
 _atom_site_fract_y
 _atom_site_fract_z
 _atom_site_occupancy
  Zr  Zr0  1  0.250000  0.250000  0.250000  1
  Sc  Sc1  1  0.750000  0.750000  0.750000  1
  P  P2  1  0.000000  0.000000  0.000000  1
  Rh  Rh3  1  0.733757  0.266244  0.266244  1
  Rh  Rh4  1  0.266244  0.733757  0.266244  1
  Rh  Rh5  1  0.733755  0.733755  0.266246  1
  Rh  Rh6  1  0.266244  0.266244  0.733757  1
  Rh  Rh7  1  0.733755  0.266246  0.733755  1
  Rh  Rh8  1  0.266246  0.733755  0.733755  1
