# generated using pymatgen
data_Er20Ir3Ru5Pt4
_symmetry_space_group_name_H-M   'P 1'
_cell_length_a   10.77943394
_cell_length_b   10.77943403
_cell_length_c   6.40398205
_cell_angle_alpha   89.95714831
_cell_angle_beta   89.95714499
_cell_angle_gamma   90.89265976
_symmetry_Int_Tables_number   1
_chemical_formula_structural   Er20Ir3Ru5Pt4
_chemical_formula_sum   'Er20 Ir3 Ru5 Pt4'
_cell_volume   744.02762834
_cell_formula_units_Z   1
loop_
 _symmetry_equiv_pos_site_id
 _symmetry_equiv_pos_as_xyz
  1  'x, y, z'
loop_
 _atom_site_type_symbol
 _atom_site_label
 _atom_site_symmetry_multiplicity
 _atom_site_fract_x
 _atom_site_fract_y
 _atom_site_fract_z
 _atom_site_occupancy
  Er  Er0  1  0.295963  0.082147  0.372531  1
  Er  Er1  1  0.293362  0.910319  0.879469  1
  Er  Er2  1  0.707162  0.090088  0.879357  1
  Er  Er3  1  0.704867  0.918569  0.371850  1
  Er  Er4  1  0.581882  0.795791  0.872516  1
  Er  Er5  1  0.590843  0.206553  0.379405  1
  Er  Er6  1  0.410221  0.793992  0.379044  1
  Er  Er7  1  0.418382  0.204233  0.872559  1
  Er  Er8  1  0.204209  0.418118  0.627484  1
  Er  Er9  1  0.206008  0.589779  0.120956  1
  Er  Er10  1  0.793447  0.409157  0.120595  1
  Er  Er11  1  0.795767  0.581618  0.627441  1
  Er  Er12  1  0.917853  0.704037  0.127469  1
  Er  Er13  1  0.909912  0.292838  0.620643  1
  Er  Er14  1  0.089681  0.706638  0.620531  1
  Er  Er15  1  0.081431  0.295133  0.128150  1
  Er  Er16  1  0.999631  0.001203  0.497359  1
  Er  Er17  1  0.998797  0.000369  0.002641  1
  Er  Er18  1  0.499987  0.500013  0.998310  1
  Er  Er19  1  0.499987  0.500013  0.501690  1
  Ir  Ir20  1  0.151216  0.848784  0.250000  1
  Ir  Ir21  1  0.650063  0.349937  0.750000  1
  Ir  Ir22  1  0.349188  0.650812  0.750000  1
  Ru  Ru23  1  0.849665  0.150335  0.250000  1
  Ru  Ru24  1  0.500162  0.000278  0.123928  1
  Ru  Ru25  1  0.499825  0.000100  0.624094  1
  Ru  Ru26  1  0.999900  0.500175  0.875906  1
  Ru  Ru27  1  0.999722  0.499838  0.376072  1
  Pt  Pt28  1  0.845455  0.844957  0.749586  1
  Pt  Pt29  1  0.155043  0.154545  0.750414  1
  Pt  Pt30  1  0.654559  0.654186  0.249765  1
  Pt  Pt31  1  0.345814  0.345441  0.250235  1
