# generated using pymatgen
data_Ti4Al3Cr(BiO5)4
_symmetry_space_group_name_H-M   'P 1'
_cell_length_a   5.86202000
_cell_length_b   7.68294429
_cell_length_c   8.56130427
_cell_angle_alpha   90.03015047
_cell_angle_beta   90.00000000
_cell_angle_gamma   90.00000000
_symmetry_Int_Tables_number   1
_chemical_formula_structural   Ti4Al3Cr(BiO5)4
_chemical_formula_sum   'Ti4 Al3 Cr1 Bi4 O20'
_cell_volume   385.58031344
_cell_formula_units_Z   1
loop_
 _symmetry_equiv_pos_site_id
 _symmetry_equiv_pos_as_xyz
  1  'x, y, z'
loop_
 _atom_site_type_symbol
 _atom_site_label
 _atom_site_symmetry_multiplicity
 _atom_site_fract_x
 _atom_site_fract_y
 _atom_site_fract_z
 _atom_site_occupancy
  Ti  Ti0  1  0.501265  0.872149  0.142215  1
  Ti  Ti1  1  0.500872  0.624042  0.644182  1
  Ti  Ti2  1  0.500872  0.375958  0.355818  1
  Ti  Ti3  1  0.501265  0.127851  0.857785  1
  Al  Al4  1  0.750261  0.500000  0.000000  1
  Al  Al5  1  0.250220  0.500000  0.000000  1
  Al  Al6  1  0.750126  0.000000  0.500000  1
  Cr  Cr7  1  0.249877  0.000000  0.500000  1
  Bi  Bi8  1  0.999593  0.835524  0.837757  1
  Bi  Bi9  1  0.996291  0.338937  0.665595  1
  Bi  Bi10  1  0.999593  0.164476  0.162243  1
  Bi  Bi11  1  0.996291  0.661063  0.334405  1
  O  O12  1  0.500843  0.648531  0.072693  1
  O  O13  1  0.990642  0.155787  0.443167  1
  O  O14  1  0.258033  0.880466  0.291706  1
  O  O15  1  0.712284  0.000000  0.000000  1
  O  O16  1  0.739888  0.610252  0.799465  1
  O  O17  1  0.737196  0.114342  0.701626  1
  O  O18  1  0.500843  0.351469  0.927307  1
  O  O19  1  0.291202  0.500000  0.500000  1
  O  O20  1  0.990642  0.844213  0.556833  1
  O  O21  1  0.258033  0.119534  0.708294  1
  O  O22  1  0.999847  0.652293  0.055283  1
  O  O23  1  0.739888  0.389748  0.200535  1
  O  O24  1  0.737196  0.885658  0.298374  1
  O  O25  1  0.261292  0.611866  0.799337  1
  O  O26  1  0.293674  0.000000  0.000000  1
  O  O27  1  0.510695  0.847331  0.577091  1
  O  O28  1  0.510695  0.152669  0.422909  1
  O  O29  1  0.709443  0.500000  0.500000  1
  O  O30  1  0.261292  0.388134  0.200663  1
  O  O31  1  0.999847  0.347707  0.944717  1
