# generated using pymatgen
data_Nd6Er10Cd4TcPt3
_symmetry_space_group_name_H-M   'P 1'
_cell_length_a   9.76132383
_cell_length_b   9.76132327
_cell_length_c   9.76132304
_cell_angle_alpha   59.57519920
_cell_angle_beta   59.57519946
_cell_angle_gamma   59.57520384
_symmetry_Int_Tables_number   1
_chemical_formula_structural   Nd6Er10Cd4TcPt3
_chemical_formula_sum   'Nd6 Er10 Cd4 Tc1 Pt3'
_cell_volume   651.32371668
_cell_formula_units_Z   1
loop_
 _symmetry_equiv_pos_site_id
 _symmetry_equiv_pos_as_xyz
  1  'x, y, z'
loop_
 _atom_site_type_symbol
 _atom_site_label
 _atom_site_symmetry_multiplicity
 _atom_site_fract_x
 _atom_site_fract_y
 _atom_site_fract_z
 _atom_site_occupancy
  Nd  Nd0  1  0.937619  0.562012  0.562012  1
  Nd  Nd1  1  0.554156  0.940560  0.940560  1
  Nd  Nd2  1  0.562012  0.937619  0.562012  1
  Nd  Nd3  1  0.940560  0.554156  0.940560  1
  Nd  Nd4  1  0.562012  0.562012  0.937619  1
  Nd  Nd5  1  0.940560  0.940560  0.554156  1
  Er  Er6  1  0.350877  0.350877  0.350877  1
  Er  Er7  1  0.348713  0.348713  0.954308  1
  Er  Er8  1  0.348713  0.954308  0.348713  1
  Er  Er9  1  0.954308  0.348713  0.348713  1
  Er  Er10  1  0.817155  0.185803  0.185803  1
  Er  Er11  1  0.185464  0.811440  0.811440  1
  Er  Er12  1  0.185803  0.817155  0.185803  1
  Er  Er13  1  0.811440  0.185464  0.811440  1
  Er  Er14  1  0.185803  0.185803  0.817155  1
  Er  Er15  1  0.811440  0.811440  0.185464  1
  Cd  Cd16  1  0.579087  0.579087  0.579087  1
  Cd  Cd17  1  0.579297  0.579297  0.260029  1
  Cd  Cd18  1  0.579297  0.260029  0.579297  1
  Cd  Cd19  1  0.260029  0.579297  0.579297  1
  Tc  Tc20  1  0.143263  0.143263  0.143263  1
  Pt  Pt21  1  0.143862  0.143862  0.574670  1
  Pt  Pt22  1  0.143862  0.574670  0.143862  1
  Pt  Pt23  1  0.574670  0.143862  0.143862  1
