# generated using pymatgen
data_Er8TmLuIr4
_symmetry_space_group_name_H-M   'P 1'
_cell_length_a   6.42717120
_cell_length_b   7.15515184
_cell_length_c   8.39945264
_cell_angle_alpha   96.42615978
_cell_angle_beta   112.49450031
_cell_angle_gamma   89.99999537
_symmetry_Int_Tables_number   1
_chemical_formula_structural   Er8TmLuIr4
_chemical_formula_sum   'Er8 Tm1 Lu1 Ir4'
_cell_volume   354.25185031
_cell_formula_units_Z   1
loop_
 _symmetry_equiv_pos_site_id
 _symmetry_equiv_pos_as_xyz
  1  'x, y, z'
loop_
 _atom_site_type_symbol
 _atom_site_label
 _atom_site_symmetry_multiplicity
 _atom_site_fract_x
 _atom_site_fract_y
 _atom_site_fract_z
 _atom_site_occupancy
  Er  Er0  1  0.970164  0.918534  0.181513  1
  Er  Er1  1  0.788651  0.581466  0.818487  1
  Er  Er2  1  0.030120  0.080951  0.818351  1
  Er  Er3  1  0.211770  0.419049  0.181649  1
  Er  Er4  1  0.653852  0.817515  0.441378  1
  Er  Er5  1  0.212475  0.682485  0.558622  1
  Er  Er6  1  0.345650  0.182295  0.558181  1
  Er  Er7  1  0.787469  0.317705  0.441819  1
  Tm  Tm8  1  0.572022  0.250000  0.000000  1
  Lu  Lu9  1  0.428470  0.750000  0.000000  1
  Ir  Ir10  1  0.824294  0.573341  0.217355  1
  Ir  Ir11  1  0.606939  0.926659  0.782645  1
  Ir  Ir12  1  0.175358  0.427508  0.782590  1
  Ir  Ir13  1  0.392767  0.072492  0.217410  1
