# generated using pymatgen
data_CaYb7(Si3Pt)4
_symmetry_space_group_name_H-M   'P 1'
_cell_length_a   8.20072600
_cell_length_b   8.20072683
_cell_length_c   8.27303200
_cell_angle_alpha   90.00000000
_cell_angle_beta   90.00000000
_cell_angle_gamma   119.99999667
_symmetry_Int_Tables_number   1
_chemical_formula_structural   CaYb7(Si3Pt)4
_chemical_formula_sum   'Ca1 Yb7 Si12 Pt4'
_cell_volume   481.83683505
_cell_formula_units_Z   1
loop_
 _symmetry_equiv_pos_site_id
 _symmetry_equiv_pos_as_xyz
  1  'x, y, z'
loop_
 _atom_site_type_symbol
 _atom_site_label
 _atom_site_symmetry_multiplicity
 _atom_site_fract_x
 _atom_site_fract_y
 _atom_site_fract_z
 _atom_site_occupancy
  Ca  Ca0  1  0.000000  0.000000  0.750000  1
  Yb  Yb1  1  0.000000  0.000000  0.250000  1
  Yb  Yb2  1  0.001417  0.500708  0.250000  1
  Yb  Yb3  1  0.499292  0.500708  0.250000  1
  Yb  Yb4  1  0.500687  0.001376  0.750000  1
  Yb  Yb5  1  0.499292  0.998583  0.250000  1
  Yb  Yb6  1  0.500687  0.499313  0.750000  1
  Yb  Yb7  1  0.998624  0.499313  0.750000  1
  Si  Si8  1  0.165157  0.330313  0.999627  1
  Si  Si9  1  0.669687  0.834843  0.999627  1
  Si  Si10  1  0.165157  0.330313  0.500373  1
  Si  Si11  1  0.330283  0.165143  0.000902  1
  Si  Si12  1  0.165157  0.834843  0.999627  1
  Si  Si13  1  0.669687  0.834843  0.500373  1
  Si  Si14  1  0.834857  0.669717  0.000902  1
  Si  Si15  1  0.330283  0.165143  0.499098  1
  Si  Si16  1  0.165157  0.834843  0.500373  1
  Si  Si17  1  0.834857  0.669717  0.499098  1
  Si  Si18  1  0.834857  0.165143  0.000902  1
  Si  Si19  1  0.834857  0.165143  0.499098  1
  Pt  Pt20  1  0.333333  0.666667  0.998606  1
  Pt  Pt21  1  0.333333  0.666667  0.501394  1
  Pt  Pt22  1  0.666667  0.333333  0.000596  1
  Pt  Pt23  1  0.666667  0.333333  0.499404  1
