# generated using pymatgen
data_NaMn7CoO16
_symmetry_space_group_name_H-M   'P 1'
_cell_length_a   5.84422238
_cell_length_b   7.07894128
_cell_length_c   7.15749700
_cell_angle_alpha   89.38535860
_cell_angle_beta   78.35520035
_cell_angle_gamma   78.52155540
_symmetry_Int_Tables_number   1
_chemical_formula_structural   NaMn7CoO16
_chemical_formula_sum   'Na1 Mn7 Co1 O16'
_cell_volume   284.08330902
_cell_formula_units_Z   1
loop_
 _symmetry_equiv_pos_site_id
 _symmetry_equiv_pos_as_xyz
  1  'x, y, z'
loop_
 _atom_site_type_symbol
 _atom_site_label
 _atom_site_symmetry_multiplicity
 _atom_site_fract_x
 _atom_site_fract_y
 _atom_site_fract_z
 _atom_site_occupancy
  Na  Na0  1  0.000668  0.997446  0.998251  1
  Mn  Mn1  1  0.081353  0.508308  0.183754  1
  Mn  Mn2  1  0.172177  0.816757  0.517194  1
  Mn  Mn3  1  0.667364  0.817357  0.520770  1
  Mn  Mn4  1  0.339533  0.185248  0.474809  1
  Mn  Mn5  1  0.838387  0.184466  0.479300  1
  Mn  Mn6  1  0.428236  0.487850  0.822370  1
  Mn  Mn7  1  0.925378  0.491754  0.821882  1
  Co  Co8  1  0.582212  0.512122  0.180768  1
  O  O9  1  0.833474  0.643088  0.056384  1
  O  O10  1  0.329425  0.641229  0.056085  1
  O  O11  1  0.980687  0.699668  0.386100  1
  O  O12  1  0.482945  0.697633  0.387826  1
  O  O13  1  0.856863  0.959774  0.643925  1
  O  O14  1  0.351681  0.960543  0.641945  1
  O  O15  1  0.343604  0.367296  0.280678  1
  O  O16  1  0.842044  0.363868  0.279207  1
  O  O17  1  0.166644  0.636748  0.722070  1
  O  O18  1  0.665714  0.633320  0.720057  1
  O  O19  1  0.152286  0.040757  0.353317  1
  O  O20  1  0.656890  0.039613  0.355298  1
  O  O21  1  0.027473  0.301807  0.613024  1
  O  O22  1  0.525775  0.300792  0.613017  1
  O  O23  1  0.175820  0.355157  0.945056  1
  O  O24  1  0.680462  0.357396  0.946907  1
