# generated using pymatgen
data_Ce4Ni2B16IrRh
_symmetry_space_group_name_H-M   'P 1'
_cell_length_a   6.96810616
_cell_length_b   6.96809402
_cell_length_c   6.96810631
_cell_angle_alpha   111.34862154
_cell_angle_beta   113.40411512
_cell_angle_gamma   103.81249624
_symmetry_Int_Tables_number   1
_chemical_formula_structural   Ce4Ni2B16IrRh
_chemical_formula_sum   'Ce4 Ni2 B16 Ir1 Rh1'
_cell_volume   258.47556168
_cell_formula_units_Z   1
loop_
 _symmetry_equiv_pos_site_id
 _symmetry_equiv_pos_as_xyz
  1  'x, y, z'
loop_
 _atom_site_type_symbol
 _atom_site_label
 _atom_site_symmetry_multiplicity
 _atom_site_fract_x
 _atom_site_fract_y
 _atom_site_fract_z
 _atom_site_occupancy
  Ce  Ce0  1  0.795731  0.796023  0.999718  1
  Ce  Ce1  1  0.203695  0.203977  0.999708  1
  Ce  Ce2  1  0.753870  0.253462  0.500417  1
  Ce  Ce3  1  0.246955  0.746538  0.500408  1
  Ni  Ni4  1  0.500353  0.742459  0.242815  1
  Ni  Ni5  1  0.500356  0.257541  0.757894  1
  B  B6  1  0.271518  0.108207  0.379725  1
  B  B7  1  0.728257  0.891710  0.619967  1
  B  B8  1  0.271517  0.891793  0.163311  1
  B  B9  1  0.728258  0.108290  0.836547  1
  B  B10  1  0.110302  0.731815  0.842116  1
  B  B11  1  0.888750  0.268178  0.156927  1
  B  B12  1  0.110302  0.268185  0.378486  1
  B  B13  1  0.888749  0.731822  0.620572  1
  B  B14  1  0.114326  0.108834  0.527962  1
  B  B15  1  0.581416  0.587106  0.473156  1
  B  B16  1  0.114327  0.586364  0.005493  1
  B  B17  1  0.581416  0.108262  0.994311  1
  B  B18  1  0.886050  0.891738  0.473155  1
  B  B19  1  0.419129  0.413636  0.527962  1
  B  B20  1  0.886049  0.412894  0.994310  1
  B  B21  1  0.419129  0.891166  0.005492  1
  Ir  Ir22  1  0.277298  0.500000  0.777298  1
  Rh  Rh23  1  0.722248  0.500000  0.222248  1
