# generated using pymatgen
data_Zr2InIr5
_symmetry_space_group_name_H-M   'P 1'
_cell_length_a   5.68897366
_cell_length_b   5.68897261
_cell_length_c   8.22773700
_cell_angle_alpha   90.00000000
_cell_angle_beta   90.00000000
_cell_angle_gamma   94.34341112
_symmetry_Int_Tables_number   1
_chemical_formula_structural   Zr2InIr5
_chemical_formula_sum   'Zr4 In2 Ir10'
_cell_volume   265.52113436
_cell_formula_units_Z   2
loop_
 _symmetry_equiv_pos_site_id
 _symmetry_equiv_pos_as_xyz
  1  'x, y, z'
loop_
 _atom_site_type_symbol
 _atom_site_label
 _atom_site_symmetry_multiplicity
 _atom_site_fract_x
 _atom_site_fract_y
 _atom_site_fract_z
 _atom_site_occupancy
  Zr  Zr0  1  0.771066  0.228934  0.500000  1
  Zr  Zr1  1  0.228934  0.771066  0.000000  1
  Zr  Zr2  1  0.228934  0.771066  0.500000  1
  Zr  Zr3  1  0.771066  0.228934  0.000000  1
  In  In4  1  0.500892  0.500892  0.750000  1
  In  In5  1  0.499108  0.499108  0.250000  1
  Ir  Ir6  1  0.744477  0.744477  0.000200  1
  Ir  Ir7  1  0.744477  0.744477  0.499800  1
  Ir  Ir8  1  0.255523  0.255523  0.999800  1
  Ir  Ir9  1  0.255523  0.255523  0.500200  1
  Ir  Ir10  1  0.500025  0.000265  0.750000  1
  Ir  Ir11  1  0.499975  0.999735  0.250000  1
  Ir  Ir12  1  0.000176  0.000176  0.250000  1
  Ir  Ir13  1  0.999824  0.999824  0.750000  1
  Ir  Ir14  1  0.000265  0.500025  0.750000  1
  Ir  Ir15  1  0.999735  0.499975  0.250000  1
