# generated using pymatgen
data_Er5Tm5Ir4
_symmetry_space_group_name_H-M   'P 1'
_cell_length_a   6.44116656
_cell_length_b   7.16797683
_cell_length_c   8.38328074
_cell_angle_alpha   96.44181806
_cell_angle_beta   112.56399361
_cell_angle_gamma   90.01431044
_symmetry_Int_Tables_number   1
_chemical_formula_structural   Er5Tm5Ir4
_chemical_formula_sum   'Er5 Tm5 Ir4'
_cell_volume   354.77620782
_cell_formula_units_Z   1
loop_
 _symmetry_equiv_pos_site_id
 _symmetry_equiv_pos_as_xyz
  1  'x, y, z'
loop_
 _atom_site_type_symbol
 _atom_site_label
 _atom_site_symmetry_multiplicity
 _atom_site_fract_x
 _atom_site_fract_y
 _atom_site_fract_z
 _atom_site_occupancy
  Er  Er0  1  0.969875  0.919356  0.181861  1
  Er  Er1  1  0.787785  0.580936  0.817858  1
  Er  Er2  1  0.030381  0.080887  0.818201  1
  Er  Er3  1  0.212137  0.418906  0.182147  1
  Er  Er4  1  0.653973  0.817783  0.442382  1
  Tm  Tm5  1  0.211787  0.681496  0.557694  1
  Tm  Tm6  1  0.346129  0.182136  0.557945  1
  Tm  Tm7  1  0.788254  0.318417  0.442393  1
  Tm  Tm8  1  0.427366  0.750061  0.999810  1
  Tm  Tm9  1  0.572536  0.249867  0.999963  1
  Ir  Ir10  1  0.826481  0.572969  0.218475  1
  Ir  Ir11  1  0.607123  0.926910  0.781795  1
  Ir  Ir12  1  0.173639  0.426802  0.781154  1
  Ir  Ir13  1  0.392534  0.073473  0.218322  1
