# generated using pymatgen
data_Pr8Ir3SeO24
_symmetry_space_group_name_H-M   'P 1'
_cell_length_a   5.47039493
_cell_length_b   9.44350751
_cell_length_c   10.20320135
_cell_angle_alpha   89.93459237
_cell_angle_beta   89.93944996
_cell_angle_gamma   90.02667058
_symmetry_Int_Tables_number   1
_chemical_formula_structural   Pr8Ir3SeO24
_chemical_formula_sum   'Pr8 Ir3 Se1 O24'
_cell_volume   527.09378459
_cell_formula_units_Z   1
loop_
 _symmetry_equiv_pos_site_id
 _symmetry_equiv_pos_as_xyz
  1  'x, y, z'
loop_
 _atom_site_type_symbol
 _atom_site_label
 _atom_site_symmetry_multiplicity
 _atom_site_fract_x
 _atom_site_fract_y
 _atom_site_fract_z
 _atom_site_occupancy
  Pr  Pr0  1  0.034257  0.219543  0.132087  1
  Pr  Pr1  1  0.467822  0.777938  0.636690  1
  Pr  Pr2  1  0.967846  0.717581  0.368095  1
  Pr  Pr3  1  0.534243  0.286995  0.861339  1
  Pr  Pr4  1  0.026557  0.104343  0.539799  1
  Pr  Pr5  1  0.475049  0.898760  0.038563  1
  Pr  Pr6  1  0.973021  0.602024  0.957962  1
  Pr  Pr7  1  0.525989  0.396455  0.462578  1
  Ir  Ir8  1  0.546411  0.003185  0.358884  1
  Ir  Ir9  1  0.956072  0.997239  0.857347  1
  Ir  Ir10  1  0.455457  0.504223  0.142085  1
  Se  Se11  1  0.042069  0.494967  0.642428  1
  O  O12  1  0.436810  0.148463  0.483181  1
  O  O13  1  0.066471  0.850630  0.979420  1
  O  O14  1  0.561780  0.649785  0.017422  1
  O  O15  1  0.938993  0.358547  0.526427  1
  O  O16  1  0.725292  0.390470  0.062022  1
  O  O17  1  0.788704  0.607229  0.570710  1
  O  O18  1  0.281083  0.884639  0.435832  1
  O  O19  1  0.225035  0.113672  0.933120  1
  O  O20  1  0.248900  0.412159  0.005397  1
  O  O21  1  0.240787  0.580627  0.511819  1
  O  O22  1  0.753773  0.910859  0.495347  1
  O  O23  1  0.748325  0.089807  0.993623  1
  O  O24  1  0.185891  0.632407  0.179615  1
  O  O25  1  0.296400  0.372617  0.678065  1
  O  O26  1  0.815145  0.135947  0.323889  1
  O  O27  1  0.685174  0.866647  0.821989  1
  O  O28  1  0.336883  0.057438  0.217689  1
  O  O29  1  0.164114  0.942179  0.715609  1
  O  O30  1  0.660635  0.558457  0.285603  1
  O  O31  1  0.846205  0.442893  0.775795  1
  O  O32  1  0.325264  0.360135  0.257192  1
  O  O33  1  0.163874  0.631176  0.748742  1
  O  O34  1  0.680806  0.862569  0.242367  1
  O  O35  1  0.818866  0.137395  0.741271  1
