# generated using pymatgen
data_Yb2Ho2TcOs7
_symmetry_space_group_name_H-M   'P 1'
_cell_length_a   5.36977200
_cell_length_b   5.36977153
_cell_length_c   8.60917800
_cell_angle_alpha   90.00000000
_cell_angle_beta   90.00000000
_cell_angle_gamma   119.99999057
_symmetry_Int_Tables_number   1
_chemical_formula_structural   Yb2Ho2TcOs7
_chemical_formula_sum   'Yb2 Ho2 Tc1 Os7'
_cell_volume   214.98294813
_cell_formula_units_Z   1
loop_
 _symmetry_equiv_pos_site_id
 _symmetry_equiv_pos_as_xyz
  1  'x, y, z'
loop_
 _atom_site_type_symbol
 _atom_site_label
 _atom_site_symmetry_multiplicity
 _atom_site_fract_x
 _atom_site_fract_y
 _atom_site_fract_z
 _atom_site_occupancy
  Yb  Yb0  1  0.666667  0.333333  0.940456  1
  Yb  Yb1  1  0.333333  0.666667  0.059544  1
  Ho  Ho2  1  0.333333  0.666667  0.425774  1
  Ho  Ho3  1  0.666667  0.333333  0.574226  1
  Tc  Tc4  1  0.000000  0.000000  0.500000  1
  Os  Os5  1  0.000000  0.000000  0.000000  1
  Os  Os6  1  0.826568  0.173432  0.250971  1
  Os  Os7  1  0.826568  0.653137  0.250971  1
  Os  Os8  1  0.346863  0.173432  0.250971  1
  Os  Os9  1  0.173432  0.826568  0.749029  1
  Os  Os10  1  0.173432  0.346863  0.749029  1
  Os  Os11  1  0.653137  0.826568  0.749029  1
