# generated using pymatgen
data_NdYB4(OsRh)2
_symmetry_space_group_name_H-M   'P 1'
_cell_length_a   6.87432878
_cell_length_b   6.03586141
_cell_length_c   5.58482759
_cell_angle_alpha   72.41765871
_cell_angle_beta   56.82583240
_cell_angle_gamma   50.75650361
_symmetry_Int_Tables_number   1
_chemical_formula_structural   NdYB4(OsRh)2
_chemical_formula_sum   'Nd1 Y1 B4 Os2 Rh2'
_cell_volume   149.86681381
_cell_formula_units_Z   1
loop_
 _symmetry_equiv_pos_site_id
 _symmetry_equiv_pos_as_xyz
  1  'x, y, z'
loop_
 _atom_site_type_symbol
 _atom_site_label
 _atom_site_symmetry_multiplicity
 _atom_site_fract_x
 _atom_site_fract_y
 _atom_site_fract_z
 _atom_site_occupancy
  Nd  Nd0  1  0.250000  0.250000  0.250000  1
  Y  Y1  1  0.000000  0.000000  0.000000  1
  B  B2  1  0.305271  0.694729  0.305271  1
  B  B3  1  0.694729  0.305271  0.694729  1
  B  B4  1  0.575746  0.924254  0.575746  1
  B  B5  1  0.924254  0.575746  0.924254  1
  Os  Os6  1  0.614329  0.614329  0.885671  1
  Os  Os7  1  0.885671  0.885671  0.614329  1
  Rh  Rh8  1  0.632618  0.632618  0.367382  1
  Rh  Rh9  1  0.367382  0.367382  0.632618  1
