# generated using pymatgen
data_Sc4Mn2Co4SiTc
_symmetry_space_group_name_H-M   'P 1'
_cell_length_a   4.96139989
_cell_length_b   4.96140046
_cell_length_c   7.93798249
_cell_angle_alpha   88.76036514
_cell_angle_beta   91.23963674
_cell_angle_gamma   118.39978359
_symmetry_Int_Tables_number   1
_chemical_formula_structural   Sc4Mn2Co4SiTc
_chemical_formula_sum   'Sc4 Mn2 Co4 Si1 Tc1'
_cell_volume   171.82681870
_cell_formula_units_Z   1
loop_
 _symmetry_equiv_pos_site_id
 _symmetry_equiv_pos_as_xyz
  1  'x, y, z'
loop_
 _atom_site_type_symbol
 _atom_site_label
 _atom_site_symmetry_multiplicity
 _atom_site_fract_x
 _atom_site_fract_y
 _atom_site_fract_z
 _atom_site_occupancy
  Sc  Sc0  1  0.334262  0.665738  0.566116  1
  Sc  Sc1  1  0.665738  0.334262  0.433884  1
  Sc  Sc2  1  0.667018  0.332982  0.063068  1
  Sc  Sc3  1  0.332982  0.667018  0.936932  1
  Mn  Mn4  1  0.170889  0.829111  0.250825  1
  Mn  Mn5  1  0.829111  0.170889  0.749175  1
  Co  Co6  1  0.167852  0.342191  0.255824  1
  Co  Co7  1  0.832148  0.657809  0.744176  1
  Co  Co8  1  0.657809  0.832148  0.255824  1
  Co  Co9  1  0.342191  0.167852  0.744176  1
  Si  Si10  1  0.000000  0.000000  0.500000  1
  Tc  Tc11  1  0.000000  0.000000  0.000000  1
