# generated using pymatgen
data_Ta3Nb7(CoB)10
_symmetry_space_group_name_H-M   'P 1'
_cell_length_a   3.29453400
_cell_length_b   5.92891700
_cell_length_c   17.05834000
_cell_angle_alpha   90.00000000
_cell_angle_beta   90.00000000
_cell_angle_gamma   90.00000000
_symmetry_Int_Tables_number   1
_chemical_formula_structural   Ta3Nb7(CoB)10
_chemical_formula_sum   'Ta3 Nb7 Co10 B10'
_cell_volume   333.20087318
_cell_formula_units_Z   1
loop_
 _symmetry_equiv_pos_site_id
 _symmetry_equiv_pos_as_xyz
  1  'x, y, z'
loop_
 _atom_site_type_symbol
 _atom_site_label
 _atom_site_symmetry_multiplicity
 _atom_site_fract_x
 _atom_site_fract_y
 _atom_site_fract_z
 _atom_site_occupancy
  Ta  Ta0  1  0.500000  0.021899  0.124721  1
  Ta  Ta1  1  0.500000  0.021899  0.875279  1
  Ta  Ta2  1  0.500000  0.644709  0.000000  1
  Nb  Nb3  1  0.000000  0.472942  0.320520  1
  Nb  Nb4  1  0.000000  0.472942  0.679480  1
  Nb  Nb5  1  0.500000  0.527935  0.178979  1
  Nb  Nb6  1  0.500000  0.527935  0.821021  1
  Nb  Nb7  1  0.000000  0.977716  0.375060  1
  Nb  Nb8  1  0.000000  0.977716  0.624940  1
  Nb  Nb9  1  0.000000  0.353802  0.500000  1
  Co  Co10  1  0.000000  0.858014  0.225608  1
  Co  Co11  1  0.000000  0.858014  0.774392  1
  Co  Co12  1  0.500000  0.143821  0.272959  1
  Co  Co13  1  0.500000  0.143821  0.727041  1
  Co  Co14  1  0.000000  0.349174  0.070954  1
  Co  Co15  1  0.000000  0.349174  0.929046  1
  Co  Co16  1  0.500000  0.649709  0.428607  1
  Co  Co17  1  0.500000  0.649709  0.571393  1
  Co  Co18  1  0.000000  0.993513  0.000000  1
  Co  Co19  1  0.500000  0.004525  0.500000  1
  B  B20  1  0.000000  0.229435  0.202029  1
  B  B21  1  0.000000  0.229435  0.797971  1
  B  B22  1  0.500000  0.771173  0.296993  1
  B  B23  1  0.500000  0.771173  0.703007  1
  B  B24  1  0.000000  0.730744  0.100325  1
  B  B25  1  0.000000  0.730744  0.899675  1
  B  B26  1  0.500000  0.270082  0.398768  1
  B  B27  1  0.500000  0.270082  0.601232  1
  B  B28  1  0.000000  0.765459  0.500000  1
  B  B29  1  0.500000  0.232700  0.000000  1
