# generated using pymatgen
data_LiNd19Rh12
_symmetry_space_group_name_H-M   'P 1'
_cell_length_a   11.23286200
_cell_length_b   11.23286200
_cell_length_c   6.51574600
_cell_angle_alpha   90.00000000
_cell_angle_beta   90.00000000
_cell_angle_gamma   90.00000000
_symmetry_Int_Tables_number   1
_chemical_formula_structural   LiNd19Rh12
_chemical_formula_sum   'Li1 Nd19 Rh12'
_cell_volume   822.13851264
_cell_formula_units_Z   1
loop_
 _symmetry_equiv_pos_site_id
 _symmetry_equiv_pos_as_xyz
  1  'x, y, z'
loop_
 _atom_site_type_symbol
 _atom_site_label
 _atom_site_symmetry_multiplicity
 _atom_site_fract_x
 _atom_site_fract_y
 _atom_site_fract_z
 _atom_site_occupancy
  Li  Li0  1  0.000000  0.000000  0.000000  1
  Nd  Nd1  1  0.084543  0.276601  0.114154  1
  Nd  Nd2  1  0.792506  0.414153  0.118249  1
  Nd  Nd3  1  0.207494  0.585847  0.118249  1
  Nd  Nd4  1  0.915457  0.723399  0.114154  1
  Nd  Nd5  1  0.408431  0.791894  0.384296  1
  Nd  Nd6  1  0.591569  0.208106  0.384296  1
  Nd  Nd7  1  0.291439  0.089455  0.385255  1
  Nd  Nd8  1  0.708561  0.910545  0.385255  1
  Nd  Nd9  1  0.414153  0.207494  0.881751  1
  Nd  Nd10  1  0.723399  0.084543  0.885846  1
  Nd  Nd11  1  0.276601  0.915457  0.885846  1
  Nd  Nd12  1  0.585847  0.792506  0.881751  1
  Nd  Nd13  1  0.089455  0.708561  0.614745  1
  Nd  Nd14  1  0.910545  0.291439  0.614745  1
  Nd  Nd15  1  0.208106  0.408431  0.615704  1
  Nd  Nd16  1  0.791894  0.591569  0.615704  1
  Nd  Nd17  1  0.500000  0.500000  0.000000  1
  Nd  Nd18  1  0.500000  0.500000  0.500000  1
  Nd  Nd19  1  0.000000  0.000000  0.500000  1
  Rh  Rh20  1  0.156089  0.845179  0.258392  1
  Rh  Rh21  1  0.344648  0.344858  0.247256  1
  Rh  Rh22  1  0.655352  0.655142  0.247256  1
  Rh  Rh23  1  0.843911  0.154821  0.258392  1
  Rh  Rh24  1  0.344858  0.655352  0.752744  1
  Rh  Rh25  1  0.154821  0.156089  0.741608  1
  Rh  Rh26  1  0.845179  0.843911  0.741608  1
  Rh  Rh27  1  0.655142  0.344648  0.752744  1
  Rh  Rh28  1  0.000000  0.500000  0.377668  1
  Rh  Rh29  1  0.500000  0.000000  0.114742  1
  Rh  Rh30  1  0.500000  0.000000  0.622332  1
  Rh  Rh31  1  0.000000  0.500000  0.885258  1
