# generated using pymatgen
data_Tm4Mn17(FeP4)3
_symmetry_space_group_name_H-M   'P 1'
_cell_length_a   3.57516000
_cell_length_b   10.60843066
_cell_length_c   12.17905132
_cell_angle_alpha   90.26721865
_cell_angle_beta   90.00000000
_cell_angle_gamma   90.00000000
_symmetry_Int_Tables_number   1
_chemical_formula_structural   Tm4Mn17(FeP4)3
_chemical_formula_sum   'Tm4 Mn17 Fe3 P12'
_cell_volume   461.90787030
_cell_formula_units_Z   1
loop_
 _symmetry_equiv_pos_site_id
 _symmetry_equiv_pos_as_xyz
  1  'x, y, z'
loop_
 _atom_site_type_symbol
 _atom_site_label
 _atom_site_symmetry_multiplicity
 _atom_site_fract_x
 _atom_site_fract_y
 _atom_site_fract_z
 _atom_site_occupancy
  Tm  Tm0  1  0.250000  0.585275  0.706863  1
  Tm  Tm1  1  0.250000  0.915603  0.208101  1
  Tm  Tm2  1  0.750000  0.415804  0.293181  1
  Tm  Tm3  1  0.750000  0.083336  0.791147  1
  Mn  Mn4  1  0.250000  0.715080  0.985731  1
  Mn  Mn5  1  0.250000  0.788320  0.484871  1
  Mn  Mn6  1  0.750000  0.285221  0.015596  1
  Mn  Mn7  1  0.750000  0.212341  0.515169  1
  Mn  Mn8  1  0.250000  0.409845  0.492812  1
  Mn  Mn9  1  0.250000  0.089884  0.992833  1
  Mn  Mn10  1  0.750000  0.591088  0.507373  1
  Mn  Mn11  1  0.750000  0.908726  0.007387  1
  Mn  Mn12  1  0.250000  0.216071  0.177912  1
  Mn  Mn13  1  0.250000  0.282842  0.677006  1
  Mn  Mn14  1  0.750000  0.784626  0.821894  1
  Mn  Mn15  1  0.750000  0.717112  0.322652  1
  Mn  Mn16  1  0.250000  0.879403  0.695636  1
  Mn  Mn17  1  0.250000  0.620122  0.194925  1
  Mn  Mn18  1  0.750000  0.120952  0.304118  1
  Mn  Mn19  1  0.750000  0.379013  0.804615  1
  Mn  Mn20  1  0.250000  0.463695  0.933594  1
  Fe  Fe21  1  0.250000  0.036371  0.431323  1
  Fe  Fe22  1  0.750000  0.535398  0.067634  1
  Fe  Fe23  1  0.750000  0.963858  0.567544  1
  P  P24  1  0.250000  0.416483  0.114804  1
  P  P25  1  0.250000  0.080348  0.610384  1
  P  P26  1  0.750000  0.585562  0.886535  1
  P  P27  1  0.750000  0.919585  0.388633  1
  P  P28  1  0.250000  0.260791  0.872685  1
  P  P29  1  0.250000  0.236434  0.373562  1
  P  P30  1  0.750000  0.736510  0.126728  1
  P  P31  1  0.750000  0.764463  0.626519  1
  P  P32  1  0.250000  0.592853  0.384717  1
  P  P33  1  0.250000  0.908104  0.884279  1
  P  P34  1  0.750000  0.407796  0.615482  1
  P  P35  1  0.750000  0.091082  0.115757  1
