# generated using pymatgen
data_DyY3(ZrGa5)2
_symmetry_space_group_name_H-M   'P 1'
_cell_length_a   5.92161900
_cell_length_b   9.43238136
_cell_length_c   11.45365400
_cell_angle_alpha   90.00000000
_cell_angle_beta   90.00000000
_cell_angle_gamma   89.95164193
_symmetry_Int_Tables_number   1
_chemical_formula_structural   DyY3(ZrGa5)2
_chemical_formula_sum   'Dy2 Y6 Zr4 Ga20'
_cell_volume   639.74325751
_cell_formula_units_Z   2
loop_
 _symmetry_equiv_pos_site_id
 _symmetry_equiv_pos_as_xyz
  1  'x, y, z'
loop_
 _atom_site_type_symbol
 _atom_site_label
 _atom_site_symmetry_multiplicity
 _atom_site_fract_x
 _atom_site_fract_y
 _atom_site_fract_z
 _atom_site_occupancy
  Dy  Dy0  1  0.885797  0.998964  0.352509  1
  Dy  Dy1  1  0.614203  0.501036  0.852509  1
  Y  Y2  1  0.885172  0.501018  0.352286  1
  Y  Y3  1  0.614828  0.998982  0.852286  1
  Y  Y4  1  0.114260  0.000866  0.647672  1
  Y  Y5  1  0.385740  0.499134  0.147672  1
  Y  Y6  1  0.113861  0.499131  0.647446  1
  Y  Y7  1  0.386139  0.000869  0.147446  1
  Zr  Zr8  1  0.858760  0.749864  0.074049  1
  Zr  Zr9  1  0.641240  0.750136  0.574049  1
  Zr  Zr10  1  0.141616  0.249747  0.925838  1
  Zr  Zr11  1  0.358384  0.250253  0.425838  1
  Ga  Ga12  1  0.875420  0.053274  0.089411  1
  Ga  Ga13  1  0.624580  0.446726  0.589411  1
  Ga  Ga14  1  0.125012  0.552833  0.910885  1
  Ga  Ga15  1  0.374988  0.947167  0.410885  1
  Ga  Ga16  1  0.124418  0.946239  0.911110  1
  Ga  Ga17  1  0.375582  0.553761  0.411110  1
  Ga  Ga18  1  0.875767  0.446495  0.088453  1
  Ga  Ga19  1  0.624233  0.053505  0.588453  1
  Ga  Ga20  1  0.151142  0.750593  0.258288  1
  Ga  Ga21  1  0.348858  0.749407  0.758288  1
  Ga  Ga22  1  0.847118  0.250645  0.742393  1
  Ga  Ga23  1  0.652882  0.249355  0.242393  1
  Ga  Ga24  1  0.395975  0.749884  0.997587  1
  Ga  Ga25  1  0.104025  0.750116  0.497587  1
  Ga  Ga26  1  0.606103  0.250211  0.001354  1
  Ga  Ga27  1  0.893897  0.249789  0.501354  1
  Ga  Ga28  1  0.611475  0.750819  0.294953  1
  Ga  Ga29  1  0.888525  0.749181  0.794953  1
  Ga  Ga30  1  0.389955  0.249935  0.705766  1
  Ga  Ga31  1  0.110045  0.250065  0.205766  1
