# generated using pymatgen
data_Zr2Co3Ni4
_symmetry_space_group_name_H-M   'P 1'
_cell_length_a   4.70587552
_cell_length_b   4.70587560
_cell_length_c   6.31939335
_cell_angle_alpha   82.28057608
_cell_angle_beta   82.28057441
_cell_angle_gamma   120.38864570
_symmetry_Int_Tables_number   1
_chemical_formula_structural   Zr2Co3Ni4
_chemical_formula_sum   'Zr2 Co3 Ni4'
_cell_volume   116.22685953
_cell_formula_units_Z   1
loop_
 _symmetry_equiv_pos_site_id
 _symmetry_equiv_pos_as_xyz
  1  'x, y, z'
loop_
 _atom_site_type_symbol
 _atom_site_label
 _atom_site_symmetry_multiplicity
 _atom_site_fract_x
 _atom_site_fract_y
 _atom_site_fract_z
 _atom_site_occupancy
  Zr  Zr0  1  0.604715  0.604715  0.231153  1
  Zr  Zr1  1  0.395285  0.395285  0.768847  1
  Co  Co2  1  0.000000  0.000000  0.500000  1
  Co  Co3  1  0.500000  0.000000  0.500000  1
  Co  Co4  1  0.000000  0.500000  0.500000  1
  Ni  Ni5  1  0.291469  0.957729  0.157341  1
  Ni  Ni6  1  0.042271  0.708531  0.842659  1
  Ni  Ni7  1  0.708531  0.042271  0.842659  1
  Ni  Ni8  1  0.957729  0.291469  0.157341  1
