# generated using pymatgen
data_Dy4ErRu3
_symmetry_space_group_name_H-M   'P 1'
_cell_length_a   10.79615200
_cell_length_b   10.79615200
_cell_length_c   6.37259500
_cell_angle_alpha   90.00000000
_cell_angle_beta   90.00000000
_cell_angle_gamma   90.00000000
_symmetry_Int_Tables_number   1
_chemical_formula_structural   Dy4ErRu3
_chemical_formula_sum   'Dy16 Er4 Ru12'
_cell_volume   742.76990546
_cell_formula_units_Z   4
loop_
 _symmetry_equiv_pos_site_id
 _symmetry_equiv_pos_as_xyz
  1  'x, y, z'
loop_
 _atom_site_type_symbol
 _atom_site_label
 _atom_site_symmetry_multiplicity
 _atom_site_fract_x
 _atom_site_fract_y
 _atom_site_fract_z
 _atom_site_occupancy
  Dy  Dy0  1  0.291703  0.086638  0.377178  1
  Dy  Dy1  1  0.291703  0.913362  0.877178  1
  Dy  Dy2  1  0.708297  0.086638  0.877178  1
  Dy  Dy3  1  0.708297  0.913362  0.377178  1
  Dy  Dy4  1  0.586638  0.791703  0.877178  1
  Dy  Dy5  1  0.586638  0.208297  0.377178  1
  Dy  Dy6  1  0.413362  0.791703  0.377178  1
  Dy  Dy7  1  0.413362  0.208297  0.877178  1
  Dy  Dy8  1  0.208297  0.413362  0.622822  1
  Dy  Dy9  1  0.208297  0.586638  0.122822  1
  Dy  Dy10  1  0.791703  0.413362  0.122822  1
  Dy  Dy11  1  0.791703  0.586638  0.622822  1
  Dy  Dy12  1  0.913362  0.708297  0.122822  1
  Dy  Dy13  1  0.913362  0.291703  0.622822  1
  Dy  Dy14  1  0.086638  0.708297  0.622822  1
  Dy  Dy15  1  0.086638  0.291703  0.122822  1
  Er  Er16  1  0.000000  0.000000  0.500000  1
  Er  Er17  1  0.000000  0.000000  0.000000  1
  Er  Er18  1  0.500000  0.500000  0.000000  1
  Er  Er19  1  0.500000  0.500000  0.500000  1
  Ru  Ru20  1  0.847490  0.152510  0.250000  1
  Ru  Ru21  1  0.847490  0.847490  0.750000  1
  Ru  Ru22  1  0.152510  0.152510  0.750000  1
  Ru  Ru23  1  0.152510  0.847490  0.250000  1
  Ru  Ru24  1  0.652510  0.347490  0.750000  1
  Ru  Ru25  1  0.652510  0.652510  0.250000  1
  Ru  Ru26  1  0.347490  0.347490  0.250000  1
  Ru  Ru27  1  0.347490  0.652510  0.750000  1
  Ru  Ru28  1  0.500000  0.000000  0.123551  1
  Ru  Ru29  1  0.500000  0.000000  0.623551  1
  Ru  Ru30  1  0.000000  0.500000  0.876449  1
  Ru  Ru31  1  0.000000  0.500000  0.376449  1
