# generated using pymatgen
data_Tb4Cu2PdRh
_symmetry_space_group_name_H-M   'P 1'
_cell_length_a   4.41477800
_cell_length_b   5.60905707
_cell_length_c   7.15252987
_cell_angle_alpha   90.03163153
_cell_angle_beta   90.00000000
_cell_angle_gamma   90.00000000
_symmetry_Int_Tables_number   1
_chemical_formula_structural   Tb4Cu2PdRh
_chemical_formula_sum   'Tb4 Cu2 Pd1 Rh1'
_cell_volume   177.11622312
_cell_formula_units_Z   1
loop_
 _symmetry_equiv_pos_site_id
 _symmetry_equiv_pos_as_xyz
  1  'x, y, z'
loop_
 _atom_site_type_symbol
 _atom_site_label
 _atom_site_symmetry_multiplicity
 _atom_site_fract_x
 _atom_site_fract_y
 _atom_site_fract_z
 _atom_site_occupancy
  Tb  Tb0  1  0.000000  0.115368  0.678732  1
  Tb  Tb1  1  0.000000  0.884595  0.186267  1
  Tb  Tb2  1  0.500000  0.394365  0.323928  1
  Tb  Tb3  1  0.500000  0.610002  0.810939  1
  Cu  Cu4  1  0.500000  0.888293  0.461994  1
  Cu  Cu5  1  0.500000  0.113524  0.964003  1
  Pd  Pd6  1  0.000000  0.383308  0.037346  1
  Rh  Rh7  1  0.000000  0.610544  0.536793  1
