# generated using pymatgen
data_Sm2Ho3TmTa2O14
_symmetry_space_group_name_H-M   'P 1'
_cell_length_a   6.45849444
_cell_length_b   6.46588597
_cell_length_c   7.54881800
_cell_angle_alpha   90.00000000
_cell_angle_beta   90.00000000
_cell_angle_gamma   109.30360895
_symmetry_Int_Tables_number   1
_chemical_formula_structural   Sm2Ho3TmTa2O14
_chemical_formula_sum   'Sm2 Ho3 Tm1 Ta2 O14'
_cell_volume   297.51517103
_cell_formula_units_Z   1
loop_
 _symmetry_equiv_pos_site_id
 _symmetry_equiv_pos_as_xyz
  1  'x, y, z'
loop_
 _atom_site_type_symbol
 _atom_site_label
 _atom_site_symmetry_multiplicity
 _atom_site_fract_x
 _atom_site_fract_y
 _atom_site_fract_z
 _atom_site_occupancy
  Sm  Sm0  1  0.500381  0.500658  0.500359  1
  Sm  Sm1  1  0.500381  0.500658  0.999641  1
  Ho  Ho2  1  0.000917  0.533957  0.250000  1
  Ho  Ho3  1  0.466382  0.999013  0.250000  1
  Ho  Ho4  1  0.999070  0.465844  0.750000  1
  Tm  Tm5  1  0.533060  0.001512  0.750000  1
  Ta  Ta6  1  0.000087  0.000009  0.500418  1
  Ta  Ta7  1  0.000087  0.000009  0.999582  1
  O  O8  1  0.677684  0.929979  0.468808  1
  O  O9  1  0.929064  0.677759  0.532418  1
  O  O10  1  0.677684  0.929979  0.031192  1
  O  O11  1  0.929064  0.677759  0.967582  1
  O  O12  1  0.321767  0.069061  0.534410  1
  O  O13  1  0.071067  0.321894  0.467606  1
  O  O14  1  0.321767  0.069061  0.965590  1
  O  O15  1  0.071067  0.321894  0.032394  1
  O  O16  1  0.932962  0.065813  0.750000  1
  O  O17  1  0.066108  0.934661  0.250000  1
  O  O18  1  0.367035  0.637631  0.750000  1
  O  O19  1  0.634296  0.365554  0.250000  1
  O  O20  1  0.640767  0.356287  0.750000  1
  O  O21  1  0.359300  0.641006  0.250000  1
