# generated using pymatgen
data_LaPrCd(Si3Pd10)2
_symmetry_space_group_name_H-M   'P 1'
_cell_length_a   8.74427895
_cell_length_b   8.74417645
_cell_length_c   8.74411200
_cell_angle_alpha   59.99812937
_cell_angle_beta   59.99837882
_cell_angle_gamma   59.99882517
_symmetry_Int_Tables_number   1
_chemical_formula_structural   LaPrCd(Si3Pd10)2
_chemical_formula_sum   'La1 Pr1 Cd1 Si6 Pd20'
_cell_volume   472.74649006
_cell_formula_units_Z   1
loop_
 _symmetry_equiv_pos_site_id
 _symmetry_equiv_pos_as_xyz
  1  'x, y, z'
loop_
 _atom_site_type_symbol
 _atom_site_label
 _atom_site_symmetry_multiplicity
 _atom_site_fract_x
 _atom_site_fract_y
 _atom_site_fract_z
 _atom_site_occupancy
  La  La0  1  0.250016  0.250000  0.249984  1
  Pr  Pr1  1  0.749987  0.749999  0.750014  1
  Cd  Cd2  1  0.000000  0.000000  0.000000  1
  Si  Si3  1  0.733430  0.733473  0.266548  1
  Si  Si4  1  0.266570  0.266526  0.733453  1
  Si  Si5  1  0.733416  0.266562  0.733466  1
  Si  Si6  1  0.266585  0.733439  0.266533  1
  Si  Si7  1  0.266573  0.733448  0.733454  1
  Si  Si8  1  0.733427  0.266553  0.266546  1
  Pd  Pd9  1  0.614498  0.614511  0.614503  1
  Pd  Pd10  1  0.385438  0.385425  0.385433  1
  Pd  Pd11  1  0.156434  0.614520  0.614532  1
  Pd  Pd12  1  0.614502  0.156481  0.614506  1
  Pd  Pd13  1  0.843758  0.385417  0.385404  1
  Pd  Pd14  1  0.385433  0.843713  0.385432  1
  Pd  Pd15  1  0.614502  0.614495  0.156509  1
  Pd  Pd16  1  0.385434  0.385440  0.843685  1
  Pd  Pd17  1  0.999918  0.999920  0.655723  1
  Pd  Pd18  1  0.999952  0.999948  0.344408  1
  Pd  Pd19  1  0.344407  0.655719  0.999939  1
  Pd  Pd20  1  0.655722  0.344409  0.999932  1
  Pd  Pd21  1  0.999937  0.655718  0.999928  1
  Pd  Pd22  1  0.655706  0.999952  0.344401  1
  Pd  Pd23  1  0.999932  0.344412  0.999939  1
  Pd  Pd24  1  0.344425  0.999918  0.655730  1
  Pd  Pd25  1  0.655727  0.999939  0.999925  1
  Pd  Pd26  1  0.344403  0.999932  0.999943  1
  Pd  Pd27  1  0.999953  0.655697  0.344406  1
  Pd  Pd28  1  0.999916  0.344435  0.655726  1
