# generated using pymatgen
data_Tb2Tm17LuSn16
_symmetry_space_group_name_H-M   'P 1'
_cell_length_a   7.96515756
_cell_length_b   8.07298604
_cell_length_c   15.28804200
_cell_angle_alpha   89.94899935
_cell_angle_beta   90.02142885
_cell_angle_gamma   90.08946540
_symmetry_Int_Tables_number   1
_chemical_formula_structural   Tb2Tm17LuSn16
_chemical_formula_sum   'Tb2 Tm17 Lu1 Sn16'
_cell_volume   983.05928098
_cell_formula_units_Z   1
loop_
 _symmetry_equiv_pos_site_id
 _symmetry_equiv_pos_as_xyz
  1  'x, y, z'
loop_
 _atom_site_type_symbol
 _atom_site_label
 _atom_site_symmetry_multiplicity
 _atom_site_fract_x
 _atom_site_fract_y
 _atom_site_fract_z
 _atom_site_occupancy
  Tb  Tb0  1  0.521277  0.321133  0.596122  1
  Tb  Tb1  1  0.021520  0.178947  0.903752  1
  Tm  Tm2  1  0.368340  0.837532  0.877178  1
  Tm  Tm3  1  0.868419  0.662446  0.622697  1
  Tm  Tm4  1  0.631920  0.161776  0.376848  1
  Tm  Tm5  1  0.131780  0.338141  0.122844  1
  Tm  Tm6  1  0.631759  0.162015  0.123015  1
  Tm  Tm7  1  0.131870  0.337872  0.377247  1
  Tm  Tm8  1  0.368625  0.837772  0.622802  1
  Tm  Tm9  1  0.868957  0.662184  0.877254  1
  Tm  Tm10  1  0.522758  0.321259  0.902905  1
  Tm  Tm11  1  0.023004  0.178902  0.597080  1
  Tm  Tm12  1  0.477837  0.679219  0.403371  1
  Tm  Tm13  1  0.977758  0.820852  0.096953  1
  Tm  Tm14  1  0.477740  0.678979  0.096614  1
  Tm  Tm15  1  0.977707  0.821022  0.403178  1
  Tm  Tm16  1  0.698806  0.995821  0.749946  1
  Tm  Tm17  1  0.801121  0.496012  0.249994  1
  Tm  Tm18  1  0.300993  0.003928  0.249961  1
  Lu  Lu19  1  0.198801  0.504462  0.750358  1
  Sn  Sn20  1  0.293015  0.036636  0.041934  1
  Sn  Sn21  1  0.793127  0.463674  0.457845  1
  Sn  Sn22  1  0.708828  0.962660  0.541254  1
  Sn  Sn23  1  0.208757  0.537185  0.958331  1
  Sn  Sn24  1  0.706286  0.961096  0.959062  1
  Sn  Sn25  1  0.205963  0.538284  0.541527  1
  Sn  Sn26  1  0.292390  0.037150  0.458538  1
  Sn  Sn27  1  0.792124  0.462857  0.041450  1
  Sn  Sn28  1  0.564524  0.618788  0.749991  1
  Sn  Sn29  1  0.065061  0.880989  0.749948  1
  Sn  Sn30  1  0.435059  0.381250  0.249920  1
  Sn  Sn31  1  0.935222  0.118747  0.250063  1
  Sn  Sn32  1  0.331984  0.150039  0.750339  1
  Sn  Sn33  1  0.832530  0.350845  0.749617  1
  Sn  Sn34  1  0.666978  0.849624  0.249972  1
  Sn  Sn35  1  0.167161  0.649904  0.250091  1
