# generated using pymatgen
data_Li3Tb2SmAgSn4
_symmetry_space_group_name_H-M   'P 1'
_cell_length_a   4.62121043
_cell_length_b   7.18959939
_cell_length_c   8.70582627
_cell_angle_alpha   114.33747943
_cell_angle_beta   105.39126889
_cell_angle_gamma   89.99999361
_symmetry_Int_Tables_number   1
_chemical_formula_structural   Li3Tb2SmAgSn4
_chemical_formula_sum   'Li3 Tb2 Sm1 Ag1 Sn4'
_cell_volume   252.11463520
_cell_formula_units_Z   1
loop_
 _symmetry_equiv_pos_site_id
 _symmetry_equiv_pos_as_xyz
  1  'x, y, z'
loop_
 _atom_site_type_symbol
 _atom_site_label
 _atom_site_symmetry_multiplicity
 _atom_site_fract_x
 _atom_site_fract_y
 _atom_site_fract_z
 _atom_site_occupancy
  Li  Li0  1  0.327057  0.014621  0.654113  1
  Li  Li1  1  0.670844  0.980737  0.341690  1
  Li  Li2  1  0.325712  0.635036  0.651423  1
  Tb  Tb3  1  0.128442  0.628776  0.256884  1
  Tb  Tb4  1  0.002147  0.002480  0.004293  1
  Sm  Sm5  1  0.872001  0.374897  0.744001  1
  Ag  Ag6  1  0.673768  0.366279  0.347536  1
  Sn  Sn7  1  0.215197  0.203536  0.430393  1
  Sn  Sn8  1  0.787785  0.794336  0.575570  1
  Sn  Sn9  1  0.497547  0.298624  0.995094  1
  Sn  Sn10  1  0.499500  0.700680  0.999001  1
