# generated using pymatgen
data_Yb3AlAg2Ge3
_symmetry_space_group_name_H-M   'P 1'
_cell_length_a   7.03474100
_cell_length_b   7.13371291
_cell_length_c   4.33264700
_cell_angle_alpha   90.00000000
_cell_angle_beta   90.00000000
_cell_angle_gamma   119.54211355
_symmetry_Int_Tables_number   1
_chemical_formula_structural   Yb3AlAg2Ge3
_chemical_formula_sum   'Yb3 Al1 Ag2 Ge3'
_cell_volume   189.16163718
_cell_formula_units_Z   1
loop_
 _symmetry_equiv_pos_site_id
 _symmetry_equiv_pos_as_xyz
  1  'x, y, z'
loop_
 _atom_site_type_symbol
 _atom_site_label
 _atom_site_symmetry_multiplicity
 _atom_site_fract_x
 _atom_site_fract_y
 _atom_site_fract_z
 _atom_site_occupancy
  Yb  Yb0  1  0.992628  0.566878  0.000000  1
  Yb  Yb1  1  0.425751  0.433122  0.000000  1
  Yb  Yb2  1  0.582130  0.000000  0.000000  1
  Al  Al3  1  0.240177  0.000000  0.500000  1
  Ag  Ag4  1  0.753371  0.749049  0.500000  1
  Ag  Ag5  1  0.004323  0.250951  0.500000  1
  Ge  Ge6  1  0.016755  0.000000  0.000000  1
  Ge  Ge7  1  0.653577  0.322287  0.500000  1
  Ge  Ge8  1  0.331289  0.677713  0.500000  1
