# generated using pymatgen
data_Cs9K5Ta2(In3P5)2
_symmetry_space_group_name_H-M   'P 1'
_cell_length_a   8.47111506
_cell_length_b   9.42502139
_cell_length_c   14.75799613
_cell_angle_alpha   84.87588140
_cell_angle_beta   84.32330322
_cell_angle_gamma   88.52272064
_symmetry_Int_Tables_number   1
_chemical_formula_structural   Cs9K5Ta2(In3P5)2
_chemical_formula_sum   'Cs9 K5 Ta2 In6 P10'
_cell_volume   1167.64989976
_cell_formula_units_Z   1
loop_
 _symmetry_equiv_pos_site_id
 _symmetry_equiv_pos_as_xyz
  1  'x, y, z'
loop_
 _atom_site_type_symbol
 _atom_site_label
 _atom_site_symmetry_multiplicity
 _atom_site_fract_x
 _atom_site_fract_y
 _atom_site_fract_z
 _atom_site_occupancy
  Cs  Cs0  1  0.254611  0.495218  0.027045  1
  Cs  Cs1  1  0.688942  0.079364  0.888990  1
  Cs  Cs2  1  0.312068  0.922026  0.110045  1
  Cs  Cs3  1  0.689160  0.658925  0.400275  1
  Cs  Cs4  1  0.314568  0.342682  0.599456  1
  Cs  Cs5  1  0.754524  0.983933  0.535609  1
  Cs  Cs6  1  0.243571  0.015279  0.464735  1
  Cs  Cs7  1  0.823905  0.361920  0.647152  1
  Cs  Cs8  1  0.179644  0.637327  0.353261  1
  K  K9  1  0.817172  0.804158  0.138117  1
  K  K10  1  0.186723  0.194634  0.859405  1
  K  K11  1  0.272542  0.260550  0.246964  1
  K  K12  1  0.727804  0.735321  0.756008  1
  K  K13  1  0.734707  0.494805  0.976636  1
  Ta  Ta14  1  0.652855  0.395075  0.222785  1
  Ta  Ta15  1  0.349094  0.608081  0.776414  1
  In  In16  1  0.910194  0.274520  0.369017  1
  In  In17  1  0.087332  0.723821  0.631822  1
  In  In18  1  0.942957  0.187060  0.127276  1
  In  In19  1  0.054686  0.811154  0.873272  1
  In  In20  1  0.633629  0.044228  0.291319  1
  In  In21  1  0.364782  0.957654  0.705835  1
  P  P22  1  0.500939  0.597808  0.185241  1
  P  P23  1  0.509606  0.410164  0.814704  1
  P  P24  1  0.931304  0.450091  0.208122  1
  P  P25  1  0.070676  0.547911  0.793784  1
  P  P26  1  0.583342  0.293704  0.379398  1
  P  P27  1  0.414345  0.707583  0.619381  1
  P  P28  1  0.618225  0.204384  0.125329  1
  P  P29  1  0.379378  0.802792  0.871421  1
  P  P30  1  0.965969  0.008776  0.290976  1
  P  P31  1  0.030747  0.989051  0.710206  1
