# generated using pymatgen
data_Gd2LuAuO7
_symmetry_space_group_name_H-M   'P 1'
_cell_length_a   6.48024563
_cell_length_b   6.50407836
_cell_length_c   7.45407900
_cell_angle_alpha   90.00000000
_cell_angle_beta   90.00000000
_cell_angle_gamma   108.70772879
_symmetry_Int_Tables_number   1
_chemical_formula_structural   Gd2LuAuO7
_chemical_formula_sum   'Gd4 Lu2 Au2 O14'
_cell_volume   297.57592501
_cell_formula_units_Z   2
loop_
 _symmetry_equiv_pos_site_id
 _symmetry_equiv_pos_as_xyz
  1  'x, y, z'
loop_
 _atom_site_type_symbol
 _atom_site_label
 _atom_site_symmetry_multiplicity
 _atom_site_fract_x
 _atom_site_fract_y
 _atom_site_fract_z
 _atom_site_occupancy
  Gd  Gd0  1  0.527452  0.998119  0.750371  1
  Gd  Gd1  1  0.472548  0.001881  0.250371  1
  Gd  Gd2  1  0.499359  0.499562  0.000025  1
  Gd  Gd3  1  0.500641  0.500438  0.500025  1
  Lu  Lu4  1  0.001225  0.471286  0.749761  1
  Lu  Lu5  1  0.998775  0.528714  0.249761  1
  Au  Au6  1  0.000062  0.000106  0.999968  1
  Au  Au7  1  0.999938  0.999894  0.499968  1
  O  O8  1  0.647439  0.365452  0.750028  1
  O  O9  1  0.352561  0.634548  0.250028  1
  O  O10  1  0.928363  0.088309  0.749985  1
  O  O11  1  0.071637  0.911691  0.249985  1
  O  O12  1  0.329701  0.090057  0.976871  1
  O  O13  1  0.670299  0.909943  0.476871  1
  O  O14  1  0.932887  0.669647  0.525191  1
  O  O15  1  0.067113  0.330353  0.025191  1
  O  O16  1  0.356902  0.627288  0.749886  1
  O  O17  1  0.643098  0.372712  0.249886  1
  O  O18  1  0.329460  0.089798  0.523541  1
  O  O19  1  0.670540  0.910202  0.023541  1
  O  O20  1  0.933493  0.670037  0.974373  1
  O  O21  1  0.066507  0.329963  0.474373  1
