# generated using pymatgen
data_Dy7TmMg2(SiB4)4
_symmetry_space_group_name_H-M   'P 1'
_cell_length_a   7.16160106
_cell_length_b   7.16159606
_cell_length_c   7.82702700
_cell_angle_alpha   90.00039768
_cell_angle_beta   90.00032108
_cell_angle_gamma   89.98508722
_symmetry_Int_Tables_number   1
_chemical_formula_structural   Dy7TmMg2(SiB4)4
_chemical_formula_sum   'Dy7 Tm1 Mg2 Si4 B16'
_cell_volume   401.43641328
_cell_formula_units_Z   1
loop_
 _symmetry_equiv_pos_site_id
 _symmetry_equiv_pos_as_xyz
  1  'x, y, z'
loop_
 _atom_site_type_symbol
 _atom_site_label
 _atom_site_symmetry_multiplicity
 _atom_site_fract_x
 _atom_site_fract_y
 _atom_site_fract_z
 _atom_site_occupancy
  Dy  Dy0  1  0.317107  0.817107  0.766249  1
  Dy  Dy1  1  0.317174  0.817174  0.233683  1
  Dy  Dy2  1  0.816980  0.683004  0.233585  1
  Dy  Dy3  1  0.816948  0.682907  0.766346  1
  Dy  Dy4  1  0.683024  0.183024  0.766438  1
  Dy  Dy5  1  0.182907  0.316948  0.766345  1
  Dy  Dy6  1  0.183004  0.316981  0.233584  1
  Tm  Tm7  1  0.682846  0.182846  0.231679  1
  Mg  Mg8  1  0.999639  0.000195  0.499709  1
  Mg  Mg9  1  0.500195  0.499639  0.499709  1
  Si  Si10  1  0.115132  0.615131  0.499836  1
  Si  Si11  1  0.883948  0.383948  0.499102  1
  Si  Si12  1  0.385437  0.115718  0.499294  1
  Si  Si13  1  0.615718  0.885437  0.499294  1
  B  B14  1  0.173508  0.040082  0.000240  1
  B  B15  1  0.826113  0.960479  0.000458  1
  B  B16  1  0.959671  0.173872  0.000307  1
  B  B17  1  0.326468  0.539776  0.000242  1
  B  B18  1  0.039776  0.826469  0.000242  1
  B  B19  1  0.673872  0.459671  0.000307  1
  B  B20  1  0.540082  0.673509  0.000240  1
  B  B21  1  0.460479  0.326112  0.000457  1
  B  B22  1  0.089608  0.589608  0.000145  1
  B  B23  1  0.910281  0.410281  0.000130  1
  B  B24  1  0.410583  0.089763  0.000562  1
  B  B25  1  0.589763  0.910583  0.000562  1
  B  B26  1  0.999318  0.000337  0.163198  1
  B  B27  1  0.999955  0.000127  0.837429  1
  B  B28  1  0.500127  0.499955  0.837429  1
  B  B29  1  0.500337  0.499317  0.163199  1
