# generated using pymatgen
data_FeBiPO5
_symmetry_space_group_name_H-M   'P 1'
_cell_length_a   11.46638700
_cell_length_b   5.40155464
_cell_length_c   7.72730936
_cell_angle_alpha   66.42430473
_cell_angle_beta   90.00000000
_cell_angle_gamma   90.00000000
_symmetry_Int_Tables_number   1
_chemical_formula_structural   FeBiPO5
_chemical_formula_sum   'Fe4 Bi4 P4 O20'
_cell_volume   438.65342670
_cell_formula_units_Z   4
loop_
 _symmetry_equiv_pos_site_id
 _symmetry_equiv_pos_as_xyz
  1  'x, y, z'
loop_
 _atom_site_type_symbol
 _atom_site_label
 _atom_site_symmetry_multiplicity
 _atom_site_fract_x
 _atom_site_fract_y
 _atom_site_fract_z
 _atom_site_occupancy
  Fe  Fe0  1  0.582539  0.445313  0.687600  1
  Fe  Fe1  1  0.082539  0.554687  0.812400  1
  Fe  Fe2  1  0.417461  0.554687  0.312400  1
  Fe  Fe3  1  0.917461  0.445313  0.187600  1
  Bi  Bi4  1  0.598329  0.065468  0.312558  1
  Bi  Bi5  1  0.098329  0.934532  0.187442  1
  Bi  Bi6  1  0.401671  0.934532  0.687442  1
  Bi  Bi7  1  0.901671  0.065468  0.812558  1
  P  P8  1  0.848976  0.819460  0.473845  1
  P  P9  1  0.348976  0.180540  0.026155  1
  P  P10  1  0.151024  0.180540  0.526155  1
  P  P11  1  0.651024  0.819460  0.973845  1
  O  O12  1  0.672796  0.131152  0.882024  1
  O  O13  1  0.172796  0.868848  0.617976  1
  O  O14  1  0.327204  0.868848  0.117976  1
  O  O15  1  0.827204  0.131152  0.382024  1
  O  O16  1  0.978365  0.242721  0.009156  1
  O  O17  1  0.478365  0.757279  0.490844  1
  O  O18  1  0.021635  0.757279  0.990844  1
  O  O19  1  0.521635  0.242721  0.509156  1
  O  O20  1  0.917004  0.744680  0.662220  1
  O  O21  1  0.417004  0.255320  0.837780  1
  O  O22  1  0.082996  0.255320  0.337780  1
  O  O23  1  0.582996  0.744680  0.162220  1
  O  O24  1  0.079495  0.275856  0.659405  1
  O  O25  1  0.579495  0.724144  0.840595  1
  O  O26  1  0.920505  0.724144  0.340595  1
  O  O27  1  0.420505  0.275856  0.159405  1
  O  O28  1  0.774791  0.690912  0.008294  1
  O  O29  1  0.274791  0.309088  0.491706  1
  O  O30  1  0.225209  0.309088  0.991706  1
  O  O31  1  0.725209  0.690912  0.508294  1
