# generated using pymatgen
data_PaCrS3
_symmetry_space_group_name_H-M   'P 1'
_cell_length_a   6.09657100
_cell_length_b   7.07482700
_cell_length_c   8.65558300
_cell_angle_alpha   90.00000000
_cell_angle_beta   90.00000000
_cell_angle_gamma   90.00000000
_symmetry_Int_Tables_number   1
_chemical_formula_structural   PaCrS3
_chemical_formula_sum   'Pa4 Cr4 S12'
_cell_volume   373.33420826
_cell_formula_units_Z   4
loop_
 _symmetry_equiv_pos_site_id
 _symmetry_equiv_pos_as_xyz
  1  'x, y, z'
loop_
 _atom_site_type_symbol
 _atom_site_label
 _atom_site_symmetry_multiplicity
 _atom_site_fract_x
 _atom_site_fract_y
 _atom_site_fract_z
 _atom_site_occupancy
  Pa  Pa0  1  0.945308  0.378732  0.250000  1
  Pa  Pa1  1  0.445308  0.121268  0.750000  1
  Pa  Pa2  1  0.554692  0.878732  0.250000  1
  Pa  Pa3  1  0.054692  0.621268  0.750000  1
  Cr  Cr4  1  0.000000  0.000000  0.000000  1
  Cr  Cr5  1  0.000000  0.000000  0.500000  1
  Cr  Cr6  1  0.500000  0.500000  0.500000  1
  Cr  Cr7  1  0.500000  0.500000  0.000000  1
  S  S8  1  0.337265  0.819998  0.943512  1
  S  S9  1  0.162735  0.319998  0.943512  1
  S  S10  1  0.662735  0.180002  0.056488  1
  S  S11  1  0.337265  0.819998  0.556488  1
  S  S12  1  0.147823  0.043228  0.250000  1
  S  S13  1  0.647823  0.456772  0.750000  1
  S  S14  1  0.352177  0.543228  0.250000  1
  S  S15  1  0.852177  0.956772  0.750000  1
  S  S16  1  0.162735  0.319998  0.556488  1
  S  S17  1  0.662735  0.180002  0.443512  1
  S  S18  1  0.837265  0.680002  0.056488  1
  S  S19  1  0.837265  0.680002  0.443512  1
