# generated using pymatgen
data_Lu2Co5P6Rh5
_symmetry_space_group_name_H-M   'P 1'
_cell_length_a   3.74131100
_cell_length_b   10.54501100
_cell_length_c   12.11692800
_cell_angle_alpha   90.00000000
_cell_angle_beta   90.00000000
_cell_angle_gamma   90.00000000
_symmetry_Int_Tables_number   1
_chemical_formula_structural   Lu2Co5P6Rh5
_chemical_formula_sum   'Lu4 Co10 P12 Rh10'
_cell_volume   478.03905062
_cell_formula_units_Z   2
loop_
 _symmetry_equiv_pos_site_id
 _symmetry_equiv_pos_as_xyz
  1  'x, y, z'
loop_
 _atom_site_type_symbol
 _atom_site_label
 _atom_site_symmetry_multiplicity
 _atom_site_fract_x
 _atom_site_fract_y
 _atom_site_fract_z
 _atom_site_occupancy
  Lu  Lu0  1  0.250000  0.586866  0.711344  1
  Lu  Lu1  1  0.250000  0.913134  0.211344  1
  Lu  Lu2  1  0.750000  0.420397  0.291171  1
  Lu  Lu3  1  0.750000  0.079603  0.791171  1
  Co  Co4  1  0.750000  0.777273  0.821303  1
  Co  Co5  1  0.750000  0.722727  0.321303  1
  Co  Co6  1  0.250000  0.879252  0.697011  1
  Co  Co7  1  0.250000  0.620748  0.197011  1
  Co  Co8  1  0.750000  0.111343  0.302600  1
  Co  Co9  1  0.750000  0.388657  0.802600  1
  Co  Co10  1  0.250000  0.464857  0.930916  1
  Co  Co11  1  0.250000  0.035143  0.430916  1
  Co  Co12  1  0.750000  0.538237  0.067639  1
  Co  Co13  1  0.750000  0.961763  0.567639  1
  P  P14  1  0.250000  0.431515  0.111066  1
  P  P15  1  0.250000  0.068485  0.611066  1
  P  P16  1  0.750000  0.579110  0.887856  1
  P  P17  1  0.750000  0.920890  0.387856  1
  P  P18  1  0.250000  0.272937  0.870984  1
  P  P19  1  0.250000  0.227063  0.370984  1
  P  P20  1  0.750000  0.726683  0.138322  1
  P  P21  1  0.750000  0.773317  0.638322  1
  P  P22  1  0.250000  0.605915  0.377840  1
  P  P23  1  0.250000  0.894085  0.877840  1
  P  P24  1  0.750000  0.404009  0.618605  1
  P  P25  1  0.750000  0.095991  0.118605  1
  Rh  Rh26  1  0.250000  0.711771  0.985722  1
  Rh  Rh27  1  0.250000  0.788229  0.485722  1
  Rh  Rh28  1  0.750000  0.283492  0.008030  1
  Rh  Rh29  1  0.750000  0.216508  0.508030  1
  Rh  Rh30  1  0.250000  0.412410  0.477343  1
  Rh  Rh31  1  0.250000  0.087590  0.977343  1
  Rh  Rh32  1  0.750000  0.596785  0.521857  1
  Rh  Rh33  1  0.750000  0.903215  0.021857  1
  Rh  Rh34  1  0.250000  0.225753  0.180392  1
  Rh  Rh35  1  0.250000  0.274247  0.680392  1
