# generated using pymatgen
data_Er8MgCdFePd
_symmetry_space_group_name_H-M   'P 1'
_cell_length_a   9.54170366
_cell_length_b   9.54170285
_cell_length_c   9.65149700
_cell_angle_alpha   59.61862707
_cell_angle_beta   59.61862993
_cell_angle_gamma   59.40001728
_symmetry_Int_Tables_number   1
_chemical_formula_structural   Er8MgCdFePd
_chemical_formula_sum   'Er16 Mg2 Cd2 Fe2 Pd2'
_cell_volume   614.91996660
_cell_formula_units_Z   2
loop_
 _symmetry_equiv_pos_site_id
 _symmetry_equiv_pos_as_xyz
  1  'x, y, z'
loop_
 _atom_site_type_symbol
 _atom_site_label
 _atom_site_symmetry_multiplicity
 _atom_site_fract_x
 _atom_site_fract_y
 _atom_site_fract_z
 _atom_site_occupancy
  Er  Er0  1  0.344623  0.344623  0.363082  1
  Er  Er1  1  0.344623  0.344623  0.947670  1
  Er  Er2  1  0.335449  0.967133  0.348708  1
  Er  Er3  1  0.967133  0.335449  0.348708  1
  Er  Er4  1  0.823232  0.186291  0.189267  1
  Er  Er5  1  0.186291  0.823232  0.801210  1
  Er  Er6  1  0.186291  0.823232  0.189267  1
  Er  Er7  1  0.823232  0.186291  0.801210  1
  Er  Er8  1  0.187743  0.187743  0.812257  1
  Er  Er9  1  0.812075  0.812075  0.187925  1
  Er  Er10  1  0.936501  0.559454  0.567594  1
  Er  Er11  1  0.559454  0.936501  0.936452  1
  Er  Er12  1  0.559454  0.936501  0.567594  1
  Er  Er13  1  0.936501  0.559454  0.936452  1
  Er  Er14  1  0.563328  0.563328  0.936672  1
  Er  Er15  1  0.935244  0.935244  0.564756  1
  Mg  Mg16  1  0.574268  0.574268  0.581143  1
  Mg  Mg17  1  0.574268  0.574268  0.270318  1
  Cd  Cd18  1  0.583046  0.253276  0.581839  1
  Cd  Cd19  1  0.253276  0.583046  0.581839  1
  Fe  Fe20  1  0.146153  0.146153  0.133627  1
  Fe  Fe21  1  0.146153  0.146153  0.574066  1
  Pd  Pd22  1  0.148786  0.572875  0.139170  1
  Pd  Pd23  1  0.572875  0.148786  0.139170  1
