# generated using pymatgen
data_Nd3Mg2Sb3O14
_symmetry_space_group_name_H-M   'P 1'
_cell_length_a   7.32291126
_cell_length_b   7.32291159
_cell_length_c   7.32290400
_cell_angle_alpha   118.29908274
_cell_angle_beta   61.70096693
_cell_angle_gamma   118.29901453
_symmetry_Int_Tables_number   1
_chemical_formula_structural   Nd3Mg2Sb3O14
_chemical_formula_sum   'Nd3 Mg2 Sb3 O14'
_cell_volume   288.26161377
_cell_formula_units_Z   1
loop_
 _symmetry_equiv_pos_site_id
 _symmetry_equiv_pos_as_xyz
  1  'x, y, z'
loop_
 _atom_site_type_symbol
 _atom_site_label
 _atom_site_symmetry_multiplicity
 _atom_site_fract_x
 _atom_site_fract_y
 _atom_site_fract_z
 _atom_site_occupancy
  Nd  Nd0  1  0.999996  0.500000  0.000001  1
  Nd  Nd1  1  0.500001  0.000006  0.999999  1
  Nd  Nd2  1  0.500000  0.499999  0.499996  1
  Mg  Mg3  1  0.499999  0.500009  0.999998  1
  Mg  Mg4  1  0.000005  0.000000  0.500003  1
  Sb  Sb5  1  0.500001  0.999999  0.499997  1
  Sb  Sb6  1  0.000002  0.499997  0.500003  1
  Sb  Sb7  1  0.999998  0.999999  0.000001  1
  O  O8  1  0.612957  0.387041  0.112961  1
  O  O9  1  0.387035  0.612967  0.887032  1
  O  O10  1  0.080116  0.323267  0.176732  1
  O  O11  1  0.676730  0.919878  0.176731  1
  O  O12  1  0.676730  0.323269  0.580120  1
  O  O13  1  0.919883  0.676730  0.823269  1
  O  O14  1  0.323268  0.080112  0.823268  1
  O  O15  1  0.323269  0.676730  0.419883  1
  O  O16  1  0.655342  0.913104  0.586894  1
  O  O17  1  0.086897  0.344663  0.586898  1
  O  O18  1  0.086896  0.913103  0.155340  1
  O  O19  1  0.344666  0.086896  0.413103  1
  O  O20  1  0.913105  0.655338  0.413104  1
  O  O21  1  0.913104  0.086896  0.844665  1
