# generated using pymatgen
data_TaNbCr2(O3F)2
_symmetry_space_group_name_H-M   'P 1'
_cell_length_a   3.82339505
_cell_length_b   6.87214010
_cell_length_c   6.80337955
_cell_angle_alpha   112.12339317
_cell_angle_beta   97.29610129
_cell_angle_gamma   87.57359920
_symmetry_Int_Tables_number   1
_chemical_formula_structural   TaNbCr2(O3F)2
_chemical_formula_sum   'Ta1 Nb1 Cr2 O6 F2'
_cell_volume   164.25332325
_cell_formula_units_Z   1
loop_
 _symmetry_equiv_pos_site_id
 _symmetry_equiv_pos_as_xyz
  1  'x, y, z'
loop_
 _atom_site_type_symbol
 _atom_site_label
 _atom_site_symmetry_multiplicity
 _atom_site_fract_x
 _atom_site_fract_y
 _atom_site_fract_z
 _atom_site_occupancy
  Ta  Ta0  1  0.264816  0.210413  0.160553  1
  Nb  Nb1  1  0.734430  0.787981  0.837178  1
  Cr  Cr2  1  0.288196  0.796709  0.344948  1
  Cr  Cr3  1  0.713950  0.200401  0.650514  1
  O  O4  1  0.752560  0.143119  0.080572  1
  O  O5  1  0.247127  0.863715  0.924982  1
  O  O6  1  0.682181  0.885158  0.605714  1
  O  O7  1  0.720013  0.507211  0.703290  1
  O  O8  1  0.318568  0.114923  0.393105  1
  O  O9  1  0.280602  0.491581  0.296462  1
  F  F10  1  0.816867  0.757813  0.149781  1
  F  F11  1  0.180689  0.240975  0.852900  1
