# generated using pymatgen
data_HfNp(InBr3)4
_symmetry_space_group_name_H-M   'P 1'
_cell_length_a   7.59546800
_cell_length_b   7.59546800
_cell_length_c   11.15534800
_cell_angle_alpha   90.00000000
_cell_angle_beta   90.00000000
_cell_angle_gamma   90.00000000
_symmetry_Int_Tables_number   1
_chemical_formula_structural   HfNp(InBr3)4
_chemical_formula_sum   'Hf1 Np1 In4 Br12'
_cell_volume   643.56467784
_cell_formula_units_Z   1
loop_
 _symmetry_equiv_pos_site_id
 _symmetry_equiv_pos_as_xyz
  1  'x, y, z'
loop_
 _atom_site_type_symbol
 _atom_site_label
 _atom_site_symmetry_multiplicity
 _atom_site_fract_x
 _atom_site_fract_y
 _atom_site_fract_z
 _atom_site_occupancy
  Hf  Hf0  1  0.000000  0.000000  0.500000  1
  Np  Np1  1  0.500000  0.500000  0.000000  1
  In  In2  1  0.000000  0.500000  0.252927  1
  In  In3  1  0.000000  0.500000  0.747073  1
  In  In4  1  0.500000  0.000000  0.747073  1
  In  In5  1  0.500000  0.000000  0.252927  1
  Br  Br6  1  0.824743  0.701585  0.500000  1
  Br  Br7  1  0.184539  0.316631  0.000000  1
  Br  Br8  1  0.500000  0.500000  0.750793  1
  Br  Br9  1  0.298415  0.824743  0.500000  1
  Br  Br10  1  0.000000  0.000000  0.264563  1
  Br  Br11  1  0.815461  0.683369  0.000000  1
  Br  Br12  1  0.683369  0.184539  0.000000  1
  Br  Br13  1  0.316631  0.815461  0.000000  1
  Br  Br14  1  0.000000  0.000000  0.735437  1
  Br  Br15  1  0.175257  0.298415  0.500000  1
  Br  Br16  1  0.500000  0.500000  0.249207  1
  Br  Br17  1  0.701585  0.175257  0.500000  1
