# generated using pymatgen
data_Tb4Y(Ho5Bi4)3
_symmetry_space_group_name_H-M   'P 1'
_cell_length_a   8.26278467
_cell_length_b   9.50310506
_cell_length_c   12.03051506
_cell_angle_alpha   89.99645149
_cell_angle_beta   90.03116143
_cell_angle_gamma   89.99504420
_symmetry_Int_Tables_number   1
_chemical_formula_structural   Tb4Y(Ho5Bi4)3
_chemical_formula_sum   'Tb4 Y1 Ho15 Bi12'
_cell_volume   944.66129101
_cell_formula_units_Z   1
loop_
 _symmetry_equiv_pos_site_id
 _symmetry_equiv_pos_as_xyz
  1  'x, y, z'
loop_
 _atom_site_type_symbol
 _atom_site_label
 _atom_site_symmetry_multiplicity
 _atom_site_fract_x
 _atom_site_fract_y
 _atom_site_fract_z
 _atom_site_occupancy
  Tb  Tb0  1  0.312591  0.250006  0.218976  1
  Tb  Tb1  1  0.812685  0.249978  0.280986  1
  Tb  Tb2  1  0.687396  0.750014  0.781079  1
  Tb  Tb3  1  0.187378  0.750170  0.719122  1
  Y  Y4  1  0.193262  0.563799  0.441155  1
  Ho  Ho5  1  0.353083  0.750264  0.215701  1
  Ho  Ho6  1  0.852588  0.750276  0.284033  1
  Ho  Ho7  1  0.647296  0.249962  0.784233  1
  Ho  Ho8  1  0.147314  0.250148  0.715787  1
  Ho  Ho9  1  0.693344  0.564491  0.058839  1
  Ho  Ho10  1  0.193181  0.935675  0.441087  1
  Ho  Ho11  1  0.306661  0.064520  0.941166  1
  Ho  Ho12  1  0.806872  0.435389  0.558814  1
  Ho  Ho13  1  0.306678  0.435421  0.941149  1
  Ho  Ho14  1  0.806515  0.064498  0.558900  1
  Ho  Ho15  1  0.693431  0.935515  0.058801  1
  Ho  Ho16  1  0.475135  0.250000  0.488235  1
  Ho  Ho17  1  0.974956  0.250128  0.011678  1
  Ho  Ho18  1  0.525428  0.750147  0.511815  1
  Ho  Ho19  1  0.025049  0.749955  0.988299  1
  Bi  Bi20  1  0.407495  0.749978  0.957892  1
  Bi  Bi21  1  0.907144  0.750337  0.542240  1
  Bi  Bi22  1  0.592476  0.249985  0.042066  1
  Bi  Bi23  1  0.092127  0.248962  0.458106  1
  Bi  Bi24  1  0.565152  0.994782  0.325428  1
  Bi  Bi25  1  0.065006  0.505328  0.174318  1
  Bi  Bi26  1  0.434844  0.494741  0.674685  1
  Bi  Bi27  1  0.934791  0.005385  0.825516  1
  Bi  Bi28  1  0.434864  0.005359  0.674523  1
  Bi  Bi29  1  0.934732  0.494725  0.825573  1
  Bi  Bi30  1  0.565415  0.505307  0.325349  1
  Bi  Bi31  1  0.065112  0.994753  0.174448  1
