# generated using pymatgen
data_Be5Si2NiMo4
_symmetry_space_group_name_H-M   'P 1'
_cell_length_a   4.52848608
_cell_length_b   4.56458289
_cell_length_c   7.55882200
_cell_angle_alpha   90.00000000
_cell_angle_beta   90.00000000
_cell_angle_gamma   120.26402273
_symmetry_Int_Tables_number   1
_chemical_formula_structural   Be5Si2NiMo4
_chemical_formula_sum   'Be5 Si2 Ni1 Mo4'
_cell_volume   134.95137072
_cell_formula_units_Z   1
loop_
 _symmetry_equiv_pos_site_id
 _symmetry_equiv_pos_as_xyz
  1  'x, y, z'
loop_
 _atom_site_type_symbol
 _atom_site_label
 _atom_site_symmetry_multiplicity
 _atom_site_fract_x
 _atom_site_fract_y
 _atom_site_fract_z
 _atom_site_occupancy
  Be  Be0  1  0.825314  0.171858  0.250000  1
  Be  Be1  1  0.825314  0.653456  0.250000  1
  Be  Be2  1  0.345792  0.172896  0.250000  1
  Be  Be3  1  0.176087  0.825006  0.750000  1
  Be  Be4  1  0.176087  0.351081  0.750000  1
  Si  Si5  1  0.998043  0.999021  0.501519  1
  Si  Si6  1  0.998043  0.999021  0.998481  1
  Ni  Ni7  1  0.669768  0.834884  0.750000  1
  Mo  Mo8  1  0.323960  0.661981  0.434426  1
  Mo  Mo9  1  0.668816  0.334407  0.558629  1
  Mo  Mo10  1  0.668816  0.334407  0.941371  1
  Mo  Mo11  1  0.323960  0.661981  0.065574  1
