# generated using pymatgen
data_TbTm3Zr4F28
_symmetry_space_group_name_H-M   'P 1'
_cell_length_a   5.71203685
_cell_length_b   9.03523198
_cell_length_c   12.15805712
_cell_angle_alpha   62.46496883
_cell_angle_beta   89.98021201
_cell_angle_gamma   90.02807126
_symmetry_Int_Tables_number   1
_chemical_formula_structural   TbTm3Zr4F28
_chemical_formula_sum   'Tb1 Tm3 Zr4 F28'
_cell_volume   556.39720347
_cell_formula_units_Z   1
loop_
 _symmetry_equiv_pos_site_id
 _symmetry_equiv_pos_as_xyz
  1  'x, y, z'
loop_
 _atom_site_type_symbol
 _atom_site_label
 _atom_site_symmetry_multiplicity
 _atom_site_fract_x
 _atom_site_fract_y
 _atom_site_fract_z
 _atom_site_occupancy
  Tb  Tb0  1  0.756658  0.817189  0.766104  1
  Tm  Tm1  1  0.743628  0.817886  0.265944  1
  Tm  Tm2  1  0.243670  0.183443  0.234121  1
  Tm  Tm3  1  0.257376  0.185475  0.733821  1
  Zr  Zr4  1  0.743979  0.276475  0.453552  1
  Zr  Zr5  1  0.244330  0.725350  0.047730  1
  Zr  Zr6  1  0.255065  0.725459  0.542691  1
  Zr  Zr7  1  0.755512  0.272139  0.955913  1
  F  F8  1  0.465909  0.710298  0.922336  1
  F  F9  1  0.968658  0.288786  0.579050  1
  F  F10  1  0.530038  0.287335  0.080052  1
  F  F11  1  0.030192  0.710928  0.418455  1
  F  F12  1  0.451509  0.280426  0.550818  1
  F  F13  1  0.951646  0.718167  0.952745  1
  F  F14  1  0.549691  0.720243  0.447539  1
  F  F15  1  0.047974  0.278440  0.052404  1
  F  F16  1  0.769101  0.524812  0.858279  1
  F  F17  1  0.267885  0.471864  0.641484  1
  F  F18  1  0.233932  0.471545  0.144250  1
  F  F19  1  0.732434  0.529403  0.355905  1
  F  F20  1  0.759504  0.019573  0.060020  1
  F  F21  1  0.259276  0.978443  0.439539  1
  F  F22  1  0.240099  0.977655  0.941285  1
  F  F23  1  0.739719  0.023665  0.556812  1
  F  F24  1  0.982278  0.732857  0.647986  1
  F  F25  1  0.482508  0.265732  0.849604  1
  F  F26  1  0.014732  0.265319  0.347708  1
  F  F27  1  0.516196  0.735038  0.153118  1
  F  F28  1  0.030905  0.747312  0.175750  1
  F  F29  1  0.529235  0.253588  0.325864  1
  F  F30  1  0.969626  0.251366  0.827139  1
  F  F31  1  0.464846  0.745286  0.672397  1
  F  F32  1  0.432418  0.975312  0.235762  1
  F  F33  1  0.932638  0.025527  0.264442  1
  F  F34  1  0.569693  0.031547  0.765168  1
  F  F35  1  0.077142  0.976114  0.734218  1
