# generated using pymatgen
data_LiY4Al3
_symmetry_space_group_name_H-M   'P 1'
_cell_length_a   6.27107511
_cell_length_b   6.27107540
_cell_length_c   7.23737300
_cell_angle_alpha   54.75710404
_cell_angle_beta   54.75710221
_cell_angle_gamma   70.48580749
_symmetry_Int_Tables_number   1
_chemical_formula_structural   LiY4Al3
_chemical_formula_sum   'Li1 Y4 Al3'
_cell_volume   189.84688455
_cell_formula_units_Z   1
loop_
 _symmetry_equiv_pos_site_id
 _symmetry_equiv_pos_as_xyz
  1  'x, y, z'
loop_
 _atom_site_type_symbol
 _atom_site_label
 _atom_site_symmetry_multiplicity
 _atom_site_fract_x
 _atom_site_fract_y
 _atom_site_fract_z
 _atom_site_occupancy
  Li  Li0  1  0.500000  0.500000  0.500000  1
  Y  Y1  1  0.500000  0.000000  0.000000  1
  Y  Y2  1  0.000000  0.500000  0.000000  1
  Y  Y3  1  0.500000  0.000000  0.500000  1
  Y  Y4  1  0.000000  0.500000  0.500000  1
  Al  Al5  1  0.000000  0.000000  0.000000  1
  Al  Al6  1  0.500000  0.500000  0.000000  1
  Al  Al7  1  0.000000  0.000000  0.500000  1
