# generated using pymatgen
data_Hf3Zr6Mo4N3
_symmetry_space_group_name_H-M   'P 1'
_cell_length_a   8.69093300
_cell_length_b   8.69093396
_cell_length_c   8.45189200
_cell_angle_alpha   90.00000000
_cell_angle_beta   90.00000000
_cell_angle_gamma   120.00000777
_symmetry_Int_Tables_number   1
_chemical_formula_structural   Hf3Zr6Mo4N3
_chemical_formula_sum   'Hf6 Zr12 Mo8 N6'
_cell_volume   552.86282452
_cell_formula_units_Z   2
loop_
 _symmetry_equiv_pos_site_id
 _symmetry_equiv_pos_as_xyz
  1  'x, y, z'
loop_
 _atom_site_type_symbol
 _atom_site_label
 _atom_site_symmetry_multiplicity
 _atom_site_fract_x
 _atom_site_fract_y
 _atom_site_fract_z
 _atom_site_occupancy
  Hf  Hf0  1  0.454664  0.909328  0.250000  1
  Hf  Hf1  1  0.545336  0.090672  0.750000  1
  Hf  Hf2  1  0.090672  0.545336  0.250000  1
  Hf  Hf3  1  0.909328  0.454664  0.750000  1
  Hf  Hf4  1  0.454664  0.545336  0.250000  1
  Hf  Hf5  1  0.545336  0.454664  0.750000  1
  Zr  Zr6  1  0.207020  0.414041  0.558765  1
  Zr  Zr7  1  0.792980  0.585959  0.441235  1
  Zr  Zr8  1  0.585959  0.792980  0.558765  1
  Zr  Zr9  1  0.792980  0.585959  0.058765  1
  Zr  Zr10  1  0.414041  0.207020  0.441235  1
  Zr  Zr11  1  0.207020  0.414041  0.941235  1
  Zr  Zr12  1  0.207020  0.792980  0.558765  1
  Zr  Zr13  1  0.414041  0.207020  0.058765  1
  Zr  Zr14  1  0.792980  0.207020  0.441235  1
  Zr  Zr15  1  0.585959  0.792980  0.941235  1
  Zr  Zr16  1  0.792980  0.207020  0.058765  1
  Zr  Zr17  1  0.207020  0.792980  0.941235  1
  Mo  Mo18  1  0.107395  0.214790  0.250000  1
  Mo  Mo19  1  0.892605  0.785210  0.750000  1
  Mo  Mo20  1  0.785210  0.892605  0.250000  1
  Mo  Mo21  1  0.214790  0.107395  0.750000  1
  Mo  Mo22  1  0.107395  0.892605  0.250000  1
  Mo  Mo23  1  0.892605  0.107395  0.750000  1
  Mo  Mo24  1  0.000000  0.000000  0.000000  1
  Mo  Mo25  1  0.000000  0.000000  0.500000  1
  N  N26  1  0.500000  0.000000  0.000000  1
  N  N27  1  0.000000  0.500000  0.000000  1
  N  N28  1  0.500000  0.000000  0.500000  1
  N  N29  1  0.500000  0.500000  0.000000  1
  N  N30  1  0.000000  0.500000  0.500000  1
  N  N31  1  0.500000  0.500000  0.500000  1
