# generated using pymatgen
data_Y3Er5Cd2NiIr
_symmetry_space_group_name_H-M   'P 1'
_cell_length_a   9.53853724
_cell_length_b   9.53853766
_cell_length_c   9.58690500
_cell_angle_alpha   59.83212287
_cell_angle_beta   59.83212141
_cell_angle_gamma   59.59350296
_symmetry_Int_Tables_number   1
_chemical_formula_structural   Y3Er5Cd2NiIr
_chemical_formula_sum   'Y6 Er10 Cd4 Ni2 Ir2'
_cell_volume   613.30301805
_cell_formula_units_Z   2
loop_
 _symmetry_equiv_pos_site_id
 _symmetry_equiv_pos_as_xyz
  1  'x, y, z'
loop_
 _atom_site_type_symbol
 _atom_site_label
 _atom_site_symmetry_multiplicity
 _atom_site_fract_x
 _atom_site_fract_y
 _atom_site_fract_z
 _atom_site_occupancy
  Y  Y0  1  0.188339  0.810200  0.814917  1
  Y  Y1  1  0.810200  0.188339  0.186544  1
  Y  Y2  1  0.810200  0.188339  0.814917  1
  Y  Y3  1  0.188339  0.810200  0.186544  1
  Y  Y4  1  0.814813  0.814813  0.185187  1
  Y  Y5  1  0.189908  0.189908  0.810092  1
  Er  Er6  1  0.600079  0.600079  0.594352  1
  Er  Er7  1  0.600079  0.600079  0.205489  1
  Er  Er8  1  0.602765  0.203193  0.597021  1
  Er  Er9  1  0.203193  0.602765  0.597021  1
  Er  Er10  1  0.059527  0.436994  0.440354  1
  Er  Er11  1  0.436994  0.059527  0.063124  1
  Er  Er12  1  0.436994  0.059527  0.440354  1
  Er  Er13  1  0.059527  0.436994  0.063124  1
  Er  Er14  1  0.438861  0.438861  0.061139  1
  Er  Er15  1  0.061567  0.061567  0.438433  1
  Cd  Cd16  1  0.829699  0.829699  0.832502  1
  Cd  Cd17  1  0.829699  0.829699  0.508098  1
  Cd  Cd18  1  0.830029  0.506477  0.831747  1
  Cd  Cd19  1  0.506477  0.830029  0.831747  1
  Ni  Ni20  1  0.391834  0.824916  0.391625  1
  Ni  Ni21  1  0.824916  0.391834  0.391625  1
  Ir  Ir22  1  0.392979  0.392979  0.391273  1
  Ir  Ir23  1  0.392979  0.392979  0.822770  1
