# generated using pymatgen
data_Gd2Ho3Er3(P3Ir4)4
_symmetry_space_group_name_H-M   'P 1'
_cell_length_a   12.97316000
_cell_length_b   12.97316076
_cell_length_c   4.00217000
_cell_angle_alpha   90.00000000
_cell_angle_beta   90.00000000
_cell_angle_gamma   119.99999807
_symmetry_Int_Tables_number   1
_chemical_formula_structural   Gd2Ho3Er3(P3Ir4)4
_chemical_formula_sum   'Gd2 Ho3 Er3 P12 Ir16'
_cell_volume   583.33461250
_cell_formula_units_Z   1
loop_
 _symmetry_equiv_pos_site_id
 _symmetry_equiv_pos_as_xyz
  1  'x, y, z'
loop_
 _atom_site_type_symbol
 _atom_site_label
 _atom_site_symmetry_multiplicity
 _atom_site_fract_x
 _atom_site_fract_y
 _atom_site_fract_z
 _atom_site_occupancy
  Gd  Gd0  1  0.333333  0.666667  0.500000  1
  Gd  Gd1  1  0.666667  0.333333  0.500000  1
  Ho  Ho2  1  0.000000  0.814482  0.000000  1
  Ho  Ho3  1  0.185518  0.185518  0.000000  1
  Ho  Ho4  1  0.814482  0.000000  0.000000  1
  Er  Er5  1  0.000000  0.445864  0.500000  1
  Er  Er6  1  0.554136  0.554136  0.500000  1
  Er  Er7  1  0.445864  0.000000  0.500000  1
  P  P8  1  0.000000  0.652471  0.500000  1
  P  P9  1  0.347529  0.347529  0.500000  1
  P  P10  1  0.652471  0.000000  0.500000  1
  P  P11  1  0.517529  0.688914  0.000000  1
  P  P12  1  0.311086  0.828614  0.000000  1
  P  P13  1  0.171386  0.482471  0.000000  1
  P  P14  1  0.482471  0.171386  0.000000  1
  P  P15  1  0.688914  0.517529  0.000000  1
  P  P16  1  0.828614  0.311086  0.000000  1
  P  P17  1  0.000000  0.175977  0.500000  1
  P  P18  1  0.824023  0.824023  0.500000  1
  P  P19  1  0.175977  0.000000  0.500000  1
  Ir  Ir20  1  0.509966  0.866601  0.000000  1
  Ir  Ir21  1  0.133399  0.643366  0.000000  1
  Ir  Ir22  1  0.356634  0.490034  0.000000  1
  Ir  Ir23  1  0.490034  0.356634  0.000000  1
  Ir  Ir24  1  0.866601  0.509966  0.000000  1
  Ir  Ir25  1  0.643366  0.133399  0.000000  1
  Ir  Ir26  1  0.000000  0.273977  0.000000  1
  Ir  Ir27  1  0.726023  0.726023  0.000000  1
  Ir  Ir28  1  0.273977  0.000000  0.000000  1
  Ir  Ir29  1  0.631292  0.809835  0.500000  1
  Ir  Ir30  1  0.190165  0.821458  0.500000  1
  Ir  Ir31  1  0.178542  0.368708  0.500000  1
  Ir  Ir32  1  0.368708  0.178542  0.500000  1
  Ir  Ir33  1  0.809835  0.631292  0.500000  1
  Ir  Ir34  1  0.821458  0.190165  0.500000  1
  Ir  Ir35  1  0.000000  0.000000  0.500000  1
