# generated using pymatgen
data_La4NdP12PdRu18
_symmetry_space_group_name_H-M   'P 1'
_cell_length_a   12.74618508
_cell_length_b   12.65034196
_cell_length_c   4.03903700
_cell_angle_alpha   90.00000000
_cell_angle_beta   90.00000000
_cell_angle_gamma   119.76113539
_symmetry_Int_Tables_number   1
_chemical_formula_structural   La4NdP12PdRu18
_chemical_formula_sum   'La4 Nd1 P12 Pd1 Ru18'
_cell_volume   565.36803904
_cell_formula_units_Z   1
loop_
 _symmetry_equiv_pos_site_id
 _symmetry_equiv_pos_as_xyz
  1  'x, y, z'
loop_
 _atom_site_type_symbol
 _atom_site_label
 _atom_site_symmetry_multiplicity
 _atom_site_fract_x
 _atom_site_fract_y
 _atom_site_fract_z
 _atom_site_occupancy
  La  La0  1  0.000401  0.181828  0.500000  1
  La  La1  1  0.817015  0.815865  0.500000  1
  La  La2  1  0.183054  0.998976  0.500000  1
  La  La3  1  0.662113  0.330787  0.000000  1
  Nd  Nd4  1  0.337930  0.668496  0.000000  1
  P  P5  1  0.000310  0.807434  0.000000  1
  P  P6  1  0.187198  0.188881  0.000000  1
  P  P7  1  0.812240  0.000852  0.000000  1
  P  P8  1  0.694334  0.171494  0.500000  1
  P  P9  1  0.819994  0.522570  0.500000  1
  P  P10  1  0.472448  0.304382  0.500000  1
  P  P11  1  0.181069  0.702141  0.500000  1
  P  P12  1  0.526486  0.830568  0.500000  1
  P  P13  1  0.305802  0.478741  0.500000  1
  P  P14  1  0.999859  0.368582  0.000000  1
  P  P15  1  0.622797  0.623722  0.000000  1
  P  P16  1  0.377072  0.000966  0.000000  1
  Pd  Pd17  1  0.999967  0.552606  0.000000  1
  Ru  Ru18  1  0.443732  0.445692  0.000000  1
  Ru  Ru19  1  0.555741  0.001169  0.000000  1
  Ru  Ru20  1  0.000502  0.708646  0.500000  1
  Ru  Ru21  1  0.284383  0.286961  0.500000  1
  Ru  Ru22  1  0.715273  0.001559  0.500000  1
  Ru  Ru23  1  0.805064  0.185559  0.000000  1
  Ru  Ru24  1  0.814502  0.619636  0.000000  1
  Ru  Ru25  1  0.376169  0.193284  0.000000  1
  Ru  Ru26  1  0.186358  0.804820  0.000000  1
  Ru  Ru27  1  0.623114  0.816626  0.000000  1
  Ru  Ru28  1  0.194900  0.381424  0.000000  1
  Ru  Ru29  1  0.876409  0.368252  0.500000  1
  Ru  Ru30  1  0.629229  0.509044  0.500000  1
  Ru  Ru31  1  0.490714  0.125187  0.500000  1
  Ru  Ru32  1  0.371038  0.878199  0.500000  1
  Ru  Ru33  1  0.508117  0.634304  0.500000  1
  Ru  Ru34  1  0.124841  0.493671  0.500000  1
  Ru  Ru35  1  0.999823  0.997075  0.000000  1
