# generated using pymatgen
data_LiEu2AlAu2
_symmetry_space_group_name_H-M   'P 1'
_cell_length_a   4.54798000
_cell_length_b   7.47305500
_cell_length_c   8.25254200
_cell_angle_alpha   90.00000000
_cell_angle_beta   90.00000000
_cell_angle_gamma   90.00000000
_symmetry_Int_Tables_number   1
_chemical_formula_structural   LiEu2AlAu2
_chemical_formula_sum   'Li2 Eu4 Al2 Au4'
_cell_volume   280.48165933
_cell_formula_units_Z   2
loop_
 _symmetry_equiv_pos_site_id
 _symmetry_equiv_pos_as_xyz
  1  'x, y, z'
loop_
 _atom_site_type_symbol
 _atom_site_label
 _atom_site_symmetry_multiplicity
 _atom_site_fract_x
 _atom_site_fract_y
 _atom_site_fract_z
 _atom_site_occupancy
  Li  Li0  1  0.250000  0.148406  0.928196  1
  Li  Li1  1  0.250000  0.648406  0.571804  1
  Eu  Eu2  1  0.250000  0.017102  0.315776  1
  Eu  Eu3  1  0.250000  0.517102  0.184224  1
  Eu  Eu4  1  0.750000  0.984879  0.686378  1
  Eu  Eu5  1  0.750000  0.484879  0.813622  1
  Al  Al6  1  0.750000  0.852078  0.066447  1
  Al  Al7  1  0.750000  0.352078  0.433553  1
  Au  Au8  1  0.250000  0.287432  0.598882  1
  Au  Au9  1  0.250000  0.787432  0.901118  1
  Au  Au10  1  0.750000  0.710104  0.382661  1
  Au  Au11  1  0.750000  0.210104  0.117339  1
