# generated using pymatgen
data_TbEr(Ga3Rh)3
_symmetry_space_group_name_H-M   'P 1'
_cell_length_a   7.55484454
_cell_length_b   7.55886700
_cell_length_c   9.54158600
_cell_angle_alpha   90.00000000
_cell_angle_beta   90.00000000
_cell_angle_gamma   119.77902180
_symmetry_Int_Tables_number   1
_chemical_formula_structural   TbEr(Ga3Rh)3
_chemical_formula_sum   'Tb2 Er2 Ga18 Rh6'
_cell_volume   472.92926581
_cell_formula_units_Z   2
loop_
 _symmetry_equiv_pos_site_id
 _symmetry_equiv_pos_as_xyz
  1  'x, y, z'
loop_
 _atom_site_type_symbol
 _atom_site_label
 _atom_site_symmetry_multiplicity
 _atom_site_fract_x
 _atom_site_fract_y
 _atom_site_fract_z
 _atom_site_occupancy
  Tb  Tb0  1  0.997212  0.668357  0.250000  1
  Tb  Tb1  1  0.002788  0.331643  0.750000  1
  Er  Er2  1  0.668212  0.997164  0.250000  1
  Er  Er3  1  0.331788  0.002836  0.750000  1
  Ga  Ga4  1  0.125071  0.125310  0.250000  1
  Ga  Ga5  1  0.874929  0.874690  0.750000  1
  Ga  Ga6  1  0.999871  0.333606  0.079996  1
  Ga  Ga7  1  0.000129  0.666394  0.920004  1
  Ga  Ga8  1  0.000129  0.666394  0.579996  1
  Ga  Ga9  1  0.334669  0.000376  0.420331  1
  Ga  Ga10  1  0.999871  0.333606  0.420004  1
  Ga  Ga11  1  0.665331  0.999624  0.579669  1
  Ga  Ga12  1  0.665331  0.999624  0.920331  1
  Ga  Ga13  1  0.334669  0.000376  0.079669  1
  Ga  Ga14  1  0.333323  0.332861  0.564138  1
  Ga  Ga15  1  0.666677  0.667139  0.435862  1
  Ga  Ga16  1  0.666677  0.667139  0.064138  1
  Ga  Ga17  1  0.333323  0.332861  0.935862  1
  Ga  Ga18  1  0.338641  0.547633  0.250000  1
  Ga  Ga19  1  0.661359  0.452367  0.750000  1
  Ga  Ga20  1  0.547151  0.337898  0.250000  1
  Ga  Ga21  1  0.452849  0.662102  0.750000  1
  Rh  Rh22  1  0.671640  0.328243  0.000001  1
  Rh  Rh23  1  0.328360  0.671757  0.999999  1
  Rh  Rh24  1  0.328360  0.671757  0.500001  1
  Rh  Rh25  1  0.671640  0.328243  0.499999  1
  Rh  Rh26  1  0.000000  0.000000  0.000000  1
  Rh  Rh27  1  0.000000  0.000000  0.500000  1
