# generated using pymatgen
data_Tc3SnAs6
_symmetry_space_group_name_H-M   'P 1'
_cell_length_a   7.72256632
_cell_length_b   7.72256655
_cell_length_c   7.72241013
_cell_angle_alpha   108.73570559
_cell_angle_beta   108.73570934
_cell_angle_gamma   110.95326874
_symmetry_Int_Tables_number   1
_chemical_formula_structural   Tc3SnAs6
_chemical_formula_sum   'Tc6 Sn2 As12'
_cell_volume   354.34926182
_cell_formula_units_Z   2
loop_
 _symmetry_equiv_pos_site_id
 _symmetry_equiv_pos_as_xyz
  1  'x, y, z'
loop_
 _atom_site_type_symbol
 _atom_site_label
 _atom_site_symmetry_multiplicity
 _atom_site_fract_x
 _atom_site_fract_y
 _atom_site_fract_z
 _atom_site_occupancy
  Tc  Tc0  1  0.338221  0.008795  0.347016  1
  Tc  Tc1  1  0.008795  0.338221  0.347016  1
  Tc  Tc2  1  0.008975  0.661459  0.670434  1
  Tc  Tc3  1  0.323650  0.323650  0.983390  1
  Tc  Tc4  1  0.659739  0.659739  0.983390  1
  Tc  Tc5  1  0.661459  0.008975  0.670434  1
  Sn  Sn6  1  0.749879  0.495838  0.245717  1
  Sn  Sn7  1  0.495838  0.749879  0.245717  1
  As  As8  1  0.496778  0.251085  0.747863  1
  As  As9  1  0.753689  0.253689  0.507378  1
  As  As10  1  0.253689  0.753689  0.507378  1
  As  As11  1  0.251085  0.496778  0.747863  1
  As  As12  1  0.993695  0.993695  0.324742  1
  As  As13  1  0.672957  0.002655  0.004362  1
  As  As14  1  0.002655  0.672957  0.004362  1
  As  As15  1  0.331047  0.331047  0.324742  1
  As  As16  1  0.001707  0.331405  0.004362  1
  As  As17  1  0.673217  0.673217  0.664737  1
  As  As18  1  0.331405  0.001707  0.004362  1
  As  As19  1  0.991520  0.991520  0.664737  1
