# generated using pymatgen
data_Nb12Ga9Ni3N4
_symmetry_space_group_name_H-M   'P 1'
_cell_length_a   8.23819300
_cell_length_b   8.24111767
_cell_length_c   8.24111700
_cell_angle_alpha   59.99999869
_cell_angle_beta   59.98825423
_cell_angle_gamma   59.98824873
_symmetry_Int_Tables_number   1
_chemical_formula_structural   Nb12Ga9Ni3N4
_chemical_formula_sum   'Nb12 Ga9 Ni3 N4'
_cell_volume   395.55967468
_cell_formula_units_Z   1
loop_
 _symmetry_equiv_pos_site_id
 _symmetry_equiv_pos_as_xyz
  1  'x, y, z'
loop_
 _atom_site_type_symbol
 _atom_site_label
 _atom_site_symmetry_multiplicity
 _atom_site_fract_x
 _atom_site_fract_y
 _atom_site_fract_z
 _atom_site_occupancy
  Nb  Nb0  1  0.816943  0.813759  0.184650  1
  Nb  Nb1  1  0.184954  0.195690  0.809678  1
  Nb  Nb2  1  0.816943  0.184650  0.813759  1
  Nb  Nb3  1  0.184954  0.809678  0.195690  1
  Nb  Nb4  1  0.184954  0.809678  0.809678  1
  Nb  Nb5  1  0.816943  0.184650  0.184650  1
  Nb  Nb6  1  0.433057  0.436241  0.065350  1
  Nb  Nb7  1  0.065046  0.054310  0.440322  1
  Nb  Nb8  1  0.433057  0.065350  0.436241  1
  Nb  Nb9  1  0.065046  0.440322  0.054310  1
  Nb  Nb10  1  0.065046  0.440322  0.440322  1
  Nb  Nb11  1  0.433057  0.065350  0.065350  1
  Ga  Ga12  1  0.125000  0.625000  0.625000  1
  Ga  Ga13  1  0.760060  0.413314  0.413314  1
  Ga  Ga14  1  0.432260  0.753210  0.407266  1
  Ga  Ga15  1  0.432260  0.407266  0.753210  1
  Ga  Ga16  1  0.432260  0.407266  0.407266  1
  Ga  Ga17  1  0.489940  0.836686  0.836686  1
  Ga  Ga18  1  0.817740  0.496790  0.842734  1
  Ga  Ga19  1  0.817740  0.842734  0.496790  1
  Ga  Ga20  1  0.817740  0.842734  0.842734  1
  Ni  Ni21  1  0.625000  0.125000  0.625000  1
  Ni  Ni22  1  0.625000  0.625000  0.125000  1
  Ni  Ni23  1  0.625000  0.625000  0.625000  1
  N  N24  1  0.625000  0.125000  0.125000  1
  N  N25  1  0.125000  0.625000  0.125000  1
  N  N26  1  0.125000  0.125000  0.625000  1
  N  N27  1  0.125000  0.125000  0.125000  1
