# generated using pymatgen
data_Tm4Sc8In2Fe2Ru
_symmetry_space_group_name_H-M   'P 1'
_cell_length_a   7.96593084
_cell_length_b   7.96593125
_cell_length_c   7.96593109
_cell_angle_alpha   108.30476551
_cell_angle_beta   108.30475936
_cell_angle_gamma   111.83020099
_symmetry_Int_Tables_number   1
_chemical_formula_structural   Tm4Sc8In2Fe2Ru
_chemical_formula_sum   'Tm4 Sc8 In2 Fe2 Ru1'
_cell_volume   388.62680547
_cell_formula_units_Z   1
loop_
 _symmetry_equiv_pos_site_id
 _symmetry_equiv_pos_as_xyz
  1  'x, y, z'
loop_
 _atom_site_type_symbol
 _atom_site_label
 _atom_site_symmetry_multiplicity
 _atom_site_fract_x
 _atom_site_fract_y
 _atom_site_fract_z
 _atom_site_occupancy
  Tm  Tm0  1  0.303828  0.303828  0.607657  1
  Tm  Tm1  1  0.696172  0.696172  0.392343  1
  Tm  Tm2  1  0.696172  0.303828  0.000000  1
  Tm  Tm3  1  0.303828  0.696172  0.000000  1
  Sc  Sc4  1  0.191272  0.426307  0.235034  1
  Sc  Sc5  1  0.808728  0.573693  0.764966  1
  Sc  Sc6  1  0.191272  0.956238  0.764966  1
  Sc  Sc7  1  0.956238  0.191272  0.764966  1
  Sc  Sc8  1  0.808728  0.043762  0.235034  1
  Sc  Sc9  1  0.043762  0.808728  0.235034  1
  Sc  Sc10  1  0.426307  0.191272  0.235034  1
  Sc  Sc11  1  0.573693  0.808728  0.764966  1
  In  In12  1  0.000000  0.500000  0.500000  1
  In  In13  1  0.500000  0.000000  0.500000  1
  Fe  Fe14  1  0.377900  0.377900  0.000000  1
  Fe  Fe15  1  0.622100  0.622100  0.000000  1
  Ru  Ru16  1  0.000000  0.000000  0.000000  1
