# generated using pymatgen
data_Lu2Tc6Ni6P7
_symmetry_space_group_name_H-M   'P 1'
_cell_length_a   9.34481200
_cell_length_b   9.34481236
_cell_length_c   3.70438800
_cell_angle_alpha   90.00000000
_cell_angle_beta   90.00000000
_cell_angle_gamma   120.00000486
_symmetry_Int_Tables_number   1
_chemical_formula_structural   Lu2Tc6Ni6P7
_chemical_formula_sum   'Lu2 Tc6 Ni6 P7'
_cell_volume   280.14845584
_cell_formula_units_Z   1
loop_
 _symmetry_equiv_pos_site_id
 _symmetry_equiv_pos_as_xyz
  1  'x, y, z'
loop_
 _atom_site_type_symbol
 _atom_site_label
 _atom_site_symmetry_multiplicity
 _atom_site_fract_x
 _atom_site_fract_y
 _atom_site_fract_z
 _atom_site_occupancy
  Lu  Lu0  1  0.666667  0.333333  0.500000  1
  Lu  Lu1  1  0.333333  0.666667  0.000000  1
  Tc  Tc2  1  0.393542  0.437030  0.500000  1
  Tc  Tc3  1  0.043488  0.606458  0.500000  1
  Tc  Tc4  1  0.562970  0.956512  0.500000  1
  Tc  Tc5  1  0.209960  0.085998  0.500000  1
  Tc  Tc6  1  0.876039  0.790040  0.500000  1
  Tc  Tc7  1  0.914002  0.123961  0.500000  1
  Ni  Ni8  1  0.428247  0.065937  0.000000  1
  Ni  Ni9  1  0.637691  0.571753  0.000000  1
  Ni  Ni10  1  0.934063  0.362309  0.000000  1
  Ni  Ni11  1  0.160366  0.278200  0.000000  1
  Ni  Ni12  1  0.117835  0.839634  0.000000  1
  Ni  Ni13  1  0.721800  0.882165  0.000000  1
  P  P14  1  0.000000  0.000000  0.000000  1
  P  P15  1  0.414333  0.295572  0.000000  1
  P  P16  1  0.881239  0.585667  0.000000  1
  P  P17  1  0.704428  0.118761  0.000000  1
  P  P18  1  0.123395  0.405922  0.500000  1
  P  P19  1  0.282527  0.876605  0.500000  1
  P  P20  1  0.594078  0.717473  0.500000  1
