# generated using pymatgen
data_Y4Zr3GaIr4
_symmetry_space_group_name_H-M   'P 1'
_cell_length_a   4.47100900
_cell_length_b   7.12346069
_cell_length_c   8.25494992
_cell_angle_alpha   93.55994333
_cell_angle_beta   90.00000000
_cell_angle_gamma   90.00000000
_symmetry_Int_Tables_number   1
_chemical_formula_structural   Y4Zr3GaIr4
_chemical_formula_sum   'Y4 Zr3 Ga1 Ir4'
_cell_volume   262.40504900
_cell_formula_units_Z   1
loop_
 _symmetry_equiv_pos_site_id
 _symmetry_equiv_pos_as_xyz
  1  'x, y, z'
loop_
 _atom_site_type_symbol
 _atom_site_label
 _atom_site_symmetry_multiplicity
 _atom_site_fract_x
 _atom_site_fract_y
 _atom_site_fract_z
 _atom_site_occupancy
  Y  Y0  1  0.250000  0.983973  0.315039  1
  Y  Y1  1  0.250000  0.459645  0.166025  1
  Y  Y2  1  0.750000  0.033400  0.688033  1
  Y  Y3  1  0.750000  0.504939  0.836623  1
  Zr  Zr4  1  0.250000  0.366809  0.572646  1
  Zr  Zr5  1  0.250000  0.860111  0.937713  1
  Zr  Zr6  1  0.750000  0.641814  0.425549  1
  Ga  Ga7  1  0.750000  0.142125  0.072249  1
  Ir  Ir8  1  0.250000  0.228263  0.875622  1
  Ir  Ir9  1  0.250000  0.741442  0.601423  1
  Ir  Ir10  1  0.750000  0.769707  0.113714  1
  Ir  Ir11  1  0.750000  0.267773  0.395363  1
