# generated using pymatgen
data_Sr7Ca13Pd16
_symmetry_space_group_name_H-M   'P 1'
_cell_length_a   7.82209706
_cell_length_b   8.00296001
_cell_length_c   15.22145500
_cell_angle_alpha   90.06694685
_cell_angle_beta   89.99297546
_cell_angle_gamma   90.18684540
_symmetry_Int_Tables_number   1
_chemical_formula_structural   Sr7Ca13Pd16
_chemical_formula_sum   'Sr7 Ca13 Pd16'
_cell_volume   952.85629342
_cell_formula_units_Z   1
loop_
 _symmetry_equiv_pos_site_id
 _symmetry_equiv_pos_as_xyz
  1  'x, y, z'
loop_
 _atom_site_type_symbol
 _atom_site_label
 _atom_site_symmetry_multiplicity
 _atom_site_fract_x
 _atom_site_fract_y
 _atom_site_fract_z
 _atom_site_occupancy
  Sr  Sr0  1  0.495793  0.320627  0.403450  1
  Sr  Sr1  1  0.504120  0.678146  0.905127  1
  Sr  Sr2  1  0.004000  0.821207  0.595503  1
  Sr  Sr3  1  0.003961  0.824378  0.906508  1
  Sr  Sr4  1  0.503803  0.678309  0.595357  1
  Sr  Sr5  1  0.495867  0.320207  0.095151  1
  Sr  Sr6  1  0.996035  0.177925  0.404319  1
  Ca  Ca7  1  0.831826  0.666543  0.122670  1
  Ca  Ca8  1  0.331927  0.832988  0.376155  1
  Ca  Ca9  1  0.669265  0.167628  0.878082  1
  Ca  Ca10  1  0.167933  0.333096  0.622997  1
  Ca  Ca11  1  0.166195  0.331183  0.879081  1
  Ca  Ca12  1  0.667610  0.167668  0.622636  1
  Ca  Ca13  1  0.328871  0.835464  0.121807  1
  Ca  Ca14  1  0.832485  0.666750  0.376817  1
  Ca  Ca15  1  0.993383  0.181770  0.097898  1
  Ca  Ca16  1  0.672705  0.002348  0.248210  1
  Ca  Ca17  1  0.169923  0.496260  0.248288  1
  Ca  Ca18  1  0.829322  0.502769  0.750882  1
  Ca  Ca19  1  0.329449  0.998239  0.750424  1
  Pd  Pd20  1  0.038390  0.887032  0.248427  1
  Pd  Pd21  1  0.540221  0.613893  0.249332  1
  Pd  Pd22  1  0.459167  0.384990  0.750946  1
  Pd  Pd23  1  0.959591  0.115640  0.750132  1
  Pd  Pd24  1  0.794488  0.364935  0.248177  1
  Pd  Pd25  1  0.287607  0.133527  0.247729  1
  Pd  Pd26  1  0.708397  0.867593  0.750155  1
  Pd  Pd27  1  0.208159  0.632801  0.750748  1
  Pd  Pd28  1  0.837596  0.462163  0.960892  1
  Pd  Pd29  1  0.336214  0.035472  0.540676  1
  Pd  Pd30  1  0.669499  0.967241  0.042034  1
  Pd  Pd31  1  0.164628  0.535408  0.458784  1
  Pd  Pd32  1  0.161406  0.531641  0.042112  1
  Pd  Pd33  1  0.663818  0.963585  0.458842  1
  Pd  Pd34  1  0.339467  0.035972  0.958695  1
  Pd  Pd35  1  0.836879  0.464601  0.540959  1
