# generated using pymatgen
data_SrNd3(Pt2O7)2
_symmetry_space_group_name_H-M   'P 1'
_cell_length_a   7.43930480
_cell_length_b   7.46684588
_cell_length_c   7.46684500
_cell_angle_alpha   59.99999946
_cell_angle_beta   59.87745912
_cell_angle_gamma   59.87745737
_symmetry_Int_Tables_number   1
_chemical_formula_structural   SrNd3(Pt2O7)2
_chemical_formula_sum   'Sr1 Nd3 Pt4 O14'
_cell_volume   292.74182811
_cell_formula_units_Z   1
loop_
 _symmetry_equiv_pos_site_id
 _symmetry_equiv_pos_as_xyz
  1  'x, y, z'
loop_
 _atom_site_type_symbol
 _atom_site_label
 _atom_site_symmetry_multiplicity
 _atom_site_fract_x
 _atom_site_fract_y
 _atom_site_fract_z
 _atom_site_occupancy
  Sr  Sr0  1  0.125000  0.625000  0.625000  1
  Nd  Nd1  1  0.625000  0.625000  0.125000  1
  Nd  Nd2  1  0.625000  0.125000  0.625000  1
  Nd  Nd3  1  0.625000  0.625000  0.625000  1
  Pt  Pt4  1  0.125000  0.125000  0.625000  1
  Pt  Pt5  1  0.125000  0.625000  0.125000  1
  Pt  Pt6  1  0.625000  0.125000  0.125000  1
  Pt  Pt7  1  0.125000  0.125000  0.125000  1
  O  O8  1  0.512236  0.495921  0.495921  1
  O  O9  1  0.737764  0.754079  0.754079  1
  O  O10  1  0.459950  0.041333  0.457384  1
  O  O11  1  0.211881  0.795472  0.197174  1
  O  O12  1  0.459950  0.457384  0.041333  1
  O  O13  1  0.038119  0.454528  0.454528  1
  O  O14  1  0.459950  0.041333  0.041333  1
  O  O15  1  0.038119  0.052826  0.454528  1
  O  O16  1  0.038119  0.454528  0.052826  1
  O  O17  1  0.790050  0.208667  0.208667  1
  O  O18  1  0.211881  0.795472  0.795472  1
  O  O19  1  0.790050  0.208667  0.792616  1
  O  O20  1  0.211881  0.197174  0.795472  1
  O  O21  1  0.790050  0.792616  0.208667  1
