# generated using pymatgen
data_Pr6Hg9Pb
_symmetry_space_group_name_H-M   'P 1'
_cell_length_a   6.57369545
_cell_length_b   6.57369632
_cell_length_c   10.75061105
_cell_angle_alpha   88.91118797
_cell_angle_beta   88.91118782
_cell_angle_gamma   104.89883434
_symmetry_Int_Tables_number   1
_chemical_formula_structural   Pr6Hg9Pb
_chemical_formula_sum   'Pr6 Hg9 Pb1'
_cell_volume   448.73474264
_cell_formula_units_Z   1
loop_
 _symmetry_equiv_pos_site_id
 _symmetry_equiv_pos_as_xyz
  1  'x, y, z'
loop_
 _atom_site_type_symbol
 _atom_site_label
 _atom_site_symmetry_multiplicity
 _atom_site_fract_x
 _atom_site_fract_y
 _atom_site_fract_z
 _atom_site_occupancy
  Pr  Pr0  1  0.603697  0.603697  0.255388  1
  Pr  Pr1  1  0.400559  0.400559  0.742732  1
  Pr  Pr2  1  0.203450  0.796650  0.499291  1
  Pr  Pr3  1  0.197719  0.791325  0.996439  1
  Pr  Pr4  1  0.796650  0.203450  0.499291  1
  Pr  Pr5  1  0.791325  0.197719  0.996439  1
  Hg  Hg6  1  0.997536  0.997536  0.253025  1
  Hg  Hg7  1  0.001034  0.001034  0.745119  1
  Hg  Hg8  1  0.695970  0.695970  0.964020  1
  Hg  Hg9  1  0.304483  0.304483  0.465428  1
  Hg  Hg10  1  0.700501  0.700501  0.534882  1
  Hg  Hg11  1  0.485902  0.054129  0.254300  1
  Hg  Hg12  1  0.943166  0.513850  0.749596  1
  Hg  Hg13  1  0.513850  0.943166  0.749596  1
  Hg  Hg14  1  0.054129  0.485902  0.254300  1
  Pb  Pb15  1  0.310029  0.310029  0.040153  1
