# generated using pymatgen
data_Tb2Dy2Ga4Ru3Au
_symmetry_space_group_name_H-M   'P 1'
_cell_length_a   4.29455900
_cell_length_b   6.98435247
_cell_length_c   7.89172953
_cell_angle_alpha   89.77689143
_cell_angle_beta   90.00000000
_cell_angle_gamma   90.00000000
_symmetry_Int_Tables_number   1
_chemical_formula_structural   Tb2Dy2Ga4Ru3Au
_chemical_formula_sum   'Tb2 Dy2 Ga4 Ru3 Au1'
_cell_volume   236.70837368
_cell_formula_units_Z   1
loop_
 _symmetry_equiv_pos_site_id
 _symmetry_equiv_pos_as_xyz
  1  'x, y, z'
loop_
 _atom_site_type_symbol
 _atom_site_label
 _atom_site_symmetry_multiplicity
 _atom_site_fract_x
 _atom_site_fract_y
 _atom_site_fract_z
 _atom_site_occupancy
  Tb  Tb0  1  0.250000  0.017208  0.319901  1
  Tb  Tb1  1  0.250000  0.533269  0.193492  1
  Dy  Dy2  1  0.750000  0.977435  0.687863  1
  Dy  Dy3  1  0.750000  0.483238  0.800880  1
  Ga  Ga4  1  0.250000  0.150788  0.919122  1
  Ga  Ga5  1  0.250000  0.662980  0.570860  1
  Ga  Ga6  1  0.750000  0.824581  0.068051  1
  Ga  Ga7  1  0.750000  0.343617  0.439628  1
  Ru  Ru8  1  0.250000  0.278652  0.610926  1
  Ru  Ru9  1  0.250000  0.771752  0.890982  1
  Ru  Ru10  1  0.750000  0.729987  0.389448  1
  Au  Au11  1  0.750000  0.226495  0.108850  1
