# generated using pymatgen
data_Er16MgCd2Ni4Hg
_symmetry_space_group_name_H-M   'P 1'
_cell_length_a   9.47796261
_cell_length_b   9.44802823
_cell_length_c   9.45749400
_cell_angle_alpha   59.96684560
_cell_angle_beta   60.07140634
_cell_angle_gamma   60.07690248
_symmetry_Int_Tables_number   1
_chemical_formula_structural   Er16MgCd2Ni4Hg
_chemical_formula_sum   'Er16 Mg1 Cd2 Ni4 Hg1'
_cell_volume   599.36852901
_cell_formula_units_Z   1
loop_
 _symmetry_equiv_pos_site_id
 _symmetry_equiv_pos_as_xyz
  1  'x, y, z'
loop_
 _atom_site_type_symbol
 _atom_site_label
 _atom_site_symmetry_multiplicity
 _atom_site_fract_x
 _atom_site_fract_y
 _atom_site_fract_z
 _atom_site_occupancy
  Er  Er0  1  0.184907  0.816035  0.813887  1
  Er  Er1  1  0.813638  0.188208  0.183962  1
  Er  Er2  1  0.813638  0.188208  0.814192  1
  Er  Er3  1  0.184907  0.816035  0.185170  1
  Er  Er4  1  0.815070  0.815269  0.184830  1
  Er  Er5  1  0.188012  0.189186  0.811401  1
  Er  Er6  1  0.596617  0.596962  0.596584  1
  Er  Er7  1  0.596617  0.596962  0.209836  1
  Er  Er8  1  0.602695  0.203111  0.597097  1
  Er  Er9  1  0.196032  0.602721  0.600623  1
  Er  Er10  1  0.060716  0.441142  0.439567  1
  Er  Er11  1  0.437827  0.062761  0.061760  1
  Er  Er12  1  0.437827  0.062761  0.437654  1
  Er  Er13  1  0.060716  0.441142  0.058573  1
  Er  Er14  1  0.437413  0.439123  0.061732  1
  Er  Er15  1  0.062083  0.062931  0.437492  1
  Mg  Mg16  1  0.525168  0.818905  0.827963  1
  Cd  Cd17  1  0.829994  0.831867  0.832899  1
  Cd  Cd18  1  0.829994  0.831867  0.505239  1
  Ni  Ni19  1  0.390311  0.391626  0.397147  1
  Ni  Ni20  1  0.390311  0.391626  0.820916  1
  Ni  Ni21  1  0.388060  0.822573  0.394683  1
  Ni  Ni22  1  0.824600  0.393504  0.390947  1
  Hg  Hg23  1  0.832844  0.495470  0.835842  1
