# generated using pymatgen
data_Dy3Ho(As4O9)2
_symmetry_space_group_name_H-M   'P 1'
_cell_length_a   6.74349888
_cell_length_b   7.54725938
_cell_length_c   9.81680716
_cell_angle_alpha   94.93036386
_cell_angle_beta   104.16186224
_cell_angle_gamma   104.72447193
_symmetry_Int_Tables_number   1
_chemical_formula_structural   Dy3Ho(As4O9)2
_chemical_formula_sum   'Dy3 Ho1 As8 O18'
_cell_volume   462.64965022
_cell_formula_units_Z   1
loop_
 _symmetry_equiv_pos_site_id
 _symmetry_equiv_pos_as_xyz
  1  'x, y, z'
loop_
 _atom_site_type_symbol
 _atom_site_label
 _atom_site_symmetry_multiplicity
 _atom_site_fract_x
 _atom_site_fract_y
 _atom_site_fract_z
 _atom_site_occupancy
  Dy  Dy0  1  0.244215  0.939159  0.615285  1
  Dy  Dy1  1  0.755894  0.060924  0.384719  1
  Dy  Dy2  1  0.721214  0.530263  0.409569  1
  Ho  Ho3  1  0.279079  0.470191  0.590639  1
  As  As4  1  0.682008  0.774569  0.077654  1
  As  As5  1  0.317973  0.225624  0.922056  1
  As  As6  1  0.171287  0.752466  0.912598  1
  As  As7  1  0.828740  0.247398  0.087245  1
  As  As8  1  0.744377  0.915157  0.709408  1
  As  As9  1  0.255273  0.084592  0.290564  1
  As  As10  1  0.809630  0.351116  0.701516  1
  As  As11  1  0.190296  0.648947  0.298519  1
  O  O12  1  0.723410  0.749516  0.258394  1
  O  O13  1  0.276651  0.251071  0.741353  1
  O  O14  1  0.315937  0.978701  0.870111  1
  O  O15  1  0.684055  0.021347  0.129820  1
  O  O16  1  0.608088  0.324842  0.985366  1
  O  O17  1  0.391890  0.675184  0.014646  1
  O  O18  1  0.128165  0.646330  0.737500  1
  O  O19  1  0.872038  0.353435  0.262357  1
  O  O20  1  0.847293  0.874656  0.559014  1
  O  O21  1  0.152811  0.125540  0.441065  1
  O  O22  1  0.483550  0.767812  0.666356  1
  O  O23  1  0.516158  0.231566  0.333467  1
  O  O24  1  0.372381  0.533601  0.379940  1
  O  O25  1  0.626597  0.465981  0.620490  1
  O  O26  1  0.089804  0.669344  0.453912  1
  O  O27  1  0.911203  0.330772  0.546441  1
  O  O28  1  0.376153  0.899282  0.359230  1
  O  O29  1  0.623831  0.100613  0.640765  1
