# generated using pymatgen
data_Ba8Si12Ag3Hg
_symmetry_space_group_name_H-M   'P 1'
_cell_length_a   12.53146093
_cell_length_b   10.92587120
_cell_length_c   8.65387341
_cell_angle_alpha   78.67013644
_cell_angle_beta   58.68202688
_cell_angle_gamma   42.84304889
_symmetry_Int_Tables_number   1
_chemical_formula_structural   Ba8Si12Ag3Hg
_chemical_formula_sum   'Ba8 Si12 Ag3 Hg1'
_cell_volume   652.60307545
_cell_formula_units_Z   1
loop_
 _symmetry_equiv_pos_site_id
 _symmetry_equiv_pos_as_xyz
  1  'x, y, z'
loop_
 _atom_site_type_symbol
 _atom_site_label
 _atom_site_symmetry_multiplicity
 _atom_site_fract_x
 _atom_site_fract_y
 _atom_site_fract_z
 _atom_site_occupancy
  Ba  Ba0  1  0.124229  0.122831  0.377250  1
  Ba  Ba1  1  0.875623  0.879677  0.123479  1
  Ba  Ba2  1  0.123635  0.121326  0.875598  1
  Ba  Ba3  1  0.377447  0.375439  0.124315  1
  Ba  Ba4  1  0.621244  0.623812  0.378201  1
  Ba  Ba5  1  0.377973  0.376641  0.621562  1
  Ba  Ba6  1  0.625025  0.625329  0.874816  1
  Ba  Ba7  1  0.874786  0.875163  0.624959  1
  Si  Si8  1  0.337850  0.656573  0.821541  1
  Si  Si9  1  0.184291  0.820534  0.656758  1
  Si  Si10  1  0.821559  0.184618  0.337770  1
  Si  Si11  1  0.657166  0.338465  0.183683  1
  Si  Si12  1  0.908587  0.596723  0.434952  1
  Si  Si13  1  0.069660  0.423631  0.592042  1
  Si  Si14  1  0.434649  0.059129  0.908972  1
  Si  Si15  1  0.906976  0.594008  0.906585  1
  Si  Si16  1  0.659194  0.340237  0.660045  1
  Si  Si17  1  0.340137  0.659303  0.340545  1
  Si  Si18  1  0.588679  0.912123  0.587298  1
  Si  Si19  1  0.591661  0.914206  0.069999  1
  Ag  Ag20  1  0.167137  0.832869  0.166525  1
  Ag  Ag21  1  0.417084  0.082849  0.416289  1
  Ag  Ag22  1  0.832890  0.167301  0.833378  1
  Hg  Hg23  1  0.082516  0.417212  0.083438  1
