# generated using pymatgen
data_Y5In4PtAu
_symmetry_space_group_name_H-M   'P 1'
_cell_length_a   3.68283900
_cell_length_b   8.16399082
_cell_length_c   18.30468100
_cell_angle_alpha   89.77344782
_cell_angle_beta   90.00000000
_cell_angle_gamma   90.00000000
_symmetry_Int_Tables_number   1
_chemical_formula_structural   Y5In4PtAu
_chemical_formula_sum   'Y10 In8 Pt2 Au2'
_cell_volume   550.35638706
_cell_formula_units_Z   2
loop_
 _symmetry_equiv_pos_site_id
 _symmetry_equiv_pos_as_xyz
  1  'x, y, z'
loop_
 _atom_site_type_symbol
 _atom_site_label
 _atom_site_symmetry_multiplicity
 _atom_site_fract_x
 _atom_site_fract_y
 _atom_site_fract_z
 _atom_site_occupancy
  Y  Y0  1  0.500000  0.249659  0.783280  1
  Y  Y1  1  0.500000  0.750341  0.216720  1
  Y  Y2  1  0.500000  0.268969  0.278157  1
  Y  Y3  1  0.500000  0.731031  0.721843  1
  Y  Y4  1  0.500000  0.119822  0.580841  1
  Y  Y5  1  0.500000  0.880178  0.419159  1
  Y  Y6  1  0.500000  0.383983  0.082967  1
  Y  Y7  1  0.500000  0.616017  0.917033  1
  Y  Y8  1  0.500000  0.000000  0.000000  1
  Y  Y9  1  0.500000  0.500000  0.500000  1
  In  In10  1  0.000000  0.078156  0.147204  1
  In  In11  1  0.000000  0.921844  0.852796  1
  In  In12  1  0.000000  0.422634  0.648518  1
  In  In13  1  0.000000  0.577366  0.351482  1
  In  In14  1  0.000000  0.210097  0.432092  1
  In  In15  1  0.000000  0.789903  0.567908  1
  In  In16  1  0.000000  0.291627  0.933603  1
  In  In17  1  0.000000  0.708373  0.066397  1
  Pt  Pt18  1  0.000000  0.474389  0.195282  1
  Pt  Pt19  1  0.000000  0.525611  0.804718  1
  Au  Au20  1  0.000000  0.026732  0.697805  1
  Au  Au21  1  0.000000  0.973268  0.302195  1
