# generated using pymatgen
data_Tm3Ni8MoP6
_symmetry_space_group_name_H-M   'P 1'
_cell_length_a   3.73035500
_cell_length_b   10.63330900
_cell_length_c   12.28238800
_cell_angle_alpha   90.00000000
_cell_angle_beta   90.00000000
_cell_angle_gamma   90.00000000
_symmetry_Int_Tables_number   1
_chemical_formula_structural   Tm3Ni8MoP6
_chemical_formula_sum   'Tm6 Ni16 Mo2 P12'
_cell_volume   487.19341606
_cell_formula_units_Z   2
loop_
 _symmetry_equiv_pos_site_id
 _symmetry_equiv_pos_as_xyz
  1  'x, y, z'
loop_
 _atom_site_type_symbol
 _atom_site_label
 _atom_site_symmetry_multiplicity
 _atom_site_fract_x
 _atom_site_fract_y
 _atom_site_fract_z
 _atom_site_occupancy
  Tm  Tm0  1  0.000000  0.500000  0.525316  1
  Tm  Tm1  1  0.500000  0.000000  0.474684  1
  Tm  Tm2  1  0.500000  0.819461  0.207588  1
  Tm  Tm3  1  0.500000  0.180539  0.207588  1
  Tm  Tm4  1  0.000000  0.680539  0.792412  1
  Tm  Tm5  1  0.000000  0.319461  0.792412  1
  Ni  Ni6  1  0.500000  0.500000  0.700108  1
  Ni  Ni7  1  0.000000  0.000000  0.299892  1
  Ni  Ni8  1  0.000000  0.500000  0.985207  1
  Ni  Ni9  1  0.500000  0.000000  0.014793  1
  Ni  Ni10  1  0.500000  0.332814  0.987828  1
  Ni  Ni11  1  0.500000  0.667186  0.987828  1
  Ni  Ni12  1  0.000000  0.167186  0.012172  1
  Ni  Ni13  1  0.000000  0.832814  0.012172  1
  Ni  Ni14  1  0.500000  0.302621  0.428040  1
  Ni  Ni15  1  0.500000  0.697379  0.428040  1
  Ni  Ni16  1  0.000000  0.197379  0.571960  1
  Ni  Ni17  1  0.000000  0.802621  0.571960  1
  Ni  Ni18  1  0.500000  0.878232  0.709059  1
  Ni  Ni19  1  0.500000  0.121768  0.709059  1
  Ni  Ni20  1  0.000000  0.621768  0.290941  1
  Ni  Ni21  1  0.000000  0.378232  0.290941  1
  Mo  Mo22  1  0.500000  0.500000  0.154499  1
  Mo  Mo23  1  0.000000  0.000000  0.845501  1
  P  P24  1  0.500000  0.500000  0.877519  1
  P  P25  1  0.000000  0.000000  0.122481  1
  P  P26  1  0.500000  0.500000  0.350858  1
  P  P27  1  0.000000  0.000000  0.649142  1
  P  P28  1  0.500000  0.314935  0.614545  1
  P  P29  1  0.500000  0.685065  0.614545  1
  P  P30  1  0.000000  0.185065  0.385455  1
  P  P31  1  0.000000  0.814935  0.385455  1
  P  P32  1  0.500000  0.843778  0.892042  1
  P  P33  1  0.500000  0.156222  0.892042  1
  P  P34  1  0.000000  0.656222  0.107958  1
  P  P35  1  0.000000  0.343778  0.107958  1
