# generated using pymatgen
data_YbCePrAs3
_symmetry_space_group_name_H-M   'P 1'
_cell_length_a   7.37559878
_cell_length_b   7.37559755
_cell_length_c   7.37559700
_cell_angle_alpha   146.26483510
_cell_angle_beta   132.04707920
_cell_angle_gamma   59.91034887
_symmetry_Int_Tables_number   1
_chemical_formula_structural   YbCePrAs3
_chemical_formula_sum   'Yb1 Ce1 Pr1 As3'
_cell_volume   163.95676286
_cell_formula_units_Z   1
loop_
 _symmetry_equiv_pos_site_id
 _symmetry_equiv_pos_as_xyz
  1  'x, y, z'
loop_
 _atom_site_type_symbol
 _atom_site_label
 _atom_site_symmetry_multiplicity
 _atom_site_fract_x
 _atom_site_fract_y
 _atom_site_fract_z
 _atom_site_occupancy
  Yb  Yb0  1  0.667189  0.667189  0.000000  1
  Ce  Ce1  1  0.000978  0.000978  0.000000  1
  Pr  Pr2  1  0.331709  0.331709  0.000000  1
  As  As3  1  0.498220  0.998220  0.500000  1
  As  As4  1  0.159013  0.659013  0.500000  1
  As  As5  1  0.842892  0.342892  0.500000  1
