# generated using pymatgen
data_Dy3In4CuPt
_symmetry_space_group_name_H-M   'P 1'
_cell_length_a   7.75498700
_cell_length_b   7.75498674
_cell_length_c   3.97392800
_cell_angle_alpha   90.00000000
_cell_angle_beta   90.00000000
_cell_angle_gamma   120.00001507
_symmetry_Int_Tables_number   1
_chemical_formula_structural   Dy3In4CuPt
_chemical_formula_sum   'Dy3 In4 Cu1 Pt1'
_cell_volume   206.97252288
_cell_formula_units_Z   1
loop_
 _symmetry_equiv_pos_site_id
 _symmetry_equiv_pos_as_xyz
  1  'x, y, z'
loop_
 _atom_site_type_symbol
 _atom_site_label
 _atom_site_symmetry_multiplicity
 _atom_site_fract_x
 _atom_site_fract_y
 _atom_site_fract_z
 _atom_site_occupancy
  Dy  Dy0  1  0.057050  0.305770  0.500000  1
  Dy  Dy1  1  0.694230  0.751279  0.500000  1
  Dy  Dy2  1  0.248721  0.942950  0.500000  1
  In  In3  1  0.667858  0.086861  0.000000  1
  In  In4  1  0.913139  0.580998  0.000000  1
  In  In5  1  0.419002  0.332142  0.000000  1
  In  In6  1  0.333333  0.666667  0.000000  1
  Cu  Cu7  1  0.666667  0.333333  0.500000  1
  Pt  Pt8  1  0.000000  0.000000  0.000000  1
