# generated using pymatgen
data_RbPrB12
_symmetry_space_group_name_H-M   'P 1'
_cell_length_a   5.94702900
_cell_length_b   5.94702900
_cell_length_c   4.20733300
_cell_angle_alpha   90.00000000
_cell_angle_beta   90.00000000
_cell_angle_gamma   90.00000000
_symmetry_Int_Tables_number   1
_chemical_formula_structural   RbPrB12
_chemical_formula_sum   'Rb1 Pr1 B12'
_cell_volume   148.80139383
_cell_formula_units_Z   1
loop_
 _symmetry_equiv_pos_site_id
 _symmetry_equiv_pos_as_xyz
  1  'x, y, z'
loop_
 _atom_site_type_symbol
 _atom_site_label
 _atom_site_symmetry_multiplicity
 _atom_site_fract_x
 _atom_site_fract_y
 _atom_site_fract_z
 _atom_site_occupancy
  Rb  Rb0  1  0.000000  0.000000  0.000000  1
  Pr  Pr1  1  0.500000  0.500000  0.000000  1
  B  B2  1  0.000000  0.500000  0.203013  1
  B  B3  1  0.500000  0.000000  0.203013  1
  B  B4  1  0.148076  0.649365  0.500000  1
  B  B5  1  0.649365  0.148076  0.500000  1
  B  B6  1  0.148076  0.350635  0.500000  1
  B  B7  1  0.649365  0.851924  0.500000  1
  B  B8  1  0.851924  0.350635  0.500000  1
  B  B9  1  0.350635  0.851924  0.500000  1
  B  B10  1  0.851924  0.649365  0.500000  1
  B  B11  1  0.350635  0.148076  0.500000  1
  B  B12  1  0.000000  0.500000  0.796987  1
  B  B13  1  0.500000  0.000000  0.796987  1
