# generated using pymatgen
data_Sr2BiSbPt2
_symmetry_space_group_name_H-M   'P 1'
_cell_length_a   7.83534800
_cell_length_b   4.80312500
_cell_length_c   8.22160400
_cell_angle_alpha   90.00000000
_cell_angle_beta   90.00000000
_cell_angle_gamma   90.00000000
_symmetry_Int_Tables_number   1
_chemical_formula_structural   Sr2BiSbPt2
_chemical_formula_sum   'Sr4 Bi2 Sb2 Pt4'
_cell_volume   309.41312638
_cell_formula_units_Z   2
loop_
 _symmetry_equiv_pos_site_id
 _symmetry_equiv_pos_as_xyz
  1  'x, y, z'
loop_
 _atom_site_type_symbol
 _atom_site_label
 _atom_site_symmetry_multiplicity
 _atom_site_fract_x
 _atom_site_fract_y
 _atom_site_fract_z
 _atom_site_occupancy
  Sr  Sr0  1  0.011148  0.750001  0.195396  1
  Sr  Sr1  1  0.511147  0.750001  0.304605  1
  Sr  Sr2  1  0.489467  0.250000  0.692556  1
  Sr  Sr3  1  0.989467  0.250000  0.807444  1
  Bi  Bi4  1  0.180293  0.750001  0.589517  1
  Bi  Bi5  1  0.680293  0.750001  0.910484  1
  Sb  Sb6  1  0.323573  0.250000  0.086664  1
  Sb  Sb7  1  0.823572  0.250000  0.413337  1
  Pt  Pt8  1  0.693368  0.250000  0.101251  1
  Pt  Pt9  1  0.193367  0.250000  0.398750  1
  Pt  Pt10  1  0.802152  0.750001  0.574155  1
  Pt  Pt11  1  0.302151  0.750001  0.925846  1
