# generated using pymatgen
data_Lu10(GaSb)3
_symmetry_space_group_name_H-M   'P 1'
_cell_length_a   8.57180300
_cell_length_b   8.57180362
_cell_length_c   6.32515600
_cell_angle_alpha   90.00000000
_cell_angle_beta   90.00000000
_cell_angle_gamma   120.00000920
_symmetry_Int_Tables_number   1
_chemical_formula_structural   Lu10(GaSb)3
_chemical_formula_sum   'Lu10 Ga3 Sb3'
_cell_volume   402.48178148
_cell_formula_units_Z   1
loop_
 _symmetry_equiv_pos_site_id
 _symmetry_equiv_pos_as_xyz
  1  'x, y, z'
loop_
 _atom_site_type_symbol
 _atom_site_label
 _atom_site_symmetry_multiplicity
 _atom_site_fract_x
 _atom_site_fract_y
 _atom_site_fract_z
 _atom_site_occupancy
  Lu  Lu0  1  0.666667  0.333333  0.010272  1
  Lu  Lu1  1  0.333333  0.666667  0.010272  1
  Lu  Lu2  1  0.333333  0.666667  0.489728  1
  Lu  Lu3  1  0.666667  0.333333  0.489728  1
  Lu  Lu4  1  0.763601  0.763601  0.750000  1
  Lu  Lu5  1  0.236399  0.000000  0.750000  1
  Lu  Lu6  1  0.000000  0.236399  0.750000  1
  Lu  Lu7  1  0.238494  0.238494  0.250000  1
  Lu  Lu8  1  0.761506  0.000000  0.250000  1
  Lu  Lu9  1  0.000000  0.761506  0.250000  1
  Ga  Ga10  1  0.605719  0.605719  0.250000  1
  Ga  Ga11  1  0.394281  0.000000  0.250000  1
  Ga  Ga12  1  0.000000  0.394281  0.250000  1
  Sb  Sb13  1  0.398407  0.398407  0.750000  1
  Sb  Sb14  1  0.601593  0.000000  0.750000  1
  Sb  Sb15  1  0.000000  0.601593  0.750000  1
