# generated using pymatgen
data_LiDyBPd6
_symmetry_space_group_name_H-M   'P 1'
_cell_length_a   5.81526593
_cell_length_b   5.81526625
_cell_length_c   5.81526700
_cell_angle_alpha   60.00000140
_cell_angle_beta   59.99999958
_cell_angle_gamma   59.99999826
_symmetry_Int_Tables_number   1
_chemical_formula_structural   LiDyBPd6
_chemical_formula_sum   'Li1 Dy1 B1 Pd6'
_cell_volume   139.05731573
_cell_formula_units_Z   1
loop_
 _symmetry_equiv_pos_site_id
 _symmetry_equiv_pos_as_xyz
  1  'x, y, z'
loop_
 _atom_site_type_symbol
 _atom_site_label
 _atom_site_symmetry_multiplicity
 _atom_site_fract_x
 _atom_site_fract_y
 _atom_site_fract_z
 _atom_site_occupancy
  Li  Li0  1  0.250000  0.250000  0.250000  1
  Dy  Dy1  1  0.750000  0.750000  0.750000  1
  B  B2  1  0.499999  0.499999  0.499999  1
  Pd  Pd3  1  0.756315  0.243684  0.243684  1
  Pd  Pd4  1  0.243684  0.756315  0.243684  1
  Pd  Pd5  1  0.756315  0.756315  0.243684  1
  Pd  Pd6  1  0.243684  0.243684  0.756315  1
  Pd  Pd7  1  0.756315  0.243684  0.756315  1
  Pd  Pd8  1  0.243684  0.756315  0.756315  1
