# generated using pymatgen
data_VCd3P7N12
_symmetry_space_group_name_H-M   'P 1'
_cell_length_a   7.30814155
_cell_length_b   7.35893913
_cell_length_c   7.35893990
_cell_angle_alpha   109.61062987
_cell_angle_beta   109.33144695
_cell_angle_gamma   109.33145056
_symmetry_Int_Tables_number   1
_chemical_formula_structural   VCd3P7N12
_chemical_formula_sum   'V1 Cd3 P7 N12'
_cell_volume   305.18400510
_cell_formula_units_Z   1
loop_
 _symmetry_equiv_pos_site_id
 _symmetry_equiv_pos_as_xyz
  1  'x, y, z'
loop_
 _atom_site_type_symbol
 _atom_site_label
 _atom_site_symmetry_multiplicity
 _atom_site_fract_x
 _atom_site_fract_y
 _atom_site_fract_z
 _atom_site_occupancy
  V  V0  1  0.626816  0.000000  0.000000  1
  Cd  Cd1  1  0.001958  0.000000  0.686210  1
  Cd  Cd2  1  0.001958  0.686210  0.000000  1
  Cd  Cd3  1  0.315749  0.313790  0.313790  1
  P  P4  1  0.255514  0.748873  0.501597  1
  P  P5  1  0.753917  0.247275  0.498403  1
  P  P6  1  0.753917  0.498403  0.247275  1
  P  P7  1  0.255514  0.501597  0.748873  1
  P  P8  1  0.506641  0.752725  0.251127  1
  P  P9  1  0.506641  0.251127  0.752725  1
  P  P10  1  0.952751  0.000000  0.000000  1
  N  N11  1  0.705156  0.273166  0.273166  1
  N  N12  1  0.292126  0.720649  0.288692  1
  N  N13  1  0.310083  0.582417  0.582417  1
  N  N14  1  0.571478  0.568043  0.279351  1
  N  N15  1  0.431990  0.726834  0.000000  1
  N  N16  1  0.003434  0.711308  0.431957  1
  N  N17  1  0.571478  0.279351  0.568043  1
  N  N18  1  0.727665  0.000000  0.417583  1
  N  N19  1  0.431990  0.000000  0.726834  1
  N  N20  1  0.727665  0.417583  0.000000  1
  N  N21  1  0.292126  0.288692  0.720649  1
  N  N22  1  0.003434  0.431957  0.711308  1
