# generated using pymatgen
data_CdTe19
_symmetry_space_group_name_H-M   'P 1'
_cell_length_a   7.96740280
_cell_length_b   8.94102754
_cell_length_c   10.12016500
_cell_angle_alpha   103.09486428
_cell_angle_beta   96.93454965
_cell_angle_gamma   107.31739481
_symmetry_Int_Tables_number   1
_chemical_formula_structural   CdTe19
_chemical_formula_sum   'Cd1 Te19'
_cell_volume   656.48094483
_cell_formula_units_Z   1
loop_
 _symmetry_equiv_pos_site_id
 _symmetry_equiv_pos_as_xyz
  1  'x, y, z'
loop_
 _atom_site_type_symbol
 _atom_site_label
 _atom_site_symmetry_multiplicity
 _atom_site_fract_x
 _atom_site_fract_y
 _atom_site_fract_z
 _atom_site_occupancy
  Cd  Cd0  1  0.000000  0.500000  0.000000  1
  Te  Te1  1  0.791963  0.579669  0.617350  1
  Te  Te2  1  0.634324  0.207778  0.200356  1
  Te  Te3  1  0.365676  0.792222  0.799644  1
  Te  Te4  1  0.597889  0.689203  0.192140  1
  Te  Te5  1  0.208037  0.420331  0.382650  1
  Te  Te6  1  0.402111  0.310797  0.807860  1
  Te  Te7  1  0.000000  0.000000  0.000000  1
  Te  Te8  1  0.197666  0.912183  0.393610  1
  Te  Te9  1  0.802334  0.087817  0.606390  1
  Te  Te10  1  0.703003  0.631923  0.906865  1
  Te  Te11  1  0.516600  0.257796  0.499578  1
  Te  Te12  1  0.711061  0.147148  0.907289  1
  Te  Te13  1  0.288939  0.852852  0.092711  1
  Te  Te14  1  0.483400  0.742204  0.500422  1
  Te  Te15  1  0.097778  0.462481  0.712825  1
  Te  Te16  1  0.296997  0.368077  0.093135  1
  Te  Te17  1  0.912450  0.038364  0.297635  1
  Te  Te18  1  0.087550  0.961636  0.702365  1
  Te  Te19  1  0.902222  0.537519  0.287175  1
