# generated using pymatgen
data_IrI35
_symmetry_space_group_name_H-M   'P 1'
_cell_length_a   17.58017498
_cell_length_b   12.54030950
_cell_length_c   11.87107100
_cell_angle_alpha   88.81408644
_cell_angle_beta   66.02770740
_cell_angle_gamma   92.31545562
_symmetry_Int_Tables_number   1
_chemical_formula_structural   IrI35
_chemical_formula_sum   'Ir1 I35'
_cell_volume   2387.43274716
_cell_formula_units_Z   1
loop_
 _symmetry_equiv_pos_site_id
 _symmetry_equiv_pos_as_xyz
  1  'x, y, z'
loop_
 _atom_site_type_symbol
 _atom_site_label
 _atom_site_symmetry_multiplicity
 _atom_site_fract_x
 _atom_site_fract_y
 _atom_site_fract_z
 _atom_site_occupancy
  Ir  Ir0  1  0.231801  0.434486  0.452295  1
  I  I1  1  0.513390  0.265970  0.532030  1
  I  I2  1  0.755642  0.583571  0.571410  1
  I  I3  1  0.471522  0.679051  0.744387  1
  I  I4  1  0.067904  0.883663  0.851779  1
  I  I5  1  0.900943  0.155185  0.011053  1
  I  I6  1  0.654366  0.312969  0.286389  1
  I  I7  1  0.602925  0.339258  0.841473  1
  I  I8  1  0.334680  0.754165  0.690199  1
  I  I9  1  0.327903  0.572198  0.246498  1
  I  I10  1  0.638675  0.126097  0.807608  1
  I  I11  1  0.907626  0.556063  0.359225  1
  I  I12  1  0.072733  0.958814  0.616602  1
  I  I13  1  0.907054  0.103426  0.253834  1
  I  I14  1  0.885207  0.210274  0.785480  1
  I  I15  1  0.655432  0.050436  0.237439  1
  I  I16  1  0.036712  0.807497  0.104027  1
  I  I17  1  0.355276  0.979656  0.730088  1
  I  I18  1  0.907325  0.326366  0.315077  1
  I  I19  1  0.883599  0.931023  0.712689  1
  I  I20  1  0.893217  0.673272  0.785783  1
  I  I21  1  0.315510  0.047587  0.269160  1
  I  I22  1  0.326653  0.316085  0.267968  1
  I  I23  1  0.607911  0.608172  0.806658  1
  I  I24  1  0.106520  0.434092  0.383476  1
  I  I25  1  0.707899  0.891576  0.808795  1
  I  I26  1  0.919909  0.454841  0.756658  1
  I  I27  1  0.487819  0.044843  0.254514  1
  I  I28  1  0.153900  0.287312  0.623309  1
  I  I29  1  0.673777  0.783241  0.266247  1
  I  I30  1  0.855936  0.800852  0.186097  1
  I  I31  1  0.378352  0.209473  0.766003  1
  I  I32  1  0.343688  0.472247  0.546341  1
  I  I33  1  0.656042  0.545546  0.263105  1
  I  I34  1  0.160672  0.601841  0.580175  1
  I  I35  1  0.301480  0.798855  0.286130  1
