# generated using pymatgen
data_Ta11NbGa8(NiC)4
_symmetry_space_group_name_H-M   'P 1'
_cell_length_a   8.22036957
_cell_length_b   8.22543332
_cell_length_c   8.22036864
_cell_angle_alpha   59.97961918
_cell_angle_beta   59.96773594
_cell_angle_gamma   59.97961955
_symmetry_Int_Tables_number   1
_chemical_formula_structural   Ta11NbGa8(NiC)4
_chemical_formula_sum   'Ta11 Nb1 Ga8 Ni4 C4'
_cell_volume   392.81370133
_cell_formula_units_Z   1
loop_
 _symmetry_equiv_pos_site_id
 _symmetry_equiv_pos_as_xyz
  1  'x, y, z'
loop_
 _atom_site_type_symbol
 _atom_site_label
 _atom_site_symmetry_multiplicity
 _atom_site_fract_x
 _atom_site_fract_y
 _atom_site_fract_z
 _atom_site_occupancy
  Ta  Ta0  1  0.313374  0.686616  0.686734  1
  Ta  Ta1  1  0.686734  0.313277  0.313374  1
  Ta  Ta2  1  0.313300  0.686700  0.313300  1
  Ta  Ta3  1  0.686734  0.686616  0.313374  1
  Ta  Ta4  1  0.313374  0.313277  0.686734  1
  Ta  Ta5  1  0.563407  0.563134  0.936716  1
  Ta  Ta6  1  0.936716  0.563134  0.563407  1
  Ta  Ta7  1  0.563407  0.936744  0.936716  1
  Ta  Ta8  1  0.936716  0.936744  0.563407  1
  Ta  Ta9  1  0.686952  0.313048  0.686952  1
  Ta  Ta10  1  0.936570  0.563430  0.936570  1
  Nb  Nb11  1  0.562625  0.937375  0.562625  1
  Ga  Ga12  1  0.916315  0.916143  0.916315  1
  Ga  Ga13  1  0.998686  0.333836  0.333640  1
  Ga  Ga14  1  0.333867  0.998743  0.333867  1
  Ga  Ga15  1  0.333640  0.333836  0.998686  1
  Ga  Ga16  1  0.916315  0.251229  0.916315  1
  Ga  Ga17  1  0.916041  0.916277  0.251407  1
  Ga  Ga18  1  0.251407  0.916277  0.916041  1
  Ga  Ga19  1  0.333867  0.333520  0.333867  1
  Ni  Ni20  1  0.125067  0.125091  0.125067  1
  Ni  Ni21  1  0.625089  0.125588  0.123736  1
  Ni  Ni22  1  0.125067  0.624775  0.125067  1
  Ni  Ni23  1  0.123736  0.125588  0.625089  1
  C  C24  1  0.625346  0.623395  0.625346  1
  C  C25  1  0.125212  0.624848  0.625091  1
  C  C26  1  0.625346  0.125912  0.625346  1
  C  C27  1  0.625091  0.624848  0.125212  1
