# generated using pymatgen
data_NaYbCl3
_symmetry_space_group_name_H-M   'P 1'
_cell_length_a   7.51625260
_cell_length_b   7.51625318
_cell_length_c   7.51625301
_cell_angle_alpha   55.40756510
_cell_angle_beta   55.40755967
_cell_angle_gamma   55.40754898
_symmetry_Int_Tables_number   1
_chemical_formula_structural   NaYbCl3
_chemical_formula_sum   'Na2 Yb2 Cl6'
_cell_volume   268.22597988
_cell_formula_units_Z   2
loop_
 _symmetry_equiv_pos_site_id
 _symmetry_equiv_pos_as_xyz
  1  'x, y, z'
loop_
 _atom_site_type_symbol
 _atom_site_label
 _atom_site_symmetry_multiplicity
 _atom_site_fract_x
 _atom_site_fract_y
 _atom_site_fract_z
 _atom_site_occupancy
  Na  Na0  1  0.145250  0.145250  0.145250  1
  Na  Na1  1  0.854750  0.854750  0.854750  1
  Yb  Yb2  1  0.343264  0.343264  0.343264  1
  Yb  Yb3  1  0.656736  0.656736  0.656736  1
  Cl  Cl4  1  0.061276  0.451220  0.730630  1
  Cl  Cl5  1  0.730630  0.061276  0.451220  1
  Cl  Cl6  1  0.548780  0.269370  0.938724  1
  Cl  Cl7  1  0.938724  0.548780  0.269370  1
  Cl  Cl8  1  0.269370  0.938724  0.548780  1
  Cl  Cl9  1  0.451220  0.730630  0.061276  1
