# generated using pymatgen
data_Nd3Th(Pd2Pb)2
_symmetry_space_group_name_H-M   'P 1'
_cell_length_a   3.78139000
_cell_length_b   8.09715270
_cell_length_c   8.09715270
_cell_angle_alpha   91.62157123
_cell_angle_beta   90.00000000
_cell_angle_gamma   90.00000000
_symmetry_Int_Tables_number   1
_chemical_formula_structural   Nd3Th(Pd2Pb)2
_chemical_formula_sum   'Nd3 Th1 Pd4 Pb2'
_cell_volume   247.82332231
_cell_formula_units_Z   1
loop_
 _symmetry_equiv_pos_site_id
 _symmetry_equiv_pos_as_xyz
  1  'x, y, z'
loop_
 _atom_site_type_symbol
 _atom_site_label
 _atom_site_symmetry_multiplicity
 _atom_site_fract_x
 _atom_site_fract_y
 _atom_site_fract_z
 _atom_site_occupancy
  Nd  Nd0  1  0.500000  0.824139  0.324139  1
  Nd  Nd1  1  0.500000  0.327160  0.174371  1
  Nd  Nd2  1  0.500000  0.674371  0.827160  1
  Th  Th3  1  0.500000  0.171660  0.671660  1
  Pd  Pd4  1  0.000000  0.619063  0.119063  1
  Pd  Pd5  1  0.000000  0.366430  0.866430  1
  Pd  Pd6  1  0.000000  0.885093  0.630035  1
  Pd  Pd7  1  0.000000  0.130035  0.385093  1
  Pb  Pb8  1  0.000000  0.997907  0.004141  1
  Pb  Pb9  1  0.000000  0.504141  0.497907  1
