# generated using pymatgen
data_Dy7Er9(HgIr)4
_symmetry_space_group_name_H-M   'P 1'
_cell_length_a   9.56183064
_cell_length_b   9.56183064
_cell_length_c   9.56061500
_cell_angle_alpha   60.00420202
_cell_angle_beta   60.00420203
_cell_angle_gamma   60.04514584
_symmetry_Int_Tables_number   1
_chemical_formula_structural   Dy7Er9(HgIr)4
_chemical_formula_sum   'Dy7 Er9 Hg4 Ir4'
_cell_volume   618.34162569
_cell_formula_units_Z   1
loop_
 _symmetry_equiv_pos_site_id
 _symmetry_equiv_pos_as_xyz
  1  'x, y, z'
loop_
 _atom_site_type_symbol
 _atom_site_label
 _atom_site_symmetry_multiplicity
 _atom_site_fract_x
 _atom_site_fract_y
 _atom_site_fract_z
 _atom_site_occupancy
  Dy  Dy0  1  0.060095  0.060095  0.439905  1
  Dy  Dy1  1  0.188959  0.811140  0.811708  1
  Dy  Dy2  1  0.811140  0.188959  0.188194  1
  Dy  Dy3  1  0.811140  0.188959  0.811708  1
  Dy  Dy4  1  0.188959  0.811140  0.188194  1
  Dy  Dy5  1  0.811382  0.811382  0.188618  1
  Dy  Dy6  1  0.188581  0.188581  0.811419  1
  Er  Er7  1  0.600636  0.600636  0.600173  1
  Er  Er8  1  0.600636  0.600636  0.198554  1
  Er  Er9  1  0.600445  0.198187  0.600684  1
  Er  Er10  1  0.198187  0.600445  0.600684  1
  Er  Er11  1  0.060122  0.439617  0.439926  1
  Er  Er12  1  0.439617  0.060122  0.060335  1
  Er  Er13  1  0.439617  0.060122  0.439926  1
  Er  Er14  1  0.060122  0.439617  0.060335  1
  Er  Er15  1  0.439603  0.439603  0.060397  1
  Hg  Hg16  1  0.834481  0.834481  0.834653  1
  Hg  Hg17  1  0.834481  0.834481  0.496386  1
  Hg  Hg18  1  0.834771  0.495972  0.834629  1
  Hg  Hg19  1  0.495972  0.834771  0.834629  1
  Ir  Ir20  1  0.392204  0.392204  0.391653  1
  Ir  Ir21  1  0.392204  0.392204  0.823941  1
  Ir  Ir22  1  0.393242  0.823408  0.391676  1
  Ir  Ir23  1  0.823408  0.393242  0.391676  1
