# generated using pymatgen
data_Dy5P12Ir9Rh7W3
_symmetry_space_group_name_H-M   'P 1'
_cell_length_a   12.69376526
_cell_length_b   12.69263195
_cell_length_c   3.96466500
_cell_angle_alpha   90.00000000
_cell_angle_beta   90.00000000
_cell_angle_gamma   119.95378903
_symmetry_Int_Tables_number   1
_chemical_formula_structural   Dy5P12Ir9Rh7W3
_chemical_formula_sum   'Dy5 P12 Ir9 Rh7 W3'
_cell_volume   553.45373223
_cell_formula_units_Z   1
loop_
 _symmetry_equiv_pos_site_id
 _symmetry_equiv_pos_as_xyz
  1  'x, y, z'
loop_
 _atom_site_type_symbol
 _atom_site_label
 _atom_site_symmetry_multiplicity
 _atom_site_fract_x
 _atom_site_fract_y
 _atom_site_fract_z
 _atom_site_occupancy
  Dy  Dy0  1  0.333855  0.666967  0.500000  1
  Dy  Dy1  1  0.666733  0.333365  0.500000  1
  Dy  Dy2  1  0.999797  0.812181  0.000000  1
  Dy  Dy3  1  0.187495  0.187273  0.000000  1
  Dy  Dy4  1  0.812654  0.999859  0.000000  1
  P  P5  1  0.999869  0.638651  0.500000  1
  P  P6  1  0.361013  0.361087  0.500000  1
  P  P7  1  0.638972  0.999858  0.500000  1
  P  P8  1  0.516501  0.683116  0.000000  1
  P  P9  1  0.316878  0.832879  0.000000  1
  P  P10  1  0.167415  0.483906  0.000000  1
  P  P11  1  0.482649  0.168295  0.000000  1
  P  P12  1  0.684349  0.516792  0.000000  1
  P  P13  1  0.832263  0.316080  0.000000  1
  P  P14  1  0.000135  0.176106  0.500000  1
  P  P15  1  0.823504  0.823172  0.500000  1
  P  P16  1  0.176932  0.000111  0.500000  1
  Ir  Ir17  1  0.641128  0.133416  0.000000  1
  Ir  Ir18  1  0.999888  0.285498  0.000000  1
  Ir  Ir19  1  0.714924  0.715229  0.000000  1
  Ir  Ir20  1  0.285222  0.999697  0.000000  1
  Ir  Ir21  1  0.178256  0.375581  0.500000  1
  Ir  Ir22  1  0.376685  0.178664  0.500000  1
  Ir  Ir23  1  0.801271  0.622910  0.500000  1
  Ir  Ir24  1  0.821495  0.196716  0.500000  1
  Ir  Ir25  1  0.000030  0.999575  0.500000  1
  Rh  Rh26  1  0.511559  0.868581  0.000000  1
  Rh  Rh27  1  0.131541  0.642240  0.000000  1
  Rh  Rh28  1  0.357135  0.489591  0.000000  1
  Rh  Rh29  1  0.490639  0.359053  0.000000  1
  Rh  Rh30  1  0.868205  0.509578  0.000000  1
  Rh  Rh31  1  0.624608  0.803233  0.500000  1
  Rh  Rh32  1  0.197456  0.821250  0.500000  1
  W  W33  1  0.999802  0.452035  0.500000  1
  W  W34  1  0.546695  0.548440  0.500000  1
  W  W35  1  0.452444  0.999009  0.500000  1
