# generated using pymatgen
data_ZnFe(IrO3)4
_symmetry_space_group_name_H-M   'P 1'
_cell_length_a   4.56995041
_cell_length_b   4.56995041
_cell_length_c   9.46413500
_cell_angle_alpha   90.00000000
_cell_angle_beta   90.00000000
_cell_angle_gamma   90.37454611
_symmetry_Int_Tables_number   1
_chemical_formula_structural   ZnFe(IrO3)4
_chemical_formula_sum   'Zn1 Fe1 Ir4 O12'
_cell_volume   197.64900037
_cell_formula_units_Z   1
loop_
 _symmetry_equiv_pos_site_id
 _symmetry_equiv_pos_as_xyz
  1  'x, y, z'
loop_
 _atom_site_type_symbol
 _atom_site_label
 _atom_site_symmetry_multiplicity
 _atom_site_fract_x
 _atom_site_fract_y
 _atom_site_fract_z
 _atom_site_occupancy
  Zn  Zn0  1  0.500000  0.500000  0.500000  1
  Fe  Fe1  1  0.000000  0.000000  0.000000  1
  Ir  Ir2  1  0.500000  0.500000  0.832291  1
  Ir  Ir3  1  0.000000  0.000000  0.331293  1
  Ir  Ir4  1  0.500000  0.500000  0.167709  1
  Ir  Ir5  1  0.000000  0.000000  0.668707  1
  O  O6  1  0.698432  0.698432  0.671710  1
  O  O7  1  0.301568  0.301568  0.671710  1
  O  O8  1  0.698432  0.698432  0.328290  1
  O  O9  1  0.196192  0.803808  0.165926  1
  O  O10  1  0.803808  0.196192  0.165926  1
  O  O11  1  0.803808  0.196192  0.834074  1
  O  O12  1  0.310316  0.310316  0.000000  1
  O  O13  1  0.184619  0.815381  0.500000  1
  O  O14  1  0.815381  0.184619  0.500000  1
  O  O15  1  0.689684  0.689684  0.000000  1
  O  O16  1  0.301568  0.301568  0.328290  1
  O  O17  1  0.196192  0.803808  0.834074  1
