# generated using pymatgen
data_DyHo2Tl3Ag2Ir
_symmetry_space_group_name_H-M   'P 1'
_cell_length_a   8.17045822
_cell_length_b   8.16174165
_cell_length_c   3.67587300
_cell_angle_alpha   90.00000000
_cell_angle_beta   90.00000000
_cell_angle_gamma   120.01173889
_symmetry_Int_Tables_number   1
_chemical_formula_structural   DyHo2Tl3Ag2Ir
_chemical_formula_sum   'Dy1 Ho2 Tl3 Ag2 Ir1'
_cell_volume   212.26041177
_cell_formula_units_Z   1
loop_
 _symmetry_equiv_pos_site_id
 _symmetry_equiv_pos_as_xyz
  1  'x, y, z'
loop_
 _atom_site_type_symbol
 _atom_site_label
 _atom_site_symmetry_multiplicity
 _atom_site_fract_x
 _atom_site_fract_y
 _atom_site_fract_z
 _atom_site_occupancy
  Dy  Dy0  1  0.040125  0.420042  0.000000  1
  Ho  Ho1  1  0.579264  0.620497  0.000000  1
  Ho  Ho2  1  0.380122  0.958980  0.000000  1
  Tl  Tl3  1  0.984930  0.716754  0.500000  1
  Tl  Tl4  1  0.283499  0.268279  0.500000  1
  Tl  Tl5  1  0.731709  0.014931  0.500000  1
  Ag  Ag6  1  0.000250  0.999804  0.000000  1
  Ag  Ag7  1  0.665728  0.333272  0.500000  1
  Ir  Ir8  1  0.334371  0.667440  0.500000  1
