# generated using pymatgen
data_Tb5Tm(Ni3P2)6
_symmetry_space_group_name_H-M   'P 1'
_cell_length_a   3.78613100
_cell_length_b   10.46865102
_cell_length_c   12.33121716
_cell_angle_alpha   89.98675099
_cell_angle_beta   90.00000000
_cell_angle_gamma   90.00000000
_symmetry_Int_Tables_number   1
_chemical_formula_structural   Tb5Tm(Ni3P2)6
_chemical_formula_sum   'Tb5 Tm1 Ni18 P12'
_cell_volume   488.75621586
_cell_formula_units_Z   1
loop_
 _symmetry_equiv_pos_site_id
 _symmetry_equiv_pos_as_xyz
  1  'x, y, z'
loop_
 _atom_site_type_symbol
 _atom_site_label
 _atom_site_symmetry_multiplicity
 _atom_site_fract_x
 _atom_site_fract_y
 _atom_site_fract_z
 _atom_site_occupancy
  Tb  Tb0  1  0.000000  0.500069  0.520325  1
  Tb  Tb1  1  0.500000  0.999604  0.479058  1
  Tb  Tb2  1  0.500000  0.183613  0.205700  1
  Tb  Tb3  1  0.000000  0.684455  0.794169  1
  Tb  Tb4  1  0.000000  0.315925  0.794774  1
  Tm  Tm5  1  0.500000  0.816306  0.205812  1
  Ni  Ni6  1  0.500000  0.499856  0.158236  1
  Ni  Ni7  1  0.000000  0.999547  0.842539  1
  Ni  Ni8  1  0.500000  0.499970  0.699959  1
  Ni  Ni9  1  0.000000  0.999194  0.299714  1
  Ni  Ni10  1  0.000000  0.501411  0.984149  1
  Ni  Ni11  1  0.500000  0.998619  0.017952  1
  Ni  Ni12  1  0.500000  0.333007  0.995783  1
  Ni  Ni13  1  0.500000  0.668035  0.996792  1
  Ni  Ni14  1  0.000000  0.166689  0.004624  1
  Ni  Ni15  1  0.000000  0.832836  0.005003  1
  Ni  Ni16  1  0.500000  0.300432  0.428366  1
  Ni  Ni17  1  0.500000  0.699205  0.427160  1
  Ni  Ni18  1  0.000000  0.199108  0.571507  1
  Ni  Ni19  1  0.000000  0.800424  0.570030  1
  Ni  Ni20  1  0.500000  0.879691  0.710521  1
  Ni  Ni21  1  0.500000  0.120047  0.711988  1
  Ni  Ni22  1  0.000000  0.622002  0.287340  1
  Ni  Ni23  1  0.000000  0.380492  0.288865  1
  P  P24  1  0.500000  0.500471  0.876922  1
  P  P25  1  0.000000  0.998549  0.124141  1
  P  P26  1  0.500000  0.499777  0.342641  1
  P  P27  1  0.000000  0.999676  0.657102  1
  P  P28  1  0.500000  0.312458  0.614159  1
  P  P29  1  0.500000  0.687342  0.613374  1
  P  P30  1  0.000000  0.186973  0.385875  1
  P  P31  1  0.000000  0.812476  0.384316  1
  P  P32  1  0.500000  0.849111  0.892696  1
  P  P33  1  0.500000  0.150916  0.893988  1
  P  P34  1  0.000000  0.653118  0.107601  1
  P  P35  1  0.000000  0.348598  0.106818  1
