# generated using pymatgen
data_Nb12Zn3CoSi4(OsC)4
_symmetry_space_group_name_H-M   'P 1'
_cell_length_a   8.19360217
_cell_length_b   8.19356169
_cell_length_c   8.19353200
_cell_angle_alpha   60.28893953
_cell_angle_beta   60.28907693
_cell_angle_gamma   60.28912054
_symmetry_Int_Tables_number   1
_chemical_formula_structural   Nb12Zn3CoSi4(OsC)4
_chemical_formula_sum   'Nb12 Zn3 Co1 Si4 Os4 C4'
_cell_volume   391.50325227
_cell_formula_units_Z   1
loop_
 _symmetry_equiv_pos_site_id
 _symmetry_equiv_pos_as_xyz
  1  'x, y, z'
loop_
 _atom_site_type_symbol
 _atom_site_label
 _atom_site_symmetry_multiplicity
 _atom_site_fract_x
 _atom_site_fract_y
 _atom_site_fract_z
 _atom_site_occupancy
  Nb  Nb0  1  0.691694  0.308004  0.692028  1
  Nb  Nb1  1  0.948311  0.556973  0.547476  1
  Nb  Nb2  1  0.566243  0.940484  0.941969  1
  Nb  Nb3  1  0.940483  0.566243  0.941969  1
  Nb  Nb4  1  0.547963  0.547962  0.953545  1
  Nb  Nb5  1  0.937037  0.937037  0.564597  1
  Nb  Nb6  1  0.686886  0.686886  0.312294  1
  Nb  Nb7  1  0.308004  0.691694  0.692027  1
  Nb  Nb8  1  0.702579  0.304646  0.303748  1
  Nb  Nb9  1  0.303119  0.303119  0.703138  1
  Nb  Nb10  1  0.556973  0.948311  0.547476  1
  Nb  Nb11  1  0.304646  0.702579  0.303748  1
  Zn  Zn12  1  0.338606  0.338607  0.338630  1
  Zn  Zn13  1  0.255610  0.918831  0.912465  1
  Zn  Zn14  1  0.918832  0.255608  0.912466  1
  Co  Co15  1  0.913600  0.913601  0.908796  1
  Si  Si16  1  0.919921  0.919921  0.243991  1
  Si  Si17  1  0.337467  0.995876  0.337604  1
  Si  Si18  1  0.336578  0.336578  0.997819  1
  Si  Si19  1  0.995876  0.337467  0.337605  1
  Os  Os20  1  0.129569  0.129568  0.136491  1
  Os  Os21  1  0.626696  0.115451  0.124368  1
  Os  Os22  1  0.115450  0.626696  0.124367  1
  Os  Os23  1  0.120488  0.120488  0.618106  1
  C  C24  1  0.626350  0.626351  0.629785  1
  C  C25  1  0.125150  0.622015  0.625291  1
  C  C26  1  0.622014  0.125151  0.625291  1
  C  C27  1  0.623854  0.623854  0.122911  1
