# generated using pymatgen
data_Ho12IrOs2Pd
_symmetry_space_group_name_H-M   'P 1'
_cell_length_a   6.41028534
_cell_length_b   7.29796701
_cell_length_c   9.10304000
_cell_angle_alpha   90.00000000
_cell_angle_beta   90.00000000
_cell_angle_gamma   90.29998626
_symmetry_Int_Tables_number   1
_chemical_formula_structural   Ho12IrOs2Pd
_chemical_formula_sum   'Ho12 Ir1 Os2 Pd1'
_cell_volume   425.85304376
_cell_formula_units_Z   1
loop_
 _symmetry_equiv_pos_site_id
 _symmetry_equiv_pos_as_xyz
  1  'x, y, z'
loop_
 _atom_site_type_symbol
 _atom_site_label
 _atom_site_symmetry_multiplicity
 _atom_site_fract_x
 _atom_site_fract_y
 _atom_site_fract_z
 _atom_site_occupancy
  Ho  Ho0  1  0.337986  0.671154  0.057840  1
  Ho  Ho1  1  0.174562  0.185104  0.439754  1
  Ho  Ho2  1  0.669849  0.323002  0.561689  1
  Ho  Ho3  1  0.822348  0.821272  0.933781  1
  Ho  Ho4  1  0.669849  0.323002  0.938311  1
  Ho  Ho5  1  0.822348  0.821272  0.566219  1
  Ho  Ho6  1  0.337986  0.671154  0.442160  1
  Ho  Ho7  1  0.174562  0.185104  0.060246  1
  Ho  Ho8  1  0.872142  0.529966  0.250000  1
  Ho  Ho9  1  0.621318  0.038895  0.250000  1
  Ho  Ho10  1  0.122915  0.466293  0.750000  1
  Ho  Ho11  1  0.371065  0.962880  0.750000  1
  Ir  Ir12  1  0.960814  0.114763  0.750000  1
  Os  Os13  1  0.461192  0.384236  0.250000  1
  Os  Os14  1  0.535183  0.614300  0.750000  1
  Pd  Pd15  1  0.045882  0.887602  0.250000  1
