# generated using pymatgen
data_Mn4Cu3Pd7Au2
_symmetry_space_group_name_H-M   'P 1'
_cell_length_a   6.78016292
_cell_length_b   6.78004405
_cell_length_c   6.78004341
_cell_angle_alpha   106.66054470
_cell_angle_beta   107.17305384
_cell_angle_gamma   114.71013723
_symmetry_Int_Tables_number   1
_chemical_formula_structural   Mn4Cu3Pd7Au2
_chemical_formula_sum   'Mn4 Cu3 Pd7 Au2'
_cell_volume   238.40860512
_cell_formula_units_Z   1
loop_
 _symmetry_equiv_pos_site_id
 _symmetry_equiv_pos_as_xyz
  1  'x, y, z'
loop_
 _atom_site_type_symbol
 _atom_site_label
 _atom_site_symmetry_multiplicity
 _atom_site_fract_x
 _atom_site_fract_y
 _atom_site_fract_z
 _atom_site_occupancy
  Mn  Mn0  1  0.244015  0.247762  0.497838  1
  Mn  Mn1  1  0.755891  0.760066  0.508887  1
  Mn  Mn2  1  0.244015  0.746179  0.996253  1
  Mn  Mn3  1  0.755891  0.247002  0.995825  1
  Cu  Cu4  1  0.499950  0.998422  0.501528  1
  Cu  Cu5  1  0.003615  0.501988  0.501627  1
  Cu  Cu6  1  0.499837  0.501416  0.998421  1
  Pd  Pd7  1  0.486118  0.739828  0.746291  1
  Pd  Pd8  1  0.006499  0.259860  0.746639  1
  Pd  Pd9  1  0.259694  0.005806  0.746012  1
  Pd  Pd10  1  0.993593  0.740183  0.253410  1
  Pd  Pd11  1  0.739663  0.991973  0.252762  1
  Pd  Pd12  1  0.259694  0.513683  0.253888  1
  Pd  Pd13  1  0.739663  0.486900  0.747690  1
  Au  Au14  1  0.515290  0.260864  0.254425  1
  Au  Au15  1  0.996572  0.998067  0.998505  1
