# generated using pymatgen
data_Mg5Si16NiPd7Rh2
_symmetry_space_group_name_H-M   'P 1'
_cell_length_a   8.86115539
_cell_length_b   8.89866441
_cell_length_c   8.87137850
_cell_angle_alpha   59.81322662
_cell_angle_beta   60.29700202
_cell_angle_gamma   59.98710536
_symmetry_Int_Tables_number   1
_chemical_formula_structural   Mg5Si16NiPd7Rh2
_chemical_formula_sum   'Mg5 Si16 Ni1 Pd7 Rh2'
_cell_volume   494.98801376
_cell_formula_units_Z   1
loop_
 _symmetry_equiv_pos_site_id
 _symmetry_equiv_pos_as_xyz
  1  'x, y, z'
loop_
 _atom_site_type_symbol
 _atom_site_label
 _atom_site_symmetry_multiplicity
 _atom_site_fract_x
 _atom_site_fract_y
 _atom_site_fract_z
 _atom_site_occupancy
  Mg  Mg0  1  0.195441  0.602014  0.602942  1
  Mg  Mg1  1  0.603431  0.599835  0.196393  1
  Mg  Mg2  1  0.601031  0.601908  0.600523  1
  Mg  Mg3  1  0.602808  0.195373  0.600310  1
  Mg  Mg4  1  0.250204  0.244742  0.255594  1
  Si  Si5  1  0.202603  0.664950  0.202633  1
  Si  Si6  1  0.926897  0.663483  0.197797  1
  Si  Si7  1  0.208257  0.199053  0.663569  1
  Si  Si8  1  0.660778  0.202407  0.211194  1
  Si  Si9  1  0.928152  0.199749  0.662503  1
  Si  Si10  1  0.199464  0.661738  0.926005  1
  Si  Si11  1  0.925584  0.208660  0.205710  1
  Si  Si12  1  0.662389  0.926608  0.210116  1
  Si  Si13  1  0.199028  0.928396  0.209343  1
  Si  Si14  1  0.207889  0.924942  0.658898  1
  Si  Si15  1  0.533962  0.825506  0.816783  1
  Si  Si16  1  0.831662  0.818277  0.821487  1
  Si  Si17  1  0.664067  0.203596  0.929015  1
  Si  Si18  1  0.822098  0.829609  0.528793  1
  Si  Si19  1  0.828330  0.534068  0.826221  1
  Si  Si20  1  0.195995  0.210423  0.929522  1
  Ni  Ni21  1  0.989037  0.512977  0.987680  1
  Pd  Pd22  1  0.373506  0.378928  0.866174  1
  Pd  Pd23  1  0.377147  0.382745  0.379765  1
  Pd  Pd24  1  0.863445  0.383738  0.373476  1
  Pd  Pd25  1  0.986032  0.513162  0.514341  1
  Pd  Pd26  1  0.514200  0.513168  0.986504  1
  Pd  Pd27  1  0.382671  0.856767  0.377243  1
  Pd  Pd28  1  0.513731  0.986171  0.986517  1
  Rh  Rh29  1  0.989182  0.988444  0.511566  1
  Rh  Rh30  1  0.510979  0.988561  0.511380  1
