# generated using pymatgen
data_Ho3TlZnCd3Au
_symmetry_space_group_name_H-M   'P 1'
_cell_length_a   8.03577600
_cell_length_b   8.03577550
_cell_length_c   3.75334200
_cell_angle_alpha   90.00000000
_cell_angle_beta   90.00000000
_cell_angle_gamma   120.00001029
_symmetry_Int_Tables_number   1
_chemical_formula_structural   Ho3TlZnCd3Au
_chemical_formula_sum   'Ho3 Tl1 Zn1 Cd3 Au1'
_cell_volume   209.89608709
_cell_formula_units_Z   1
loop_
 _symmetry_equiv_pos_site_id
 _symmetry_equiv_pos_as_xyz
  1  'x, y, z'
loop_
 _atom_site_type_symbol
 _atom_site_label
 _atom_site_symmetry_multiplicity
 _atom_site_fract_x
 _atom_site_fract_y
 _atom_site_fract_z
 _atom_site_occupancy
  Ho  Ho0  1  0.614595  0.021910  0.000000  1
  Ho  Ho1  1  0.978090  0.592685  0.000000  1
  Ho  Ho2  1  0.407315  0.385405  0.000000  1
  Tl  Tl3  1  0.333333  0.666667  0.500000  1
  Zn  Zn4  1  0.000000  0.000000  0.000000  1
  Cd  Cd5  1  0.259657  0.999617  0.500000  1
  Cd  Cd6  1  0.000383  0.260041  0.500000  1
  Cd  Cd7  1  0.739959  0.740343  0.500000  1
  Au  Au8  1  0.666667  0.333333  0.500000  1
