# generated using pymatgen
data_TbDy3(Si5Pt3)2
_symmetry_space_group_name_H-M   'P 1'
_cell_length_a   8.14930275
_cell_length_b   8.14500873
_cell_length_c   8.14500900
_cell_angle_alpha   136.26652501
_cell_angle_beta   104.61901054
_cell_angle_gamma   91.42680828
_symmetry_Int_Tables_number   1
_chemical_formula_structural   TbDy3(Si5Pt3)2
_chemical_formula_sum   'Tb1 Dy3 Si10 Pt6'
_cell_volume   343.84481413
_cell_formula_units_Z   1
loop_
 _symmetry_equiv_pos_site_id
 _symmetry_equiv_pos_as_xyz
  1  'x, y, z'
loop_
 _atom_site_type_symbol
 _atom_site_label
 _atom_site_symmetry_multiplicity
 _atom_site_fract_x
 _atom_site_fract_y
 _atom_site_fract_z
 _atom_site_occupancy
  Tb  Tb0  1  0.900323  0.129548  0.770774  1
  Dy  Dy1  1  0.641425  0.370431  0.270994  1
  Dy  Dy2  1  0.358625  0.629574  0.729051  1
  Dy  Dy3  1  0.099491  0.870411  0.229081  1
  Si  Si4  1  0.271941  0.521923  0.249904  1
  Si  Si5  1  0.728026  0.478113  0.750053  1
  Si  Si6  1  0.728026  0.977975  0.249914  1
  Si  Si7  1  0.271941  0.022037  0.750019  1
  Si  Si8  1  0.460680  0.111970  0.348712  1
  Si  Si9  1  0.539132  0.887868  0.651264  1
  Si  Si10  1  0.763355  0.612003  0.151353  1
  Si  Si11  1  0.236713  0.388073  0.848639  1
  Si  Si12  1  0.000057  0.249935  0.249993  1
  Si  Si13  1  0.000057  0.750064  0.750121  1
  Pt  Pt14  1  0.250075  0.137464  0.112611  1
  Pt  Pt15  1  0.749924  0.862372  0.887552  1
  Pt  Pt16  1  0.025146  0.637483  0.387664  1
  Pt  Pt17  1  0.975091  0.362806  0.612284  1
  Pt  Pt18  1  0.499985  0.250128  0.750163  1
  Pt  Pt19  1  0.499985  0.749822  0.249857  1
