# generated using pymatgen
data_Rb4HoAuO5
_symmetry_space_group_name_H-M   'P 1'
_cell_length_a   6.47424400
_cell_length_b   6.47424367
_cell_length_c   11.18421800
_cell_angle_alpha   90.00000000
_cell_angle_beta   90.00000000
_cell_angle_gamma   114.73029577
_symmetry_Int_Tables_number   1
_chemical_formula_structural   Rb4HoAuO5
_chemical_formula_sum   'Rb8 Ho2 Au2 O10'
_cell_volume   425.80119215
_cell_formula_units_Z   2
loop_
 _symmetry_equiv_pos_site_id
 _symmetry_equiv_pos_as_xyz
  1  'x, y, z'
loop_
 _atom_site_type_symbol
 _atom_site_label
 _atom_site_symmetry_multiplicity
 _atom_site_fract_x
 _atom_site_fract_y
 _atom_site_fract_z
 _atom_site_occupancy
  Rb  Rb0  1  0.384300  0.029747  0.250000  1
  Rb  Rb1  1  0.029747  0.384300  0.250000  1
  Rb  Rb2  1  0.655846  0.344154  0.000000  1
  Rb  Rb3  1  0.655846  0.344154  0.500000  1
  Rb  Rb4  1  0.344154  0.655846  0.000000  1
  Rb  Rb5  1  0.615700  0.970253  0.750000  1
  Rb  Rb6  1  0.344154  0.655846  0.500000  1
  Rb  Rb7  1  0.970253  0.615700  0.750000  1
  Ho  Ho8  1  0.770463  0.770463  0.250000  1
  Ho  Ho9  1  0.229537  0.229537  0.750000  1
  Au  Au10  1  0.000000  0.000000  0.000000  1
  Au  Au11  1  0.000000  0.000000  0.500000  1
  O  O12  1  0.997245  0.255912  0.607770  1
  O  O13  1  0.255912  0.997245  0.892230  1
  O  O14  1  0.744088  0.002755  0.392230  1
  O  O15  1  0.744088  0.002755  0.107770  1
  O  O16  1  0.474803  0.474803  0.250000  1
  O  O17  1  0.525197  0.525197  0.750000  1
  O  O18  1  0.002755  0.744088  0.392230  1
  O  O19  1  0.255912  0.997245  0.607770  1
  O  O20  1  0.002755  0.744088  0.107770  1
  O  O21  1  0.997245  0.255912  0.892230  1
