# generated using pymatgen
data_Tb3BiO7
_symmetry_space_group_name_H-M   'P 1'
_cell_length_a   6.58944993
_cell_length_b   6.57929917
_cell_length_c   7.76035442
_cell_angle_alpha   106.92668847
_cell_angle_beta   89.73634570
_cell_angle_gamma   98.61777520
_symmetry_Int_Tables_number   1
_chemical_formula_structural   Tb3BiO7
_chemical_formula_sum   'Tb6 Bi2 O14'
_cell_volume   317.96193647
_cell_formula_units_Z   2
loop_
 _symmetry_equiv_pos_site_id
 _symmetry_equiv_pos_as_xyz
  1  'x, y, z'
loop_
 _atom_site_type_symbol
 _atom_site_label
 _atom_site_symmetry_multiplicity
 _atom_site_fract_x
 _atom_site_fract_y
 _atom_site_fract_z
 _atom_site_occupancy
  Tb  Tb0  1  0.728606  0.462929  0.117546  1
  Tb  Tb1  1  0.732728  0.474082  0.612639  1
  Tb  Tb2  1  0.538241  0.994455  0.748414  1
  Tb  Tb3  1  0.461759  0.005545  0.251586  1
  Tb  Tb4  1  0.267272  0.525918  0.387361  1
  Tb  Tb5  1  0.271394  0.537071  0.882454  1
  Bi  Bi6  1  0.000000  0.000000  0.000000  1
  Bi  Bi7  1  0.000000  0.000000  0.500000  1
  O  O8  1  0.701349  0.075495  0.487070  1
  O  O9  1  0.924976  0.667416  0.959867  1
  O  O10  1  0.698668  0.078847  0.048839  1
  O  O11  1  0.931018  0.651462  0.379633  1
  O  O12  1  0.875530  0.902848  0.725134  1
  O  O13  1  0.554456  0.352035  0.832854  1
  O  O14  1  0.546072  0.363653  0.345052  1
  O  O15  1  0.453928  0.636347  0.654948  1
  O  O16  1  0.445544  0.647965  0.167146  1
  O  O17  1  0.124470  0.097152  0.274866  1
  O  O18  1  0.068982  0.348538  0.620367  1
  O  O19  1  0.301332  0.921153  0.951161  1
  O  O20  1  0.075024  0.332584  0.040133  1
  O  O21  1  0.298651  0.924505  0.512930  1
