# generated using pymatgen
data_K2Eu4Si8O21
_symmetry_space_group_name_H-M   'P 1'
_cell_length_a   7.08526306
_cell_length_b   7.27761092
_cell_length_c   11.62223004
_cell_angle_alpha   97.05398445
_cell_angle_beta   104.95086381
_cell_angle_gamma   109.21368992
_symmetry_Int_Tables_number   1
_chemical_formula_structural   K2Eu4Si8O21
_chemical_formula_sum   'K2 Eu4 Si8 O21'
_cell_volume   532.38925687
_cell_formula_units_Z   1
loop_
 _symmetry_equiv_pos_site_id
 _symmetry_equiv_pos_as_xyz
  1  'x, y, z'
loop_
 _atom_site_type_symbol
 _atom_site_label
 _atom_site_symmetry_multiplicity
 _atom_site_fract_x
 _atom_site_fract_y
 _atom_site_fract_z
 _atom_site_occupancy
  K  K0  1  0.738801  0.708317  0.432165  1
  K  K1  1  0.261199  0.291683  0.567835  1
  Eu  Eu2  1  0.664045  0.780958  0.814967  1
  Eu  Eu3  1  0.335955  0.219042  0.185033  1
  Eu  Eu4  1  0.362205  0.716104  0.041441  1
  Eu  Eu5  1  0.637795  0.283896  0.958559  1
  Si  Si6  1  0.095789  0.238042  0.880612  1
  Si  Si7  1  0.904211  0.761958  0.119388  1
  Si  Si8  1  0.179466  0.899734  0.742220  1
  Si  Si9  1  0.820534  0.100266  0.257780  1
  Si  Si10  1  0.662108  0.195721  0.471306  1
  Si  Si11  1  0.337892  0.804279  0.528694  1
  Si  Si12  1  0.876687  0.466982  0.734676  1
  Si  Si13  1  0.123313  0.533018  0.265324  1
  O  O14  1  0.500000  0.000000  0.500000  1
  O  O15  1  0.846196  0.334030  0.601526  1
  O  O16  1  0.153804  0.665970  0.398474  1
  O  O17  1  0.384884  0.911141  0.847318  1
  O  O18  1  0.615116  0.088859  0.152682  1
  O  O19  1  0.882805  0.126171  0.910475  1
  O  O20  1  0.117195  0.873829  0.089525  1
  O  O21  1  0.683891  0.679240  0.008389  1
  O  O22  1  0.316109  0.320760  0.991611  1
  O  O23  1  0.117769  0.098509  0.762959  1
  O  O24  1  0.882231  0.901491  0.237041  1
  O  O25  1  0.080500  0.445077  0.833634  1
  O  O26  1  0.919500  0.554923  0.166366  1
  O  O27  1  0.961810  0.708511  0.730864  1
  O  O28  1  0.038190  0.291489  0.269136  1
  O  O29  1  0.459058  0.683411  0.601070  1
  O  O30  1  0.540942  0.316589  0.398930  1
  O  O31  1  0.331138  0.579712  0.225148  1
  O  O32  1  0.668862  0.420288  0.774852  1
  O  O33  1  0.199422  0.888670  0.602645  1
  O  O34  1  0.800578  0.111330  0.397355  1
