# generated using pymatgen
data_Hf5Co19(Si2P)4
_symmetry_space_group_name_H-M   'P 1'
_cell_length_a   11.89632332
_cell_length_b   11.89497486
_cell_length_c   3.59462300
_cell_angle_alpha   90.00000000
_cell_angle_beta   90.00000000
_cell_angle_gamma   119.99300864
_symmetry_Int_Tables_number   1
_chemical_formula_structural   Hf5Co19(Si2P)4
_chemical_formula_sum   'Hf5 Co19 Si8 P4'
_cell_volume   440.54559135
_cell_formula_units_Z   1
loop_
 _symmetry_equiv_pos_site_id
 _symmetry_equiv_pos_as_xyz
  1  'x, y, z'
loop_
 _atom_site_type_symbol
 _atom_site_label
 _atom_site_symmetry_multiplicity
 _atom_site_fract_x
 _atom_site_fract_y
 _atom_site_fract_z
 _atom_site_occupancy
  Hf  Hf0  1  0.332506  0.665858  0.500000  1
  Hf  Hf1  1  0.667757  0.332457  0.500000  1
  Hf  Hf2  1  0.000515  0.182632  0.000000  1
  Hf  Hf3  1  0.817634  0.818700  0.000000  1
  Hf  Hf4  1  0.184075  0.999863  0.000000  1
  Co  Co5  1  0.629779  0.825733  0.500000  1
  Co  Co6  1  0.174479  0.804525  0.500000  1
  Co  Co7  1  0.195097  0.369018  0.500000  1
  Co  Co8  1  0.372444  0.195882  0.500000  1
  Co  Co9  1  0.824538  0.628964  0.500000  1
  Co  Co10  1  0.799223  0.174765  0.500000  1
  Co  Co11  1  0.999635  0.555728  0.500000  1
  Co  Co12  1  0.444796  0.445098  0.500000  1
  Co  Co13  1  0.553913  0.996970  0.500000  1
  Co  Co14  1  0.521169  0.646548  0.000000  1
  Co  Co15  1  0.352188  0.873146  0.000000  1
  Co  Co16  1  0.125941  0.478091  0.000000  1
  Co  Co17  1  0.486143  0.128110  0.000000  1
  Co  Co18  1  0.646763  0.521173  0.000000  1
  Co  Co19  1  0.871638  0.350707  0.000000  1
  Co  Co20  1  0.999391  0.723839  0.000000  1
  Co  Co21  1  0.276853  0.275570  0.000000  1
  Co  Co22  1  0.721364  0.003748  0.000000  1
  Co  Co23  1  0.999182  0.000322  0.500000  1
  Si  Si24  1  0.999478  0.363035  0.500000  1
  Si  Si25  1  0.637436  0.637524  0.500000  1
  Si  Si26  1  0.364063  0.000245  0.500000  1
  Si  Si27  1  0.517311  0.837212  0.000000  1
  Si  Si28  1  0.160752  0.679243  0.000000  1
  Si  Si29  1  0.319766  0.480813  0.000000  1
  Si  Si30  1  0.482462  0.319897  0.000000  1
  Si  Si31  1  0.838681  0.518286  0.000000  1
  P  P32  1  0.683189  0.165858  0.000000  1
  P  P33  1  0.999629  0.824153  0.500000  1
  P  P34  1  0.176905  0.175095  0.500000  1
  P  P35  1  0.823305  0.001193  0.500000  1
