# generated using pymatgen
data_YLu2Al4Ni9B2
_symmetry_space_group_name_H-M   'P 1'
_cell_length_a   5.14719400
_cell_length_b   5.14719247
_cell_length_c   10.58753300
_cell_angle_alpha   90.00000000
_cell_angle_beta   90.00000000
_cell_angle_gamma   120.00000981
_symmetry_Int_Tables_number   1
_chemical_formula_structural   YLu2Al4Ni9B2
_chemical_formula_sum   'Y1 Lu2 Al4 Ni9 B2'
_cell_volume   242.92169994
_cell_formula_units_Z   1
loop_
 _symmetry_equiv_pos_site_id
 _symmetry_equiv_pos_as_xyz
  1  'x, y, z'
loop_
 _atom_site_type_symbol
 _atom_site_label
 _atom_site_symmetry_multiplicity
 _atom_site_fract_x
 _atom_site_fract_y
 _atom_site_fract_z
 _atom_site_occupancy
  Y  Y0  1  0.000000  0.000000  0.333886  1
  Lu  Lu1  1  0.000000  0.000000  0.659079  1
  Lu  Lu2  1  0.000000  0.000000  0.997537  1
  Al  Al3  1  0.666667  0.333333  0.685273  1
  Al  Al4  1  0.333333  0.666667  0.685273  1
  Al  Al5  1  0.333333  0.666667  0.316829  1
  Al  Al6  1  0.666667  0.333333  0.316829  1
  Ni  Ni7  1  0.500000  0.500000  0.871264  1
  Ni  Ni8  1  0.500000  0.000000  0.871264  1
  Ni  Ni9  1  0.000000  0.500000  0.871264  1
  Ni  Ni10  1  0.500000  0.500000  0.128789  1
  Ni  Ni11  1  0.500000  0.000000  0.128789  1
  Ni  Ni12  1  0.000000  0.500000  0.128789  1
  Ni  Ni13  1  0.500000  0.500000  0.501625  1
  Ni  Ni14  1  0.500000  0.000000  0.501625  1
  Ni  Ni15  1  0.000000  0.500000  0.501625  1
  B  B16  1  0.666667  0.333333  0.000129  1
  B  B17  1  0.333333  0.666667  0.000129  1
