# generated using pymatgen
data_Tb9Ho(Pb3Cl)2
_symmetry_space_group_name_H-M   'P 1'
_cell_length_a   9.24072500
_cell_length_b   9.24072423
_cell_length_c   6.63420900
_cell_angle_alpha   90.00000000
_cell_angle_beta   90.00000000
_cell_angle_gamma   119.99999917
_symmetry_Int_Tables_number   1
_chemical_formula_structural   Tb9Ho(Pb3Cl)2
_chemical_formula_sum   'Tb9 Ho1 Pb6 Cl2'
_cell_volume   490.60485353
_cell_formula_units_Z   1
loop_
 _symmetry_equiv_pos_site_id
 _symmetry_equiv_pos_as_xyz
  1  'x, y, z'
loop_
 _atom_site_type_symbol
 _atom_site_label
 _atom_site_symmetry_multiplicity
 _atom_site_fract_x
 _atom_site_fract_y
 _atom_site_fract_z
 _atom_site_occupancy
  Tb  Tb0  1  0.260130  0.999943  0.750108  1
  Tb  Tb1  1  0.739813  0.999943  0.249892  1
  Tb  Tb2  1  0.000057  0.260187  0.750108  1
  Tb  Tb3  1  0.000057  0.739870  0.249892  1
  Tb  Tb4  1  0.739813  0.739870  0.750108  1
  Tb  Tb5  1  0.260130  0.260187  0.249892  1
  Tb  Tb6  1  0.333333  0.666667  0.500000  1
  Tb  Tb7  1  0.666667  0.333333  0.500000  1
  Tb  Tb8  1  0.666667  0.333333  0.000000  1
  Ho  Ho9  1  0.333333  0.666667  0.000000  1
  Pb  Pb10  1  0.610036  0.999496  0.750355  1
  Pb  Pb11  1  0.389460  0.999496  0.249645  1
  Pb  Pb12  1  0.000504  0.610540  0.750355  1
  Pb  Pb13  1  0.000504  0.389964  0.249645  1
  Pb  Pb14  1  0.389460  0.389964  0.750355  1
  Pb  Pb15  1  0.610036  0.610540  0.249645  1
  Cl  Cl16  1  0.000000  0.000000  0.500000  1
  Cl  Cl17  1  0.000000  0.000000  0.000000  1
