# generated using pymatgen
data_BaCaHgAs2
_symmetry_space_group_name_H-M   'P 1'
_cell_length_a   9.20340528
_cell_length_b   9.20340467
_cell_length_c   7.18418000
_cell_angle_alpha   90.00000000
_cell_angle_beta   90.00000000
_cell_angle_gamma   151.57693212
_symmetry_Int_Tables_number   1
_chemical_formula_structural   BaCaHgAs2
_chemical_formula_sum   'Ba2 Ca2 Hg2 As4'
_cell_volume   289.64193998
_cell_formula_units_Z   2
loop_
 _symmetry_equiv_pos_site_id
 _symmetry_equiv_pos_as_xyz
  1  'x, y, z'
loop_
 _atom_site_type_symbol
 _atom_site_label
 _atom_site_symmetry_multiplicity
 _atom_site_fract_x
 _atom_site_fract_y
 _atom_site_fract_z
 _atom_site_occupancy
  Ba  Ba0  1  0.300857  0.699143  0.950421  1
  Ba  Ba1  1  0.699143  0.300857  0.450421  1
  Ca  Ca2  1  0.474402  0.525598  0.273064  1
  Ca  Ca3  1  0.525598  0.474402  0.773064  1
  Hg  Hg4  1  0.095702  0.904298  0.103371  1
  Hg  Hg5  1  0.904298  0.095702  0.603371  1
  As  As6  1  0.057719  0.942281  0.486690  1
  As  As7  1  0.942281  0.057719  0.986690  1
  As  As8  1  0.330319  0.669681  0.482004  1
  As  As9  1  0.669681  0.330319  0.982004  1
