# generated using pymatgen
data_Ca2YbNi7B2
_symmetry_space_group_name_H-M   'P 1'
_cell_length_a   5.10774900
_cell_length_b   5.10774891
_cell_length_c   14.28651400
_cell_angle_alpha   90.00000000
_cell_angle_beta   90.00000000
_cell_angle_gamma   120.00000705
_symmetry_Int_Tables_number   1
_chemical_formula_structural   Ca2YbNi7B2
_chemical_formula_sum   'Ca4 Yb2 Ni14 B4'
_cell_volume   322.78694341
_cell_formula_units_Z   2
loop_
 _symmetry_equiv_pos_site_id
 _symmetry_equiv_pos_as_xyz
  1  'x, y, z'
loop_
 _atom_site_type_symbol
 _atom_site_label
 _atom_site_symmetry_multiplicity
 _atom_site_fract_x
 _atom_site_fract_y
 _atom_site_fract_z
 _atom_site_occupancy
  Ca  Ca0  1  0.666667  0.333333  0.535280  1
  Ca  Ca1  1  0.333333  0.666667  0.464720  1
  Ca  Ca2  1  0.333333  0.666667  0.035280  1
  Ca  Ca3  1  0.666667  0.333333  0.964720  1
  Yb  Yb4  1  0.666667  0.333333  0.750000  1
  Yb  Yb5  1  0.333333  0.666667  0.250000  1
  Ni  Ni6  1  0.165703  0.331407  0.653526  1
  Ni  Ni7  1  0.331407  0.165703  0.346474  1
  Ni  Ni8  1  0.331407  0.165703  0.153526  1
  Ni  Ni9  1  0.165703  0.834297  0.846474  1
  Ni  Ni10  1  0.834297  0.668593  0.346474  1
  Ni  Ni11  1  0.834297  0.165703  0.153526  1
  Ni  Ni12  1  0.668593  0.834297  0.653526  1
  Ni  Ni13  1  0.668593  0.834297  0.846474  1
  Ni  Ni14  1  0.165703  0.834297  0.653526  1
  Ni  Ni15  1  0.834297  0.668593  0.153526  1
  Ni  Ni16  1  0.000000  0.000000  0.000000  1
  Ni  Ni17  1  0.165703  0.331407  0.846474  1
  Ni  Ni18  1  0.834297  0.165703  0.346474  1
  Ni  Ni19  1  0.000000  0.000000  0.500000  1
  B  B20  1  0.666667  0.333333  0.250000  1
  B  B21  1  0.000000  0.000000  0.750000  1
  B  B22  1  0.333333  0.666667  0.750000  1
  B  B23  1  0.000000  0.000000  0.250000  1
