# generated using pymatgen
data_Ho6Al18GaSi5Os8
_symmetry_space_group_name_H-M   'P 1'
_cell_length_a   8.68423400
_cell_length_b   8.67286731
_cell_length_c   9.59126800
_cell_angle_alpha   89.99977835
_cell_angle_beta   90.00025080
_cell_angle_gamma   120.04332120
_symmetry_Int_Tables_number   1
_chemical_formula_structural   Ho6Al18GaSi5Os8
_chemical_formula_sum   'Ho6 Al18 Ga1 Si5 Os8'
_cell_volume   625.33268286
_cell_formula_units_Z   1
loop_
 _symmetry_equiv_pos_site_id
 _symmetry_equiv_pos_as_xyz
  1  'x, y, z'
loop_
 _atom_site_type_symbol
 _atom_site_label
 _atom_site_symmetry_multiplicity
 _atom_site_fract_x
 _atom_site_fract_y
 _atom_site_fract_z
 _atom_site_occupancy
  Ho  Ho0  1  0.194597  0.389195  0.250002  1
  Ho  Ho1  1  0.805690  0.611376  0.750000  1
  Ho  Ho2  1  0.607954  0.806484  0.250000  1
  Ho  Ho3  1  0.390669  0.194113  0.750000  1
  Ho  Ho4  1  0.198529  0.806482  0.250000  1
  Ho  Ho5  1  0.803444  0.194109  0.750000  1
  Al  Al6  1  0.164809  0.329618  0.578448  1
  Al  Al7  1  0.834685  0.669369  0.421784  1
  Al  Al8  1  0.669556  0.834792  0.576482  1
  Al  Al9  1  0.834684  0.669369  0.078217  1
  Al  Al10  1  0.329365  0.165868  0.421951  1
  Al  Al11  1  0.164809  0.329618  0.921551  1
  Al  Al12  1  0.165236  0.834792  0.576482  1
  Al  Al13  1  0.329366  0.165869  0.078050  1
  Al  Al14  1  0.836503  0.165869  0.421951  1
  Al  Al15  1  0.669555  0.834791  0.923517  1
  Al  Al16  1  0.836503  0.165869  0.078049  1
  Al  Al17  1  0.165236  0.834792  0.923517  1
  Al  Al18  1  0.872789  0.433381  0.250001  1
  Al  Al19  1  0.127510  0.565186  0.749999  1
  Al  Al20  1  0.560591  0.433382  0.250001  1
  Al  Al21  1  0.437677  0.565185  0.749999  1
  Al  Al22  1  0.999820  0.999642  0.250002  1
  Al  Al23  1  0.000371  0.000743  0.749998  1
  Ga  Ga24  1  0.436689  0.873378  0.750000  1
  Si  Si25  1  0.332406  0.664812  0.039828  1
  Si  Si26  1  0.667272  0.334543  0.960375  1
  Si  Si27  1  0.667272  0.334543  0.539624  1
  Si  Si28  1  0.332407  0.664812  0.460172  1
  Si  Si29  1  0.564022  0.128046  0.250000  1
  Os  Os30  1  0.500841  0.001680  0.008779  1
  Os  Os31  1  0.999575  0.499481  0.000210  1
  Os  Os32  1  0.500840  0.001681  0.491220  1
  Os  Os33  1  0.499907  0.499482  0.000210  1
  Os  Os34  1  0.999573  0.499480  0.499790  1
  Os  Os35  1  0.499906  0.499481  0.499791  1
  Os  Os36  1  0.999672  0.999343  0.000098  1
  Os  Os37  1  0.999672  0.999342  0.499903  1
