# generated using pymatgen
data_Ba2USe5
_symmetry_space_group_name_H-M   'P 1'
_cell_length_a   8.22891200
_cell_length_b   9.00169000
_cell_length_c   12.91252800
_cell_angle_alpha   90.00000000
_cell_angle_beta   90.00000000
_cell_angle_gamma   90.00000000
_symmetry_Int_Tables_number   1
_chemical_formula_structural   Ba2USe5
_chemical_formula_sum   'Ba8 U4 Se20'
_cell_volume   956.48408222
_cell_formula_units_Z   4
loop_
 _symmetry_equiv_pos_site_id
 _symmetry_equiv_pos_as_xyz
  1  'x, y, z'
loop_
 _atom_site_type_symbol
 _atom_site_label
 _atom_site_symmetry_multiplicity
 _atom_site_fract_x
 _atom_site_fract_y
 _atom_site_fract_z
 _atom_site_occupancy
  Ba  Ba0  1  0.414411  0.507164  0.668714  1
  Ba  Ba1  1  0.914411  0.492836  0.831286  1
  Ba  Ba2  1  0.585589  0.007164  0.331286  1
  Ba  Ba3  1  0.085589  0.992836  0.168714  1
  Ba  Ba4  1  0.914411  0.007164  0.831286  1
  Ba  Ba5  1  0.414411  0.992836  0.668714  1
  Ba  Ba6  1  0.085589  0.507164  0.168714  1
  Ba  Ba7  1  0.585589  0.492836  0.331286  1
  U  U8  1  0.944020  0.750000  0.505948  1
  U  U9  1  0.444020  0.250000  0.994052  1
  U  U10  1  0.055980  0.250000  0.494052  1
  U  U11  1  0.555980  0.750000  0.005948  1
  Se  Se12  1  0.324820  0.958033  0.939394  1
  Se  Se13  1  0.824820  0.041967  0.560606  1
  Se  Se14  1  0.675180  0.458033  0.060606  1
  Se  Se15  1  0.175180  0.541967  0.439394  1
  Se  Se16  1  0.675180  0.041967  0.060606  1
  Se  Se17  1  0.175180  0.958033  0.439394  1
  Se  Se18  1  0.324820  0.541967  0.939394  1
  Se  Se19  1  0.824820  0.458033  0.560606  1
  Se  Se20  1  0.396815  0.750000  0.192615  1
  Se  Se21  1  0.896815  0.250000  0.307385  1
  Se  Se22  1  0.603185  0.250000  0.807385  1
  Se  Se23  1  0.103185  0.750000  0.692615  1
  Se  Se24  1  0.093526  0.250000  0.987014  1
  Se  Se25  1  0.593526  0.750000  0.512986  1
  Se  Se26  1  0.906474  0.750000  0.012986  1
  Se  Se27  1  0.406474  0.250000  0.487014  1
  Se  Se28  1  0.630389  0.750000  0.802728  1
  Se  Se29  1  0.130389  0.250000  0.697272  1
  Se  Se30  1  0.369611  0.250000  0.197272  1
  Se  Se31  1  0.869611  0.750000  0.302728  1
