# generated using pymatgen
data_LiTiIrS4
_symmetry_space_group_name_H-M   'P 1'
_cell_length_a   6.96106031
_cell_length_b   6.96105925
_cell_length_c   5.73352453
_cell_angle_alpha   67.83078522
_cell_angle_beta   67.83078690
_cell_angle_gamma   29.24491551
_symmetry_Int_Tables_number   1
_chemical_formula_structural   LiTiIrS4
_chemical_formula_sum   'Li1 Ti1 Ir1 S4'
_cell_volume   124.98369240
_cell_formula_units_Z   1
loop_
 _symmetry_equiv_pos_site_id
 _symmetry_equiv_pos_as_xyz
  1  'x, y, z'
loop_
 _atom_site_type_symbol
 _atom_site_label
 _atom_site_symmetry_multiplicity
 _atom_site_fract_x
 _atom_site_fract_y
 _atom_site_fract_z
 _atom_site_occupancy
  Li  Li0  1  0.506722  0.506722  0.518764  1
  Ti  Ti1  1  0.754722  0.754722  0.186898  1
  Ir  Ir2  1  0.244377  0.244377  0.785736  1
  S  S3  1  0.376366  0.376366  0.971797  1
  S  S4  1  0.845629  0.845629  0.508809  1
  S  S5  1  0.148325  0.148325  0.507193  1
  S  S6  1  0.623859  0.623859  0.020804  1
