# generated using pymatgen
data_Tm4HfIr2Rh
_symmetry_space_group_name_H-M   'P 1'
_cell_length_a   10.71087400
_cell_length_b   10.71087400
_cell_length_c   6.20204600
_cell_angle_alpha   90.00000000
_cell_angle_beta   90.00000000
_cell_angle_gamma   90.00000000
_symmetry_Int_Tables_number   1
_chemical_formula_structural   Tm4HfIr2Rh
_chemical_formula_sum   'Tm16 Hf4 Ir8 Rh4'
_cell_volume   711.51621833
_cell_formula_units_Z   4
loop_
 _symmetry_equiv_pos_site_id
 _symmetry_equiv_pos_as_xyz
  1  'x, y, z'
loop_
 _atom_site_type_symbol
 _atom_site_label
 _atom_site_symmetry_multiplicity
 _atom_site_fract_x
 _atom_site_fract_y
 _atom_site_fract_z
 _atom_site_occupancy
  Tm  Tm0  1  0.289172  0.086437  0.374374  1
  Tm  Tm1  1  0.289172  0.913563  0.874374  1
  Tm  Tm2  1  0.710828  0.086437  0.874374  1
  Tm  Tm3  1  0.710828  0.913563  0.374374  1
  Tm  Tm4  1  0.586437  0.789172  0.874374  1
  Tm  Tm5  1  0.586437  0.210828  0.374374  1
  Tm  Tm6  1  0.413563  0.789172  0.374374  1
  Tm  Tm7  1  0.413563  0.210828  0.874374  1
  Tm  Tm8  1  0.210828  0.413563  0.625626  1
  Tm  Tm9  1  0.210828  0.586437  0.125626  1
  Tm  Tm10  1  0.789172  0.413563  0.125626  1
  Tm  Tm11  1  0.789172  0.586437  0.625626  1
  Tm  Tm12  1  0.913563  0.710828  0.125626  1
  Tm  Tm13  1  0.913563  0.289172  0.625626  1
  Tm  Tm14  1  0.086437  0.710828  0.625626  1
  Tm  Tm15  1  0.086437  0.289172  0.125626  1
  Hf  Hf16  1  0.000000  0.000000  0.500000  1
  Hf  Hf17  1  0.000000  0.000000  0.000000  1
  Hf  Hf18  1  0.500000  0.500000  0.000000  1
  Hf  Hf19  1  0.500000  0.500000  0.500000  1
  Ir  Ir20  1  0.854531  0.145469  0.250000  1
  Ir  Ir21  1  0.854531  0.854531  0.750000  1
  Ir  Ir22  1  0.145469  0.145469  0.750000  1
  Ir  Ir23  1  0.145469  0.854531  0.250000  1
  Ir  Ir24  1  0.645469  0.354531  0.750000  1
  Ir  Ir25  1  0.645469  0.645469  0.250000  1
  Ir  Ir26  1  0.354531  0.354531  0.250000  1
  Ir  Ir27  1  0.354531  0.645469  0.750000  1
  Rh  Rh28  1  0.500000  0.000000  0.122109  1
  Rh  Rh29  1  0.500000  0.000000  0.622109  1
  Rh  Rh30  1  0.000000  0.500000  0.877891  1
  Rh  Rh31  1  0.000000  0.500000  0.377891  1
