# generated using pymatgen
data_Ba4TbIrO8
_symmetry_space_group_name_H-M   'P 1'
_cell_length_a   7.42885109
_cell_length_b   7.42885041
_cell_length_c   6.01423300
_cell_angle_alpha   90.00000000
_cell_angle_beta   90.00000000
_cell_angle_gamma   132.87613606
_symmetry_Int_Tables_number   1
_chemical_formula_structural   Ba4TbIrO8
_chemical_formula_sum   'Ba4 Tb1 Ir1 O8'
_cell_volume   243.23417673
_cell_formula_units_Z   1
loop_
 _symmetry_equiv_pos_site_id
 _symmetry_equiv_pos_as_xyz
  1  'x, y, z'
loop_
 _atom_site_type_symbol
 _atom_site_label
 _atom_site_symmetry_multiplicity
 _atom_site_fract_x
 _atom_site_fract_y
 _atom_site_fract_z
 _atom_site_occupancy
  Ba  Ba0  1  0.355183  0.644817  0.000000  1
  Ba  Ba1  1  0.854493  0.145507  0.500000  1
  Ba  Ba2  1  0.145507  0.854493  0.500000  1
  Ba  Ba3  1  0.644817  0.355183  0.000000  1
  Tb  Tb4  1  0.000000  0.000000  0.000000  1
  Ir  Ir5  1  0.500000  0.500000  0.500000  1
  O  O6  1  0.261464  0.261464  0.732621  1
  O  O7  1  0.738536  0.738536  0.267379  1
  O  O8  1  0.738536  0.738536  0.732621  1
  O  O9  1  0.261464  0.261464  0.267379  1
  O  O10  1  0.166995  0.833005  0.000000  1
  O  O11  1  0.648455  0.351545  0.500000  1
  O  O12  1  0.351545  0.648455  0.500000  1
  O  O13  1  0.833005  0.166995  0.000000  1
