# generated using pymatgen
data_Nb6CrGaSe12
_symmetry_space_group_name_H-M   'P 1'
_cell_length_a   6.05080900
_cell_length_b   6.05080898
_cell_length_c   13.94208700
_cell_angle_alpha   90.00000000
_cell_angle_beta   90.00000000
_cell_angle_gamma   120.00000556
_symmetry_Int_Tables_number   1
_chemical_formula_structural   Nb6CrGaSe12
_chemical_formula_sum   'Nb6 Cr1 Ga1 Se12'
_cell_volume   442.06413639
_cell_formula_units_Z   1
loop_
 _symmetry_equiv_pos_site_id
 _symmetry_equiv_pos_as_xyz
  1  'x, y, z'
loop_
 _atom_site_type_symbol
 _atom_site_label
 _atom_site_symmetry_multiplicity
 _atom_site_fract_x
 _atom_site_fract_y
 _atom_site_fract_z
 _atom_site_occupancy
  Nb  Nb0  1  0.333333  0.666667  0.977398  1
  Nb  Nb1  1  0.000000  0.000000  0.977511  1
  Nb  Nb2  1  0.000000  0.000000  0.522489  1
  Nb  Nb3  1  0.333333  0.666667  0.522602  1
  Nb  Nb4  1  0.666667  0.333333  0.977156  1
  Nb  Nb5  1  0.666667  0.333333  0.522844  1
  Cr  Cr6  1  0.666667  0.333333  0.750000  1
  Ga  Ga7  1  0.333333  0.666667  0.250000  1
  Se  Se8  1  0.332779  0.000285  0.098497  1
  Se  Se9  1  0.666872  0.996482  0.642585  1
  Se  Se10  1  0.999715  0.332493  0.098497  1
  Se  Se11  1  0.667507  0.000285  0.401503  1
  Se  Se12  1  0.332779  0.332493  0.401503  1
  Se  Se13  1  0.999715  0.667221  0.401503  1
  Se  Se14  1  0.667507  0.667221  0.098497  1
  Se  Se15  1  0.329610  0.333128  0.642585  1
  Se  Se16  1  0.003518  0.670390  0.642585  1
  Se  Se17  1  0.329610  0.996482  0.857415  1
  Se  Se18  1  0.666872  0.670390  0.857415  1
  Se  Se19  1  0.003518  0.333128  0.857415  1
