# generated using pymatgen
data_Dy16TlCd3Ru2PtRh
_symmetry_space_group_name_H-M   'P 1'
_cell_length_a   9.65520374
_cell_length_b   9.64331693
_cell_length_c   9.68928200
_cell_angle_alpha   59.84219910
_cell_angle_beta   59.88317550
_cell_angle_gamma   59.79530944
_symmetry_Int_Tables_number   1
_chemical_formula_structural   Dy16TlCd3Ru2PtRh
_chemical_formula_sum   'Dy16 Tl1 Cd3 Ru2 Pt1 Rh1'
_cell_volume   635.60357255
_cell_formula_units_Z   1
loop_
 _symmetry_equiv_pos_site_id
 _symmetry_equiv_pos_as_xyz
  1  'x, y, z'
loop_
 _atom_site_type_symbol
 _atom_site_label
 _atom_site_symmetry_multiplicity
 _atom_site_fract_x
 _atom_site_fract_y
 _atom_site_fract_z
 _atom_site_occupancy
  Dy  Dy0  1  0.347253  0.350691  0.350110  1
  Dy  Dy1  1  0.347455  0.351142  0.951275  1
  Dy  Dy2  1  0.346369  0.954316  0.350139  1
  Dy  Dy3  1  0.955758  0.347372  0.348763  1
  Dy  Dy4  1  0.815310  0.187477  0.189928  1
  Dy  Dy5  1  0.187618  0.812375  0.809737  1
  Dy  Dy6  1  0.187111  0.813013  0.189122  1
  Dy  Dy7  1  0.814720  0.188053  0.806150  1
  Dy  Dy8  1  0.188337  0.187761  0.811996  1
  Dy  Dy9  1  0.812090  0.806147  0.190458  1
  Dy  Dy10  1  0.938997  0.559887  0.564470  1
  Dy  Dy11  1  0.558450  0.937907  0.937898  1
  Dy  Dy12  1  0.558538  0.939367  0.565799  1
  Dy  Dy13  1  0.937508  0.559827  0.938275  1
  Dy  Dy14  1  0.562151  0.564388  0.937729  1
  Dy  Dy15  1  0.938358  0.938275  0.561816  1
  Tl  Tl16  1  0.582166  0.581874  0.583410  1
  Cd  Cd17  1  0.579959  0.579744  0.256664  1
  Cd  Cd18  1  0.580761  0.254414  0.581039  1
  Cd  Cd19  1  0.254172  0.580697  0.581239  1
  Ru  Ru20  1  0.144226  0.143168  0.137548  1
  Ru  Ru21  1  0.144046  0.143227  0.574766  1
  Pt  Pt22  1  0.574824  0.144006  0.140825  1
  Rh  Rh23  1  0.143825  0.574869  0.140850  1
