# generated using pymatgen
data_Sr8LiCd2Si12Rh
_symmetry_space_group_name_H-M   'P 1'
_cell_length_a   11.89165070
_cell_length_b   10.27196562
_cell_length_c   8.47520007
_cell_angle_alpha   78.03039933
_cell_angle_beta   57.62929778
_cell_angle_gamma   44.30772070
_symmetry_Int_Tables_number   1
_chemical_formula_structural   Sr8LiCd2Si12Rh
_chemical_formula_sum   'Sr8 Li1 Cd2 Si12 Rh1'
_cell_volume   583.03564572
_cell_formula_units_Z   1
loop_
 _symmetry_equiv_pos_site_id
 _symmetry_equiv_pos_as_xyz
  1  'x, y, z'
loop_
 _atom_site_type_symbol
 _atom_site_label
 _atom_site_symmetry_multiplicity
 _atom_site_fract_x
 _atom_site_fract_y
 _atom_site_fract_z
 _atom_site_occupancy
  Sr  Sr0  1  0.126321  0.135685  0.877109  1
  Sr  Sr1  1  0.876867  0.860635  0.126842  1
  Sr  Sr2  1  0.127575  0.139272  0.364100  1
  Sr  Sr3  1  0.363713  0.370078  0.128096  1
  Sr  Sr4  1  0.637464  0.620537  0.366980  1
  Sr  Sr5  1  0.366825  0.375070  0.637556  1
  Sr  Sr6  1  0.629379  0.631657  0.869982  1
  Sr  Sr7  1  0.869951  0.868864  0.629313  1
  Li  Li8  1  0.416581  0.083201  0.418272  1
  Cd  Cd9  1  0.833650  0.166652  0.833386  1
  Cd  Cd10  1  0.167730  0.832924  0.166905  1
  Si  Si11  1  0.918985  0.585595  0.411409  1
  Si  Si12  1  0.067500  0.427826  0.592408  1
  Si  Si13  1  0.412007  0.083285  0.918255  1
  Si  Si14  1  0.593011  0.912349  0.067352  1
  Si  Si15  1  0.338915  0.657916  0.820297  1
  Si  Si16  1  0.653346  0.334288  0.188175  1
  Si  Si17  1  0.820700  0.182651  0.339007  1
  Si  Si18  1  0.188344  0.825167  0.652610  1
  Si  Si19  1  0.918099  0.581795  0.917624  1
  Si  Si20  1  0.590046  0.909937  0.589114  1
  Si  Si21  1  0.340823  0.657512  0.342385  1
  Si  Si22  1  0.658580  0.340577  0.659886  1
  Rh  Rh23  1  0.083592  0.416533  0.082934  1
