# generated using pymatgen
data_LiLa3Pr13Cd3Ir4
_symmetry_space_group_name_H-M   'P 1'
_cell_length_a   10.08164510
_cell_length_b   10.09410528
_cell_length_c   10.09410588
_cell_angle_alpha   59.80482666
_cell_angle_beta   59.83508913
_cell_angle_gamma   59.83509398
_symmetry_Int_Tables_number   1
_chemical_formula_structural   LiLa3Pr13Cd3Ir4
_chemical_formula_sum   'Li1 La3 Pr13 Cd3 Ir4'
_cell_volume   723.47508103
_cell_formula_units_Z   1
loop_
 _symmetry_equiv_pos_site_id
 _symmetry_equiv_pos_as_xyz
  1  'x, y, z'
loop_
 _atom_site_type_symbol
 _atom_site_label
 _atom_site_symmetry_multiplicity
 _atom_site_fract_x
 _atom_site_fract_y
 _atom_site_fract_z
 _atom_site_occupancy
  Li  Li0  1  0.571890  0.571128  0.571128  1
  La  La1  1  0.347090  0.347993  0.347993  1
  La  La2  1  0.346435  0.347422  0.959547  1
  La  La3  1  0.346435  0.959547  0.347422  1
  Pr  Pr4  1  0.956196  0.348097  0.348097  1
  Pr  Pr5  1  0.810656  0.190776  0.190776  1
  Pr  Pr6  1  0.186958  0.812040  0.812040  1
  Pr  Pr7  1  0.190682  0.810306  0.190928  1
  Pr  Pr8  1  0.812604  0.186883  0.811458  1
  Pr  Pr9  1  0.190682  0.190928  0.810306  1
  Pr  Pr10  1  0.812604  0.811458  0.186883  1
  Pr  Pr11  1  0.938443  0.562160  0.562160  1
  Pr  Pr12  1  0.561480  0.937839  0.937839  1
  Pr  Pr13  1  0.562453  0.937689  0.562847  1
  Pr  Pr14  1  0.938100  0.561360  0.938499  1
  Pr  Pr15  1  0.562453  0.562847  0.937689  1
  Pr  Pr16  1  0.938100  0.938499  0.561360  1
  Cd  Cd17  1  0.581647  0.580440  0.259469  1
  Cd  Cd18  1  0.581647  0.259469  0.580440  1
  Cd  Cd19  1  0.259080  0.581014  0.581014  1
  Ir  Ir20  1  0.143313  0.141946  0.141946  1
  Ir  Ir21  1  0.143714  0.142339  0.574647  1
  Ir  Ir22  1  0.143714  0.574647  0.142339  1
  Ir  Ir23  1  0.573623  0.143169  0.143169  1
