# generated using pymatgen
data_Tb8Cr(MoO8)3
_symmetry_space_group_name_H-M   'P 1'
_cell_length_a   5.42952261
_cell_length_b   9.98897190
_cell_length_c   10.04086683
_cell_angle_alpha   68.29341790
_cell_angle_beta   105.65162034
_cell_angle_gamma   105.47575199
_symmetry_Int_Tables_number   1
_chemical_formula_structural   Tb8Cr(MoO8)3
_chemical_formula_sum   'Tb8 Cr1 Mo3 O24'
_cell_volume   478.62530278
_cell_formula_units_Z   1
loop_
 _symmetry_equiv_pos_site_id
 _symmetry_equiv_pos_as_xyz
  1  'x, y, z'
loop_
 _atom_site_type_symbol
 _atom_site_label
 _atom_site_symmetry_multiplicity
 _atom_site_fract_x
 _atom_site_fract_y
 _atom_site_fract_z
 _atom_site_occupancy
  Tb  Tb0  1  0.746425  0.864705  0.136596  1
  Tb  Tb1  1  0.612117  0.447101  0.217228  1
  Tb  Tb2  1  0.249235  0.606102  0.392202  1
  Tb  Tb3  1  0.125873  0.213744  0.453336  1
  Tb  Tb4  1  0.874653  0.786446  0.552380  1
  Tb  Tb5  1  0.764221  0.394292  0.607753  1
  Tb  Tb6  1  0.374012  0.556347  0.777157  1
  Tb  Tb7  1  0.256683  0.139688  0.862424  1
  Cr  Cr8  1  0.934272  0.288232  0.032277  1
  Mo  Mo9  1  0.438579  0.013396  0.295198  1
  Mo  Mo10  1  0.563518  0.989315  0.706070  1
  Mo  Mo11  1  0.046606  0.702842  0.989002  1
  O  O12  1  0.210437  0.414834  0.019646  1
  O  O13  1  0.984575  0.123444  0.047277  1
  O  O14  1  0.480213  0.048993  0.111215  1
  O  O15  1  0.356724  0.665710  0.116276  1
  O  O16  1  0.856668  0.282795  0.184906  1
  O  O17  1  0.910661  0.663347  0.193847  1
  O  O18  1  0.366864  0.183848  0.292209  1
  O  O19  1  0.125389  0.889403  0.322459  1
  O  O20  1  0.576890  0.808761  0.335501  1
  O  O21  1  0.420669  0.425415  0.391830  1
  O  O22  1  0.917260  0.389500  0.421591  1
  O  O23  1  0.746745  0.025772  0.430170  1
  O  O24  1  0.256000  0.974087  0.570741  1
  O  O25  1  0.077535  0.617401  0.566602  1
  O  O26  1  0.581601  0.573382  0.610008  1
  O  O27  1  0.432015  0.190767  0.665629  1
  O  O28  1  0.876933  0.112237  0.674057  1
  O  O29  1  0.635061  0.818710  0.709653  1
  O  O30  1  0.129896  0.344144  0.775743  1
  O  O31  1  0.122936  0.706856  0.820870  1
  O  O32  1  0.680353  0.326100  0.894965  1
  O  O33  1  0.519074  0.950555  0.890800  1
  O  O34  1  0.015466  0.889658  0.956111  1
  O  O35  1  0.733838  0.572068  0.976268  1
