# generated using pymatgen
data_Er4Tm8AlZnCo4
_symmetry_space_group_name_H-M   'P 1'
_cell_length_a   8.19994096
_cell_length_b   8.19994182
_cell_length_c   8.19994110
_cell_angle_alpha   110.37202516
_cell_angle_beta   111.55638757
_cell_angle_gamma   106.52710663
_symmetry_Int_Tables_number   1
_chemical_formula_structural   Er4Tm8AlZnCo4
_chemical_formula_sum   'Er4 Tm8 Al1 Zn1 Co4'
_cell_volume   423.55131302
_cell_formula_units_Z   1
loop_
 _symmetry_equiv_pos_site_id
 _symmetry_equiv_pos_as_xyz
  1  'x, y, z'
loop_
 _atom_site_type_symbol
 _atom_site_label
 _atom_site_symmetry_multiplicity
 _atom_site_fract_x
 _atom_site_fract_y
 _atom_site_fract_z
 _atom_site_occupancy
  Er  Er0  1  0.288131  0.186784  0.474915  1
  Er  Er1  1  0.711869  0.813216  0.525085  1
  Er  Er2  1  0.288131  0.813216  0.101347  1
  Er  Er3  1  0.711869  0.186784  0.898653  1
  Tm  Tm4  1  0.618283  0.316386  0.301899  1
  Tm  Tm5  1  0.381717  0.683614  0.698101  1
  Tm  Tm6  1  0.014487  0.316386  0.698101  1
  Tm  Tm7  1  0.985513  0.683614  0.301899  1
  Tm  Tm8  1  0.226102  0.428597  0.202496  1
  Tm  Tm9  1  0.773898  0.571403  0.797504  1
  Tm  Tm10  1  0.226102  0.023606  0.797504  1
  Tm  Tm11  1  0.773898  0.976394  0.202496  1
  Al  Al12  1  0.500000  0.500000  0.000000  1
  Zn  Zn13  1  0.000000  0.000000  0.000000  1
  Co  Co14  1  0.000000  0.374904  0.374904  1
  Co  Co15  1  0.000000  0.625096  0.625096  1
  Co  Co16  1  0.385698  0.885698  0.500000  1
  Co  Co17  1  0.614302  0.114302  0.500000  1
