# generated using pymatgen
data_TbDyEr4(RuI3)2
_symmetry_space_group_name_H-M   'P 1'
_cell_length_a   4.20009700
_cell_length_b   8.86282439
_cell_length_c   12.31848337
_cell_angle_alpha   94.13062328
_cell_angle_beta   90.00000000
_cell_angle_gamma   90.00000000
_symmetry_Int_Tables_number   1
_chemical_formula_structural   TbDyEr4(RuI3)2
_chemical_formula_sum   'Tb1 Dy1 Er4 Ru2 I6'
_cell_volume   457.36099764
_cell_formula_units_Z   1
loop_
 _symmetry_equiv_pos_site_id
 _symmetry_equiv_pos_as_xyz
  1  'x, y, z'
loop_
 _atom_site_type_symbol
 _atom_site_label
 _atom_site_symmetry_multiplicity
 _atom_site_fract_x
 _atom_site_fract_y
 _atom_site_fract_z
 _atom_site_occupancy
  Tb  Tb0  1  0.750000  0.264341  0.602775  1
  Dy  Dy1  1  0.250000  0.738911  0.397531  1
  Er  Er2  1  0.750000  0.872176  0.625655  1
  Er  Er3  1  0.250000  0.128596  0.373648  1
  Er  Er4  1  0.750000  0.897305  0.187345  1
  Er  Er5  1  0.250000  0.100757  0.812771  1
  Ru  Ru6  1  0.750000  0.946111  0.407683  1
  Ru  Ru7  1  0.250000  0.054814  0.592002  1
  I  I8  1  0.750000  0.424474  0.366064  1
  I  I9  1  0.250000  0.577159  0.633516  1
  I  I10  1  0.750000  0.861697  0.890085  1
  I  I11  1  0.250000  0.135750  0.109382  1
  I  I12  1  0.750000  0.353351  0.865288  1
  I  I13  1  0.250000  0.644560  0.136256  1
