# generated using pymatgen
data_Tb3Y2Th7Ni12
_symmetry_space_group_name_H-M   'P 1'
_cell_length_a   4.31402500
_cell_length_b   5.53543901
_cell_length_c   20.80212217
_cell_angle_alpha   83.96899219
_cell_angle_beta   90.00000000
_cell_angle_gamma   90.00000000
_symmetry_Int_Tables_number   1
_chemical_formula_structural   Tb3Y2Th7Ni12
_chemical_formula_sum   'Tb3 Y2 Th7 Ni12'
_cell_volume   494.00569027
_cell_formula_units_Z   1
loop_
 _symmetry_equiv_pos_site_id
 _symmetry_equiv_pos_as_xyz
  1  'x, y, z'
loop_
 _atom_site_type_symbol
 _atom_site_label
 _atom_site_symmetry_multiplicity
 _atom_site_fract_x
 _atom_site_fract_y
 _atom_site_fract_z
 _atom_site_occupancy
  Tb  Tb0  1  0.250000  0.975229  0.272035  1
  Tb  Tb1  1  0.750000  0.176206  0.893701  1
  Tb  Tb2  1  0.250000  0.823350  0.106638  1
  Y  Y3  1  0.250000  0.668368  0.438581  1
  Y  Y4  1  0.750000  0.023981  0.728341  1
  Th  Th5  1  0.750000  0.321533  0.061573  1
  Th  Th6  1  0.250000  0.678535  0.938795  1
  Th  Th7  1  0.750000  0.495697  0.227821  1
  Th  Th8  1  0.250000  0.502126  0.772908  1
  Th  Th9  1  0.750000  0.183687  0.393852  1
  Th  Th10  1  0.250000  0.817125  0.606782  1
  Th  Th11  1  0.750000  0.337752  0.559866  1
  Ni  Ni12  1  0.750000  0.846376  0.014168  1
  Ni  Ni13  1  0.250000  0.153314  0.986195  1
  Ni  Ni14  1  0.750000  0.020955  0.180301  1
  Ni  Ni15  1  0.250000  0.977486  0.820291  1
  Ni  Ni16  1  0.750000  0.704282  0.345187  1
  Ni  Ni17  1  0.250000  0.290553  0.653044  1
  Ni  Ni18  1  0.750000  0.860968  0.513632  1
  Ni  Ni19  1  0.250000  0.145898  0.485977  1
  Ni  Ni20  1  0.750000  0.544206  0.680978  1
  Ni  Ni21  1  0.250000  0.453808  0.319206  1
  Ni  Ni22  1  0.750000  0.691858  0.846980  1
  Ni  Ni23  1  0.250000  0.306704  0.153150  1
