# generated using pymatgen
data_Dy10TlIn2Bi3
_symmetry_space_group_name_H-M   'P 1'
_cell_length_a   9.05778100
_cell_length_b   9.06864162
_cell_length_c   6.57550900
_cell_angle_alpha   90.00000000
_cell_angle_beta   90.00000000
_cell_angle_gamma   119.96038790
_symmetry_Int_Tables_number   1
_chemical_formula_structural   Dy10TlIn2Bi3
_chemical_formula_sum   'Dy10 Tl1 In2 Bi3'
_cell_volume   467.94765747
_cell_formula_units_Z   1
loop_
 _symmetry_equiv_pos_site_id
 _symmetry_equiv_pos_as_xyz
  1  'x, y, z'
loop_
 _atom_site_type_symbol
 _atom_site_label
 _atom_site_symmetry_multiplicity
 _atom_site_fract_x
 _atom_site_fract_y
 _atom_site_fract_z
 _atom_site_occupancy
  Dy  Dy0  1  0.992564  0.757796  0.750000  1
  Dy  Dy1  1  0.994547  0.233808  0.250000  1
  Dy  Dy2  1  0.760739  0.766192  0.250000  1
  Dy  Dy3  1  0.764276  0.000000  0.750000  1
  Dy  Dy4  1  0.234767  0.242204  0.750000  1
  Dy  Dy5  1  0.240111  0.000000  0.250000  1
  Dy  Dy6  1  0.336667  0.665773  0.502249  1
  Dy  Dy7  1  0.670895  0.334227  0.997751  1
  Dy  Dy8  1  0.670895  0.334227  0.502249  1
  Dy  Dy9  1  0.336667  0.665773  0.997751  1
  Tl  Tl10  1  0.603985  0.000000  0.250000  1
  In  In11  1  0.001250  0.396225  0.750000  1
  In  In12  1  0.605024  0.603775  0.750000  1
  Bi  Bi13  1  0.390710  0.000000  0.750000  1
  Bi  Bi14  1  0.394390  0.391876  0.250000  1
  Bi  Bi15  1  0.002513  0.608124  0.250000  1
