# generated using pymatgen
data_Tm3Lu9Tc3Ir
_symmetry_space_group_name_H-M   'P 1'
_cell_length_a   6.16568750
_cell_length_b   7.29617176
_cell_length_c   8.91650700
_cell_angle_alpha   90.00000000
_cell_angle_beta   90.00000000
_cell_angle_gamma   90.02682554
_symmetry_Int_Tables_number   1
_chemical_formula_structural   Tm3Lu9Tc3Ir
_chemical_formula_sum   'Tm3 Lu9 Tc3 Ir1'
_cell_volume   401.11718200
_cell_formula_units_Z   1
loop_
 _symmetry_equiv_pos_site_id
 _symmetry_equiv_pos_as_xyz
  1  'x, y, z'
loop_
 _atom_site_type_symbol
 _atom_site_label
 _atom_site_symmetry_multiplicity
 _atom_site_fract_x
 _atom_site_fract_y
 _atom_site_fract_z
 _atom_site_occupancy
  Tm  Tm0  1  0.875473  0.538898  0.250000  1
  Tm  Tm1  1  0.624759  0.037656  0.250000  1
  Tm  Tm2  1  0.129244  0.459087  0.750000  1
  Lu  Lu3  1  0.333752  0.676031  0.062779  1
  Lu  Lu4  1  0.162572  0.174944  0.438220  1
  Lu  Lu5  1  0.663823  0.323370  0.561020  1
  Lu  Lu6  1  0.835913  0.825601  0.938776  1
  Lu  Lu7  1  0.663823  0.323370  0.938980  1
  Lu  Lu8  1  0.835913  0.825601  0.561224  1
  Lu  Lu9  1  0.333752  0.676031  0.437221  1
  Lu  Lu10  1  0.162572  0.174944  0.061780  1
  Lu  Lu11  1  0.373517  0.961154  0.750000  1
  Tc  Tc12  1  0.041407  0.882920  0.250000  1
  Tc  Tc13  1  0.460615  0.385173  0.250000  1
  Tc  Tc14  1  0.959727  0.117160  0.750000  1
  Ir  Ir15  1  0.543136  0.618060  0.750000  1
