# generated using pymatgen
data_CsTiCu3SeS3
_symmetry_space_group_name_H-M   'P 1'
_cell_length_a   7.64677700
_cell_length_b   5.62530817
_cell_length_c   10.16601145
_cell_angle_alpha   73.84786239
_cell_angle_beta   90.00000000
_cell_angle_gamma   90.00000000
_symmetry_Int_Tables_number   1
_chemical_formula_structural   CsTiCu3SeS3
_chemical_formula_sum   'Cs2 Ti2 Cu6 Se2 S6'
_cell_volume   420.03419583
_cell_formula_units_Z   2
loop_
 _symmetry_equiv_pos_site_id
 _symmetry_equiv_pos_as_xyz
  1  'x, y, z'
loop_
 _atom_site_type_symbol
 _atom_site_label
 _atom_site_symmetry_multiplicity
 _atom_site_fract_x
 _atom_site_fract_y
 _atom_site_fract_z
 _atom_site_occupancy
  Cs  Cs0  1  0.245598  0.178309  0.620405  1
  Cs  Cs1  1  0.745598  0.821691  0.379595  1
  Ti  Ti2  1  0.752069  0.348480  0.794638  1
  Ti  Ti3  1  0.252069  0.651520  0.205362  1
  Cu  Cu4  1  0.509322  0.736722  0.999543  1
  Cu  Cu5  1  0.753934  0.851205  0.796477  1
  Cu  Cu6  1  0.253934  0.148795  0.203523  1
  Cu  Cu7  1  0.497759  0.262133  0.005051  1
  Cu  Cu8  1  0.009322  0.263278  0.000457  1
  Cu  Cu9  1  0.997759  0.737867  0.994949  1
  Se  Se10  1  0.489661  0.597127  0.788235  1
  Se  Se11  1  0.989661  0.402873  0.211765  1
  S  S12  1  0.995348  0.589468  0.799772  1
  S  S13  1  0.495348  0.410532  0.200228  1
  S  S14  1  0.249897  0.979051  0.004506  1
  S  S15  1  0.749897  0.020949  0.995494  1
  S  S16  1  0.256412  0.801317  0.386744  1
  S  S17  1  0.756412  0.198683  0.613256  1
