# generated using pymatgen
data_TmNb8TlSe16
_symmetry_space_group_name_H-M   'P 1'
_cell_length_a   7.01125400
_cell_length_b   7.01125567
_cell_length_c   15.01713200
_cell_angle_alpha   90.00000000
_cell_angle_beta   90.00000000
_cell_angle_gamma   119.99999214
_symmetry_Int_Tables_number   1
_chemical_formula_structural   TmNb8TlSe16
_chemical_formula_sum   'Tm1 Nb8 Tl1 Se16'
_cell_volume   639.30657217
_cell_formula_units_Z   1
loop_
 _symmetry_equiv_pos_site_id
 _symmetry_equiv_pos_as_xyz
  1  'x, y, z'
loop_
 _atom_site_type_symbol
 _atom_site_label
 _atom_site_symmetry_multiplicity
 _atom_site_fract_x
 _atom_site_fract_y
 _atom_site_fract_z
 _atom_site_occupancy
  Tm  Tm0  1  0.000000  0.000000  0.000000  1
  Nb  Nb1  1  0.000000  0.000000  0.233478  1
  Nb  Nb2  1  0.000000  0.000000  0.766522  1
  Nb  Nb3  1  0.505413  0.494587  0.235241  1
  Nb  Nb4  1  0.505413  0.010824  0.235241  1
  Nb  Nb5  1  0.989176  0.494587  0.235241  1
  Nb  Nb6  1  0.494587  0.505413  0.764759  1
  Nb  Nb7  1  0.494587  0.989176  0.764759  1
  Nb  Nb8  1  0.010824  0.505413  0.764759  1
  Tl  Tl9  1  0.000000  0.000000  0.500000  1
  Se  Se10  1  0.333333  0.666667  0.878560  1
  Se  Se11  1  0.666667  0.333333  0.121440  1
  Se  Se12  1  0.666667  0.333333  0.348482  1
  Se  Se13  1  0.333333  0.666667  0.651518  1
  Se  Se14  1  0.167842  0.832158  0.342789  1
  Se  Se15  1  0.167842  0.335686  0.342789  1
  Se  Se16  1  0.664314  0.832158  0.342789  1
  Se  Se17  1  0.832158  0.167842  0.657211  1
  Se  Se18  1  0.832158  0.664314  0.657211  1
  Se  Se19  1  0.335686  0.167842  0.657211  1
  Se  Se20  1  0.830054  0.169946  0.876006  1
  Se  Se21  1  0.830054  0.660107  0.876006  1
  Se  Se22  1  0.339893  0.169946  0.876006  1
  Se  Se23  1  0.169946  0.830054  0.123994  1
  Se  Se24  1  0.169946  0.339893  0.123994  1
  Se  Se25  1  0.660107  0.830054  0.123994  1
