# generated using pymatgen
data_Hf2Zr3Pa3(InNi2)4
_symmetry_space_group_name_H-M   'P 1'
_cell_length_a   7.23351184
_cell_length_b   7.23351205
_cell_length_c   6.93416200
_cell_angle_alpha   90.00000000
_cell_angle_beta   90.00000000
_cell_angle_gamma   91.78116392
_symmetry_Int_Tables_number   1
_chemical_formula_structural   Hf2Zr3Pa3(InNi2)4
_chemical_formula_sum   'Hf2 Zr3 Pa3 In4 Ni8'
_cell_volume   362.64567454
_cell_formula_units_Z   1
loop_
 _symmetry_equiv_pos_site_id
 _symmetry_equiv_pos_as_xyz
  1  'x, y, z'
loop_
 _atom_site_type_symbol
 _atom_site_label
 _atom_site_symmetry_multiplicity
 _atom_site_fract_x
 _atom_site_fract_y
 _atom_site_fract_z
 _atom_site_occupancy
  Hf  Hf0  1  0.318056  0.320209  0.000000  1
  Hf  Hf1  1  0.679791  0.681944  0.000000  1
  Zr  Zr2  1  0.181132  0.818868  0.500000  1
  Zr  Zr3  1  0.822102  0.177898  0.500000  1
  Zr  Zr4  1  0.843700  0.156300  0.000000  1
  Pa  Pa5  1  0.649024  0.646050  0.500000  1
  Pa  Pa6  1  0.148200  0.851800  0.000000  1
  Pa  Pa7  1  0.353950  0.350976  0.500000  1
  In  In8  1  0.505791  0.001936  0.754387  1
  In  In9  1  0.998064  0.494209  0.245613  1
  In  In10  1  0.998064  0.494209  0.754387  1
  In  In11  1  0.505791  0.001936  0.245613  1
  Ni  Ni12  1  0.133588  0.128642  0.285732  1
  Ni  Ni13  1  0.871358  0.866412  0.714268  1
  Ni  Ni14  1  0.871358  0.866412  0.285732  1
  Ni  Ni15  1  0.133588  0.128642  0.714268  1
  Ni  Ni16  1  0.367046  0.632954  0.206984  1
  Ni  Ni17  1  0.626177  0.373823  0.792328  1
  Ni  Ni18  1  0.367046  0.632954  0.793016  1
  Ni  Ni19  1  0.626177  0.373823  0.207672  1
