# generated using pymatgen
data_Zr5Ga2AsO
_symmetry_space_group_name_H-M   'P 1'
_cell_length_a   8.08492409
_cell_length_b   8.02953983
_cell_length_c   5.66909000
_cell_angle_alpha   90.00000000
_cell_angle_beta   90.00000000
_cell_angle_gamma   119.77364131
_symmetry_Int_Tables_number   1
_chemical_formula_structural   Zr5Ga2AsO
_chemical_formula_sum   'Zr10 Ga4 As2 O2'
_cell_volume   319.44542625
_cell_formula_units_Z   2
loop_
 _symmetry_equiv_pos_site_id
 _symmetry_equiv_pos_as_xyz
  1  'x, y, z'
loop_
 _atom_site_type_symbol
 _atom_site_label
 _atom_site_symmetry_multiplicity
 _atom_site_fract_x
 _atom_site_fract_y
 _atom_site_fract_z
 _atom_site_occupancy
  Zr  Zr0  1  0.000000  0.763167  0.750000  1
  Zr  Zr1  1  0.000000  0.236833  0.250000  1
  Zr  Zr2  1  0.331709  0.665855  0.000000  1
  Zr  Zr3  1  0.331709  0.665855  0.500000  1
  Zr  Zr4  1  0.240279  0.240038  0.750000  1
  Zr  Zr5  1  0.240279  0.000241  0.250000  1
  Zr  Zr6  1  0.759721  0.759962  0.250000  1
  Zr  Zr7  1  0.668291  0.334145  0.000000  1
  Zr  Zr8  1  0.668291  0.334145  0.500000  1
  Zr  Zr9  1  0.759721  0.999759  0.750000  1
  Ga  Ga10  1  0.401512  0.400944  0.250000  1
  Ga  Ga11  1  0.598488  0.599056  0.750000  1
  Ga  Ga12  1  0.401512  0.000568  0.750000  1
  Ga  Ga13  1  0.598488  0.999432  0.250000  1
  As  As14  1  0.000000  0.602041  0.250000  1
  As  As15  1  0.000000  0.397959  0.750000  1
  O  O16  1  0.000000  0.000000  0.000000  1
  O  O17  1  0.000000  0.000000  0.500000  1
