# generated using pymatgen
data_Y4LuInAu4
_symmetry_space_group_name_H-M   'P 1'
_cell_length_a   8.08238500
_cell_length_b   8.08238500
_cell_length_c   3.76055100
_cell_angle_alpha   90.00000000
_cell_angle_beta   90.00000000
_cell_angle_gamma   90.00000000
_symmetry_Int_Tables_number   1
_chemical_formula_structural   Y4LuInAu4
_chemical_formula_sum   'Y4 Lu1 In1 Au4'
_cell_volume   245.65779585
_cell_formula_units_Z   1
loop_
 _symmetry_equiv_pos_site_id
 _symmetry_equiv_pos_as_xyz
  1  'x, y, z'
loop_
 _atom_site_type_symbol
 _atom_site_label
 _atom_site_symmetry_multiplicity
 _atom_site_fract_x
 _atom_site_fract_y
 _atom_site_fract_z
 _atom_site_occupancy
  Y  Y0  1  0.685865  0.141517  0.500000  1
  Y  Y1  1  0.314135  0.858483  0.500000  1
  Y  Y2  1  0.141517  0.314135  0.500000  1
  Y  Y3  1  0.858483  0.685865  0.500000  1
  Lu  Lu4  1  0.500000  0.500000  0.000000  1
  In  In5  1  0.000000  0.000000  0.000000  1
  Au  Au6  1  0.148594  0.616660  0.000000  1
  Au  Au7  1  0.851406  0.383340  0.000000  1
  Au  Au8  1  0.616660  0.851406  0.000000  1
  Au  Au9  1  0.383340  0.148594  0.000000  1
