# generated using pymatgen
data_Hf18Ni2Mo3W5
_symmetry_space_group_name_H-M   'P 1'
_cell_length_a   8.69997500
_cell_length_b   8.69997494
_cell_length_c   8.50551200
_cell_angle_alpha   90.00000000
_cell_angle_beta   90.00000000
_cell_angle_gamma   120.00000404
_symmetry_Int_Tables_number   1
_chemical_formula_structural   Hf18Ni2Mo3W5
_chemical_formula_sum   'Hf18 Ni2 Mo3 W5'
_cell_volume   557.52851154
_cell_formula_units_Z   1
loop_
 _symmetry_equiv_pos_site_id
 _symmetry_equiv_pos_as_xyz
  1  'x, y, z'
loop_
 _atom_site_type_symbol
 _atom_site_label
 _atom_site_symmetry_multiplicity
 _atom_site_fract_x
 _atom_site_fract_y
 _atom_site_fract_z
 _atom_site_occupancy
  Hf  Hf0  1  0.199489  0.800511  0.442106  1
  Hf  Hf1  1  0.199489  0.398978  0.442106  1
  Hf  Hf2  1  0.601022  0.800511  0.442106  1
  Hf  Hf3  1  0.800032  0.199968  0.557343  1
  Hf  Hf4  1  0.800032  0.600064  0.557343  1
  Hf  Hf5  1  0.399936  0.199968  0.557343  1
  Hf  Hf6  1  0.800032  0.199968  0.942657  1
  Hf  Hf7  1  0.800032  0.600064  0.942657  1
  Hf  Hf8  1  0.399936  0.199968  0.942657  1
  Hf  Hf9  1  0.199489  0.800511  0.057894  1
  Hf  Hf10  1  0.199489  0.398978  0.057894  1
  Hf  Hf11  1  0.601022  0.800511  0.057894  1
  Hf  Hf12  1  0.542172  0.457828  0.250000  1
  Hf  Hf13  1  0.542172  0.084343  0.250000  1
  Hf  Hf14  1  0.915657  0.457828  0.250000  1
  Hf  Hf15  1  0.457196  0.542804  0.750000  1
  Hf  Hf16  1  0.457196  0.914393  0.750000  1
  Hf  Hf17  1  0.085607  0.542804  0.750000  1
  Ni  Ni18  1  0.333333  0.666667  0.250000  1
  Ni  Ni19  1  0.666667  0.333333  0.750000  1
  Mo  Mo20  1  0.112489  0.887511  0.750000  1
  Mo  Mo21  1  0.112489  0.224980  0.750000  1
  Mo  Mo22  1  0.775020  0.887511  0.750000  1
  W  W23  1  0.888219  0.111781  0.250000  1
  W  W24  1  0.888219  0.776438  0.250000  1
  W  W25  1  0.223562  0.111781  0.250000  1
  W  W26  1  0.000000  0.000000  0.501284  1
  W  W27  1  0.000000  0.000000  0.998716  1
