# generated using pymatgen
data_RbScTiSe4
_symmetry_space_group_name_H-M   'P 1'
_cell_length_a   6.55837200
_cell_length_b   7.54462500
_cell_length_c   16.88201400
_cell_angle_alpha   90.00000000
_cell_angle_beta   90.00000000
_cell_angle_gamma   90.00000000
_symmetry_Int_Tables_number   1
_chemical_formula_structural   RbScTiSe4
_chemical_formula_sum   'Rb4 Sc4 Ti4 Se16'
_cell_volume   835.32977372
_cell_formula_units_Z   4
loop_
 _symmetry_equiv_pos_site_id
 _symmetry_equiv_pos_as_xyz
  1  'x, y, z'
loop_
 _atom_site_type_symbol
 _atom_site_label
 _atom_site_symmetry_multiplicity
 _atom_site_fract_x
 _atom_site_fract_y
 _atom_site_fract_z
 _atom_site_occupancy
  Rb  Rb0  1  0.349287  0.000000  0.000000  1
  Rb  Rb1  1  0.650713  0.500000  0.500000  1
  Rb  Rb2  1  0.035026  0.000000  0.500000  1
  Rb  Rb3  1  0.964974  0.500000  0.000000  1
  Sc  Sc4  1  0.000760  0.000000  0.249195  1
  Sc  Sc5  1  0.000760  0.000000  0.750805  1
  Sc  Sc6  1  0.999240  0.500000  0.250805  1
  Sc  Sc7  1  0.999240  0.500000  0.749195  1
  Ti  Ti8  1  0.500000  0.250000  0.250000  1
  Ti  Ti9  1  0.500000  0.750000  0.750000  1
  Ti  Ti10  1  0.500000  0.750000  0.250000  1
  Ti  Ti11  1  0.500000  0.250000  0.750000  1
  Se  Se12  1  0.820440  0.248782  0.340655  1
  Se  Se13  1  0.820440  0.751218  0.659345  1
  Se  Se14  1  0.179560  0.748782  0.159345  1
  Se  Se15  1  0.179560  0.251218  0.840655  1
  Se  Se16  1  0.179560  0.251218  0.159345  1
  Se  Se17  1  0.179560  0.748782  0.840655  1
  Se  Se18  1  0.820440  0.751218  0.340655  1
  Se  Se19  1  0.820440  0.248782  0.659345  1
  Se  Se20  1  0.657145  0.000000  0.162237  1
  Se  Se21  1  0.657145  0.000000  0.837763  1
  Se  Se22  1  0.342855  0.500000  0.337763  1
  Se  Se23  1  0.342855  0.500000  0.662237  1
  Se  Se24  1  0.348176  0.000000  0.337175  1
  Se  Se25  1  0.348176  0.000000  0.662825  1
  Se  Se26  1  0.651824  0.500000  0.162825  1
  Se  Se27  1  0.651824  0.500000  0.837175  1
