# generated using pymatgen
data_LuAs4(Ru2Rh)2
_symmetry_space_group_name_H-M   'P 1'
_cell_length_a   7.17141856
_cell_length_b   7.19914571
_cell_length_c   3.84609500
_cell_angle_alpha   90.00000000
_cell_angle_beta   90.00000000
_cell_angle_gamma   120.12797198
_symmetry_Int_Tables_number   1
_chemical_formula_structural   LuAs4(Ru2Rh)2
_chemical_formula_sum   'Lu1 As4 Ru4 Rh2'
_cell_volume   171.74147639
_cell_formula_units_Z   1
loop_
 _symmetry_equiv_pos_site_id
 _symmetry_equiv_pos_as_xyz
  1  'x, y, z'
loop_
 _atom_site_type_symbol
 _atom_site_label
 _atom_site_symmetry_multiplicity
 _atom_site_fract_x
 _atom_site_fract_y
 _atom_site_fract_z
 _atom_site_occupancy
  Lu  Lu0  1  0.331321  0.665660  0.000000  1
  As  As1  1  0.671641  0.335821  0.000000  1
  As  As2  1  0.719441  0.859722  0.500000  1
  As  As3  1  0.139420  0.283029  0.500000  1
  As  As4  1  0.139420  0.856393  0.500000  1
  Ru  Ru5  1  0.266687  0.133343  0.000000  1
  Ru  Ru6  1  0.867569  0.736036  0.000000  1
  Ru  Ru7  1  0.867569  0.131532  0.000000  1
  Ru  Ru8  1  0.936774  0.468388  0.500000  1
  Rh  Rh9  1  0.530078  0.058427  0.500000  1
  Rh  Rh10  1  0.530078  0.471650  0.500000  1
