# generated using pymatgen
data_Y3Ho7(Pb3Cl)2
_symmetry_space_group_name_H-M   'P 1'
_cell_length_a   9.18617605
_cell_length_b   9.18400015
_cell_length_c   6.60251500
_cell_angle_alpha   90.00000000
_cell_angle_beta   90.00000000
_cell_angle_gamma   120.02004592
_symmetry_Int_Tables_number   1
_chemical_formula_structural   Y3Ho7(Pb3Cl)2
_chemical_formula_sum   'Y3 Ho7 Pb6 Cl2'
_cell_volume   482.30183444
_cell_formula_units_Z   1
loop_
 _symmetry_equiv_pos_site_id
 _symmetry_equiv_pos_as_xyz
  1  'x, y, z'
loop_
 _atom_site_type_symbol
 _atom_site_label
 _atom_site_symmetry_multiplicity
 _atom_site_fract_x
 _atom_site_fract_y
 _atom_site_fract_z
 _atom_site_occupancy
  Y  Y0  1  0.260894  0.000053  0.750000  1
  Y  Y1  1  0.738984  0.999926  0.250000  1
  Y  Y2  1  0.000113  0.260893  0.750000  1
  Ho  Ho3  1  0.999880  0.739156  0.250000  1
  Ho  Ho4  1  0.739340  0.739254  0.750000  1
  Ho  Ho5  1  0.260766  0.260797  0.250000  1
  Ho  Ho6  1  0.333315  0.666553  0.500002  1
  Ho  Ho7  1  0.666677  0.333529  0.500005  1
  Ho  Ho8  1  0.666677  0.333529  0.999995  1
  Ho  Ho9  1  0.333315  0.666553  0.999998  1
  Pb  Pb10  1  0.610325  0.999581  0.750000  1
  Pb  Pb11  1  0.389079  0.000006  0.250000  1
  Pb  Pb12  1  0.999561  0.610460  0.750000  1
  Pb  Pb13  1  0.000451  0.390262  0.250000  1
  Pb  Pb14  1  0.390285  0.390304  0.750000  1
  Pb  Pb15  1  0.610345  0.609906  0.250000  1
  Cl  Cl16  1  0.999998  0.999620  0.499562  1
  Cl  Cl17  1  0.999998  0.999620  0.000438  1
