# generated using pymatgen
data_TbY4Pd13Pt2
_symmetry_space_group_name_H-M   'P 1'
_cell_length_a   4.13651000
_cell_length_b   4.13218600
_cell_length_c   20.71650700
_cell_angle_alpha   90.00000000
_cell_angle_beta   90.00000000
_cell_angle_gamma   90.00000000
_symmetry_Int_Tables_number   1
_chemical_formula_structural   TbY4Pd13Pt2
_chemical_formula_sum   'Tb1 Y4 Pd13 Pt2'
_cell_volume   354.10370564
_cell_formula_units_Z   1
loop_
 _symmetry_equiv_pos_site_id
 _symmetry_equiv_pos_as_xyz
  1  'x, y, z'
loop_
 _atom_site_type_symbol
 _atom_site_label
 _atom_site_symmetry_multiplicity
 _atom_site_fract_x
 _atom_site_fract_y
 _atom_site_fract_z
 _atom_site_occupancy
  Tb  Tb0  1  0.000000  0.000000  0.000000  1
  Y  Y1  1  0.000000  0.000000  0.199801  1
  Y  Y2  1  0.000000  0.000000  0.400201  1
  Y  Y3  1  0.000000  0.000000  0.599799  1
  Y  Y4  1  0.000000  0.000000  0.800199  1
  Pd  Pd5  1  0.500000  0.500000  0.199839  1
  Pd  Pd6  1  0.500000  0.500000  0.399999  1
  Pd  Pd7  1  0.500000  0.500000  0.600001  1
  Pd  Pd8  1  0.500000  0.500000  0.800161  1
  Pd  Pd9  1  0.500000  0.000000  0.099852  1
  Pd  Pd10  1  0.500000  0.000000  0.299878  1
  Pd  Pd11  1  0.500000  0.000000  0.700122  1
  Pd  Pd12  1  0.500000  0.000000  0.900148  1
  Pd  Pd13  1  0.000000  0.500000  0.099831  1
  Pd  Pd14  1  0.000000  0.500000  0.299776  1
  Pd  Pd15  1  0.000000  0.500000  0.500000  1
  Pd  Pd16  1  0.000000  0.500000  0.700224  1
  Pd  Pd17  1  0.000000  0.500000  0.900169  1
  Pt  Pt18  1  0.500000  0.500000  0.000000  1
  Pt  Pt19  1  0.500000  0.000000  0.500000  1
