# generated using pymatgen
data_Dy3Pt2Pb3
_symmetry_space_group_name_H-M   'P 1'
_cell_length_a   7.88915800
_cell_length_b   7.88915866
_cell_length_c   3.69538300
_cell_angle_alpha   90.00000000
_cell_angle_beta   90.00000000
_cell_angle_gamma   119.99999725
_symmetry_Int_Tables_number   1
_chemical_formula_structural   Dy3Pt2Pb3
_chemical_formula_sum   'Dy3 Pt2 Pb3'
_cell_volume   199.18262170
_cell_formula_units_Z   1
loop_
 _symmetry_equiv_pos_site_id
 _symmetry_equiv_pos_as_xyz
  1  'x, y, z'
loop_
 _atom_site_type_symbol
 _atom_site_label
 _atom_site_symmetry_multiplicity
 _atom_site_fract_x
 _atom_site_fract_y
 _atom_site_fract_z
 _atom_site_occupancy
  Dy  Dy0  1  0.588380  0.000000  0.500001  1
  Dy  Dy1  1  0.411621  0.411621  0.500001  1
  Dy  Dy2  1  0.000000  0.588379  0.500001  1
  Pt  Pt3  1  0.666667  0.333334  0.000000  1
  Pt  Pt4  1  0.333333  0.666667  0.000000  1
  Pb  Pb5  1  0.244179  0.000000  0.000000  1
  Pb  Pb6  1  0.000000  0.244178  0.000000  1
  Pb  Pb7  1  0.755821  0.755821  0.000000  1
