# generated using pymatgen
data_Th14Re5Pd
_symmetry_space_group_name_H-M   'P 1'
_cell_length_a   10.06833031
_cell_length_b   10.06833040
_cell_length_c   6.32972042
_cell_angle_alpha   89.94965377
_cell_angle_beta   90.05034506
_cell_angle_gamma   119.44407667
_symmetry_Int_Tables_number   1
_chemical_formula_structural   Th14Re5Pd
_chemical_formula_sum   'Th14 Re5 Pd1'
_cell_volume   558.77317134
_cell_formula_units_Z   1
loop_
 _symmetry_equiv_pos_site_id
 _symmetry_equiv_pos_as_xyz
  1  'x, y, z'
loop_
 _atom_site_type_symbol
 _atom_site_label
 _atom_site_symmetry_multiplicity
 _atom_site_fract_x
 _atom_site_fract_y
 _atom_site_fract_z
 _atom_site_occupancy
  Th  Th0  1  0.664795  0.335205  0.533189  1
  Th  Th1  1  0.333809  0.666191  0.025116  1
  Th  Th2  1  0.872872  0.748633  0.759696  1
  Th  Th3  1  0.251367  0.127128  0.759696  1
  Th  Th4  1  0.874534  0.125466  0.762216  1
  Th  Th5  1  0.137464  0.259007  0.259081  1
  Th  Th6  1  0.740993  0.862536  0.259081  1
  Th  Th7  1  0.124231  0.875769  0.258846  1
  Th  Th8  1  0.453912  0.920344  0.544885  1
  Th  Th9  1  0.079656  0.546088  0.544885  1
  Th  Th10  1  0.460625  0.539375  0.548735  1
  Th  Th11  1  0.532381  0.070299  0.040828  1
  Th  Th12  1  0.929701  0.467619  0.040828  1
  Th  Th13  1  0.540894  0.459106  0.048718  1
  Re  Re14  1  0.180428  0.370554  0.799647  1
  Re  Re15  1  0.629446  0.819572  0.799647  1
  Re  Re16  1  0.184971  0.815029  0.802675  1
  Re  Re17  1  0.816340  0.622856  0.300283  1
  Re  Re18  1  0.377144  0.183660  0.300283  1
  Pd  Pd19  1  0.814438  0.185562  0.299761  1
