# generated using pymatgen
data_Pr12IrPt2AuI12
_symmetry_space_group_name_H-M   'P 1'
_cell_length_a   11.11511042
_cell_length_b   11.01277450
_cell_length_c   11.01277529
_cell_angle_alpha   109.52266811
_cell_angle_beta   109.84798966
_cell_angle_gamma   109.84798650
_symmetry_Int_Tables_number   1
_chemical_formula_structural   Pr12IrPt2AuI12
_chemical_formula_sum   'Pr12 Ir1 Pt2 Au1 I12'
_cell_volume   1027.28554194
_cell_formula_units_Z   1
loop_
 _symmetry_equiv_pos_site_id
 _symmetry_equiv_pos_as_xyz
  1  'x, y, z'
loop_
 _atom_site_type_symbol
 _atom_site_label
 _atom_site_symmetry_multiplicity
 _atom_site_fract_x
 _atom_site_fract_y
 _atom_site_fract_z
 _atom_site_occupancy
  Pr  Pr0  1  0.459435  0.487396  0.223178  1
  Pr  Pr1  1  0.750000  0.229285  0.270715  1
  Pr  Pr2  1  0.750000  0.019961  0.480039  1
  Pr  Pr3  1  0.226886  0.461345  0.485811  1
  Pr  Pr4  1  0.268598  0.744054  0.225779  1
  Pr  Pr5  1  0.040565  0.276822  0.012604  1
  Pr  Pr6  1  0.014399  0.038383  0.273379  1
  Pr  Pr7  1  0.477137  0.745168  0.017192  1
  Pr  Pr8  1  0.485601  0.226621  0.461617  1
  Pr  Pr9  1  0.022863  0.482808  0.754832  1
  Pr  Pr10  1  0.273114  0.014189  0.038655  1
  Pr  Pr11  1  0.231402  0.274221  0.755946  1
  Ir  Ir12  1  0.250000  0.501403  0.998597  1
  Pt  Pt13  1  0.500873  0.998620  0.249761  1
  Pt  Pt14  1  0.999127  0.250239  0.501380  1
  Au  Au15  1  0.250000  0.249931  0.250069  1
  I  I16  1  0.250000  0.759460  0.740540  1
  I  I17  1  0.514277  0.505751  0.755438  1
  I  I18  1  0.985723  0.744562  0.994249  1
  I  I19  1  0.740467  0.249724  0.758845  1
  I  I20  1  0.993927  0.985444  0.743939  1
  I  I21  1  0.250000  0.994139  0.505861  1
  I  I22  1  0.755427  0.513385  0.505710  1
  I  I23  1  0.506514  0.249588  0.994006  1
  I  I24  1  0.759533  0.741155  0.250276  1
  I  I25  1  0.744573  0.994290  0.986615  1
  I  I26  1  0.993486  0.505994  0.250412  1
  I  I27  1  0.506073  0.756061  0.514556  1
