# generated using pymatgen
data_LiNd8HoSi6
_symmetry_space_group_name_H-M   'P 1'
_cell_length_a   8.93658466
_cell_length_b   8.93658549
_cell_length_c   8.93658400
_cell_angle_alpha   129.13990427
_cell_angle_beta   129.13990857
_cell_angle_gamma   74.78556300
_symmetry_Int_Tables_number   1
_chemical_formula_structural   LiNd8HoSi6
_chemical_formula_sum   'Li1 Nd8 Ho1 Si6'
_cell_volume   418.22082351
_cell_formula_units_Z   1
loop_
 _symmetry_equiv_pos_site_id
 _symmetry_equiv_pos_as_xyz
  1  'x, y, z'
loop_
 _atom_site_type_symbol
 _atom_site_label
 _atom_site_symmetry_multiplicity
 _atom_site_fract_x
 _atom_site_fract_y
 _atom_site_fract_z
 _atom_site_occupancy
  Li  Li0  1  0.000000  0.000000  0.000000  1
  Nd  Nd1  1  0.684659  0.171847  0.143036  1
  Nd  Nd2  1  0.541624  0.684659  0.512812  1
  Nd  Nd3  1  0.028811  0.541624  0.856964  1
  Nd  Nd4  1  0.828153  0.971189  0.512812  1
  Nd  Nd5  1  0.315341  0.828153  0.856964  1
  Nd  Nd6  1  0.171847  0.028811  0.487188  1
  Nd  Nd7  1  0.458376  0.315341  0.487188  1
  Nd  Nd8  1  0.971189  0.458376  0.143036  1
  Ho  Ho9  1  0.500000  0.500000  0.000000  1
  Si  Si10  1  0.880827  0.610606  0.491433  1
  Si  Si11  1  0.610606  0.119173  0.729777  1
  Si  Si12  1  0.389394  0.880827  0.270223  1
  Si  Si13  1  0.119173  0.389394  0.508567  1
  Si  Si14  1  0.733323  0.733323  0.000000  1
  Si  Si15  1  0.266677  0.266677  0.000000  1
