# generated using pymatgen
data_YBeInF6
_symmetry_space_group_name_H-M   'P 1'
_cell_length_a   5.92736700
_cell_length_b   6.56516407
_cell_length_c   7.34721750
_cell_angle_alpha   65.99505406
_cell_angle_beta   90.00000000
_cell_angle_gamma   90.00000000
_symmetry_Int_Tables_number   1
_chemical_formula_structural   YBeInF6
_chemical_formula_sum   'Y2 Be2 In2 F12'
_cell_volume   261.18231542
_cell_formula_units_Z   2
loop_
 _symmetry_equiv_pos_site_id
 _symmetry_equiv_pos_as_xyz
  1  'x, y, z'
loop_
 _atom_site_type_symbol
 _atom_site_label
 _atom_site_symmetry_multiplicity
 _atom_site_fract_x
 _atom_site_fract_y
 _atom_site_fract_z
 _atom_site_occupancy
  Y  Y0  1  0.250000  0.391501  0.186048  1
  Y  Y1  1  0.750000  0.608499  0.813952  1
  Be  Be2  1  0.250000  0.767595  0.464963  1
  Be  Be3  1  0.750000  0.232405  0.535037  1
  In  In4  1  0.250000  0.071271  0.810185  1
  In  In5  1  0.750000  0.928729  0.189815  1
  F  F6  1  0.462668  0.749772  0.597668  1
  F  F7  1  0.537332  0.250228  0.402332  1
  F  F8  1  0.962668  0.250228  0.402332  1
  F  F9  1  0.037332  0.749772  0.597668  1
  F  F10  1  0.250000  0.582415  0.385455  1
  F  F11  1  0.750000  0.417585  0.614545  1
  F  F12  1  0.499321  0.679925  0.024766  1
  F  F13  1  0.500679  0.320075  0.975234  1
  F  F14  1  0.999321  0.320075  0.975234  1
  F  F15  1  0.000679  0.679925  0.024766  1
  F  F16  1  0.250000  0.000921  0.279950  1
  F  F17  1  0.750000  0.999079  0.720050  1
