# generated using pymatgen
data_Tb4CrOsC4
_symmetry_space_group_name_H-M   'P 1'
_cell_length_a   5.10924500
_cell_length_b   6.49937738
_cell_length_c   9.84130770
_cell_angle_alpha   90.15917972
_cell_angle_beta   90.00000000
_cell_angle_gamma   90.00000000
_symmetry_Int_Tables_number   1
_chemical_formula_structural   Tb4CrOsC4
_chemical_formula_sum   'Tb8 Cr2 Os2 C8'
_cell_volume   326.79817167
_cell_formula_units_Z   2
loop_
 _symmetry_equiv_pos_site_id
 _symmetry_equiv_pos_as_xyz
  1  'x, y, z'
loop_
 _atom_site_type_symbol
 _atom_site_label
 _atom_site_symmetry_multiplicity
 _atom_site_fract_x
 _atom_site_fract_y
 _atom_site_fract_z
 _atom_site_occupancy
  Tb  Tb0  1  0.250000  0.683623  0.557410  1
  Tb  Tb1  1  0.750000  0.316377  0.442590  1
  Tb  Tb2  1  0.750000  0.820486  0.053287  1
  Tb  Tb3  1  0.250000  0.179514  0.946713  1
  Tb  Tb4  1  0.250000  0.530657  0.215171  1
  Tb  Tb5  1  0.750000  0.469343  0.784829  1
  Tb  Tb6  1  0.750000  0.972857  0.715179  1
  Tb  Tb7  1  0.250000  0.027143  0.284821  1
  Cr  Cr8  1  0.250000  0.725395  0.860895  1
  Cr  Cr9  1  0.750000  0.274605  0.139105  1
  Os  Os10  1  0.750000  0.775333  0.361092  1
  Os  Os11  1  0.250000  0.224667  0.638908  1
  C  C12  1  0.250000  0.464122  0.762979  1
  C  C13  1  0.750000  0.535878  0.237021  1
  C  C14  1  0.750000  0.045733  0.255301  1
  C  C15  1  0.250000  0.954267  0.744699  1
  C  C16  1  0.250000  0.811997  0.037438  1
  C  C17  1  0.750000  0.188003  0.962562  1
  C  C18  1  0.750000  0.680185  0.545802  1
  C  C19  1  0.250000  0.319815  0.454198  1
