# generated using pymatgen
data_SrFe2Mo(PO4)3
_symmetry_space_group_name_H-M   'P 1'
_cell_length_a   9.38076138
_cell_length_b   9.38076227
_cell_length_c   9.38076192
_cell_angle_alpha   138.69286089
_cell_angle_beta   108.07003352
_cell_angle_gamma   86.48205526
_symmetry_Int_Tables_number   1
_chemical_formula_structural   SrFe2Mo(PO4)3
_chemical_formula_sum   'Sr2 Fe4 Mo2 P6 O24'
_cell_volume   498.27608287
_cell_formula_units_Z   2
loop_
 _symmetry_equiv_pos_site_id
 _symmetry_equiv_pos_as_xyz
  1  'x, y, z'
loop_
 _atom_site_type_symbol
 _atom_site_label
 _atom_site_symmetry_multiplicity
 _atom_site_fract_x
 _atom_site_fract_y
 _atom_site_fract_z
 _atom_site_occupancy
  Sr  Sr0  1  0.750000  0.150128  0.400128  1
  Sr  Sr1  1  0.250000  0.849872  0.599872  1
  Fe  Fe2  1  0.617048  0.617048  0.500000  1
  Fe  Fe3  1  0.382952  0.382952  0.500000  1
  Fe  Fe4  1  0.117048  0.617048  0.000000  1
  Fe  Fe5  1  0.882952  0.382952  0.000000  1
  Mo  Mo6  1  0.000000  0.000000  0.000000  1
  Mo  Mo7  1  0.500000  0.500000  0.000000  1
  P  P8  1  0.324565  0.824565  0.000000  1
  P  P9  1  0.750000  0.653143  0.903143  1
  P  P10  1  0.175435  0.175435  0.500000  1
  P  P11  1  0.675435  0.175435  0.000000  1
  P  P12  1  0.250000  0.346857  0.096857  1
  P  P13  1  0.824565  0.824565  0.500000  1
  O  O14  1  0.575592  0.929290  0.779889  1
  O  O15  1  0.075592  0.295703  0.646302  1
  O  O16  1  0.840452  0.884729  0.044277  1
  O  O17  1  0.350599  0.704297  0.779889  1
  O  O18  1  0.144372  0.210356  0.353733  1
  O  O19  1  0.340452  0.296175  0.955723  1
  O  O20  1  0.643377  0.709361  0.353733  1
  O  O21  1  0.855628  0.789644  0.646267  1
  O  O22  1  0.362819  0.489760  0.352578  1
  O  O23  1  0.149401  0.929290  0.353698  1
  O  O24  1  0.644372  0.290639  0.934016  1
  O  O25  1  0.637181  0.510240  0.647422  1
  O  O26  1  0.856623  0.210356  0.065984  1
  O  O27  1  0.850599  0.070710  0.646302  1
  O  O28  1  0.355628  0.709361  0.065984  1
  O  O29  1  0.356623  0.290639  0.646267  1
  O  O30  1  0.659548  0.703825  0.044277  1
  O  O31  1  0.924408  0.704297  0.353698  1
  O  O32  1  0.159548  0.115270  0.955723  1
  O  O33  1  0.862819  0.510240  0.873059  1
  O  O34  1  0.137181  0.489760  0.126941  1
  O  O35  1  0.143377  0.789644  0.934016  1
  O  O36  1  0.649401  0.295703  0.220111  1
  O  O37  1  0.424408  0.070710  0.220111  1
