# generated using pymatgen
data_Yb4PtO6
_symmetry_space_group_name_H-M   'P 1'
_cell_length_a   6.47388763
_cell_length_b   6.47388742
_cell_length_c   6.47388857
_cell_angle_alpha   90.55214653
_cell_angle_beta   90.55214822
_cell_angle_gamma   90.55215358
_symmetry_Int_Tables_number   1
_chemical_formula_structural   Yb4PtO6
_chemical_formula_sum   'Yb8 Pt2 O12'
_cell_volume   271.29052489
_cell_formula_units_Z   2
loop_
 _symmetry_equiv_pos_site_id
 _symmetry_equiv_pos_as_xyz
  1  'x, y, z'
loop_
 _atom_site_type_symbol
 _atom_site_label
 _atom_site_symmetry_multiplicity
 _atom_site_fract_x
 _atom_site_fract_y
 _atom_site_fract_z
 _atom_site_occupancy
  Yb  Yb0  1  0.750000  0.114571  0.385429  1
  Yb  Yb1  1  0.385429  0.750000  0.114571  1
  Yb  Yb2  1  0.114571  0.385429  0.750000  1
  Yb  Yb3  1  0.250000  0.885429  0.614571  1
  Yb  Yb4  1  0.614571  0.250000  0.885429  1
  Yb  Yb5  1  0.885429  0.614571  0.250000  1
  Yb  Yb6  1  0.250000  0.250000  0.250000  1
  Yb  Yb7  1  0.750000  0.750000  0.750000  1
  Pt  Pt8  1  0.500000  0.500000  0.500000  1
  Pt  Pt9  1  0.000000  0.000000  0.000000  1
  O  O10  1  0.426900  0.197445  0.555234  1
  O  O11  1  0.555234  0.426900  0.197445  1
  O  O12  1  0.197445  0.555234  0.426900  1
  O  O13  1  0.073100  0.944766  0.302555  1
  O  O14  1  0.302555  0.073100  0.944766  1
  O  O15  1  0.944766  0.302555  0.073100  1
  O  O16  1  0.573100  0.802555  0.444766  1
  O  O17  1  0.444766  0.573100  0.802555  1
  O  O18  1  0.802555  0.444766  0.573100  1
  O  O19  1  0.926900  0.055234  0.697445  1
  O  O20  1  0.055234  0.697445  0.926900  1
  O  O21  1  0.697445  0.926900  0.055234  1
