# generated using pymatgen
data_PuMg(PaH4)6
_symmetry_space_group_name_H-M   'P 1'
_cell_length_a   6.47008900
_cell_length_b   6.47008900
_cell_length_c   6.47008900
_cell_angle_alpha   90.00000000
_cell_angle_beta   90.00000000
_cell_angle_gamma   90.00000000
_symmetry_Int_Tables_number   1
_chemical_formula_structural   PuMg(PaH4)6
_chemical_formula_sum   'Pu1 Mg1 Pa6 H24'
_cell_volume   270.85120001
_cell_formula_units_Z   1
loop_
 _symmetry_equiv_pos_site_id
 _symmetry_equiv_pos_as_xyz
  1  'x, y, z'
loop_
 _atom_site_type_symbol
 _atom_site_label
 _atom_site_symmetry_multiplicity
 _atom_site_fract_x
 _atom_site_fract_y
 _atom_site_fract_z
 _atom_site_occupancy
  Pu  Pu0  1  0.000000  0.000000  0.000000  1
  Mg  Mg1  1  0.500000  0.500000  0.500000  1
  Pa  Pa2  1  0.254037  0.000000  0.500000  1
  Pa  Pa3  1  0.745963  0.000000  0.500000  1
  Pa  Pa4  1  0.000000  0.500000  0.254037  1
  Pa  Pa5  1  0.000000  0.500000  0.745963  1
  Pa  Pa6  1  0.500000  0.745963  0.000000  1
  Pa  Pa7  1  0.500000  0.254037  0.000000  1
  H  H8  1  0.000000  0.155043  0.304176  1
  H  H9  1  0.500000  0.196238  0.653746  1
  H  H10  1  0.500000  0.803762  0.346254  1
  H  H11  1  0.803762  0.653746  0.500000  1
  H  H12  1  0.196238  0.653746  0.500000  1
  H  H13  1  0.346254  0.500000  0.803762  1
  H  H14  1  0.653746  0.500000  0.803762  1
  H  H15  1  0.304176  0.000000  0.155043  1
  H  H16  1  0.155043  0.304176  0.000000  1
  H  H17  1  0.844957  0.695824  0.000000  1
  H  H18  1  0.304176  0.000000  0.844957  1
  H  H19  1  0.844957  0.304176  0.000000  1
  H  H20  1  0.695824  0.000000  0.155043  1
  H  H21  1  0.695824  0.000000  0.844957  1
  H  H22  1  0.155043  0.695824  0.000000  1
  H  H23  1  0.000000  0.844957  0.695824  1
  H  H24  1  0.000000  0.155043  0.695824  1
  H  H25  1  0.000000  0.844957  0.304176  1
  H  H26  1  0.653746  0.500000  0.196238  1
  H  H27  1  0.346254  0.500000  0.196238  1
  H  H28  1  0.803762  0.346254  0.500000  1
  H  H29  1  0.196238  0.346254  0.500000  1
  H  H30  1  0.500000  0.803762  0.653746  1
  H  H31  1  0.500000  0.196238  0.346254  1
