# generated using pymatgen
data_La3GaGeIr2
_symmetry_space_group_name_H-M   'P 1'
_cell_length_a   5.82114800
_cell_length_b   8.31138500
_cell_length_c   13.70059200
_cell_angle_alpha   90.00000000
_cell_angle_beta   90.00000000
_cell_angle_gamma   90.00000000
_symmetry_Int_Tables_number   1
_chemical_formula_structural   La3GaGeIr2
_chemical_formula_sum   'La12 Ga4 Ge4 Ir8'
_cell_volume   662.85933176
_cell_formula_units_Z   4
loop_
 _symmetry_equiv_pos_site_id
 _symmetry_equiv_pos_as_xyz
  1  'x, y, z'
loop_
 _atom_site_type_symbol
 _atom_site_label
 _atom_site_symmetry_multiplicity
 _atom_site_fract_x
 _atom_site_fract_y
 _atom_site_fract_z
 _atom_site_occupancy
  La  La0  1  0.152777  0.902488  0.598841  1
  La  La1  1  0.847223  0.097512  0.098841  1
  La  La2  1  0.152777  0.597512  0.401159  1
  La  La3  1  0.847223  0.402488  0.901159  1
  La  La4  1  0.847223  0.097512  0.401159  1
  La  La5  1  0.152777  0.902488  0.901159  1
  La  La6  1  0.847223  0.402488  0.598841  1
  La  La7  1  0.152777  0.597512  0.098841  1
  La  La8  1  0.367045  0.260530  0.750000  1
  La  La9  1  0.632955  0.739470  0.250000  1
  La  La10  1  0.367045  0.239470  0.250000  1
  La  La11  1  0.632955  0.760530  0.750000  1
  Ga  Ga12  1  0.382233  0.250000  0.500000  1
  Ga  Ga13  1  0.617767  0.750000  0.000000  1
  Ga  Ga14  1  0.617767  0.750000  0.500000  1
  Ga  Ga15  1  0.382233  0.250000  0.000000  1
  Ge  Ge16  1  0.859795  0.114126  0.750000  1
  Ge  Ge17  1  0.140205  0.885874  0.250000  1
  Ge  Ge18  1  0.859795  0.385874  0.250000  1
  Ge  Ge19  1  0.140205  0.614126  0.750000  1
  Ir  Ir20  1  0.640715  0.027414  0.591811  1
  Ir  Ir21  1  0.359285  0.972586  0.091811  1
  Ir  Ir22  1  0.640715  0.472586  0.408189  1
  Ir  Ir23  1  0.359285  0.527414  0.908189  1
  Ir  Ir24  1  0.359285  0.972586  0.408189  1
  Ir  Ir25  1  0.640715  0.027414  0.908189  1
  Ir  Ir26  1  0.359285  0.527414  0.591811  1
  Ir  Ir27  1  0.640715  0.472586  0.091811  1
