# generated using pymatgen
data_Tm3Si6(Pd7Pt3)2
_symmetry_space_group_name_H-M   'P 1'
_cell_length_a   8.70832231
_cell_length_b   8.73109794
_cell_length_c   8.73120000
_cell_angle_alpha   59.99934812
_cell_angle_beta   59.91267010
_cell_angle_gamma   59.91281957
_symmetry_Int_Tables_number   1
_chemical_formula_structural   Tm3Si6(Pd7Pt3)2
_chemical_formula_sum   'Tm3 Si6 Pd14 Pt6'
_cell_volume   468.79840383
_cell_formula_units_Z   1
loop_
 _symmetry_equiv_pos_site_id
 _symmetry_equiv_pos_as_xyz
  1  'x, y, z'
loop_
 _atom_site_type_symbol
 _atom_site_label
 _atom_site_symmetry_multiplicity
 _atom_site_fract_x
 _atom_site_fract_y
 _atom_site_fract_z
 _atom_site_occupancy
  Tm  Tm0  1  0.251965  0.249352  0.249332  1
  Tm  Tm1  1  0.748035  0.750648  0.750668  1
  Tm  Tm2  1  0.000000  0.000000  0.000000  1
  Si  Si3  1  0.729911  0.268918  0.268910  1
  Si  Si4  1  0.270089  0.731082  0.731090  1
  Si  Si5  1  0.270074  0.731069  0.267754  1
  Si  Si6  1  0.729926  0.268931  0.732246  1
  Si  Si7  1  0.270068  0.267756  0.731076  1
  Si  Si8  1  0.729932  0.732244  0.268924  1
  Pd  Pd9  1  0.855167  0.381605  0.381618  1
  Pd  Pd10  1  0.144833  0.618395  0.618382  1
  Pd  Pd11  1  0.343419  0.000258  0.000258  1
  Pd  Pd12  1  0.656581  0.999742  0.999742  1
  Pd  Pd13  1  0.000008  0.343873  0.656112  1
  Pd  Pd14  1  0.999992  0.656127  0.343888  1
  Pd  Pd15  1  0.000011  0.343874  0.000007  1
  Pd  Pd16  1  0.656568  0.999744  0.343939  1
  Pd  Pd17  1  0.999989  0.656126  0.999993  1
  Pd  Pd18  1  0.343432  0.000256  0.656061  1
  Pd  Pd19  1  0.000005  0.000002  0.343886  1
  Pd  Pd20  1  0.999995  0.999998  0.656114  1
  Pd  Pd21  1  0.656572  0.343924  0.999750  1
  Pd  Pd22  1  0.343428  0.656076  0.000250  1
  Pt  Pt23  1  0.380573  0.384091  0.384116  1
  Pt  Pt24  1  0.619427  0.615909  0.615884  1
  Pt  Pt25  1  0.380572  0.384102  0.851213  1
  Pt  Pt26  1  0.380560  0.851246  0.384103  1
  Pt  Pt27  1  0.619428  0.615898  0.148787  1
  Pt  Pt28  1  0.619440  0.148754  0.615897  1
