# generated using pymatgen
data_TbEr(Co5P3)2
_symmetry_space_group_name_H-M   'P 1'
_cell_length_a   3.64265500
_cell_length_b   10.26475200
_cell_length_c   11.71593300
_cell_angle_alpha   90.00000000
_cell_angle_beta   90.00000000
_cell_angle_gamma   90.00000000
_symmetry_Int_Tables_number   1
_chemical_formula_structural   TbEr(Co5P3)2
_chemical_formula_sum   'Tb2 Er2 Co20 P12'
_cell_volume   438.06986731
_cell_formula_units_Z   2
loop_
 _symmetry_equiv_pos_site_id
 _symmetry_equiv_pos_as_xyz
  1  'x, y, z'
loop_
 _atom_site_type_symbol
 _atom_site_label
 _atom_site_symmetry_multiplicity
 _atom_site_fract_x
 _atom_site_fract_y
 _atom_site_fract_z
 _atom_site_occupancy
  Tb  Tb0  1  0.750000  0.417113  0.297493  1
  Tb  Tb1  1  0.750000  0.082887  0.797493  1
  Er  Er2  1  0.250000  0.583014  0.702423  1
  Er  Er3  1  0.250000  0.916986  0.202423  1
  Co  Co4  1  0.250000  0.716295  0.991684  1
  Co  Co5  1  0.250000  0.783705  0.491684  1
  Co  Co6  1  0.750000  0.283767  0.008634  1
  Co  Co7  1  0.750000  0.216233  0.508634  1
  Co  Co8  1  0.250000  0.407023  0.488782  1
  Co  Co9  1  0.250000  0.092977  0.988782  1
  Co  Co10  1  0.750000  0.593376  0.512428  1
  Co  Co11  1  0.750000  0.906624  0.012428  1
  Co  Co12  1  0.250000  0.220997  0.176540  1
  Co  Co13  1  0.250000  0.279003  0.676540  1
  Co  Co14  1  0.750000  0.778392  0.823358  1
  Co  Co15  1  0.750000  0.721608  0.323358  1
  Co  Co16  1  0.250000  0.882135  0.698437  1
  Co  Co17  1  0.250000  0.617865  0.198437  1
  Co  Co18  1  0.750000  0.116681  0.301167  1
  Co  Co19  1  0.750000  0.383319  0.801167  1
  Co  Co20  1  0.250000  0.468377  0.931243  1
  Co  Co21  1  0.250000  0.031623  0.431243  1
  Co  Co22  1  0.750000  0.532440  0.067947  1
  Co  Co23  1  0.750000  0.967560  0.567947  1
  P  P24  1  0.250000  0.418522  0.111568  1
  P  P25  1  0.250000  0.081478  0.611568  1
  P  P26  1  0.750000  0.581639  0.887312  1
  P  P27  1  0.750000  0.918361  0.387312  1
  P  P28  1  0.250000  0.271231  0.870629  1
  P  P29  1  0.250000  0.228769  0.370629  1
  P  P30  1  0.750000  0.729789  0.129936  1
  P  P31  1  0.750000  0.770211  0.629936  1
  P  P32  1  0.250000  0.602414  0.391612  1
  P  P33  1  0.250000  0.897586  0.891612  1
  P  P34  1  0.750000  0.398508  0.608809  1
  P  P35  1  0.750000  0.101492  0.108809  1
