# generated using pymatgen
data_LaNdReC2
_symmetry_space_group_name_H-M   'P 1'
_cell_length_a   5.43261700
_cell_length_b   6.76774800
_cell_length_c   10.28546000
_cell_angle_alpha   90.00000000
_cell_angle_beta   90.00000000
_cell_angle_gamma   90.00000000
_symmetry_Int_Tables_number   1
_chemical_formula_structural   LaNdReC2
_chemical_formula_sum   'La4 Nd4 Re4 C8'
_cell_volume   378.16121710
_cell_formula_units_Z   4
loop_
 _symmetry_equiv_pos_site_id
 _symmetry_equiv_pos_as_xyz
  1  'x, y, z'
loop_
 _atom_site_type_symbol
 _atom_site_label
 _atom_site_symmetry_multiplicity
 _atom_site_fract_x
 _atom_site_fract_y
 _atom_site_fract_z
 _atom_site_occupancy
  La  La0  1  0.250000  0.473274  0.788145  1
  La  La1  1  0.750000  0.026726  0.288145  1
  La  La2  1  0.250000  0.973274  0.711855  1
  La  La3  1  0.750000  0.526726  0.211855  1
  Nd  Nd4  1  0.250000  0.814607  0.050903  1
  Nd  Nd5  1  0.750000  0.685393  0.550903  1
  Nd  Nd6  1  0.250000  0.314607  0.449097  1
  Nd  Nd7  1  0.750000  0.185393  0.949097  1
  Re  Re8  1  0.250000  0.267855  0.144161  1
  Re  Re9  1  0.750000  0.232145  0.644161  1
  Re  Re10  1  0.250000  0.767855  0.355839  1
  Re  Re11  1  0.750000  0.732145  0.855839  1
  C  C12  1  0.250000  0.685495  0.534741  1
  C  C13  1  0.750000  0.814505  0.034741  1
  C  C14  1  0.250000  0.185495  0.965259  1
  C  C15  1  0.750000  0.314505  0.465259  1
  C  C16  1  0.250000  0.032134  0.258796  1
  C  C17  1  0.750000  0.467866  0.758796  1
  C  C18  1  0.250000  0.532134  0.241204  1
  C  C19  1  0.750000  0.967866  0.741204  1
