# generated using pymatgen
data_TlAg2Bi(Pt2O7)2
_symmetry_space_group_name_H-M   'P 1'
_cell_length_a   7.25333158
_cell_length_b   7.25333272
_cell_length_c   7.39711180
_cell_angle_alpha   59.74743057
_cell_angle_beta   59.74742668
_cell_angle_gamma   59.34221846
_symmetry_Int_Tables_number   1
_chemical_formula_structural   TlAg2Bi(Pt2O7)2
_chemical_formula_sum   'Tl1 Ag2 Bi1 Pt4 O14'
_cell_volume   272.74991676
_cell_formula_units_Z   1
loop_
 _symmetry_equiv_pos_site_id
 _symmetry_equiv_pos_as_xyz
  1  'x, y, z'
loop_
 _atom_site_type_symbol
 _atom_site_label
 _atom_site_symmetry_multiplicity
 _atom_site_fract_x
 _atom_site_fract_y
 _atom_site_fract_z
 _atom_site_occupancy
  Tl  Tl0  1  0.125000  0.125000  0.125000  1
  Ag  Ag1  1  0.125000  0.625000  0.125000  1
  Ag  Ag2  1  0.625000  0.125000  0.125000  1
  Bi  Bi3  1  0.125000  0.125000  0.625000  1
  Pt  Pt4  1  0.625000  0.625000  0.125000  1
  Pt  Pt5  1  0.625000  0.125000  0.625000  1
  Pt  Pt6  1  0.125000  0.625000  0.625000  1
  Pt  Pt7  1  0.625000  0.625000  0.625000  1
  O  O8  1  0.262352  0.262352  0.245803  1
  O  O9  1  0.987648  0.987648  0.004197  1
  O  O10  1  0.536596  0.958460  0.548489  1
  O  O11  1  0.289389  0.712472  0.293391  1
  O  O12  1  0.545086  0.545086  0.954490  1
  O  O13  1  0.958460  0.536596  0.548489  1
  O  O14  1  0.537528  0.960611  0.956609  1
  O  O15  1  0.961421  0.961421  0.541478  1
  O  O16  1  0.960611  0.537528  0.956609  1
  O  O17  1  0.712472  0.289389  0.293391  1
  O  O18  1  0.291540  0.713404  0.701511  1
  O  O19  1  0.713404  0.291540  0.701511  1
  O  O20  1  0.288579  0.288579  0.708522  1
  O  O21  1  0.704914  0.704914  0.295510  1
