# generated using pymatgen
data_Ce2ThAlSn2Ir3
_symmetry_space_group_name_H-M   'P 1'
_cell_length_a   7.44369831
_cell_length_b   7.44369688
_cell_length_c   4.09383900
_cell_angle_alpha   90.00000000
_cell_angle_beta   90.00000000
_cell_angle_gamma   120.78359960
_symmetry_Int_Tables_number   1
_chemical_formula_structural   Ce2ThAlSn2Ir3
_chemical_formula_sum   'Ce2 Th1 Al1 Sn2 Ir3'
_cell_volume   194.87457046
_cell_formula_units_Z   1
loop_
 _symmetry_equiv_pos_site_id
 _symmetry_equiv_pos_as_xyz
  1  'x, y, z'
loop_
 _atom_site_type_symbol
 _atom_site_label
 _atom_site_symmetry_multiplicity
 _atom_site_fract_x
 _atom_site_fract_y
 _atom_site_fract_z
 _atom_site_occupancy
  Ce  Ce0  1  0.414756  0.007642  0.500000  1
  Ce  Ce1  1  0.007642  0.414756  0.500000  1
  Th  Th2  1  0.574561  0.574561  0.500000  1
  Al  Al3  1  0.241611  0.241611  0.000000  1
  Sn  Sn4  1  0.754490  0.005802  0.000000  1
  Sn  Sn5  1  0.005802  0.754490  0.000000  1
  Ir  Ir6  1  0.329318  0.650244  0.000000  1
  Ir  Ir7  1  0.650244  0.329318  0.000000  1
  Ir  Ir8  1  0.021578  0.021578  0.500000  1
