# generated using pymatgen
data_Pr8MgAg7As16
_symmetry_space_group_name_H-M   'P 1'
_cell_length_a   5.79707814
_cell_length_b   5.84234100
_cell_length_c   21.32246109
_cell_angle_alpha   90.00000000
_cell_angle_beta   90.01794197
_cell_angle_gamma   90.00000000
_symmetry_Int_Tables_number   1
_chemical_formula_structural   Pr8MgAg7As16
_chemical_formula_sum   'Pr8 Mg1 Ag7 As16'
_cell_volume   722.15989386
_cell_formula_units_Z   1
loop_
 _symmetry_equiv_pos_site_id
 _symmetry_equiv_pos_as_xyz
  1  'x, y, z'
loop_
 _atom_site_type_symbol
 _atom_site_label
 _atom_site_symmetry_multiplicity
 _atom_site_fract_x
 _atom_site_fract_y
 _atom_site_fract_z
 _atom_site_occupancy
  Pr  Pr0  1  0.254497  0.982348  0.614329  1
  Pr  Pr1  1  0.749875  0.014304  0.382643  1
  Pr  Pr2  1  0.745503  0.982348  0.885671  1
  Pr  Pr3  1  0.250125  0.014304  0.117357  1
  Pr  Pr4  1  0.745915  0.490108  0.610640  1
  Pr  Pr5  1  0.250205  0.513240  0.386345  1
  Pr  Pr6  1  0.254085  0.490108  0.889360  1
  Pr  Pr7  1  0.749795  0.513240  0.113655  1
  Mg  Mg8  1  0.000000  0.237621  0.750000  1
  Ag  Ag9  1  0.500000  0.732397  0.750000  1
  Ag  Ag10  1  0.000000  0.266968  0.250000  1
  Ag  Ag11  1  0.500000  0.266994  0.250000  1
  Ag  Ag12  1  0.000000  0.732409  0.750000  1
  Ag  Ag13  1  0.500000  0.234306  0.750000  1
  Ag  Ag14  1  0.000000  0.765024  0.250000  1
  Ag  Ag15  1  0.500000  0.765181  0.250000  1
  As  As16  1  0.754663  0.990232  0.663275  1
  As  As17  1  0.250028  0.013980  0.338103  1
  As  As18  1  0.245337  0.990232  0.836725  1
  As  As19  1  0.749972  0.013980  0.161897  1
  As  As20  1  0.245784  0.481189  0.662051  1
  As  As21  1  0.749858  0.514160  0.338993  1
  As  As22  1  0.754216  0.481189  0.837949  1
  As  As23  1  0.250142  0.514160  0.161007  1
  As  As24  1  0.023021  0.222715  0.500898  1
  As  As25  1  0.521922  0.773128  0.499248  1
  As  As26  1  0.976979  0.222715  0.999102  1
  As  As27  1  0.478078  0.773128  0.000752  1
  As  As28  1  0.976187  0.777020  0.498976  1
  As  As29  1  0.479863  0.227126  0.500586  1
  As  As30  1  0.023813  0.777020  0.001024  1
  As  As31  1  0.520137  0.227126  0.999414  1
