# generated using pymatgen
data_Tm13Zr3(ZnCo)4
_symmetry_space_group_name_H-M   'P 1'
_cell_length_a   9.08882271
_cell_length_b   9.12633338
_cell_length_c   9.12633300
_cell_angle_alpha   59.99999777
_cell_angle_beta   59.86337953
_cell_angle_gamma   59.86338018
_symmetry_Int_Tables_number   1
_chemical_formula_structural   Tm13Zr3(ZnCo)4
_chemical_formula_sum   'Tm13 Zr3 Zn4 Co4'
_cell_volume   534.17720411
_cell_formula_units_Z   1
loop_
 _symmetry_equiv_pos_site_id
 _symmetry_equiv_pos_as_xyz
  1  'x, y, z'
loop_
 _atom_site_type_symbol
 _atom_site_label
 _atom_site_symmetry_multiplicity
 _atom_site_fract_x
 _atom_site_fract_y
 _atom_site_fract_z
 _atom_site_occupancy
  Tm  Tm0  1  0.949322  0.350226  0.350226  1
  Tm  Tm1  1  0.806230  0.192359  0.192359  1
  Tm  Tm2  1  0.193294  0.807114  0.807114  1
  Tm  Tm3  1  0.193294  0.807114  0.192478  1
  Tm  Tm4  1  0.806230  0.192359  0.809051  1
  Tm  Tm5  1  0.193294  0.192478  0.807114  1
  Tm  Tm6  1  0.806230  0.809051  0.192359  1
  Tm  Tm7  1  0.942190  0.560781  0.560781  1
  Tm  Tm8  1  0.559214  0.940631  0.940631  1
  Tm  Tm9  1  0.559214  0.940631  0.559525  1
  Tm  Tm10  1  0.942190  0.560781  0.936248  1
  Tm  Tm11  1  0.559214  0.559525  0.940631  1
  Tm  Tm12  1  0.942190  0.936248  0.560781  1
  Zr  Zr13  1  0.349599  0.348445  0.348445  1
  Zr  Zr14  1  0.349599  0.348445  0.953512  1
  Zr  Zr15  1  0.349599  0.953512  0.348445  1
  Zn  Zn16  1  0.571295  0.580043  0.580043  1
  Zn  Zn17  1  0.571295  0.580043  0.268618  1
  Zn  Zn18  1  0.571295  0.268618  0.580043  1
  Zn  Zn19  1  0.269598  0.576801  0.576801  1
  Co  Co20  1  0.152137  0.142338  0.142338  1
  Co  Co21  1  0.152137  0.142338  0.563188  1
  Co  Co22  1  0.152137  0.563188  0.142338  1
  Co  Co23  1  0.559202  0.146933  0.146933  1
