# generated using pymatgen
data_La8Cd2NiRu
_symmetry_space_group_name_H-M   'P 1'
_cell_length_a   10.04334406
_cell_length_b   10.04334379
_cell_length_c   10.15952500
_cell_angle_alpha   59.61658746
_cell_angle_beta   59.61658835
_cell_angle_gamma   59.93587693
_symmetry_Int_Tables_number   1
_chemical_formula_structural   La8Cd2NiRu
_chemical_formula_sum   'La16 Cd4 Ni2 Ru2'
_cell_volume   720.05443241
_cell_formula_units_Z   2
loop_
 _symmetry_equiv_pos_site_id
 _symmetry_equiv_pos_as_xyz
  1  'x, y, z'
loop_
 _atom_site_type_symbol
 _atom_site_label
 _atom_site_symmetry_multiplicity
 _atom_site_fract_x
 _atom_site_fract_y
 _atom_site_fract_z
 _atom_site_occupancy
  La  La0  1  0.597136  0.597136  0.596105  1
  La  La1  1  0.597136  0.597136  0.209623  1
  La  La2  1  0.597554  0.212705  0.594871  1
  La  La3  1  0.212705  0.597554  0.594871  1
  La  La4  1  0.061436  0.437435  0.441372  1
  La  La5  1  0.437435  0.061436  0.059757  1
  La  La6  1  0.437435  0.061436  0.441372  1
  La  La7  1  0.061436  0.437435  0.059757  1
  La  La8  1  0.438717  0.438717  0.061283  1
  La  La9  1  0.053596  0.053596  0.446404  1
  La  La10  1  0.189687  0.806795  0.814678  1
  La  La11  1  0.806795  0.189687  0.188839  1
  La  La12  1  0.806795  0.189687  0.814678  1
  La  La13  1  0.189687  0.806795  0.188839  1
  La  La14  1  0.814393  0.814393  0.185607  1
  La  La15  1  0.191259  0.191259  0.808741  1
  Cd  Cd16  1  0.828347  0.828347  0.829723  1
  Cd  Cd17  1  0.828347  0.828347  0.513584  1
  Cd  Cd18  1  0.829555  0.511943  0.829251  1
  Cd  Cd19  1  0.511943  0.829555  0.829251  1
  Ni  Ni20  1  0.396741  0.828252  0.387504  1
  Ni  Ni21  1  0.828252  0.396741  0.387504  1
  Ru  Ru22  1  0.391807  0.391807  0.385038  1
  Ru  Ru23  1  0.391807  0.391807  0.831349  1
