# generated using pymatgen
data_AcPrMg(Si3Pd10)2
_symmetry_space_group_name_H-M   'P 1'
_cell_length_a   8.76133056
_cell_length_b   8.76132916
_cell_length_c   8.76133100
_cell_angle_alpha   59.99999682
_cell_angle_beta   60.00000212
_cell_angle_gamma   59.99999829
_symmetry_Int_Tables_number   1
_chemical_formula_structural   AcPrMg(Si3Pd10)2
_chemical_formula_sum   'Ac1 Pr1 Mg1 Si6 Pd20'
_cell_volume   475.54885958
_cell_formula_units_Z   1
loop_
 _symmetry_equiv_pos_site_id
 _symmetry_equiv_pos_as_xyz
  1  'x, y, z'
loop_
 _atom_site_type_symbol
 _atom_site_label
 _atom_site_symmetry_multiplicity
 _atom_site_fract_x
 _atom_site_fract_y
 _atom_site_fract_z
 _atom_site_occupancy
  Ac  Ac0  1  0.250000  0.250000  0.250000  1
  Pr  Pr1  1  0.750000  0.750000  0.750000  1
  Mg  Mg2  1  0.000000  0.000000  0.000000  1
  Si  Si3  1  0.733843  0.266157  0.266157  1
  Si  Si4  1  0.266157  0.733843  0.733843  1
  Si  Si5  1  0.266157  0.733843  0.266157  1
  Si  Si6  1  0.733843  0.266157  0.733843  1
  Si  Si7  1  0.266157  0.266157  0.733843  1
  Si  Si8  1  0.733843  0.733843  0.266157  1
  Pd  Pd9  1  0.387069  0.387069  0.387069  1
  Pd  Pd10  1  0.614808  0.614808  0.614808  1
  Pd  Pd11  1  0.387069  0.387069  0.838794  1
  Pd  Pd12  1  0.387069  0.838794  0.387069  1
  Pd  Pd13  1  0.614808  0.614808  0.155575  1
  Pd  Pd14  1  0.614808  0.155575  0.614808  1
  Pd  Pd15  1  0.838794  0.387069  0.387069  1
  Pd  Pd16  1  0.155575  0.614808  0.614808  1
  Pd  Pd17  1  0.344390  0.998572  0.998572  1
  Pd  Pd18  1  0.658465  0.998572  0.998572  1
  Pd  Pd19  1  0.998572  0.344390  0.658465  1
  Pd  Pd20  1  0.998572  0.658465  0.344390  1
  Pd  Pd21  1  0.998572  0.344390  0.998572  1
  Pd  Pd22  1  0.658465  0.998572  0.344390  1
  Pd  Pd23  1  0.998572  0.658465  0.998572  1
  Pd  Pd24  1  0.344390  0.998572  0.658465  1
  Pd  Pd25  1  0.998572  0.998572  0.344390  1
  Pd  Pd26  1  0.998572  0.998572  0.658465  1
  Pd  Pd27  1  0.658465  0.344390  0.998572  1
  Pd  Pd28  1  0.344390  0.658465  0.998572  1
