# generated using pymatgen
data_Er4TmRu2
_symmetry_space_group_name_H-M   'P 1'
_cell_length_a   6.26083271
_cell_length_b   7.25085045
_cell_length_c   8.37675122
_cell_angle_alpha   96.76794472
_cell_angle_beta   111.94417619
_cell_angle_gamma   90.00000214
_symmetry_Int_Tables_number   1
_chemical_formula_structural   Er4TmRu2
_chemical_formula_sum   'Er8 Tm2 Ru4'
_cell_volume   349.86404626
_cell_formula_units_Z   2
loop_
 _symmetry_equiv_pos_site_id
 _symmetry_equiv_pos_as_xyz
  1  'x, y, z'
loop_
 _atom_site_type_symbol
 _atom_site_label
 _atom_site_symmetry_multiplicity
 _atom_site_fract_x
 _atom_site_fract_y
 _atom_site_fract_z
 _atom_site_occupancy
  Er  Er0  1  0.790991  0.084062  0.813599  1
  Er  Er1  1  0.977392  0.415938  0.186401  1
  Er  Er2  1  0.209009  0.915938  0.186401  1
  Er  Er3  1  0.022608  0.584062  0.813599  1
  Er  Er4  1  0.205861  0.184520  0.565298  1
  Er  Er5  1  0.640563  0.315480  0.434702  1
  Er  Er6  1  0.794139  0.815480  0.434702  1
  Er  Er7  1  0.359437  0.684520  0.565298  1
  Tm  Tm8  1  0.418845  0.250000  0.000000  1
  Tm  Tm9  1  0.581155  0.750000  0.000000  1
  Ru  Ru10  1  0.602754  0.423700  0.780385  1
  Ru  Ru11  1  0.822367  0.076300  0.219615  1
  Ru  Ru12  1  0.397246  0.576300  0.219615  1
  Ru  Ru13  1  0.177633  0.923700  0.780385  1
