# generated using pymatgen
data_TbY2(Co3P2)3
_symmetry_space_group_name_H-M   'P 1'
_cell_length_a   3.70265800
_cell_length_b   10.51987600
_cell_length_c   12.18459000
_cell_angle_alpha   90.00000000
_cell_angle_beta   90.00000000
_cell_angle_gamma   90.00000000
_symmetry_Int_Tables_number   1
_chemical_formula_structural   TbY2(Co3P2)3
_chemical_formula_sum   'Tb2 Y4 Co18 P12'
_cell_volume   474.60809431
_cell_formula_units_Z   2
loop_
 _symmetry_equiv_pos_site_id
 _symmetry_equiv_pos_as_xyz
  1  'x, y, z'
loop_
 _atom_site_type_symbol
 _atom_site_label
 _atom_site_symmetry_multiplicity
 _atom_site_fract_x
 _atom_site_fract_y
 _atom_site_fract_z
 _atom_site_occupancy
  Tb  Tb0  1  0.000000  0.500000  0.521953  1
  Tb  Tb1  1  0.500000  0.000000  0.478047  1
  Y  Y2  1  0.500000  0.817105  0.205743  1
  Y  Y3  1  0.500000  0.182895  0.205743  1
  Y  Y4  1  0.000000  0.682895  0.794257  1
  Y  Y5  1  0.000000  0.317105  0.794257  1
  Co  Co6  1  0.500000  0.500000  0.158480  1
  Co  Co7  1  0.000000  0.000000  0.841520  1
  Co  Co8  1  0.500000  0.500000  0.703443  1
  Co  Co9  1  0.000000  0.000000  0.296557  1
  Co  Co10  1  0.000000  0.500000  0.986211  1
  Co  Co11  1  0.500000  0.000000  0.013789  1
  Co  Co12  1  0.500000  0.333366  0.994787  1
  Co  Co13  1  0.500000  0.666634  0.994787  1
  Co  Co14  1  0.000000  0.166634  0.005213  1
  Co  Co15  1  0.000000  0.833366  0.005213  1
  Co  Co16  1  0.500000  0.297414  0.430433  1
  Co  Co17  1  0.500000  0.702586  0.430433  1
  Co  Co18  1  0.000000  0.202586  0.569567  1
  Co  Co19  1  0.000000  0.797414  0.569567  1
  Co  Co20  1  0.500000  0.879611  0.710003  1
  Co  Co21  1  0.500000  0.120389  0.710003  1
  Co  Co22  1  0.000000  0.620389  0.289997  1
  Co  Co23  1  0.000000  0.379611  0.289997  1
  P  P24  1  0.500000  0.500000  0.882787  1
  P  P25  1  0.000000  0.000000  0.117213  1
  P  P26  1  0.500000  0.500000  0.343138  1
  P  P27  1  0.000000  0.000000  0.656862  1
  P  P28  1  0.500000  0.310007  0.615889  1
  P  P29  1  0.500000  0.689993  0.615889  1
  P  P30  1  0.000000  0.189993  0.384111  1
  P  P31  1  0.000000  0.810007  0.384111  1
  P  P32  1  0.500000  0.847625  0.893445  1
  P  P33  1  0.500000  0.152375  0.893445  1
  P  P34  1  0.000000  0.652375  0.106555  1
  P  P35  1  0.000000  0.347625  0.106555  1
