# generated using pymatgen
data_Li6Al5ReRh12
_symmetry_space_group_name_H-M   'P 1'
_cell_length_a   4.19867800
_cell_length_b   5.96076600
_cell_length_c   12.63800100
_cell_angle_alpha   89.99994850
_cell_angle_beta   89.99869214
_cell_angle_gamma   89.99996713
_symmetry_Int_Tables_number   1
_chemical_formula_structural   Li6Al5ReRh12
_chemical_formula_sum   'Li6 Al5 Re1 Rh12'
_cell_volume   316.29551084
_cell_formula_units_Z   1
loop_
 _symmetry_equiv_pos_site_id
 _symmetry_equiv_pos_as_xyz
  1  'x, y, z'
loop_
 _atom_site_type_symbol
 _atom_site_label
 _atom_site_symmetry_multiplicity
 _atom_site_fract_x
 _atom_site_fract_y
 _atom_site_fract_z
 _atom_site_occupancy
  Li  Li0  1  0.000000  0.500029  0.000028  1
  Li  Li1  1  0.499825  0.999977  0.166947  1
  Li  Li2  1  0.999697  0.499998  0.335436  1
  Li  Li3  1  0.500001  0.000005  0.500001  1
  Li  Li4  1  0.000305  0.499997  0.664556  1
  Li  Li5  1  0.500176  0.999980  0.833068  1
  Al  Al6  1  0.499779  0.500022  0.171967  1
  Al  Al7  1  0.999779  0.999996  0.335467  1
  Al  Al8  1  0.500000  0.499990  0.499998  1
  Al  Al9  1  0.000222  0.999996  0.664538  1
  Al  Al10  1  0.500215  0.500019  0.828046  1
  Re  Re11  1  0.000000  0.999974  0.999849  1
  Rh  Rh12  1  0.500000  0.253565  0.999923  1
  Rh  Rh13  1  0.500001  0.746462  0.999925  1
  Rh  Rh14  1  0.999834  0.249235  0.163914  1
  Rh  Rh15  1  0.999835  0.750765  0.163913  1
  Rh  Rh16  1  0.499783  0.248912  0.332824  1
  Rh  Rh17  1  0.499782  0.751086  0.332833  1
  Rh  Rh18  1  0.000000  0.249139  0.500110  1
  Rh  Rh19  1  0.999999  0.750856  0.500110  1
  Rh  Rh20  1  0.500220  0.248924  0.667271  1
  Rh  Rh21  1  0.500219  0.751072  0.667261  1
  Rh  Rh22  1  0.000166  0.249210  0.836005  1
  Rh  Rh23  1  0.000167  0.750795  0.836008  1
