# generated using pymatgen
data_Sr6HoCr(BO3)6
_symmetry_space_group_name_H-M   'P 1'
_cell_length_a   7.76252081
_cell_length_b   7.76252132
_cell_length_c   7.76252073
_cell_angle_alpha   105.32334756
_cell_angle_beta   105.32335053
_cell_angle_gamma   105.32335199
_symmetry_Int_Tables_number   1
_chemical_formula_structural   Sr6HoCr(BO3)6
_chemical_formula_sum   'Sr6 Ho1 Cr1 B6 O18'
_cell_volume   406.04377469
_cell_formula_units_Z   1
loop_
 _symmetry_equiv_pos_site_id
 _symmetry_equiv_pos_as_xyz
  1  'x, y, z'
loop_
 _atom_site_type_symbol
 _atom_site_label
 _atom_site_symmetry_multiplicity
 _atom_site_fract_x
 _atom_site_fract_y
 _atom_site_fract_z
 _atom_site_occupancy
  Sr  Sr0  1  0.649653  0.266304  0.163703  1
  Sr  Sr1  1  0.163703  0.649653  0.266304  1
  Sr  Sr2  1  0.733695  0.836298  0.350347  1
  Sr  Sr3  1  0.266305  0.163702  0.649653  1
  Sr  Sr4  1  0.836298  0.350347  0.733696  1
  Sr  Sr5  1  0.350347  0.733696  0.836297  1
  Ho  Ho6  1  0.000000  0.000000  0.000000  1
  Cr  Cr7  1  0.500000  0.500000  0.500000  1
  B  B8  1  0.296102  0.377855  0.047987  1
  B  B9  1  0.377854  0.047987  0.296102  1
  B  B10  1  0.047987  0.296102  0.377854  1
  B  B11  1  0.952013  0.703899  0.622146  1
  B  B12  1  0.622146  0.952014  0.703898  1
  B  B13  1  0.703899  0.622146  0.952014  1
  O  O14  1  0.726660  0.815442  0.014745  1
  O  O15  1  0.803258  0.547570  0.068173  1
  O  O16  1  0.985255  0.273340  0.184556  1
  O  O17  1  0.452429  0.931827  0.196741  1
  O  O18  1  0.431758  0.499872  0.228515  1
  O  O19  1  0.184557  0.985255  0.273339  1
  O  O20  1  0.499871  0.228515  0.431758  1
  O  O21  1  0.931827  0.196741  0.452430  1
  O  O22  1  0.228515  0.431758  0.499872  1
  O  O23  1  0.771485  0.568242  0.500129  1
  O  O24  1  0.068173  0.803258  0.547570  1
  O  O25  1  0.500129  0.771485  0.568242  1
  O  O26  1  0.815442  0.014744  0.726660  1
  O  O27  1  0.568242  0.500129  0.771486  1
  O  O28  1  0.547570  0.068173  0.803259  1
  O  O29  1  0.014744  0.726659  0.815443  1
  O  O30  1  0.196741  0.452429  0.931827  1
  O  O31  1  0.273340  0.184557  0.985255  1
