# generated using pymatgen
data_Sm5V3(Ni4As3)4
_symmetry_space_group_name_H-M   'P 1'
_cell_length_a   12.62731203
_cell_length_b   12.62731200
_cell_length_c   3.91055000
_cell_angle_alpha   90.00000000
_cell_angle_beta   90.00000000
_cell_angle_gamma   119.98681262
_symmetry_Int_Tables_number   1
_chemical_formula_structural   Sm5V3(Ni4As3)4
_chemical_formula_sum   'Sm5 V3 Ni16 As12'
_cell_volume   540.06743898
_cell_formula_units_Z   1
loop_
 _symmetry_equiv_pos_site_id
 _symmetry_equiv_pos_as_xyz
  1  'x, y, z'
loop_
 _atom_site_type_symbol
 _atom_site_label
 _atom_site_symmetry_multiplicity
 _atom_site_fract_x
 _atom_site_fract_y
 _atom_site_fract_z
 _atom_site_occupancy
  Sm  Sm0  1  0.666734  0.333296  0.000000  1
  Sm  Sm1  1  0.333297  0.666735  0.000000  1
  Sm  Sm2  1  0.189886  0.000034  0.500001  1
  Sm  Sm3  1  0.000034  0.189886  0.500001  1
  Sm  Sm4  1  0.810207  0.810208  0.500001  1
  V  V5  1  0.566371  0.000007  0.000000  1
  V  V6  1  0.433565  0.433565  0.000000  1
  V  V7  1  0.000007  0.566371  0.000000  1
  Ni  Ni8  1  0.000003  0.000003  0.000000  1
  Ni  Ni9  1  0.804813  0.183902  0.000000  1
  Ni  Ni10  1  0.379083  0.195083  0.000000  1
  Ni  Ni11  1  0.195083  0.379083  0.000000  1
  Ni  Ni12  1  0.816189  0.620973  0.000000  1
  Ni  Ni13  1  0.183903  0.804813  0.000000  1
  Ni  Ni14  1  0.620973  0.816189  0.000000  1
  Ni  Ni15  1  0.719809  0.000011  0.500001  1
  Ni  Ni16  1  0.484215  0.121240  0.500001  1
  Ni  Ni17  1  0.280065  0.280065  0.500001  1
  Ni  Ni18  1  0.878731  0.362915  0.500001  1
  Ni  Ni19  1  0.121240  0.484215  0.500001  1
  Ni  Ni20  1  0.637113  0.515824  0.500001  1
  Ni  Ni21  1  0.515824  0.637114  0.500001  1
  Ni  Ni22  1  0.000011  0.719809  0.500001  1
  Ni  Ni23  1  0.362914  0.878731  0.500001  1
  As  As24  1  0.371135  0.999935  0.000000  1
  As  As25  1  0.820261  0.000043  0.000000  1
  As  As26  1  0.179749  0.179749  0.000000  1
  As  As27  1  0.999935  0.371135  0.000000  1
  As  As28  1  0.629008  0.629008  0.000000  1
  As  As29  1  0.000043  0.820261  0.000000  1
  As  As30  1  0.687597  0.165256  0.500001  1
  As  As31  1  0.477693  0.312281  0.500001  1
  As  As32  1  0.312280  0.477692  0.500001  1
  As  As33  1  0.834756  0.522350  0.500001  1
  As  As34  1  0.165256  0.687598  0.500001  1
  As  As35  1  0.522349  0.834756  0.500001  1
