# generated using pymatgen
data_Ho4Al18CrPd5
_symmetry_space_group_name_H-M   'P 1'
_cell_length_a   7.59933065
_cell_length_b   7.59932988
_cell_length_c   9.48252806
_cell_angle_alpha   89.76676502
_cell_angle_beta   89.76676916
_cell_angle_gamma   119.11702709
_symmetry_Int_Tables_number   1
_chemical_formula_structural   Ho4Al18CrPd5
_chemical_formula_sum   'Ho4 Al18 Cr1 Pd5'
_cell_volume   478.39555040
_cell_formula_units_Z   1
loop_
 _symmetry_equiv_pos_site_id
 _symmetry_equiv_pos_as_xyz
  1  'x, y, z'
loop_
 _atom_site_type_symbol
 _atom_site_label
 _atom_site_symmetry_multiplicity
 _atom_site_fract_x
 _atom_site_fract_y
 _atom_site_fract_z
 _atom_site_occupancy
  Ho  Ho0  1  0.994727  0.674003  0.247797  1
  Ho  Ho1  1  0.005273  0.325997  0.752203  1
  Ho  Ho2  1  0.674003  0.994727  0.247797  1
  Ho  Ho3  1  0.325997  0.005273  0.752203  1
  Al  Al4  1  0.127869  0.127869  0.243792  1
  Al  Al5  1  0.872131  0.872131  0.756208  1
  Al  Al6  1  0.000906  0.328314  0.073922  1
  Al  Al7  1  0.999094  0.671686  0.926078  1
  Al  Al8  1  0.998651  0.663081  0.578366  1
  Al  Al9  1  0.336919  0.001349  0.421634  1
  Al  Al10  1  0.001349  0.336919  0.421634  1
  Al  Al11  1  0.663081  0.998651  0.578366  1
  Al  Al12  1  0.671686  0.999094  0.926078  1
  Al  Al13  1  0.328314  0.000906  0.073922  1
  Al  Al14  1  0.333356  0.333356  0.555537  1
  Al  Al15  1  0.666644  0.666645  0.444463  1
  Al  Al16  1  0.673456  0.673457  0.050640  1
  Al  Al17  1  0.326544  0.326544  0.949360  1
  Al  Al18  1  0.341238  0.548506  0.249281  1
  Al  Al19  1  0.658762  0.451494  0.750719  1
  Al  Al20  1  0.548506  0.341238  0.249281  1
  Al  Al21  1  0.451494  0.658762  0.750719  1
  Cr  Cr22  1  0.000000  0.000000  0.000000  1
  Pd  Pd23  1  0.672997  0.327003  0.000000  1
  Pd  Pd24  1  0.327003  0.672997  0.000000  1
  Pd  Pd25  1  0.327921  0.672079  0.500000  1
  Pd  Pd26  1  0.672079  0.327921  0.500000  1
  Pd  Pd27  1  0.000000  0.000000  0.500000  1
