# generated using pymatgen
data_Ba2Ac(PIr)6
_symmetry_space_group_name_H-M   'P 1'
_cell_length_a   6.94649535
_cell_length_b   6.81952708
_cell_length_c   7.24459471
_cell_angle_alpha   90.00000393
_cell_angle_beta   89.33491462
_cell_angle_gamma   119.39718091
_symmetry_Int_Tables_number   1
_chemical_formula_structural   Ba2Ac(PIr)6
_chemical_formula_sum   'Ba2 Ac1 P6 Ir6'
_cell_volume   298.97325864
_cell_formula_units_Z   1
loop_
 _symmetry_equiv_pos_site_id
 _symmetry_equiv_pos_as_xyz
  1  'x, y, z'
loop_
 _atom_site_type_symbol
 _atom_site_label
 _atom_site_symmetry_multiplicity
 _atom_site_fract_x
 _atom_site_fract_y
 _atom_site_fract_z
 _atom_site_occupancy
  Ba  Ba0  1  0.399859  0.404431  0.498114  1
  Ba  Ba1  1  0.600141  0.004572  0.168553  1
  Ac  Ac2  1  0.000000  0.600191  0.833333  1
  P  P3  1  0.866347  0.207948  0.546554  1
  P  P4  1  0.210783  0.869481  0.456508  1
  P  P5  1  0.133653  0.341601  0.120113  1
  P  P6  1  0.789217  0.658698  0.210158  1
  P  P7  1  0.336219  0.129644  0.877392  1
  P  P8  1  0.663781  0.793425  0.789275  1
  Ir  Ir9  1  0.879785  0.872409  0.503048  1
  Ir  Ir10  1  0.120215  0.992624  0.163619  1
  Ir  Ir11  1  0.506233  0.498526  0.998550  1
  Ir  Ir12  1  0.000000  0.506403  0.333333  1
  Ir  Ir13  1  0.493767  0.992293  0.668117  1
  Ir  Ir14  1  0.000000  0.127755  0.833333  1
