# generated using pymatgen
data_Er3Be2Rh5
_symmetry_space_group_name_H-M   'P 1'
_cell_length_a   9.77256800
_cell_length_b   9.77256800
_cell_length_c   3.35357600
_cell_angle_alpha   90.00000000
_cell_angle_beta   90.00000000
_cell_angle_gamma   90.00000000
_symmetry_Int_Tables_number   1
_chemical_formula_structural   Er3Be2Rh5
_chemical_formula_sum   'Er6 Be4 Rh10'
_cell_volume   320.27685484
_cell_formula_units_Z   2
loop_
 _symmetry_equiv_pos_site_id
 _symmetry_equiv_pos_as_xyz
  1  'x, y, z'
loop_
 _atom_site_type_symbol
 _atom_site_label
 _atom_site_symmetry_multiplicity
 _atom_site_fract_x
 _atom_site_fract_y
 _atom_site_fract_z
 _atom_site_occupancy
  Er  Er0  1  0.825489  0.325489  0.000000  1
  Er  Er1  1  0.325489  0.174511  0.000000  1
  Er  Er2  1  0.674511  0.825489  0.000000  1
  Er  Er3  1  0.174511  0.674511  0.000000  1
  Er  Er4  1  0.000000  0.000000  0.000000  1
  Er  Er5  1  0.500000  0.500000  0.000000  1
  Be  Be6  1  0.620689  0.120689  0.000000  1
  Be  Be7  1  0.120689  0.379311  0.000000  1
  Be  Be8  1  0.879311  0.620689  0.000000  1
  Be  Be9  1  0.379311  0.879311  0.000000  1
  Rh  Rh10  1  0.070880  0.220791  0.500000  1
  Rh  Rh11  1  0.220791  0.929120  0.500000  1
  Rh  Rh12  1  0.779209  0.070880  0.500000  1
  Rh  Rh13  1  0.929120  0.779209  0.500000  1
  Rh  Rh14  1  0.429120  0.720791  0.500000  1
  Rh  Rh15  1  0.570880  0.279209  0.500000  1
  Rh  Rh16  1  0.720791  0.570880  0.500000  1
  Rh  Rh17  1  0.279209  0.429120  0.500000  1
  Rh  Rh18  1  0.500000  0.000000  0.500000  1
  Rh  Rh19  1  0.000000  0.500000  0.500000  1
