# generated using pymatgen
data_Dy8Ho11LuSn16
_symmetry_space_group_name_H-M   'P 1'
_cell_length_a   8.01330002
_cell_length_b   8.14837075
_cell_length_c   15.42809200
_cell_angle_alpha   90.00000000
_cell_angle_beta   90.00000000
_cell_angle_gamma   89.94893845
_symmetry_Int_Tables_number   1
_chemical_formula_structural   Dy8Ho11LuSn16
_chemical_formula_sum   'Dy8 Ho11 Lu1 Sn16'
_cell_volume   1007.38210486
_cell_formula_units_Z   1
loop_
 _symmetry_equiv_pos_site_id
 _symmetry_equiv_pos_as_xyz
  1  'x, y, z'
loop_
 _atom_site_type_symbol
 _atom_site_label
 _atom_site_symmetry_multiplicity
 _atom_site_fract_x
 _atom_site_fract_y
 _atom_site_fract_z
 _atom_site_occupancy
  Dy  Dy0  1  0.520816  0.321046  0.902437  1
  Dy  Dy1  1  0.021260  0.179594  0.597616  1
  Dy  Dy2  1  0.479243  0.679359  0.402905  1
  Dy  Dy3  1  0.979160  0.820620  0.097409  1
  Dy  Dy4  1  0.479243  0.679359  0.097095  1
  Dy  Dy5  1  0.979160  0.820620  0.402591  1
  Dy  Dy6  1  0.520816  0.321046  0.597563  1
  Dy  Dy7  1  0.021260  0.179594  0.902384  1
  Ho  Ho8  1  0.367599  0.836878  0.877534  1
  Ho  Ho9  1  0.868117  0.662699  0.622377  1
  Ho  Ho10  1  0.632101  0.163049  0.377840  1
  Ho  Ho11  1  0.132138  0.337030  0.121652  1
  Ho  Ho12  1  0.632101  0.163049  0.122160  1
  Ho  Ho13  1  0.132138  0.337030  0.378348  1
  Ho  Ho14  1  0.367599  0.836878  0.622466  1
  Ho  Ho15  1  0.868117  0.662699  0.877623  1
  Ho  Ho16  1  0.698643  0.997165  0.750000  1
  Ho  Ho17  1  0.800971  0.496681  0.250000  1
  Ho  Ho18  1  0.300982  0.003134  0.250000  1
  Lu  Lu19  1  0.198943  0.503552  0.750000  1
  Sn  Sn20  1  0.292569  0.036102  0.041485  1
  Sn  Sn21  1  0.792453  0.463587  0.458446  1
  Sn  Sn22  1  0.707656  0.963890  0.541907  1
  Sn  Sn23  1  0.207617  0.535929  0.957189  1
  Sn  Sn24  1  0.707656  0.963890  0.958093  1
  Sn  Sn25  1  0.207617  0.535929  0.542811  1
  Sn  Sn26  1  0.292569  0.036102  0.458515  1
  Sn  Sn27  1  0.792453  0.463587  0.041554  1
  Sn  Sn28  1  0.563743  0.617887  0.750000  1
  Sn  Sn29  1  0.065664  0.880282  0.750000  1
  Sn  Sn30  1  0.433921  0.380928  0.250000  1
  Sn  Sn31  1  0.934501  0.119143  0.250000  1
  Sn  Sn32  1  0.329786  0.149836  0.750000  1
  Sn  Sn33  1  0.831044  0.352641  0.750000  1
  Sn  Sn34  1  0.669994  0.851966  0.250000  1
  Sn  Sn35  1  0.170347  0.647225  0.250000  1
