# generated using pymatgen
data_Sc2NbFeTc2Ge3
_symmetry_space_group_name_H-M   'P 1'
_cell_length_a   6.92848384
_cell_length_b   6.85727398
_cell_length_c   7.77389485
_cell_angle_alpha   116.17056936
_cell_angle_beta   116.46334188
_cell_angle_gamma   89.99999693
_symmetry_Int_Tables_number   1
_chemical_formula_structural   Sc2NbFeTc2Ge3
_chemical_formula_sum   'Sc4 Nb2 Fe2 Tc4 Ge6'
_cell_volume   287.73063178
_cell_formula_units_Z   2
loop_
 _symmetry_equiv_pos_site_id
 _symmetry_equiv_pos_as_xyz
  1  'x, y, z'
loop_
 _atom_site_type_symbol
 _atom_site_label
 _atom_site_symmetry_multiplicity
 _atom_site_fract_x
 _atom_site_fract_y
 _atom_site_fract_z
 _atom_site_occupancy
  Sc  Sc0  1  0.899487  0.954693  0.409384  1
  Sc  Sc1  1  0.490103  0.045307  0.590616  1
  Sc  Sc2  1  0.489685  0.543946  0.587892  1
  Sc  Sc3  1  0.901793  0.456054  0.412108  1
  Nb  Nb4  1  0.112200  0.749488  0.998976  1
  Nb  Nb5  1  0.113223  0.250512  0.001024  1
  Fe  Fe6  1  0.771328  0.500000  0.000000  1
  Fe  Fe7  1  0.771328  0.000000  0.000000  1
  Tc  Tc8  1  0.246364  0.876558  0.751462  1
  Tc  Tc9  1  0.494903  0.123442  0.248538  1
  Tc  Tc10  1  0.246364  0.374903  0.751462  1
  Tc  Tc11  1  0.494903  0.625097  0.248538  1
  Ge  Ge12  1  0.155052  0.662159  0.322469  1
  Ge  Ge13  1  0.832583  0.337841  0.677531  1
  Ge  Ge14  1  0.155052  0.160309  0.322469  1
  Ge  Ge15  1  0.832583  0.839691  0.677531  1
  Ge  Ge16  1  0.524700  0.749178  0.998357  1
  Ge  Ge17  1  0.526344  0.250822  0.001643  1
