# generated using pymatgen
data_Zr2Be2B2Ru5
_symmetry_space_group_name_H-M   'P 1'
_cell_length_a   3.11877800
_cell_length_b   8.67420305
_cell_length_c   10.17306570
_cell_angle_alpha   90.26922310
_cell_angle_beta   90.00000000
_cell_angle_gamma   90.00000000
_symmetry_Int_Tables_number   1
_chemical_formula_structural   Zr2Be2B2Ru5
_chemical_formula_sum   'Zr4 Be4 B4 Ru10'
_cell_volume   275.20802981
_cell_formula_units_Z   2
loop_
 _symmetry_equiv_pos_site_id
 _symmetry_equiv_pos_as_xyz
  1  'x, y, z'
loop_
 _atom_site_type_symbol
 _atom_site_label
 _atom_site_symmetry_multiplicity
 _atom_site_fract_x
 _atom_site_fract_y
 _atom_site_fract_z
 _atom_site_occupancy
  Zr  Zr0  1  0.500000  0.842498  0.180713  1
  Zr  Zr1  1  0.500000  0.157502  0.819287  1
  Zr  Zr2  1  0.500000  0.660707  0.679202  1
  Zr  Zr3  1  0.500000  0.339293  0.320798  1
  Be  Be4  1  0.500000  0.964835  0.594345  1
  Be  Be5  1  0.500000  0.035165  0.405655  1
  Be  Be6  1  0.500000  0.847448  0.901692  1
  Be  Be7  1  0.500000  0.152552  0.098308  1
  B  B8  1  0.500000  0.652277  0.400799  1
  B  B9  1  0.500000  0.347723  0.599201  1
  B  B10  1  0.500000  0.466098  0.911770  1
  B  B11  1  0.500000  0.533902  0.088230  1
  Ru  Ru12  1  0.000000  0.651190  0.956741  1
  Ru  Ru13  1  0.000000  0.348810  0.043259  1
  Ru  Ru14  1  0.000000  0.829704  0.447651  1
  Ru  Ru15  1  0.000000  0.170296  0.552349  1
  Ru  Ru16  1  0.000000  0.000000  0.000000  1
  Ru  Ru17  1  0.000000  0.409311  0.761307  1
  Ru  Ru18  1  0.000000  0.590689  0.238693  1
  Ru  Ru19  1  0.000000  0.500000  0.500000  1
  Ru  Ru20  1  0.000000  0.902707  0.741170  1
  Ru  Ru21  1  0.000000  0.097293  0.258830  1
