# generated using pymatgen
data_Pr2DyTm(Sn5Rh3)2
_symmetry_space_group_name_H-M   'P 1'
_cell_length_a   13.52183453
_cell_length_b   13.52183409
_cell_length_c   7.26905119
_cell_angle_alpha   89.97419865
_cell_angle_beta   90.02580100
_cell_angle_gamma   160.91809549
_symmetry_Int_Tables_number   1
_chemical_formula_structural   Pr2DyTm(Sn5Rh3)2
_chemical_formula_sum   'Pr2 Dy1 Tm1 Sn10 Rh6'
_cell_volume   434.49987185
_cell_formula_units_Z   1
loop_
 _symmetry_equiv_pos_site_id
 _symmetry_equiv_pos_as_xyz
  1  'x, y, z'
loop_
 _atom_site_type_symbol
 _atom_site_label
 _atom_site_symmetry_multiplicity
 _atom_site_fract_x
 _atom_site_fract_y
 _atom_site_fract_z
 _atom_site_occupancy
  Pr  Pr0  1  0.172210  0.827790  0.752809  1
  Pr  Pr1  1  0.827775  0.172225  0.252750  1
  Dy  Dy2  1  0.523639  0.476361  0.238316  1
  Tm  Tm3  1  0.476048  0.523952  0.738320  1
  Sn  Sn4  1  0.881613  0.118387  0.731855  1
  Sn  Sn5  1  0.118574  0.881426  0.231875  1
  Sn  Sn6  1  0.704335  0.295665  0.050267  1
  Sn  Sn7  1  0.295714  0.704286  0.550276  1
  Sn  Sn8  1  0.594453  0.405547  0.614462  1
  Sn  Sn9  1  0.405404  0.594596  0.113951  1
  Sn  Sn10  1  0.953060  0.046940  0.399693  1
  Sn  Sn11  1  0.046636  0.953364  0.898406  1
  Sn  Sn12  1  0.290336  0.709664  0.973553  1
  Sn  Sn13  1  0.709660  0.290340  0.473597  1
  Rh  Rh14  1  0.049625  0.950375  0.518954  1
  Rh  Rh15  1  0.950298  0.049702  0.016886  1
  Rh  Rh16  1  0.778113  0.221887  0.762163  1
  Rh  Rh17  1  0.221971  0.778029  0.262114  1
  Rh  Rh18  1  0.395934  0.604066  0.488690  1
  Rh  Rh19  1  0.604603  0.395397  0.987064  1
