# generated using pymatgen
data_TbDy6FeI12
_symmetry_space_group_name_H-M   'P 1'
_cell_length_a   9.72324644
_cell_length_b   9.76621044
_cell_length_c   9.77729670
_cell_angle_alpha   107.03274180
_cell_angle_beta   107.00195046
_cell_angle_gamma   106.82590771
_symmetry_Int_Tables_number   1
_chemical_formula_structural   TbDy6FeI12
_chemical_formula_sum   'Tb1 Dy6 Fe1 I12'
_cell_volume   774.19358978
_cell_formula_units_Z   1
loop_
 _symmetry_equiv_pos_site_id
 _symmetry_equiv_pos_as_xyz
  1  'x, y, z'
loop_
 _atom_site_type_symbol
 _atom_site_label
 _atom_site_symmetry_multiplicity
 _atom_site_fract_x
 _atom_site_fract_y
 _atom_site_fract_z
 _atom_site_occupancy
  Tb  Tb0  1  0.780872  0.520710  0.589335  1
  Dy  Dy1  1  0.407357  0.208903  0.477904  1
  Dy  Dy2  1  0.478838  0.406663  0.208612  1
  Dy  Dy3  1  0.592088  0.790809  0.521897  1
  Dy  Dy4  1  0.999750  0.000108  0.999917  1
  Dy  Dy5  1  0.521397  0.593268  0.791236  1
  Dy  Dy6  1  0.221602  0.479301  0.411274  1
  Fe  Fe7  1  0.501033  0.499871  0.500252  1
  I  I8  1  0.660183  0.963205  0.885726  1
  I  I9  1  0.724574  0.178844  0.571910  1
  I  I10  1  0.885318  0.661198  0.962179  1
  I  I11  1  0.273648  0.818709  0.427535  1
  I  I12  1  0.179944  0.570551  0.722485  1
  I  I13  1  0.038006  0.116778  0.339134  1
  I  I14  1  0.571245  0.724767  0.178670  1
  I  I15  1  0.114718  0.339980  0.040006  1
  I  I16  1  0.819911  0.428877  0.275352  1
  I  I17  1  0.428378  0.275394  0.821388  1
  I  I18  1  0.961897  0.885335  0.661048  1
  I  I19  1  0.339243  0.036728  0.114139  1
