# generated using pymatgen
data_TmGaCu3Au
_symmetry_space_group_name_H-M   'P 1'
_cell_length_a   5.09604446
_cell_length_b   5.09604484
_cell_length_c   5.04480760
_cell_angle_alpha   59.66344821
_cell_angle_beta   59.66344678
_cell_angle_gamma   60.00000879
_symmetry_Int_Tables_number   1
_chemical_formula_structural   TmGaCu3Au
_chemical_formula_sum   'Tm1 Ga1 Cu3 Au1'
_cell_volume   92.16541930
_cell_formula_units_Z   1
loop_
 _symmetry_equiv_pos_site_id
 _symmetry_equiv_pos_as_xyz
  1  'x, y, z'
loop_
 _atom_site_type_symbol
 _atom_site_label
 _atom_site_symmetry_multiplicity
 _atom_site_fract_x
 _atom_site_fract_y
 _atom_site_fract_z
 _atom_site_occupancy
  Tm  Tm0  1  0.002124  0.002124  0.993627  1
  Ga  Ga1  1  0.622686  0.622686  0.131941  1
  Cu  Cu2  1  0.623853  0.125886  0.626409  1
  Cu  Cu3  1  0.125886  0.623853  0.626409  1
  Cu  Cu4  1  0.623853  0.623853  0.626409  1
  Au  Au5  1  0.251599  0.251599  0.245205  1
