# generated using pymatgen
data_Nd3Sn3IrRuAu
_symmetry_space_group_name_H-M   'P 1'
_cell_length_a   7.77135800
_cell_length_b   7.77135848
_cell_length_c   4.02751900
_cell_angle_alpha   90.00000000
_cell_angle_beta   90.00000000
_cell_angle_gamma   119.99999797
_symmetry_Int_Tables_number   1
_chemical_formula_structural   Nd3Sn3IrRuAu
_chemical_formula_sum   'Nd3 Sn3 Ir1 Ru1 Au1'
_cell_volume   210.65030723
_cell_formula_units_Z   1
loop_
 _symmetry_equiv_pos_site_id
 _symmetry_equiv_pos_as_xyz
  1  'x, y, z'
loop_
 _atom_site_type_symbol
 _atom_site_label
 _atom_site_symmetry_multiplicity
 _atom_site_fract_x
 _atom_site_fract_y
 _atom_site_fract_z
 _atom_site_occupancy
  Nd  Nd0  1  0.601400  0.016844  0.000000  1
  Nd  Nd1  1  0.983156  0.584555  0.000000  1
  Nd  Nd2  1  0.415445  0.398600  0.000000  1
  Sn  Sn3  1  0.251770  0.002992  0.500000  1
  Sn  Sn4  1  0.997008  0.248778  0.500000  1
  Sn  Sn5  1  0.751222  0.748230  0.500000  1
  Ir  Ir6  1  0.666667  0.333333  0.500000  1
  Ru  Ru7  1  0.000000  0.000000  0.000000  1
  Au  Au8  1  0.333333  0.666667  0.500000  1
