# generated using pymatgen
data_Dy6Y10MgHg3Ir4
_symmetry_space_group_name_H-M   'P 1'
_cell_length_a   9.64603258
_cell_length_b   9.65249309
_cell_length_c   9.65249334
_cell_angle_alpha   59.90208677
_cell_angle_beta   60.07374894
_cell_angle_gamma   60.07374130
_symmetry_Int_Tables_number   1
_chemical_formula_structural   Dy6Y10MgHg3Ir4
_chemical_formula_sum   'Dy6 Y10 Mg1 Hg3 Ir4'
_cell_volume   635.73016001
_cell_formula_units_Z   1
loop_
 _symmetry_equiv_pos_site_id
 _symmetry_equiv_pos_as_xyz
  1  'x, y, z'
loop_
 _atom_site_type_symbol
 _atom_site_label
 _atom_site_symmetry_multiplicity
 _atom_site_fract_x
 _atom_site_fract_y
 _atom_site_fract_z
 _atom_site_occupancy
  Dy  Dy0  1  0.599239  0.597685  0.597685  1
  Dy  Dy1  1  0.599541  0.597321  0.205523  1
  Dy  Dy2  1  0.599541  0.205523  0.597321  1
  Dy  Dy3  1  0.194854  0.601804  0.601804  1
  Dy  Dy4  1  0.057722  0.441743  0.441743  1
  Dy  Dy5  1  0.438079  0.061266  0.061266  1
  Y  Y6  1  0.438341  0.061060  0.439500  1
  Y  Y7  1  0.057494  0.441977  0.058568  1
  Y  Y8  1  0.438341  0.439500  0.061060  1
  Y  Y9  1  0.057494  0.058568  0.441977  1
  Y  Y10  1  0.187215  0.811437  0.811437  1
  Y  Y11  1  0.810729  0.188469  0.188469  1
  Y  Y12  1  0.810395  0.188750  0.812074  1
  Y  Y13  1  0.187512  0.811123  0.190293  1
  Y  Y14  1  0.810395  0.812074  0.188750  1
  Y  Y15  1  0.187512  0.190293  0.811123  1
  Mg  Mg16  1  0.535206  0.821528  0.821528  1
  Hg  Hg17  1  0.832515  0.836888  0.836888  1
  Hg  Hg18  1  0.832268  0.837004  0.493820  1
  Hg  Hg19  1  0.832268  0.493820  0.837004  1
  Ir  Ir20  1  0.388039  0.394425  0.394425  1
  Ir  Ir21  1  0.390856  0.391636  0.823082  1
  Ir  Ir22  1  0.390856  0.823082  0.391636  1
  Ir  Ir23  1  0.823587  0.393025  0.393025  1
