# generated using pymatgen
data_Y6Al23SiRu8
_symmetry_space_group_name_H-M   'P 1'
_cell_length_a   8.77176200
_cell_length_b   8.77176224
_cell_length_c   9.63492800
_cell_angle_alpha   90.00000000
_cell_angle_beta   90.00000000
_cell_angle_gamma   119.99999911
_symmetry_Int_Tables_number   1
_chemical_formula_structural   Y6Al23SiRu8
_chemical_formula_sum   'Y6 Al23 Si1 Ru8'
_cell_volume   642.02627233
_cell_formula_units_Z   1
loop_
 _symmetry_equiv_pos_site_id
 _symmetry_equiv_pos_as_xyz
  1  'x, y, z'
loop_
 _atom_site_type_symbol
 _atom_site_label
 _atom_site_symmetry_multiplicity
 _atom_site_fract_x
 _atom_site_fract_y
 _atom_site_fract_z
 _atom_site_occupancy
  Y  Y0  1  0.194384  0.388768  0.250081  1
  Y  Y1  1  0.806611  0.613220  0.750553  1
  Y  Y2  1  0.611232  0.805616  0.250081  1
  Y  Y3  1  0.386780  0.193389  0.750553  1
  Y  Y4  1  0.194384  0.805616  0.250081  1
  Y  Y5  1  0.806611  0.193389  0.750553  1
  Al  Al6  1  0.666667  0.333333  0.983617  1
  Al  Al7  1  0.666667  0.333333  0.518694  1
  Al  Al8  1  0.333333  0.666667  0.481848  1
  Al  Al9  1  0.162847  0.325696  0.576280  1
  Al  Al10  1  0.836891  0.673779  0.422750  1
  Al  Al11  1  0.674304  0.837153  0.576280  1
  Al  Al12  1  0.837035  0.674070  0.076037  1
  Al  Al13  1  0.326221  0.163109  0.422750  1
  Al  Al14  1  0.164636  0.329272  0.922107  1
  Al  Al15  1  0.162847  0.837153  0.576280  1
  Al  Al16  1  0.325930  0.162965  0.076037  1
  Al  Al17  1  0.836891  0.163109  0.422750  1
  Al  Al18  1  0.670728  0.835364  0.922107  1
  Al  Al19  1  0.837035  0.162965  0.076037  1
  Al  Al20  1  0.164636  0.835364  0.922107  1
  Al  Al21  1  0.561919  0.123838  0.248525  1
  Al  Al22  1  0.437665  0.875329  0.748016  1
  Al  Al23  1  0.876162  0.438081  0.248525  1
  Al  Al24  1  0.124671  0.562335  0.748016  1
  Al  Al25  1  0.561919  0.438081  0.248525  1
  Al  Al26  1  0.437665  0.562335  0.748016  1
  Al  Al27  1  0.000000  0.000000  0.249157  1
  Al  Al28  1  0.000000  0.000000  0.748982  1
  Si  Si29  1  0.333333  0.666667  0.039523  1
  Ru  Ru30  1  0.495680  0.991359  0.000673  1
  Ru  Ru31  1  0.008641  0.504320  0.000673  1
  Ru  Ru32  1  0.500384  0.000769  0.498440  1
  Ru  Ru33  1  0.495680  0.504320  0.000673  1
  Ru  Ru34  1  0.999231  0.499616  0.498440  1
  Ru  Ru35  1  0.500384  0.499616  0.498440  1
  Ru  Ru36  1  0.000000  0.000000  0.998979  1
  Ru  Ru37  1  0.000000  0.000000  0.498820  1
