# generated using pymatgen
data_Ta6Co16Si5GeP
_symmetry_space_group_name_H-M   'P 1'
_cell_length_a   7.89343078
_cell_length_b   7.90742863
_cell_length_c   7.89358513
_cell_angle_alpha   59.94713529
_cell_angle_beta   60.02929356
_cell_angle_gamma   59.94659000
_symmetry_Int_Tables_number   1
_chemical_formula_structural   Ta6Co16Si5GeP
_chemical_formula_sum   'Ta6 Co16 Si5 Ge1 P1'
_cell_volume   348.18255237
_cell_formula_units_Z   1
loop_
 _symmetry_equiv_pos_site_id
 _symmetry_equiv_pos_as_xyz
  1  'x, y, z'
loop_
 _atom_site_type_symbol
 _atom_site_label
 _atom_site_symmetry_multiplicity
 _atom_site_fract_x
 _atom_site_fract_y
 _atom_site_fract_z
 _atom_site_occupancy
  Ta  Ta0  1  0.699096  0.297913  0.300892  1
  Ta  Ta1  1  0.700644  0.299367  0.700643  1
  Ta  Ta2  1  0.300904  0.702087  0.699108  1
  Ta  Ta3  1  0.299356  0.700633  0.299357  1
  Ta  Ta4  1  0.300892  0.297914  0.699096  1
  Ta  Ta5  1  0.699108  0.702086  0.300904  1
  Co  Co6  1  0.881524  0.887611  0.881523  1
  Co  Co7  1  0.998298  0.331324  0.339068  1
  Co  Co8  1  0.117941  0.116476  0.649140  1
  Co  Co9  1  0.660934  0.668676  0.001699  1
  Co  Co10  1  0.339066  0.331324  0.998301  1
  Co  Co11  1  0.665707  0.666363  0.665707  1
  Co  Co12  1  0.334293  0.333637  0.334293  1
  Co  Co13  1  0.882059  0.883524  0.350860  1
  Co  Co14  1  0.334285  0.997813  0.334285  1
  Co  Co15  1  0.118476  0.112389  0.118477  1
  Co  Co16  1  0.881517  0.349340  0.881516  1
  Co  Co17  1  0.649138  0.116476  0.117942  1
  Co  Co18  1  0.118483  0.650660  0.118484  1
  Co  Co19  1  0.665715  0.002187  0.665715  1
  Co  Co20  1  0.350862  0.883524  0.882058  1
  Co  Co21  1  0.001702  0.668676  0.660932  1
  Si  Si22  1  0.500000  0.500000  0.000000  1
  Si  Si23  1  0.500000  0.000000  0.500000  1
  Si  Si24  1  0.000000  0.000000  0.500000  1
  Si  Si25  1  0.000000  0.500000  0.500000  1
  Si  Si26  1  0.500000  0.000000  0.000000  1
  Ge  Ge27  1  0.000000  0.500000  0.000000  1
  P  P28  1  0.000000  0.000000  0.000000  1
