# generated using pymatgen
data_Ho9Pa(Al2Ru3)2
_symmetry_space_group_name_H-M   'P 1'
_cell_length_a   8.29218229
_cell_length_b   8.29218128
_cell_length_c   8.29218200
_cell_angle_alpha   109.40818049
_cell_angle_beta   109.40817804
_cell_angle_gamma   109.40819812
_symmetry_Int_Tables_number   1
_chemical_formula_structural   Ho9Pa(Al2Ru3)2
_chemical_formula_sum   'Ho9 Pa1 Al4 Ru6'
_cell_volume   439.94055783
_cell_formula_units_Z   1
loop_
 _symmetry_equiv_pos_site_id
 _symmetry_equiv_pos_as_xyz
  1  'x, y, z'
loop_
 _atom_site_type_symbol
 _atom_site_label
 _atom_site_symmetry_multiplicity
 _atom_site_fract_x
 _atom_site_fract_y
 _atom_site_fract_z
 _atom_site_occupancy
  Ho  Ho0  1  0.474160  0.147787  0.217568  1
  Ho  Ho1  1  0.147787  0.217568  0.474160  1
  Ho  Ho2  1  0.217568  0.474160  0.147787  1
  Ho  Ho3  1  0.413113  0.693656  0.911957  1
  Ho  Ho4  1  0.693656  0.911957  0.413113  1
  Ho  Ho5  1  0.911957  0.413113  0.693656  1
  Ho  Ho6  1  0.658116  0.088810  0.840206  1
  Ho  Ho7  1  0.088810  0.840206  0.658116  1
  Ho  Ho8  1  0.840206  0.658116  0.088810  1
  Pa  Pa9  1  0.591995  0.591995  0.591995  1
  Al  Al10  1  0.409700  0.316007  0.913704  1
  Al  Al11  1  0.316007  0.913704  0.409700  1
  Al  Al12  1  0.913704  0.409700  0.316007  1
  Al  Al13  1  0.993160  0.993160  0.993160  1
  Ru  Ru14  1  0.033488  0.159363  0.783061  1
  Ru  Ru15  1  0.159363  0.783061  0.033488  1
  Ru  Ru16  1  0.783061  0.033488  0.159363  1
  Ru  Ru17  1  0.659615  0.538575  0.305959  1
  Ru  Ru18  1  0.538575  0.305959  0.659615  1
  Ru  Ru19  1  0.305959  0.659615  0.538575  1
