# generated using pymatgen
data_Ca7Yb3(Sb3Au)2
_symmetry_space_group_name_H-M   'P 1'
_cell_length_a   9.18852200
_cell_length_b   9.18860516
_cell_length_c   7.13178000
_cell_angle_alpha   90.00000000
_cell_angle_beta   90.00000000
_cell_angle_gamma   120.00030544
_symmetry_Int_Tables_number   1
_chemical_formula_structural   Ca7Yb3(Sb3Au)2
_chemical_formula_sum   'Ca7 Yb3 Sb6 Au2'
_cell_volume   521.46177919
_cell_formula_units_Z   1
loop_
 _symmetry_equiv_pos_site_id
 _symmetry_equiv_pos_as_xyz
  1  'x, y, z'
loop_
 _atom_site_type_symbol
 _atom_site_label
 _atom_site_symmetry_multiplicity
 _atom_site_fract_x
 _atom_site_fract_y
 _atom_site_fract_z
 _atom_site_occupancy
  Ca  Ca0  1  0.261884  0.999838  0.250000  1
  Ca  Ca1  1  0.000000  0.738061  0.750000  1
  Ca  Ca2  1  0.738116  0.737955  0.250000  1
  Ca  Ca3  1  0.666666  0.333072  0.500174  1
  Ca  Ca4  1  0.333334  0.666407  0.999826  1
  Ca  Ca5  1  0.333334  0.666407  0.500174  1
  Ca  Ca6  1  0.666666  0.333072  0.999826  1
  Yb  Yb7  1  0.259394  0.259263  0.750000  1
  Yb  Yb8  1  0.740606  0.999869  0.750000  1
  Yb  Yb9  1  0.000000  0.259394  0.250000  1
  Sb  Sb10  1  0.609576  0.609475  0.750000  1
  Sb  Sb11  1  0.000000  0.609402  0.250000  1
  Sb  Sb12  1  0.610522  0.999885  0.250000  1
  Sb  Sb13  1  0.390424  0.999899  0.750000  1
  Sb  Sb14  1  0.000000  0.389346  0.750000  1
  Sb  Sb15  1  0.389478  0.389361  0.250000  1
  Au  Au16  1  0.000000  0.004647  0.502045  1
  Au  Au17  1  0.000000  0.004647  0.997955  1
