# generated using pymatgen
data_Ba4ErReO8
_symmetry_space_group_name_H-M   'P 1'
_cell_length_a   7.44732932
_cell_length_b   7.44732849
_cell_length_c   5.95246600
_cell_angle_alpha   90.00000000
_cell_angle_beta   90.00000000
_cell_angle_gamma   133.01406513
_symmetry_Int_Tables_number   1
_chemical_formula_structural   Ba4ErReO8
_chemical_formula_sum   'Ba4 Er1 Re1 O8'
_cell_volume   241.39374637
_cell_formula_units_Z   1
loop_
 _symmetry_equiv_pos_site_id
 _symmetry_equiv_pos_as_xyz
  1  'x, y, z'
loop_
 _atom_site_type_symbol
 _atom_site_label
 _atom_site_symmetry_multiplicity
 _atom_site_fract_x
 _atom_site_fract_y
 _atom_site_fract_z
 _atom_site_occupancy
  Ba  Ba0  1  0.353386  0.646614  0.000000  1
  Ba  Ba1  1  0.852241  0.147759  0.500000  1
  Ba  Ba2  1  0.147759  0.852241  0.500000  1
  Ba  Ba3  1  0.646614  0.353386  0.000000  1
  Er  Er4  1  0.000000  0.000000  0.000000  1
  Re  Re5  1  0.500000  0.500000  0.500000  1
  O  O6  1  0.262102  0.262102  0.732717  1
  O  O7  1  0.737898  0.737898  0.267283  1
  O  O8  1  0.737898  0.737898  0.732717  1
  O  O9  1  0.262102  0.262102  0.267283  1
  O  O10  1  0.164483  0.835517  0.000000  1
  O  O11  1  0.650157  0.349843  0.500000  1
  O  O12  1  0.349843  0.650157  0.500000  1
  O  O13  1  0.835517  0.164483  0.000000  1
