# generated using pymatgen
data_Ta4TiGa(B2Ru5)2
_symmetry_space_group_name_H-M   'P 1'
_cell_length_a   9.33455700
_cell_length_b   9.33455700
_cell_length_c   3.00913200
_cell_angle_alpha   90.00000000
_cell_angle_beta   90.00000000
_cell_angle_gamma   90.00000000
_symmetry_Int_Tables_number   1
_chemical_formula_structural   Ta4TiGa(B2Ru5)2
_chemical_formula_sum   'Ta4 Ti1 Ga1 B4 Ru10'
_cell_volume   262.19757043
_cell_formula_units_Z   1
loop_
 _symmetry_equiv_pos_site_id
 _symmetry_equiv_pos_as_xyz
  1  'x, y, z'
loop_
 _atom_site_type_symbol
 _atom_site_label
 _atom_site_symmetry_multiplicity
 _atom_site_fract_x
 _atom_site_fract_y
 _atom_site_fract_z
 _atom_site_occupancy
  Ta  Ta0  1  0.822552  0.676486  0.000000  1
  Ta  Ta1  1  0.177448  0.323514  0.000000  1
  Ta  Ta2  1  0.323514  0.822552  0.000000  1
  Ta  Ta3  1  0.676486  0.177448  0.000000  1
  Ti  Ti4  1  0.500000  0.500000  0.000000  1
  Ga  Ga5  1  0.000000  0.000000  0.000000  1
  B  B6  1  0.626205  0.878053  0.000000  1
  B  B7  1  0.373795  0.121947  0.000000  1
  B  B8  1  0.121947  0.626205  0.000000  1
  B  B9  1  0.878053  0.373795  0.000000  1
  Ru  Ru10  1  0.570287  0.716229  0.500000  1
  Ru  Ru11  1  0.429713  0.283771  0.500000  1
  Ru  Ru12  1  0.070274  0.785653  0.500000  1
  Ru  Ru13  1  0.929726  0.214347  0.500000  1
  Ru  Ru14  1  0.283771  0.570287  0.500000  1
  Ru  Ru15  1  0.716229  0.429713  0.500000  1
  Ru  Ru16  1  0.214347  0.070274  0.500000  1
  Ru  Ru17  1  0.785653  0.929726  0.500000  1
  Ru  Ru18  1  0.500000  0.000000  0.500000  1
  Ru  Ru19  1  0.000000  0.500000  0.500000  1
