# generated using pymatgen
data_Zr2MnAlOs2
_symmetry_space_group_name_H-M   'P 1'
_cell_length_a   5.23587457
_cell_length_b   5.25512065
_cell_length_c   8.33897300
_cell_angle_alpha   90.00000000
_cell_angle_beta   90.00000000
_cell_angle_gamma   120.12167433
_symmetry_Int_Tables_number   1
_chemical_formula_structural   Zr2MnAlOs2
_chemical_formula_sum   'Zr4 Mn2 Al2 Os4'
_cell_volume   198.46381796
_cell_formula_units_Z   2
loop_
 _symmetry_equiv_pos_site_id
 _symmetry_equiv_pos_as_xyz
  1  'x, y, z'
loop_
 _atom_site_type_symbol
 _atom_site_label
 _atom_site_symmetry_multiplicity
 _atom_site_fract_x
 _atom_site_fract_y
 _atom_site_fract_z
 _atom_site_occupancy
  Zr  Zr0  1  0.335009  0.667505  0.063958  1
  Zr  Zr1  1  0.664991  0.332495  0.563958  1
  Zr  Zr2  1  0.664991  0.332495  0.936042  1
  Zr  Zr3  1  0.335009  0.667505  0.436042  1
  Mn  Mn4  1  0.663667  0.831833  0.750000  1
  Mn  Mn5  1  0.336333  0.168167  0.250000  1
  Al  Al6  1  0.000000  0.000000  0.500000  1
  Al  Al7  1  0.000000  0.000000  0.000000  1
  Os  Os8  1  0.174819  0.344150  0.750000  1
  Os  Os9  1  0.825181  0.169332  0.250000  1
  Os  Os10  1  0.825181  0.655850  0.250000  1
  Os  Os11  1  0.174819  0.830668  0.750000  1
