# generated using pymatgen
data_Sr2Ho2As7Ir8
_symmetry_space_group_name_H-M   'P 1'
_cell_length_a   4.09225500
_cell_length_b   13.28457929
_cell_length_c   13.69877365
_cell_angle_alpha   81.50491990
_cell_angle_beta   90.00000000
_cell_angle_gamma   90.00000000
_symmetry_Int_Tables_number   1
_chemical_formula_structural   Sr2Ho2As7Ir8
_chemical_formula_sum   'Sr4 Ho4 As14 Ir16'
_cell_volume   736.54792822
_cell_formula_units_Z   2
loop_
 _symmetry_equiv_pos_site_id
 _symmetry_equiv_pos_as_xyz
  1  'x, y, z'
loop_
 _atom_site_type_symbol
 _atom_site_label
 _atom_site_symmetry_multiplicity
 _atom_site_fract_x
 _atom_site_fract_y
 _atom_site_fract_z
 _atom_site_occupancy
  Sr  Sr0  1  0.250000  0.105460  0.788961  1
  Sr  Sr1  1  0.750000  0.894540  0.211039  1
  Sr  Sr2  1  0.250000  0.285114  0.103820  1
  Sr  Sr3  1  0.750000  0.714886  0.896180  1
  Ho  Ho4  1  0.250000  0.519605  0.292624  1
  Ho  Ho5  1  0.750000  0.480395  0.707376  1
  Ho  Ho6  1  0.250000  0.207018  0.441979  1
  Ho  Ho7  1  0.750000  0.792982  0.558021  1
  As  As8  1  0.250000  0.056784  0.102303  1
  As  As9  1  0.750000  0.943216  0.897697  1
  As  As10  1  0.250000  0.316547  0.685093  1
  As  As11  1  0.750000  0.683453  0.314907  1
  As  As12  1  0.250000  0.607332  0.567224  1
  As  As13  1  0.750000  0.392668  0.432776  1
  As  As14  1  0.250000  0.841941  0.718190  1
  As  As15  1  0.750000  0.158059  0.281810  1
  As  As16  1  0.750000  0.257265  0.916637  1
  As  As17  1  0.250000  0.742735  0.083363  1
  As  As18  1  0.750000  0.095609  0.585502  1
  As  As19  1  0.250000  0.904391  0.414498  1
  As  As20  1  0.750000  0.469499  0.130116  1
  As  As21  1  0.250000  0.530501  0.869884  1
  Ir  Ir22  1  0.250000  0.984384  0.573400  1
  Ir  Ir23  1  0.750000  0.015616  0.426600  1
  Ir  Ir24  1  0.250000  0.660434  0.726302  1
  Ir  Ir25  1  0.750000  0.339566  0.273698  1
  Ir  Ir26  1  0.250000  0.550419  0.050939  1
  Ir  Ir27  1  0.750000  0.449581  0.949061  1
  Ir  Ir28  1  0.250000  0.060626  0.281081  1
  Ir  Ir29  1  0.750000  0.939374  0.718919  1
  Ir  Ir30  1  0.250000  0.425531  0.521746  1
  Ir  Ir31  1  0.750000  0.574469  0.478254  1
  Ir  Ir32  1  0.250000  0.919822  0.998765  1
  Ir  Ir33  1  0.750000  0.080178  0.001235  1
  Ir  Ir34  1  0.250000  0.721819  0.405432  1
  Ir  Ir35  1  0.750000  0.278181  0.594568  1
  Ir  Ir36  1  0.250000  0.348121  0.855746  1
  Ir  Ir37  1  0.750000  0.651879  0.144254  1
