# generated using pymatgen
data_Ho12GaNi4Pb
_symmetry_space_group_name_H-M   'P 1'
_cell_length_a   8.34581823
_cell_length_b   8.34581812
_cell_length_c   8.34581812
_cell_angle_alpha   112.49281182
_cell_angle_beta   109.76592360
_cell_angle_gamma   106.21569179
_symmetry_Int_Tables_number   1
_chemical_formula_structural   Ho12GaNi4Pb
_chemical_formula_sum   'Ho12 Ga1 Ni4 Pb1'
_cell_volume   446.14711402
_cell_formula_units_Z   1
loop_
 _symmetry_equiv_pos_site_id
 _symmetry_equiv_pos_as_xyz
  1  'x, y, z'
loop_
 _atom_site_type_symbol
 _atom_site_label
 _atom_site_symmetry_multiplicity
 _atom_site_fract_x
 _atom_site_fract_y
 _atom_site_fract_z
 _atom_site_occupancy
  Ho  Ho0  1  0.428716  0.229611  0.199106  1
  Ho  Ho1  1  0.571284  0.770389  0.800894  1
  Ho  Ho2  1  0.030505  0.229611  0.800894  1
  Ho  Ho3  1  0.969495  0.770389  0.199106  1
  Ho  Ho4  1  0.179683  0.284272  0.463953  1
  Ho  Ho5  1  0.820317  0.715728  0.536047  1
  Ho  Ho6  1  0.179683  0.715728  0.895411  1
  Ho  Ho7  1  0.820317  0.284272  0.104589  1
  Ho  Ho8  1  0.322348  0.631929  0.309582  1
  Ho  Ho9  1  0.677652  0.368071  0.690418  1
  Ho  Ho10  1  0.322348  0.012766  0.690418  1
  Ho  Ho11  1  0.677652  0.987234  0.309582  1
  Ga  Ga12  1  0.000000  0.000000  0.000000  1
  Ni  Ni13  1  0.351850  0.000000  0.351850  1
  Ni  Ni14  1  0.648150  0.000000  0.648150  1
  Ni  Ni15  1  0.121461  0.621461  0.500000  1
  Ni  Ni16  1  0.878539  0.378539  0.500000  1
  Pb  Pb17  1  0.500000  0.500000  0.000000  1
