# generated using pymatgen
data_Pr16Lu4Ir5Pt7
_symmetry_space_group_name_H-M   'P 1'
_cell_length_a   11.37264303
_cell_length_b   11.37264303
_cell_length_c   6.48207197
_cell_angle_alpha   90.06303563
_cell_angle_beta   90.06303563
_cell_angle_gamma   90.08743288
_symmetry_Int_Tables_number   1
_chemical_formula_structural   Pr16Lu4Ir5Pt7
_chemical_formula_sum   'Pr16 Lu4 Ir5 Pt7'
_cell_volume   838.36981107
_cell_formula_units_Z   1
loop_
 _symmetry_equiv_pos_site_id
 _symmetry_equiv_pos_as_xyz
  1  'x, y, z'
loop_
 _atom_site_type_symbol
 _atom_site_label
 _atom_site_symmetry_multiplicity
 _atom_site_fract_x
 _atom_site_fract_y
 _atom_site_fract_z
 _atom_site_occupancy
  Pr  Pr0  1  0.291025  0.086771  0.376687  1
  Pr  Pr1  1  0.291612  0.909549  0.877647  1
  Pr  Pr2  1  0.708924  0.086819  0.876689  1
  Pr  Pr3  1  0.708544  0.912341  0.376502  1
  Pr  Pr4  1  0.584092  0.788972  0.876382  1
  Pr  Pr5  1  0.587306  0.209938  0.377263  1
  Pr  Pr6  1  0.410826  0.788514  0.382217  1
  Pr  Pr7  1  0.412319  0.208530  0.876821  1
  Pr  Pr8  1  0.211028  0.415908  0.623618  1
  Pr  Pr9  1  0.211486  0.589174  0.117783  1
  Pr  Pr10  1  0.790062  0.412694  0.122737  1
  Pr  Pr11  1  0.791470  0.587681  0.623179  1
  Pr  Pr12  1  0.913229  0.708975  0.123313  1
  Pr  Pr13  1  0.913181  0.291076  0.623311  1
  Pr  Pr14  1  0.090451  0.708388  0.622353  1
  Pr  Pr15  1  0.087659  0.291456  0.123498  1
  Lu  Lu16  1  0.999852  0.999622  0.500460  1
  Lu  Lu17  1  0.000378  0.000148  0.999540  1
  Lu  Lu18  1  0.498029  0.501008  0.998756  1
  Lu  Lu19  1  0.498992  0.501971  0.501244  1
  Ir  Ir20  1  0.355808  0.644192  0.750000  1
  Ir  Ir21  1  0.500301  0.000241  0.117761  1
  Ir  Ir22  1  0.500156  0.000957  0.616501  1
  Ir  Ir23  1  0.999043  0.499844  0.883499  1
  Ir  Ir24  1  0.999759  0.499699  0.382239  1
  Pt  Pt25  1  0.856158  0.143842  0.250000  1
  Pt  Pt26  1  0.855850  0.855836  0.749895  1
  Pt  Pt27  1  0.144164  0.144150  0.750105  1
  Pt  Pt28  1  0.143631  0.856369  0.250000  1
  Pt  Pt29  1  0.643943  0.356057  0.750000  1
  Pt  Pt30  1  0.645115  0.644392  0.250054  1
  Pt  Pt31  1  0.355608  0.354885  0.249946  1
