# generated using pymatgen
data_Dy4PaSi12Ir19
_symmetry_space_group_name_H-M   'P 1'
_cell_length_a   12.83189400
_cell_length_b   12.83189894
_cell_length_c   3.98669900
_cell_angle_alpha   90.00000000
_cell_angle_beta   90.00000000
_cell_angle_gamma   120.00001304
_symmetry_Int_Tables_number   1
_chemical_formula_structural   Dy4PaSi12Ir19
_chemical_formula_sum   'Dy4 Pa1 Si12 Ir19'
_cell_volume   568.49377796
_cell_formula_units_Z   1
loop_
 _symmetry_equiv_pos_site_id
 _symmetry_equiv_pos_as_xyz
  1  'x, y, z'
loop_
 _atom_site_type_symbol
 _atom_site_label
 _atom_site_symmetry_multiplicity
 _atom_site_fract_x
 _atom_site_fract_y
 _atom_site_fract_z
 _atom_site_occupancy
  Dy  Dy0  1  0.332241  0.666537  0.500000  1
  Dy  Dy1  1  0.667759  0.334295  0.500000  1
  Dy  Dy2  1  0.186176  0.187509  0.000000  1
  Dy  Dy3  1  0.813824  0.001334  0.000000  1
  Pa  Pa4  1  0.000000  0.818706  0.000000  1
  Si  Si5  1  0.000000  0.630249  0.500000  1
  Si  Si6  1  0.368127  0.368020  0.500000  1
  Si  Si7  1  0.631873  0.999893  0.500000  1
  Si  Si8  1  0.518048  0.687437  0.000000  1
  Si  Si9  1  0.312791  0.830675  0.000000  1
  Si  Si10  1  0.169423  0.480957  0.000000  1
  Si  Si11  1  0.481952  0.169389  0.000000  1
  Si  Si12  1  0.687209  0.517884  0.000000  1
  Si  Si13  1  0.830577  0.311534  0.000000  1
  Si  Si14  1  0.000000  0.179770  0.500000  1
  Si  Si15  1  0.815236  0.819481  0.500000  1
  Si  Si16  1  0.184764  0.004246  0.500000  1
  Ir  Ir17  1  0.512383  0.873140  0.000000  1
  Ir  Ir18  1  0.126861  0.639251  0.000000  1
  Ir  Ir19  1  0.361787  0.487346  0.000000  1
  Ir  Ir20  1  0.487617  0.360757  0.000000  1
  Ir  Ir21  1  0.873139  0.512392  0.000000  1
  Ir  Ir22  1  0.638213  0.125559  0.000000  1
  Ir  Ir23  1  0.000000  0.446506  0.500000  1
  Ir  Ir24  1  0.553996  0.551754  0.500000  1
  Ir  Ir25  1  0.446004  0.997758  0.500000  1
  Ir  Ir26  1  0.000000  0.282311  0.000000  1
  Ir  Ir27  1  0.717213  0.716053  0.000000  1
  Ir  Ir28  1  0.282787  0.998840  0.000000  1
  Ir  Ir29  1  0.622361  0.805110  0.500000  1
  Ir  Ir30  1  0.190973  0.818518  0.500000  1
  Ir  Ir31  1  0.182452  0.376549  0.500000  1
  Ir  Ir32  1  0.377639  0.182750  0.500000  1
  Ir  Ir33  1  0.809027  0.627546  0.500000  1
  Ir  Ir34  1  0.817548  0.194099  0.500000  1
  Ir  Ir35  1  0.000000  0.995848  0.500000  1
