# generated using pymatgen
data_YZr8(In2Co)7
_symmetry_space_group_name_H-M   'P 1'
_cell_length_a   9.50983277
_cell_length_b   9.50977206
_cell_length_c   9.50984500
_cell_angle_alpha   59.99994422
_cell_angle_beta   59.99941848
_cell_angle_gamma   60.00016239
_symmetry_Int_Tables_number   1
_chemical_formula_structural   YZr8(In2Co)7
_chemical_formula_sum   'Y1 Zr8 In14 Co7'
_cell_volume   608.13481761
_cell_formula_units_Z   1
loop_
 _symmetry_equiv_pos_site_id
 _symmetry_equiv_pos_as_xyz
  1  'x, y, z'
loop_
 _atom_site_type_symbol
 _atom_site_label
 _atom_site_symmetry_multiplicity
 _atom_site_fract_x
 _atom_site_fract_y
 _atom_site_fract_z
 _atom_site_occupancy
  Y  Y0  1  0.500000  0.500000  0.500000  1
  Zr  Zr1  1  0.120570  0.638293  0.120571  1
  Zr  Zr2  1  0.361707  0.879430  0.879434  1
  Zr  Zr3  1  0.879429  0.879434  0.879430  1
  Zr  Zr4  1  0.638293  0.120570  0.120566  1
  Zr  Zr5  1  0.879434  0.879428  0.361707  1
  Zr  Zr6  1  0.120571  0.120566  0.120570  1
  Zr  Zr7  1  0.879430  0.361707  0.879429  1
  Zr  Zr8  1  0.120566  0.120572  0.638293  1
  In  In9  1  0.500021  0.844657  0.155343  1
  In  In10  1  0.500007  0.844655  0.499993  1
  In  In11  1  0.499993  0.155345  0.500007  1
  In  In12  1  0.499986  0.500014  0.844658  1
  In  In13  1  0.155343  0.499980  0.500021  1
  In  In14  1  0.844658  0.155342  0.499986  1
  In  In15  1  0.155342  0.844658  0.500014  1
  In  In16  1  0.499979  0.155343  0.844657  1
  In  In17  1  0.155344  0.499993  0.844656  1
  In  In18  1  0.500014  0.499986  0.155342  1
  In  In19  1  0.844657  0.500020  0.499979  1
  In  In20  1  0.844656  0.500007  0.155344  1
  In  In21  1  0.250000  0.250000  0.250000  1
  In  In22  1  0.750000  0.750000  0.750000  1
  Co  Co23  1  0.779968  0.779968  0.220032  1
  Co  Co24  1  0.000000  0.000000  0.000000  1
  Co  Co25  1  0.220041  0.779959  0.220041  1
  Co  Co26  1  0.220033  0.779967  0.779967  1
  Co  Co27  1  0.220032  0.220032  0.779968  1
  Co  Co28  1  0.779959  0.220041  0.779959  1
  Co  Co29  1  0.779967  0.220033  0.220033  1
