# generated using pymatgen
data_Ho4Ga4Pd3Ru
_symmetry_space_group_name_H-M   'P 1'
_cell_length_a   4.44851700
_cell_length_b   6.89677253
_cell_length_c   7.64557100
_cell_angle_alpha   90.30506520
_cell_angle_beta   90.00000000
_cell_angle_gamma   90.00000000
_symmetry_Int_Tables_number   1
_chemical_formula_structural   Ho4Ga4Pd3Ru
_chemical_formula_sum   'Ho4 Ga4 Pd3 Ru1'
_cell_volume   234.56592666
_cell_formula_units_Z   1
loop_
 _symmetry_equiv_pos_site_id
 _symmetry_equiv_pos_as_xyz
  1  'x, y, z'
loop_
 _atom_site_type_symbol
 _atom_site_label
 _atom_site_symmetry_multiplicity
 _atom_site_fract_x
 _atom_site_fract_y
 _atom_site_fract_z
 _atom_site_occupancy
  Ho  Ho0  1  0.250000  0.015941  0.802302  1
  Ho  Ho1  1  0.250000  0.521575  0.692148  1
  Ho  Ho2  1  0.750000  0.983969  0.204883  1
  Ho  Ho3  1  0.750000  0.491389  0.300652  1
  Ga  Ga4  1  0.250000  0.173387  0.421083  1
  Ga  Ga5  1  0.250000  0.681415  0.081896  1
  Ga  Ga6  1  0.750000  0.817856  0.575932  1
  Ga  Ga7  1  0.750000  0.319690  0.922393  1
  Pd  Pd8  1  0.250000  0.285693  0.093948  1
  Pd  Pd9  1  0.750000  0.214428  0.593512  1
  Pd  Pd10  1  0.750000  0.714682  0.905387  1
  Ru  Ru11  1  0.250000  0.779974  0.405864  1
