# generated using pymatgen
data_Tl3InNi2(SeO3)8
_symmetry_space_group_name_H-M   'P 1'
_cell_length_a   5.02069193
_cell_length_b   8.82547447
_cell_length_c   15.58960036
_cell_angle_alpha   68.25235718
_cell_angle_beta   90.40144050
_cell_angle_gamma   90.24620558
_symmetry_Int_Tables_number   1
_chemical_formula_structural   Tl3InNi2(SeO3)8
_chemical_formula_sum   'Tl3 In1 Ni2 Se8 O24'
_cell_volume   641.59213486
_cell_formula_units_Z   1
loop_
 _symmetry_equiv_pos_site_id
 _symmetry_equiv_pos_as_xyz
  1  'x, y, z'
loop_
 _atom_site_type_symbol
 _atom_site_label
 _atom_site_symmetry_multiplicity
 _atom_site_fract_x
 _atom_site_fract_y
 _atom_site_fract_z
 _atom_site_occupancy
  Tl  Tl0  1  0.534230  0.159511  0.785771  1
  Tl  Tl1  1  0.964807  0.160763  0.286042  1
  Tl  Tl2  1  0.464746  0.838645  0.214205  1
  In  In3  1  0.035714  0.846050  0.712765  1
  Ni  Ni4  1  0.998117  0.998929  0.999326  1
  Ni  Ni5  1  0.504810  0.998912  0.501756  1
  Se  Se6  1  0.582684  0.777647  0.891677  1
  Se  Se7  1  0.914571  0.779479  0.398205  1
  Se  Se8  1  0.411703  0.220798  0.102637  1
  Se  Se9  1  0.087088  0.216036  0.603492  1
  Se  Se10  1  0.996949  0.340151  0.875369  1
  Se  Se11  1  0.504307  0.340189  0.376767  1
  Se  Se12  1  0.000803  0.659250  0.123592  1
  Se  Se13  1  0.499400  0.661670  0.629367  1
  O  O14  1  0.776253  0.369509  0.784361  1
  O  O15  1  0.723326  0.368525  0.286329  1
  O  O16  1  0.222746  0.630028  0.214397  1
  O  O17  1  0.269740  0.645083  0.714924  1
  O  O18  1  0.828438  0.712129  0.837565  1
  O  O19  1  0.673358  0.701751  0.346633  1
  O  O20  1  0.172113  0.297697  0.153888  1
  O  O21  1  0.327250  0.296946  0.653727  1
  O  O22  1  0.189772  0.169594  0.879980  1
  O  O23  1  0.308511  0.169815  0.381539  1
  O  O24  1  0.807792  0.829808  0.119054  1
  O  O25  1  0.704438  0.830252  0.623596  1
  O  O26  1  0.717310  0.948962  0.907493  1
  O  O27  1  0.775749  0.952228  0.409562  1
  O  O28  1  0.271805  0.047781  0.091005  1
  O  O29  1  0.228626  0.041451  0.594444  1
  O  O30  1  0.373185  0.898226  0.801950  1
  O  O31  1  0.115057  0.898536  0.306125  1
  O  O32  1  0.615003  0.101294  0.194381  1
  O  O33  1  0.890201  0.095257  0.696521  1
  O  O34  1  0.821171  0.225478  0.971294  1
  O  O35  1  0.677761  0.225705  0.473915  1
  O  O36  1  0.174760  0.773218  0.027072  1
  O  O37  1  0.335706  0.772698  0.529274  1
