# generated using pymatgen
data_MgCr3Tc3P4
_symmetry_space_group_name_H-M   'P 1'
_cell_length_a   7.38130500
_cell_length_b   7.38130593
_cell_length_c   3.10739700
_cell_angle_alpha   90.00000000
_cell_angle_beta   90.00000000
_cell_angle_gamma   119.99999137
_symmetry_Int_Tables_number   1
_chemical_formula_structural   MgCr3Tc3P4
_chemical_formula_sum   'Mg1 Cr3 Tc3 P4'
_cell_volume   146.62018664
_cell_formula_units_Z   1
loop_
 _symmetry_equiv_pos_site_id
 _symmetry_equiv_pos_as_xyz
  1  'x, y, z'
loop_
 _atom_site_type_symbol
 _atom_site_label
 _atom_site_symmetry_multiplicity
 _atom_site_fract_x
 _atom_site_fract_y
 _atom_site_fract_z
 _atom_site_occupancy
  Mg  Mg0  1  0.000000  0.000000  0.000000  1
  Cr  Cr1  1  0.546102  0.092204  0.000000  1
  Cr  Cr2  1  0.907796  0.453898  0.000000  1
  Cr  Cr3  1  0.546102  0.453898  0.000000  1
  Tc  Tc4  1  0.195995  0.804005  0.500000  1
  Tc  Tc5  1  0.195995  0.391990  0.500000  1
  Tc  Tc6  1  0.608010  0.804005  0.500000  1
  P  P7  1  0.820240  0.179760  0.500000  1
  P  P8  1  0.359520  0.179760  0.500000  1
  P  P9  1  0.333333  0.666667  0.000000  1
  P  P10  1  0.820240  0.640480  0.500000  1
