# generated using pymatgen
data_Ho2Sc3In4IrRh
_symmetry_space_group_name_H-M   'P 1'
_cell_length_a   3.50858900
_cell_length_b   7.81646819
_cell_length_c   17.81803278
_cell_angle_alpha   89.96842160
_cell_angle_beta   90.00000000
_cell_angle_gamma   90.00000000
_symmetry_Int_Tables_number   1
_chemical_formula_structural   Ho2Sc3In4IrRh
_chemical_formula_sum   'Ho4 Sc6 In8 Ir2 Rh2'
_cell_volume   488.65545361
_cell_formula_units_Z   2
loop_
 _symmetry_equiv_pos_site_id
 _symmetry_equiv_pos_as_xyz
  1  'x, y, z'
loop_
 _atom_site_type_symbol
 _atom_site_label
 _atom_site_symmetry_multiplicity
 _atom_site_fract_x
 _atom_site_fract_y
 _atom_site_fract_z
 _atom_site_occupancy
  Ho  Ho0  1  0.000000  0.748372  0.779938  1
  Ho  Ho1  1  0.000000  0.251628  0.220062  1
  Ho  Ho2  1  0.000000  0.246450  0.719756  1
  Ho  Ho3  1  0.000000  0.753550  0.280244  1
  Sc  Sc4  1  0.000000  0.000000  0.000000  1
  Sc  Sc5  1  0.000000  0.500000  0.500000  1
  Sc  Sc6  1  0.000000  0.878731  0.586110  1
  Sc  Sc7  1  0.000000  0.121269  0.413890  1
  Sc  Sc8  1  0.000000  0.378503  0.913609  1
  Sc  Sc9  1  0.000000  0.621497  0.086391  1
  In  In10  1  0.500000  0.798249  0.438525  1
  In  In11  1  0.500000  0.201751  0.561475  1
  In  In12  1  0.500000  0.299264  0.061392  1
  In  In13  1  0.500000  0.700736  0.938608  1
  In  In14  1  0.500000  0.928060  0.145345  1
  In  In15  1  0.500000  0.071940  0.854655  1
  In  In16  1  0.500000  0.428724  0.354221  1
  In  In17  1  0.500000  0.571276  0.645779  1
  Ir  Ir18  1  0.500000  0.962831  0.691699  1
  Ir  Ir19  1  0.500000  0.037169  0.308301  1
  Rh  Rh20  1  0.500000  0.462143  0.809056  1
  Rh  Rh21  1  0.500000  0.537857  0.190944  1
