# generated using pymatgen
data_Ho4FeTc4Os3
_symmetry_space_group_name_H-M   'P 1'
_cell_length_a   5.32704593
_cell_length_b   5.27278481
_cell_length_c   8.94252600
_cell_angle_alpha   90.00000000
_cell_angle_beta   90.00000000
_cell_angle_gamma   120.92882035
_symmetry_Int_Tables_number   1
_chemical_formula_structural   Ho4FeTc4Os3
_chemical_formula_sum   'Ho4 Fe1 Tc4 Os3'
_cell_volume   215.46464748
_cell_formula_units_Z   1
loop_
 _symmetry_equiv_pos_site_id
 _symmetry_equiv_pos_as_xyz
  1  'x, y, z'
loop_
 _atom_site_type_symbol
 _atom_site_label
 _atom_site_symmetry_multiplicity
 _atom_site_fract_x
 _atom_site_fract_y
 _atom_site_fract_z
 _atom_site_occupancy
  Ho  Ho0  1  0.333793  0.668103  0.440230  1
  Ho  Ho1  1  0.667283  0.336383  0.565467  1
  Ho  Ho2  1  0.667283  0.336383  0.934533  1
  Ho  Ho3  1  0.333793  0.668103  0.059770  1
  Fe  Fe4  1  0.166832  0.829244  0.750000  1
  Tc  Tc5  1  0.830595  0.166515  0.250000  1
  Tc  Tc6  1  0.826402  0.652383  0.250000  1
  Tc  Tc7  1  0.339316  0.170240  0.250000  1
  Tc  Tc8  1  0.171344  0.335810  0.750000  1
  Os  Os9  1  0.005324  0.007741  0.504418  1
  Os  Os10  1  0.005324  0.007741  0.995582  1
  Os  Os11  1  0.652713  0.821352  0.750000  1
