# generated using pymatgen
data_Pr20Ru4Rh5Au3
_symmetry_space_group_name_H-M   'P 1'
_cell_length_a   11.45866839
_cell_length_b   11.45866819
_cell_length_c   6.70455300
_cell_angle_alpha   90.07334814
_cell_angle_beta   90.07334814
_cell_angle_gamma   90.19845479
_symmetry_Int_Tables_number   1
_chemical_formula_structural   Pr20Ru4Rh5Au3
_chemical_formula_sum   'Pr20 Ru4 Rh5 Au3'
_cell_volume   880.30831463
_cell_formula_units_Z   1
loop_
 _symmetry_equiv_pos_site_id
 _symmetry_equiv_pos_as_xyz
  1  'x, y, z'
loop_
 _atom_site_type_symbol
 _atom_site_label
 _atom_site_symmetry_multiplicity
 _atom_site_fract_x
 _atom_site_fract_y
 _atom_site_fract_z
 _atom_site_occupancy
  Pr  Pr0  1  0.299356  0.084924  0.366007  1
  Pr  Pr1  1  0.297688  0.906311  0.879028  1
  Pr  Pr2  1  0.699230  0.089981  0.866573  1
  Pr  Pr3  1  0.695534  0.907828  0.367871  1
  Pr  Pr4  1  0.581858  0.792523  0.881896  1
  Pr  Pr5  1  0.582604  0.207759  0.381145  1
  Pr  Pr6  1  0.407449  0.792327  0.382713  1
  Pr  Pr7  1  0.416207  0.207365  0.880683  1
  Pr  Pr8  1  0.207477  0.418142  0.618104  1
  Pr  Pr9  1  0.207673  0.592551  0.117287  1
  Pr  Pr10  1  0.792241  0.417396  0.118855  1
  Pr  Pr11  1  0.792635  0.583793  0.619317  1
  Pr  Pr12  1  0.915076  0.700644  0.133993  1
  Pr  Pr13  1  0.910019  0.300770  0.633427  1
  Pr  Pr14  1  0.093689  0.702312  0.620972  1
  Pr  Pr15  1  0.092172  0.304466  0.132129  1
  Pr  Pr16  1  0.005175  0.994166  0.498327  1
  Pr  Pr17  1  0.005834  0.994825  0.001673  1
  Pr  Pr18  1  0.498386  0.500282  0.001129  1
  Pr  Pr19  1  0.499718  0.501614  0.498871  1
  Ru  Ru20  1  0.501138  0.000092  0.117555  1
  Ru  Ru21  1  0.500065  0.000633  0.618291  1
  Ru  Ru22  1  0.999367  0.499935  0.881709  1
  Ru  Ru23  1  0.999908  0.498862  0.382445  1
  Rh  Rh24  1  0.151233  0.848767  0.250000  1
  Rh  Rh25  1  0.651732  0.348268  0.750000  1
  Rh  Rh26  1  0.653797  0.650963  0.248715  1
  Rh  Rh27  1  0.349037  0.346203  0.251285  1
  Rh  Rh28  1  0.347804  0.652196  0.750000  1
  Au  Au29  1  0.845389  0.154611  0.250000  1
  Au  Au30  1  0.842790  0.842284  0.749071  1
  Au  Au31  1  0.157716  0.157210  0.750929  1
