# generated using pymatgen
data_Mg9In7(BRh4)2
_symmetry_space_group_name_H-M   'P 1'
_cell_length_a   8.72525225
_cell_length_b   8.72239318
_cell_length_c   8.68611842
_cell_angle_alpha   120.05260153
_cell_angle_beta   89.67819262
_cell_angle_gamma   120.20009708
_symmetry_Int_Tables_number   1
_chemical_formula_structural   Mg9In7(BRh4)2
_chemical_formula_sum   'Mg9 In7 B2 Rh8'
_cell_volume   466.95771783
_cell_formula_units_Z   1
loop_
 _symmetry_equiv_pos_site_id
 _symmetry_equiv_pos_as_xyz
  1  'x, y, z'
loop_
 _atom_site_type_symbol
 _atom_site_label
 _atom_site_symmetry_multiplicity
 _atom_site_fract_x
 _atom_site_fract_y
 _atom_site_fract_z
 _atom_site_occupancy
  Mg  Mg0  1  0.949646  0.500726  0.049598  1
  Mg  Mg1  1  0.374798  0.749734  0.125079  1
  Mg  Mg2  1  0.800783  0.999875  0.198674  1
  Mg  Mg3  1  0.551075  0.500723  0.451129  1
  Mg  Mg4  1  0.376528  0.251132  0.625106  1
  Mg  Mg5  1  0.874606  0.251132  0.626024  1
  Mg  Mg6  1  0.374933  0.749731  0.624654  1
  Mg  Mg7  1  0.801434  0.602867  0.801434  1
  Mg  Mg8  1  0.199098  0.999877  0.801195  1
  In  In9  1  0.552752  0.105497  0.052749  1
  In  In10  1  0.555424  0.503021  0.050402  1
  In  In11  1  0.193792  0.997179  0.193893  1
  In  In12  1  0.198079  0.396178  0.198088  1
  In  In13  1  0.947592  0.503003  0.452611  1
  In  In14  1  0.947768  0.895546  0.447763  1
  In  In15  1  0.803394  0.997212  0.803318  1
  B  B16  1  0.499977  0.999923  0.499946  1
  B  B17  1  0.250390  0.500798  0.750414  1
  Rh  Rh18  1  0.595582  0.192150  0.403830  1
  Rh  Rh19  1  0.211702  0.807505  0.403709  1
  Rh  Rh20  1  0.595799  0.807510  0.403814  1
  Rh  Rh21  1  0.153769  0.307265  0.462064  1
  Rh  Rh22  1  0.596556  0.192152  0.788336  1
  Rh  Rh23  1  0.153508  0.307260  0.845192  1
  Rh  Rh24  1  0.153388  0.691005  0.844600  1
  Rh  Rh25  1  0.537633  0.691003  0.846380  1
