# generated using pymatgen
data_RbSc(SeO4)2
_symmetry_space_group_name_H-M   'P 1'
_cell_length_a   5.25814257
_cell_length_b   5.25814306
_cell_length_c   8.57826340
_cell_angle_alpha   94.02083481
_cell_angle_beta   94.02083768
_cell_angle_gamma   64.79608645
_symmetry_Int_Tables_number   1
_chemical_formula_structural   RbSc(SeO4)2
_chemical_formula_sum   'Rb1 Sc1 Se2 O8'
_cell_volume   213.85183933
_cell_formula_units_Z   1
loop_
 _symmetry_equiv_pos_site_id
 _symmetry_equiv_pos_as_xyz
  1  'x, y, z'
loop_
 _atom_site_type_symbol
 _atom_site_label
 _atom_site_symmetry_multiplicity
 _atom_site_fract_x
 _atom_site_fract_y
 _atom_site_fract_z
 _atom_site_occupancy
  Rb  Rb0  1  0.500000  0.500000  0.499999  1
  Sc  Sc1  1  0.500000  0.500000  0.000000  1
  Se  Se2  1  0.870858  0.870858  0.200340  1
  Se  Se3  1  0.129142  0.129142  0.799659  1
  O  O4  1  0.732406  0.732406  0.055649  1
  O  O5  1  0.738513  0.220199  0.177449  1
  O  O6  1  0.220199  0.738513  0.177449  1
  O  O7  1  0.813868  0.813868  0.377663  1
  O  O8  1  0.186131  0.186131  0.622338  1
  O  O9  1  0.779802  0.261487  0.822552  1
  O  O10  1  0.261487  0.779802  0.822552  1
  O  O11  1  0.267594  0.267594  0.944351  1
