# generated using pymatgen
data_Ac3La(CdRh)4
_symmetry_space_group_name_H-M   'P 1'
_cell_length_a   4.29559800
_cell_length_b   7.52187152
_cell_length_c   9.07874800
_cell_angle_alpha   89.76268471
_cell_angle_beta   90.00000000
_cell_angle_gamma   90.00000000
_symmetry_Int_Tables_number   1
_chemical_formula_structural   Ac3La(CdRh)4
_chemical_formula_sum   'Ac3 La1 Cd4 Rh4'
_cell_volume   293.34033173
_cell_formula_units_Z   1
loop_
 _symmetry_equiv_pos_site_id
 _symmetry_equiv_pos_as_xyz
  1  'x, y, z'
loop_
 _atom_site_type_symbol
 _atom_site_label
 _atom_site_symmetry_multiplicity
 _atom_site_fract_x
 _atom_site_fract_y
 _atom_site_fract_z
 _atom_site_occupancy
  Ac  Ac0  1  0.250000  0.958084  0.679669  1
  Ac  Ac1  1  0.250000  0.456175  0.818436  1
  Ac  Ac2  1  0.750000  0.542996  0.181334  1
  La  La3  1  0.750000  0.041891  0.318470  1
  Cd  Cd4  1  0.750000  0.631168  0.553841  1
  Cd  Cd5  1  0.250000  0.366161  0.442454  1
  Cd  Cd6  1  0.250000  0.872494  0.058121  1
  Cd  Cd7  1  0.750000  0.128644  0.946789  1
  Rh  Rh8  1  0.750000  0.742836  0.866134  1
  Rh  Rh9  1  0.250000  0.253461  0.137858  1
  Rh  Rh10  1  0.250000  0.763857  0.364703  1
  Rh  Rh11  1  0.750000  0.242234  0.632191  1
