# generated using pymatgen
data_AgBi(CO3)2
_symmetry_space_group_name_H-M   'P 1'
_cell_length_a   6.58774209
_cell_length_b   6.58774175
_cell_length_c   6.58774207
_cell_angle_alpha   46.24652791
_cell_angle_beta   46.24652833
_cell_angle_gamma   46.24654099
_symmetry_Int_Tables_number   1
_chemical_formula_structural   AgBi(CO3)2
_chemical_formula_sum   'Ag1 Bi1 C2 O6'
_cell_volume   136.13109781
_cell_formula_units_Z   1
loop_
 _symmetry_equiv_pos_site_id
 _symmetry_equiv_pos_as_xyz
  1  'x, y, z'
loop_
 _atom_site_type_symbol
 _atom_site_label
 _atom_site_symmetry_multiplicity
 _atom_site_fract_x
 _atom_site_fract_y
 _atom_site_fract_z
 _atom_site_occupancy
  Ag  Ag0  1  0.500000  0.500000  0.500000  1
  Bi  Bi1  1  0.000000  0.000000  0.000000  1
  C  C2  1  0.255156  0.255156  0.255156  1
  C  C3  1  0.744844  0.744844  0.744844  1
  O  O4  1  0.005177  0.251467  0.508090  1
  O  O5  1  0.491910  0.994823  0.748533  1
  O  O6  1  0.748533  0.491910  0.994823  1
  O  O7  1  0.251467  0.508090  0.005177  1
  O  O8  1  0.508090  0.005177  0.251467  1
  O  O9  1  0.994823  0.748533  0.491910  1
