# generated using pymatgen
data_Lu4Ga2B4Ir9Rh
_symmetry_space_group_name_H-M   'P 1'
_cell_length_a   9.50059532
_cell_length_b   9.50646533
_cell_length_c   3.14804900
_cell_angle_alpha   90.00000000
_cell_angle_beta   90.00000000
_cell_angle_gamma   89.93945185
_symmetry_Int_Tables_number   1
_chemical_formula_structural   Lu4Ga2B4Ir9Rh
_chemical_formula_sum   'Lu4 Ga2 B4 Ir9 Rh1'
_cell_volume   284.32243479
_cell_formula_units_Z   1
loop_
 _symmetry_equiv_pos_site_id
 _symmetry_equiv_pos_as_xyz
  1  'x, y, z'
loop_
 _atom_site_type_symbol
 _atom_site_label
 _atom_site_symmetry_multiplicity
 _atom_site_fract_x
 _atom_site_fract_y
 _atom_site_fract_z
 _atom_site_occupancy
  Lu  Lu0  1  0.824135  0.323150  0.000000  1
  Lu  Lu1  1  0.324134  0.177989  0.000000  1
  Lu  Lu2  1  0.675637  0.823210  0.000000  1
  Lu  Lu3  1  0.176281  0.676203  0.000000  1
  Ga  Ga4  1  0.000197  0.999722  0.000000  1
  Ga  Ga5  1  0.498573  0.500113  0.000000  1
  B  B6  1  0.623409  0.123574  0.000000  1
  B  B7  1  0.120753  0.375639  0.000000  1
  B  B8  1  0.876681  0.623412  0.000000  1
  B  B9  1  0.376996  0.877129  0.000000  1
  Ir  Ir10  1  0.070055  0.218620  0.500000  1
  Ir  Ir11  1  0.218438  0.931516  0.500000  1
  Ir  Ir12  1  0.782041  0.068325  0.500000  1
  Ir  Ir13  1  0.930628  0.781139  0.500000  1
  Ir  Ir14  1  0.430445  0.718814  0.500000  1
  Ir  Ir15  1  0.570378  0.282073  0.500000  1
  Ir  Ir16  1  0.718639  0.568716  0.500000  1
  Ir  Ir17  1  0.499803  0.000849  0.500000  1
  Ir  Ir18  1  0.000621  0.499554  0.500000  1
  Rh  Rh19  1  0.282158  0.430253  0.500000  1
