# generated using pymatgen
data_Tb7Er(Tm3Pt4)4
_symmetry_space_group_name_H-M   'P 1'
_cell_length_a   7.43415703
_cell_length_b   7.52543951
_cell_length_c   14.63517700
_cell_angle_alpha   89.99756364
_cell_angle_beta   90.00491713
_cell_angle_gamma   90.02086912
_symmetry_Int_Tables_number   1
_chemical_formula_structural   Tb7Er(Tm3Pt4)4
_chemical_formula_sum   'Tb7 Er1 Tm12 Pt16'
_cell_volume   818.76929493
_cell_formula_units_Z   1
loop_
 _symmetry_equiv_pos_site_id
 _symmetry_equiv_pos_as_xyz
  1  'x, y, z'
loop_
 _atom_site_type_symbol
 _atom_site_label
 _atom_site_symmetry_multiplicity
 _atom_site_fract_x
 _atom_site_fract_y
 _atom_site_fract_z
 _atom_site_occupancy
  Tb  Tb0  1  0.501000  0.679360  0.592791  1
  Tb  Tb1  1  0.000861  0.820909  0.907181  1
  Tb  Tb2  1  0.498960  0.321007  0.092888  1
  Tb  Tb3  1  0.999224  0.178477  0.407432  1
  Tb  Tb4  1  0.498955  0.320902  0.407175  1
  Tb  Tb5  1  0.999062  0.179072  0.092851  1
  Tb  Tb6  1  0.500949  0.679027  0.907047  1
  Er  Er7  1  0.001613  0.819905  0.592981  1
  Tm  Tm8  1  0.657095  0.167295  0.622620  1
  Tm  Tm9  1  0.156359  0.332228  0.877090  1
  Tm  Tm10  1  0.343534  0.832270  0.122730  1
  Tm  Tm11  1  0.844075  0.668072  0.377471  1
  Tm  Tm12  1  0.343403  0.832518  0.377298  1
  Tm  Tm13  1  0.843510  0.667658  0.122817  1
  Tm  Tm14  1  0.656578  0.167645  0.877119  1
  Tm  Tm15  1  0.156391  0.332303  0.622759  1
  Tm  Tm16  1  0.819464  0.510322  0.749764  1
  Tm  Tm17  1  0.319235  0.989841  0.749711  1
  Tm  Tm18  1  0.180574  0.489862  0.250067  1
  Tm  Tm19  1  0.680570  0.010090  0.250011  1
  Pt  Pt20  1  0.682821  0.965368  0.458607  1
  Pt  Pt21  1  0.182528  0.534141  0.041855  1
  Pt  Pt22  1  0.317531  0.034294  0.958190  1
  Pt  Pt23  1  0.817980  0.467276  0.542244  1
  Pt  Pt24  1  0.315737  0.033006  0.542103  1
  Pt  Pt25  1  0.817651  0.465941  0.958166  1
  Pt  Pt26  1  0.682484  0.965863  0.041860  1
  Pt  Pt27  1  0.182298  0.534918  0.458497  1
  Pt  Pt28  1  0.453756  0.384967  0.749910  1
  Pt  Pt29  1  0.954199  0.114625  0.749579  1
  Pt  Pt30  1  0.546069  0.615299  0.250088  1
  Pt  Pt31  1  0.046043  0.884721  0.250052  1
  Pt  Pt32  1  0.683343  0.857611  0.749625  1
  Pt  Pt33  1  0.181889  0.643130  0.749153  1
  Pt  Pt34  1  0.317126  0.142400  0.250122  1
  Pt  Pt35  1  0.817129  0.357678  0.250142  1
