# generated using pymatgen
data_Dy3YTi4Al4O20
_symmetry_space_group_name_H-M   'P 1'
_cell_length_a   5.70930800
_cell_length_b   7.42384207
_cell_length_c   8.48268108
_cell_angle_alpha   89.98382763
_cell_angle_beta   90.00000000
_cell_angle_gamma   90.00000000
_symmetry_Int_Tables_number   1
_chemical_formula_structural   Dy3YTi4Al4O20
_chemical_formula_sum   'Dy3 Y1 Ti4 Al4 O20'
_cell_volume   359.53843145
_cell_formula_units_Z   1
loop_
 _symmetry_equiv_pos_site_id
 _symmetry_equiv_pos_as_xyz
  1  'x, y, z'
loop_
 _atom_site_type_symbol
 _atom_site_label
 _atom_site_symmetry_multiplicity
 _atom_site_fract_x
 _atom_site_fract_y
 _atom_site_fract_z
 _atom_site_occupancy
  Dy  Dy0  1  0.000000  0.358397  0.329626  1
  Dy  Dy1  1  0.000000  0.641606  0.670398  1
  Dy  Dy2  1  0.000000  0.858265  0.170468  1
  Y  Y3  1  0.000000  0.141566  0.829589  1
  Ti  Ti4  1  0.500000  0.123636  0.146068  1
  Ti  Ti5  1  0.500000  0.876235  0.854068  1
  Ti  Ti6  1  0.500000  0.623649  0.354018  1
  Ti  Ti7  1  0.500000  0.376388  0.645820  1
  Al  Al8  1  0.242592  0.500151  0.000049  1
  Al  Al9  1  0.757373  0.999913  0.499894  1
  Al  Al10  1  0.757408  0.500151  0.000049  1
  Al  Al11  1  0.242627  0.999913  0.499894  1
  O  O12  1  0.000000  0.340081  0.058192  1
  O  O13  1  0.000000  0.660216  0.942069  1
  O  O14  1  0.000000  0.839783  0.442034  1
  O  O15  1  0.000000  0.160157  0.557527  1
  O  O16  1  0.500000  0.349814  0.071381  1
  O  O17  1  0.500000  0.650183  0.928720  1
  O  O18  1  0.500000  0.849813  0.428556  1
  O  O19  1  0.500000  0.150133  0.571405  1
  O  O20  1  0.250576  0.107801  0.293921  1
  O  O21  1  0.250781  0.891928  0.705917  1
  O  O22  1  0.749388  0.607792  0.206092  1
  O  O23  1  0.749012  0.392903  0.793898  1
  O  O24  1  0.749219  0.891928  0.705917  1
  O  O25  1  0.749424  0.107801  0.293921  1
  O  O26  1  0.250988  0.392903  0.793898  1
  O  O27  1  0.250612  0.607792  0.206092  1
  O  O28  1  0.277366  0.999556  0.000322  1
  O  O29  1  0.722920  0.499993  0.499938  1
  O  O30  1  0.722634  0.999556  0.000322  1
  O  O31  1  0.277080  0.499993  0.499938  1
