# generated using pymatgen
data_Nd4Pt3Pb2Au
_symmetry_space_group_name_H-M   'P 1'
_cell_length_a   3.73192200
_cell_length_b   8.22793034
_cell_length_c   8.22793051
_cell_angle_alpha   90.41837234
_cell_angle_beta   90.00000000
_cell_angle_gamma   90.00000000
_symmetry_Int_Tables_number   1
_chemical_formula_structural   Nd4Pt3Pb2Au
_chemical_formula_sum   'Nd4 Pt3 Pb2 Au1'
_cell_volume   252.64005131
_cell_formula_units_Z   1
loop_
 _symmetry_equiv_pos_site_id
 _symmetry_equiv_pos_as_xyz
  1  'x, y, z'
loop_
 _atom_site_type_symbol
 _atom_site_label
 _atom_site_symmetry_multiplicity
 _atom_site_fract_x
 _atom_site_fract_y
 _atom_site_fract_z
 _atom_site_occupancy
  Nd  Nd0  1  0.500000  0.165677  0.683301  1
  Nd  Nd1  1  0.500000  0.816699  0.334323  1
  Nd  Nd2  1  0.500000  0.340986  0.159014  1
  Nd  Nd3  1  0.500000  0.672399  0.827601  1
  Pt  Pt4  1  0.000000  0.628518  0.123286  1
  Pt  Pt5  1  0.000000  0.376714  0.871482  1
  Pt  Pt6  1  0.000000  0.876956  0.623044  1
  Pb  Pb7  1  0.000000  0.997521  0.001922  1
  Pb  Pb8  1  0.000000  0.498078  0.502479  1
  Au  Au9  1  0.000000  0.126452  0.373548  1
