# generated using pymatgen
data_Dy2YEr5(B6Ru)4
_symmetry_space_group_name_H-M   'P 1'
_cell_length_a   3.64383400
_cell_length_b   9.11385900
_cell_length_c   11.49113101
_cell_angle_alpha   90.00137337
_cell_angle_beta   90.00000000
_cell_angle_gamma   90.00000000
_symmetry_Int_Tables_number   1
_chemical_formula_structural   Dy2YEr5(B6Ru)4
_chemical_formula_sum   'Dy2 Y1 Er5 B24 Ru4'
_cell_volume   381.61344312
_cell_formula_units_Z   1
loop_
 _symmetry_equiv_pos_site_id
 _symmetry_equiv_pos_as_xyz
  1  'x, y, z'
loop_
 _atom_site_type_symbol
 _atom_site_label
 _atom_site_symmetry_multiplicity
 _atom_site_fract_x
 _atom_site_fract_y
 _atom_site_fract_z
 _atom_site_occupancy
  Dy  Dy0  1  0.000000  0.322032  0.414182  1
  Dy  Dy1  1  0.000000  0.677960  0.585963  1
  Y  Y2  1  0.000000  0.821929  0.085708  1
  Er  Er3  1  0.000000  0.178179  0.914286  1
  Er  Er4  1  0.000000  0.943569  0.372018  1
  Er  Er5  1  0.000000  0.056438  0.627962  1
  Er  Er6  1  0.000000  0.443391  0.127600  1
  Er  Er7  1  0.000000  0.556343  0.872254  1
  B  B8  1  0.500000  0.554160  0.432970  1
  B  B9  1  0.500000  0.445596  0.567301  1
  B  B10  1  0.500000  0.054606  0.066543  1
  B  B11  1  0.500000  0.946392  0.932845  1
  B  B12  1  0.500000  0.748569  0.419473  1
  B  B13  1  0.500000  0.251363  0.580815  1
  B  B14  1  0.500000  0.248446  0.079924  1
  B  B15  1  0.500000  0.751657  0.919296  1
  B  B16  1  0.500000  0.791034  0.265974  1
  B  B17  1  0.500000  0.208620  0.734591  1
  B  B18  1  0.500000  0.291006  0.233753  1
  B  B19  1  0.500000  0.709053  0.766030  1
  B  B20  1  0.500000  0.630896  0.184756  1
  B  B21  1  0.500000  0.368461  0.815642  1
  B  B22  1  0.500000  0.131162  0.315094  1
  B  B23  1  0.500000  0.869124  0.684899  1
  B  B24  1  0.500000  0.983304  0.212843  1
  B  B25  1  0.500000  0.017529  0.787271  1
  B  B26  1  0.500000  0.482919  0.286887  1
  B  B27  1  0.500000  0.516737  0.713255  1
  B  B28  1  0.500000  0.606459  0.029247  1
  B  B29  1  0.500000  0.392751  0.970477  1
  B  B30  1  0.500000  0.106281  0.470784  1
  B  B31  1  0.500000  0.893829  0.529244  1
  Ru  Ru32  1  0.000000  0.637820  0.320800  1
  Ru  Ru33  1  0.000000  0.361712  0.679646  1
  Ru  Ru34  1  0.000000  0.138088  0.178868  1
  Ru  Ru35  1  0.000000  0.862583  0.820800  1
