# generated using pymatgen
data_Ta10Al4Au
_symmetry_space_group_name_H-M   'P 1'
_cell_length_a   9.93616100
_cell_length_b   9.93616100
_cell_length_c   5.24184600
_cell_angle_alpha   90.00000000
_cell_angle_beta   90.00000000
_cell_angle_gamma   90.00000000
_symmetry_Int_Tables_number   1
_chemical_formula_structural   Ta10Al4Au
_chemical_formula_sum   'Ta20 Al8 Au2'
_cell_volume   517.51327858
_cell_formula_units_Z   2
loop_
 _symmetry_equiv_pos_site_id
 _symmetry_equiv_pos_as_xyz
  1  'x, y, z'
loop_
 _atom_site_type_symbol
 _atom_site_label
 _atom_site_symmetry_multiplicity
 _atom_site_fract_x
 _atom_site_fract_y
 _atom_site_fract_z
 _atom_site_occupancy
  Ta  Ta0  1  0.398014  0.398014  0.000000  1
  Ta  Ta1  1  0.898014  0.101986  0.500000  1
  Ta  Ta2  1  0.101986  0.898014  0.500000  1
  Ta  Ta3  1  0.601986  0.601986  0.000000  1
  Ta  Ta4  1  0.130290  0.463619  0.000000  1
  Ta  Ta5  1  0.963619  0.369710  0.500000  1
  Ta  Ta6  1  0.036381  0.630290  0.500000  1
  Ta  Ta7  1  0.869710  0.536381  0.000000  1
  Ta  Ta8  1  0.369710  0.963619  0.500000  1
  Ta  Ta9  1  0.630290  0.036381  0.500000  1
  Ta  Ta10  1  0.463619  0.130290  0.000000  1
  Ta  Ta11  1  0.536381  0.869710  0.000000  1
  Ta  Ta12  1  0.184191  0.184191  0.252168  1
  Ta  Ta13  1  0.684191  0.315809  0.752168  1
  Ta  Ta14  1  0.315809  0.684191  0.752168  1
  Ta  Ta15  1  0.815809  0.815809  0.252168  1
  Ta  Ta16  1  0.315809  0.684191  0.247832  1
  Ta  Ta17  1  0.684191  0.315809  0.247832  1
  Ta  Ta18  1  0.184191  0.184191  0.747832  1
  Ta  Ta19  1  0.815809  0.815809  0.747832  1
  Al  Al20  1  0.260932  0.934540  0.000000  1
  Al  Al21  1  0.434540  0.239068  0.500000  1
  Al  Al22  1  0.565460  0.760932  0.500000  1
  Al  Al23  1  0.739068  0.065460  0.000000  1
  Al  Al24  1  0.239068  0.434540  0.500000  1
  Al  Al25  1  0.760932  0.565460  0.500000  1
  Al  Al26  1  0.934540  0.260932  0.000000  1
  Al  Al27  1  0.065460  0.739068  0.000000  1
  Au  Au28  1  0.000000  0.000000  0.000000  1
  Au  Au29  1  0.500000  0.500000  0.500000  1
