# generated using pymatgen
data_Ce4Pu3U(TcB6)4
_symmetry_space_group_name_H-M   'P 1'
_cell_length_a   3.71028600
_cell_length_b   9.31707548
_cell_length_c   11.43138733
_cell_angle_alpha   90.09942390
_cell_angle_beta   90.00000000
_cell_angle_gamma   90.00000000
_symmetry_Int_Tables_number   1
_chemical_formula_structural   Ce4Pu3U(TcB6)4
_chemical_formula_sum   'Ce4 Pu3 U1 Tc4 B24'
_cell_volume   395.17120205
_cell_formula_units_Z   1
loop_
 _symmetry_equiv_pos_site_id
 _symmetry_equiv_pos_as_xyz
  1  'x, y, z'
loop_
 _atom_site_type_symbol
 _atom_site_label
 _atom_site_symmetry_multiplicity
 _atom_site_fract_x
 _atom_site_fract_y
 _atom_site_fract_z
 _atom_site_occupancy
  Ce  Ce0  1  0.000000  0.335962  0.408332  1
  Ce  Ce1  1  0.000000  0.664103  0.592575  1
  Ce  Ce2  1  0.000000  0.835215  0.091379  1
  Ce  Ce3  1  0.000000  0.164505  0.907541  1
  Pu  Pu4  1  0.000000  0.042742  0.603102  1
  Pu  Pu5  1  0.000000  0.454380  0.110349  1
  Pu  Pu6  1  0.000000  0.545984  0.889151  1
  U  U7  1  0.000000  0.957042  0.395993  1
  Tc  Tc8  1  0.000000  0.648817  0.320090  1
  Tc  Tc9  1  0.000000  0.353231  0.680498  1
  Tc  Tc10  1  0.000000  0.143700  0.182383  1
  Tc  Tc11  1  0.000000  0.854961  0.819019  1
  B  B12  1  0.500000  0.553925  0.429651  1
  B  B13  1  0.500000  0.445904  0.570377  1
  B  B14  1  0.500000  0.053870  0.069583  1
  B  B15  1  0.500000  0.946098  0.929745  1
  B  B16  1  0.500000  0.745151  0.422111  1
  B  B17  1  0.500000  0.255468  0.577872  1
  B  B18  1  0.500000  0.244698  0.078233  1
  B  B19  1  0.500000  0.754777  0.921686  1
  B  B20  1  0.500000  0.802841  0.273349  1
  B  B21  1  0.500000  0.197231  0.726568  1
  B  B22  1  0.500000  0.301617  0.226515  1
  B  B23  1  0.500000  0.698337  0.773135  1
  B  B24  1  0.500000  0.643205  0.188106  1
  B  B25  1  0.500000  0.356476  0.811812  1
  B  B26  1  0.500000  0.143527  0.312017  1
  B  B27  1  0.500000  0.856228  0.688001  1
  B  B28  1  0.500000  0.989106  0.219690  1
  B  B29  1  0.500000  0.010654  0.780168  1
  B  B30  1  0.500000  0.490016  0.281414  1
  B  B31  1  0.500000  0.510085  0.718940  1
  B  B32  1  0.500000  0.637775  0.037867  1
  B  B33  1  0.500000  0.362019  0.962258  1
  B  B34  1  0.500000  0.139271  0.461889  1
  B  B35  1  0.500000  0.861078  0.538601  1
