# generated using pymatgen
data_Nd2EuBiO7
_symmetry_space_group_name_H-M   'P 1'
_cell_length_a   6.68731672
_cell_length_b   6.71387586
_cell_length_c   7.87593800
_cell_angle_alpha   106.88720648
_cell_angle_beta   89.84109229
_cell_angle_gamma   98.77913056
_symmetry_Int_Tables_number   1
_chemical_formula_structural   Nd2EuBiO7
_chemical_formula_sum   'Nd4 Eu2 Bi2 O14'
_cell_volume   334.07670622
_cell_formula_units_Z   2
loop_
 _symmetry_equiv_pos_site_id
 _symmetry_equiv_pos_as_xyz
  1  'x, y, z'
loop_
 _atom_site_type_symbol
 _atom_site_label
 _atom_site_symmetry_multiplicity
 _atom_site_fract_x
 _atom_site_fract_y
 _atom_site_fract_z
 _atom_site_occupancy
  Nd  Nd0  1  0.266189  0.540824  0.883693  1
  Nd  Nd1  1  0.733811  0.459176  0.116307  1
  Nd  Nd2  1  0.745002  0.482028  0.617228  1
  Nd  Nd3  1  0.254998  0.517972  0.382772  1
  Eu  Eu4  1  0.466917  0.003677  0.254145  1
  Eu  Eu5  1  0.533083  0.996323  0.745855  1
  Bi  Bi6  1  0.000000  0.000000  0.500000  1
  Bi  Bi7  1  0.000000  0.000000  0.000000  1
  O  O8  1  0.445158  0.652061  0.169526  1
  O  O9  1  0.554842  0.347939  0.830474  1
  O  O10  1  0.296986  0.926387  0.953670  1
  O  O11  1  0.703014  0.073613  0.046330  1
  O  O12  1  0.292358  0.922468  0.509835  1
  O  O13  1  0.707642  0.077532  0.490165  1
  O  O14  1  0.542206  0.355023  0.344228  1
  O  O15  1  0.457794  0.644977  0.655772  1
  O  O16  1  0.922857  0.668266  0.951903  1
  O  O17  1  0.077143  0.331734  0.048097  1
  O  O18  1  0.075491  0.343519  0.615543  1
  O  O19  1  0.924509  0.656481  0.384457  1
  O  O20  1  0.887049  0.909478  0.726759  1
  O  O21  1  0.112951  0.090522  0.273241  1
