# generated using pymatgen
data_RbCu2(PO3)6
_symmetry_space_group_name_H-M   'P 1'
_cell_length_a   6.43269703
_cell_length_b   8.40047151
_cell_length_c   8.40047210
_cell_angle_alpha   104.59016756
_cell_angle_beta   103.57425468
_cell_angle_gamma   103.57426343
_symmetry_Int_Tables_number   1
_chemical_formula_structural   RbCu2(PO3)6
_chemical_formula_sum   'Rb1 Cu2 P6 O18'
_cell_volume   405.66741558
_cell_formula_units_Z   1
loop_
 _symmetry_equiv_pos_site_id
 _symmetry_equiv_pos_as_xyz
  1  'x, y, z'
loop_
 _atom_site_type_symbol
 _atom_site_label
 _atom_site_symmetry_multiplicity
 _atom_site_fract_x
 _atom_site_fract_y
 _atom_site_fract_z
 _atom_site_occupancy
  Rb  Rb0  1  0.591741  0.959292  0.959292  1
  Cu  Cu1  1  0.002340  0.778367  0.224389  1
  Cu  Cu2  1  0.002340  0.224389  0.778367  1
  P  P3  1  0.100551  0.411927  0.184034  1
  P  P4  1  0.100551  0.184034  0.411927  1
  P  P5  1  0.895168  0.588944  0.815060  1
  P  P6  1  0.895168  0.815060  0.588944  1
  P  P7  1  0.498077  0.719616  0.276055  1
  P  P8  1  0.498077  0.276055  0.719616  1
  O  O9  1  0.100395  0.351782  0.351782  1
  O  O10  1  0.895158  0.644896  0.644896  1
  O  O11  1  0.361567  0.516787  0.229285  1
  O  O12  1  0.361567  0.229285  0.516787  1
  O  O13  1  0.633792  0.478105  0.764858  1
  O  O14  1  0.633792  0.764858  0.478105  1
  O  O15  1  0.952883  0.527172  0.179424  1
  O  O16  1  0.952883  0.179424  0.527172  1
  O  O17  1  0.050441  0.480408  0.827422  1
  O  O18  1  0.050441  0.827422  0.480408  1
  O  O19  1  0.034529  0.251282  0.029683  1
  O  O20  1  0.034529  0.029683  0.251282  1
  O  O21  1  0.945131  0.749230  0.965542  1
  O  O22  1  0.945131  0.965542  0.749230  1
  O  O23  1  0.657818  0.735377  0.172264  1
  O  O24  1  0.657818  0.172264  0.735377  1
  O  O25  1  0.340205  0.258063  0.824536  1
  O  O26  1  0.340205  0.824536  0.258063  1
