# generated using pymatgen
data_Er2PaCoSn3Ir2
_symmetry_space_group_name_H-M   'P 1'
_cell_length_a   7.50327621
_cell_length_b   7.50327473
_cell_length_c   3.79430400
_cell_angle_alpha   90.00000000
_cell_angle_beta   90.00000000
_cell_angle_gamma   119.44948168
_symmetry_Int_Tables_number   1
_chemical_formula_structural   Er2PaCoSn3Ir2
_chemical_formula_sum   'Er2 Pa1 Co1 Sn3 Ir2'
_cell_volume   186.01463144
_cell_formula_units_Z   1
loop_
 _symmetry_equiv_pos_site_id
 _symmetry_equiv_pos_as_xyz
  1  'x, y, z'
loop_
 _atom_site_type_symbol
 _atom_site_label
 _atom_site_symmetry_multiplicity
 _atom_site_fract_x
 _atom_site_fract_y
 _atom_site_fract_z
 _atom_site_occupancy
  Er  Er0  1  0.593723  0.998336  0.500000  1
  Er  Er1  1  0.998336  0.593723  0.500000  1
  Pa  Pa2  1  0.410108  0.410108  0.500000  1
  Co  Co3  1  0.015962  0.015962  0.500000  1
  Sn  Sn4  1  0.762398  0.762398  0.000000  1
  Sn  Sn5  1  0.250256  0.987551  0.000000  1
  Sn  Sn6  1  0.987551  0.250256  0.000000  1
  Ir  Ir7  1  0.645050  0.336616  0.000000  1
  Ir  Ir8  1  0.336616  0.645050  0.000000  1
