# generated using pymatgen
data_TbThRh2Pb
_symmetry_space_group_name_H-M   'P 1'
_cell_length_a   7.88288200
_cell_length_b   7.80433100
_cell_length_c   3.70601900
_cell_angle_alpha   90.00000000
_cell_angle_beta   90.00000000
_cell_angle_gamma   90.00000000
_symmetry_Int_Tables_number   1
_chemical_formula_structural   TbThRh2Pb
_chemical_formula_sum   'Tb2 Th2 Rh4 Pb2'
_cell_volume   227.99658795
_cell_formula_units_Z   2
loop_
 _symmetry_equiv_pos_site_id
 _symmetry_equiv_pos_as_xyz
  1  'x, y, z'
loop_
 _atom_site_type_symbol
 _atom_site_label
 _atom_site_symmetry_multiplicity
 _atom_site_fract_x
 _atom_site_fract_y
 _atom_site_fract_z
 _atom_site_occupancy
  Tb  Tb0  1  0.831341  0.670160  0.500000  1
  Tb  Tb1  1  0.331341  0.829840  0.500000  1
  Th  Th2  1  0.671655  0.162604  0.500000  1
  Th  Th3  1  0.171655  0.337396  0.500000  1
  Rh  Rh4  1  0.363830  0.144578  0.000000  1
  Rh  Rh5  1  0.127245  0.612539  0.000000  1
  Rh  Rh6  1  0.627245  0.887461  0.000000  1
  Rh  Rh7  1  0.863830  0.355422  0.000000  1
  Pb  Pb8  1  0.005930  0.988049  0.000000  1
  Pb  Pb9  1  0.505930  0.511951  0.000000  1
