# generated using pymatgen
data_TaTe5Pd
_symmetry_space_group_name_H-M   'P 1'
_cell_length_a   7.35977250
_cell_length_b   7.35977340
_cell_length_c   15.87431700
_cell_angle_alpha   90.00000000
_cell_angle_beta   90.00000000
_cell_angle_gamma   150.69907052
_symmetry_Int_Tables_number   1
_chemical_formula_structural   TaTe5Pd
_chemical_formula_sum   'Ta2 Te10 Pd2'
_cell_volume   420.80881483
_cell_formula_units_Z   2
loop_
 _symmetry_equiv_pos_site_id
 _symmetry_equiv_pos_as_xyz
  1  'x, y, z'
loop_
 _atom_site_type_symbol
 _atom_site_label
 _atom_site_symmetry_multiplicity
 _atom_site_fract_x
 _atom_site_fract_y
 _atom_site_fract_z
 _atom_site_occupancy
  Ta  Ta0  1  0.512471  0.487529  0.750000  1
  Ta  Ta1  1  0.487529  0.512471  0.250000  1
  Te  Te2  1  0.164184  0.835816  0.750000  1
  Te  Te3  1  0.835816  0.164184  0.250000  1
  Te  Te4  1  0.396202  0.603798  0.084855  1
  Te  Te5  1  0.603798  0.396202  0.915145  1
  Te  Te6  1  0.906635  0.093365  0.848724  1
  Te  Te7  1  0.093365  0.906635  0.151276  1
  Te  Te8  1  0.093365  0.906635  0.348724  1
  Te  Te9  1  0.906635  0.093365  0.651276  1
  Te  Te10  1  0.396202  0.603798  0.415145  1
  Te  Te11  1  0.603798  0.396202  0.584855  1
  Pd  Pd12  1  0.000000  0.000000  0.000000  1
  Pd  Pd13  1  0.000000  0.000000  0.500000  1
