# generated using pymatgen
data_Dy3Lu2(CoTe)2
_symmetry_space_group_name_H-M   'P 1'
_cell_length_a   7.65220883
_cell_length_b   7.65220794
_cell_length_c   14.88422590
_cell_angle_alpha   89.98080503
_cell_angle_beta   90.01919511
_cell_angle_gamma   150.14783374
_symmetry_Int_Tables_number   1
_chemical_formula_structural   Dy3Lu2(CoTe)2
_chemical_formula_sum   'Dy6 Lu4 Co4 Te4'
_cell_volume   433.83355557
_cell_formula_units_Z   2
loop_
 _symmetry_equiv_pos_site_id
 _symmetry_equiv_pos_as_xyz
  1  'x, y, z'
loop_
 _atom_site_type_symbol
 _atom_site_label
 _atom_site_symmetry_multiplicity
 _atom_site_fract_x
 _atom_site_fract_y
 _atom_site_fract_z
 _atom_site_occupancy
  Dy  Dy0  1  0.961072  0.038928  0.125952  1
  Dy  Dy1  1  0.038928  0.961072  0.874048  1
  Dy  Dy2  1  0.037824  0.962176  0.626538  1
  Dy  Dy3  1  0.962176  0.037824  0.373462  1
  Dy  Dy4  1  0.742763  0.257237  0.631608  1
  Dy  Dy5  1  0.257237  0.742763  0.368392  1
  Lu  Lu6  1  0.258367  0.741633  0.133338  1
  Lu  Lu7  1  0.741633  0.258367  0.866662  1
  Lu  Lu8  1  0.606764  0.393236  0.249169  1
  Lu  Lu9  1  0.393236  0.606764  0.750831  1
  Co  Co10  1  0.411699  0.588301  0.249202  1
  Co  Co11  1  0.588301  0.411699  0.750798  1
  Co  Co12  1  0.817015  0.182985  0.248434  1
  Co  Co13  1  0.182985  0.817015  0.751566  1
  Te  Te14  1  0.620373  0.379627  0.038135  1
  Te  Te15  1  0.379627  0.620373  0.961865  1
  Te  Te16  1  0.382252  0.617748  0.538587  1
  Te  Te17  1  0.617748  0.382252  0.461413  1
