# generated using pymatgen
data_Na2Li(AcPb)3
_symmetry_space_group_name_H-M   'P 1'
_cell_length_a   8.22029500
_cell_length_b   8.27570226
_cell_length_c   5.05890000
_cell_angle_alpha   90.00000000
_cell_angle_beta   90.00000000
_cell_angle_gamma   119.77878345
_symmetry_Int_Tables_number   1
_chemical_formula_structural   Na2Li(AcPb)3
_chemical_formula_sum   'Na2 Li1 Ac3 Pb3'
_cell_volume   298.70519381
_cell_formula_units_Z   1
loop_
 _symmetry_equiv_pos_site_id
 _symmetry_equiv_pos_as_xyz
  1  'x, y, z'
loop_
 _atom_site_type_symbol
 _atom_site_label
 _atom_site_symmetry_multiplicity
 _atom_site_fract_x
 _atom_site_fract_y
 _atom_site_fract_z
 _atom_site_occupancy
  Na  Na0  1  0.766495  0.763602  0.000000  1
  Na  Na1  1  0.002892  0.236398  0.000000  1
  Li  Li2  1  0.242880  0.000000  0.000000  1
  Ac  Ac3  1  0.573785  0.000000  0.500000  1
  Ac  Ac4  1  0.417217  0.419754  0.500000  1
  Ac  Ac5  1  0.997464  0.580246  0.500000  1
  Pb  Pb6  1  0.015400  0.000000  0.500000  1
  Pb  Pb7  1  0.329654  0.675442  0.000000  1
  Pb  Pb8  1  0.654214  0.324558  0.000000  1
