# generated using pymatgen
data_Ca2(Ga3Ir)3
_symmetry_space_group_name_H-M   'P 1'
_cell_length_a   7.58204739
_cell_length_b   7.58204672
_cell_length_c   9.74015800
_cell_angle_alpha   90.00000000
_cell_angle_beta   90.00000000
_cell_angle_gamma   119.49341658
_symmetry_Int_Tables_number   1
_chemical_formula_structural   Ca2(Ga3Ir)3
_chemical_formula_sum   'Ca4 Ga18 Ir6'
_cell_volume   487.37579587
_cell_formula_units_Z   2
loop_
 _symmetry_equiv_pos_site_id
 _symmetry_equiv_pos_as_xyz
  1  'x, y, z'
loop_
 _atom_site_type_symbol
 _atom_site_label
 _atom_site_symmetry_multiplicity
 _atom_site_fract_x
 _atom_site_fract_y
 _atom_site_fract_z
 _atom_site_occupancy
  Ca  Ca0  1  0.996950  0.670353  0.750000  1
  Ca  Ca1  1  0.003050  0.329647  0.250000  1
  Ca  Ca2  1  0.670353  0.996950  0.750000  1
  Ca  Ca3  1  0.329647  0.003050  0.250000  1
  Ga  Ga4  1  0.128287  0.128287  0.750000  1
  Ga  Ga5  1  0.871713  0.871713  0.250000  1
  Ga  Ga6  1  0.001150  0.334870  0.575042  1
  Ga  Ga7  1  0.998850  0.665130  0.424958  1
  Ga  Ga8  1  0.998850  0.665130  0.075042  1
  Ga  Ga9  1  0.334870  0.001150  0.924958  1
  Ga  Ga10  1  0.001150  0.334870  0.924958  1
  Ga  Ga11  1  0.665130  0.998850  0.075042  1
  Ga  Ga12  1  0.665130  0.998850  0.424958  1
  Ga  Ga13  1  0.334870  0.001150  0.575042  1
  Ga  Ga14  1  0.333848  0.333848  0.057857  1
  Ga  Ga15  1  0.666152  0.666152  0.942143  1
  Ga  Ga16  1  0.666152  0.666152  0.557857  1
  Ga  Ga17  1  0.333848  0.333848  0.442143  1
  Ga  Ga18  1  0.336175  0.544294  0.750000  1
  Ga  Ga19  1  0.663825  0.455706  0.250000  1
  Ga  Ga20  1  0.544294  0.336175  0.750000  1
  Ga  Ga21  1  0.455706  0.663825  0.250000  1
  Ir  Ir22  1  0.671100  0.328900  0.500000  1
  Ir  Ir23  1  0.328900  0.671100  0.500000  1
  Ir  Ir24  1  0.328900  0.671100  0.000000  1
  Ir  Ir25  1  0.671100  0.328900  0.000000  1
  Ir  Ir26  1  0.000000  0.000000  0.500000  1
  Ir  Ir27  1  0.000000  0.000000  0.000000  1
