# generated using pymatgen
data_YbTm3As6Ir7
_symmetry_space_group_name_H-M   'P 1'
_cell_length_a   7.23096268
_cell_length_b   7.24615468
_cell_length_c   7.23096200
_cell_angle_alpha   109.51378964
_cell_angle_beta   109.42862561
_cell_angle_gamma   109.51378460
_symmetry_Int_Tables_number   1
_chemical_formula_structural   YbTm3As6Ir7
_chemical_formula_sum   'Yb1 Tm3 As6 Ir7'
_cell_volume   291.50732076
_cell_formula_units_Z   1
loop_
 _symmetry_equiv_pos_site_id
 _symmetry_equiv_pos_as_xyz
  1  'x, y, z'
loop_
 _atom_site_type_symbol
 _atom_site_label
 _atom_site_symmetry_multiplicity
 _atom_site_fract_x
 _atom_site_fract_y
 _atom_site_fract_z
 _atom_site_occupancy
  Yb  Yb0  1  0.000000  0.500000  0.000000  1
  Tm  Tm1  1  0.000000  0.000000  0.500000  1
  Tm  Tm2  1  0.500000  0.000000  0.000000  1
  Tm  Tm3  1  0.500000  0.500000  0.500000  1
  As  As4  1  0.315161  0.995192  0.315161  1
  As  As5  1  0.000000  0.319969  0.315161  1
  As  As6  1  0.000000  0.680031  0.684839  1
  As  As7  1  0.315161  0.319969  0.000000  1
  As  As8  1  0.684839  0.680031  0.000000  1
  As  As9  1  0.684839  0.004808  0.684839  1
  Ir  Ir10  1  0.746931  0.500000  0.253069  1
  Ir  Ir11  1  0.506137  0.753069  0.253069  1
  Ir  Ir12  1  0.493863  0.246931  0.746931  1
  Ir  Ir13  1  0.746931  0.246931  0.493863  1
  Ir  Ir14  1  0.253069  0.753069  0.506137  1
  Ir  Ir15  1  0.253069  0.500000  0.746931  1
  Ir  Ir16  1  0.000000  0.000000  0.000000  1
