# generated using pymatgen
data_Y6Nb5Ga11Os7
_symmetry_space_group_name_H-M   'P 1'
_cell_length_a   9.08827378
_cell_length_b   9.08827390
_cell_length_c   9.03397800
_cell_angle_alpha   59.80098768
_cell_angle_beta   59.80098609
_cell_angle_gamma   59.99999661
_symmetry_Int_Tables_number   1
_chemical_formula_structural   Y6Nb5Ga11Os7
_chemical_formula_sum   'Y6 Nb5 Ga11 Os7'
_cell_volume   526.03405934
_cell_formula_units_Z   1
loop_
 _symmetry_equiv_pos_site_id
 _symmetry_equiv_pos_as_xyz
  1  'x, y, z'
loop_
 _atom_site_type_symbol
 _atom_site_label
 _atom_site_symmetry_multiplicity
 _atom_site_fract_x
 _atom_site_fract_y
 _atom_site_fract_z
 _atom_site_occupancy
  Y  Y0  1  0.708119  0.708119  0.294467  1
  Y  Y1  1  0.289294  0.708119  0.294467  1
  Y  Y2  1  0.708119  0.289294  0.294467  1
  Y  Y3  1  0.296626  0.296626  0.710726  1
  Y  Y4  1  0.696022  0.296626  0.710726  1
  Y  Y5  1  0.296626  0.696022  0.710726  1
  Nb  Nb6  1  0.878108  0.878108  0.365677  1
  Nb  Nb7  1  0.875364  0.369068  0.880206  1
  Nb  Nb8  1  0.369068  0.875364  0.880206  1
  Nb  Nb9  1  0.875364  0.875364  0.880206  1
  Nb  Nb10  1  0.127829  0.127829  0.616514  1
  Ga  Ga11  1  0.116700  0.647608  0.118991  1
  Ga  Ga12  1  0.647608  0.116700  0.118991  1
  Ga  Ga13  1  0.116700  0.116700  0.118991  1
  Ga  Ga14  1  0.661520  0.661520  0.015440  1
  Ga  Ga15  1  0.663925  0.009596  0.662554  1
  Ga  Ga16  1  0.009596  0.663925  0.662554  1
  Ga  Ga17  1  0.663925  0.663925  0.662554  1
  Ga  Ga18  1  0.332916  0.332916  0.001251  1
  Ga  Ga19  1  0.337698  0.993014  0.331589  1
  Ga  Ga20  1  0.993014  0.337698  0.331589  1
  Ga  Ga21  1  0.337698  0.337698  0.331589  1
  Os  Os22  1  0.006978  0.006978  0.979066  1
  Os  Os23  1  0.998161  0.998161  0.508550  1
  Os  Os24  1  0.495128  0.998161  0.508550  1
  Os  Os25  1  0.998161  0.495128  0.508550  1
  Os  Os26  1  0.502380  0.502380  0.000267  1
  Os  Os27  1  0.994973  0.502380  0.000267  1
  Os  Os28  1  0.502380  0.994973  0.000267  1
