# generated using pymatgen
data_DyY14Ho5(Cd3Ru)2
_symmetry_space_group_name_H-M   'P 1'
_cell_length_a   9.62784648
_cell_length_b   9.63445185
_cell_length_c   9.85132045
_cell_angle_alpha   90.00000164
_cell_angle_beta   89.94488989
_cell_angle_gamma   120.02269482
_symmetry_Int_Tables_number   1
_chemical_formula_structural   DyY14Ho5(Cd3Ru)2
_chemical_formula_sum   'Dy1 Y14 Ho5 Cd6 Ru2'
_cell_volume   791.19150225
_cell_formula_units_Z   1
loop_
 _symmetry_equiv_pos_site_id
 _symmetry_equiv_pos_as_xyz
  1  'x, y, z'
loop_
 _atom_site_type_symbol
 _atom_site_label
 _atom_site_symmetry_multiplicity
 _atom_site_fract_x
 _atom_site_fract_y
 _atom_site_fract_z
 _atom_site_occupancy
  Dy  Dy0  1  0.998976  0.999488  0.499784  1
  Y  Y1  1  0.000059  0.000030  0.999964  1
  Y  Y2  1  0.419364  0.209681  0.559473  1
  Y  Y3  1  0.790424  0.209653  0.939863  1
  Y  Y4  1  0.790424  0.580768  0.939863  1
  Y  Y5  1  0.420046  0.210022  0.939959  1
  Y  Y6  1  0.209603  0.790106  0.060218  1
  Y  Y7  1  0.209603  0.419498  0.060218  1
  Y  Y8  1  0.580440  0.790221  0.060162  1
  Y  Y9  1  0.540924  0.459275  0.251598  1
  Y  Y10  1  0.540924  0.081650  0.251598  1
  Y  Y11  1  0.917602  0.458800  0.252063  1
  Y  Y12  1  0.458998  0.541518  0.748299  1
  Y  Y13  1  0.458998  0.917480  0.748299  1
  Y  Y14  1  0.081706  0.540853  0.748004  1
  Ho  Ho15  1  0.209781  0.789531  0.439745  1
  Ho  Ho16  1  0.209781  0.420252  0.439745  1
  Ho  Ho17  1  0.579297  0.789649  0.440142  1
  Ho  Ho18  1  0.790199  0.210084  0.560250  1
  Ho  Ho19  1  0.790199  0.580114  0.560250  1
  Cd  Cd20  1  0.885638  0.115211  0.250135  1
  Cd  Cd21  1  0.885638  0.770428  0.250135  1
  Cd  Cd22  1  0.229364  0.114683  0.250203  1
  Cd  Cd23  1  0.114510  0.884958  0.749632  1
  Cd  Cd24  1  0.114510  0.229552  0.749632  1
  Cd  Cd25  1  0.770533  0.885266  0.749948  1
  Ru  Ru26  1  0.333945  0.666973  0.252918  1
  Ru  Ru27  1  0.668516  0.334257  0.747895  1
