# generated using pymatgen
data_Nd17Y(HoSn8)2
_symmetry_space_group_name_H-M   'P 1'
_cell_length_a   8.26093300
_cell_length_b   8.41433494
_cell_length_c   15.94845600
_cell_angle_alpha   90.00000000
_cell_angle_beta   90.00000000
_cell_angle_gamma   89.97397324
_symmetry_Int_Tables_number   1
_chemical_formula_structural   Nd17Y(HoSn8)2
_chemical_formula_sum   'Nd17 Y1 Ho2 Sn16'
_cell_volume   1108.58116377
_cell_formula_units_Z   1
loop_
 _symmetry_equiv_pos_site_id
 _symmetry_equiv_pos_as_xyz
  1  'x, y, z'
loop_
 _atom_site_type_symbol
 _atom_site_label
 _atom_site_symmetry_multiplicity
 _atom_site_fract_x
 _atom_site_fract_y
 _atom_site_fract_z
 _atom_site_occupancy
  Nd  Nd0  1  0.017500  0.181038  0.401115  1
  Nd  Nd1  1  0.368363  0.837107  0.120598  1
  Nd  Nd2  1  0.132361  0.336464  0.620515  1
  Nd  Nd3  1  0.481773  0.681454  0.901346  1
  Nd  Nd4  1  0.867990  0.663064  0.121095  1
  Nd  Nd5  1  0.132361  0.336464  0.879485  1
  Nd  Nd6  1  0.481773  0.681454  0.598654  1
  Nd  Nd7  1  0.631212  0.162832  0.620327  1
  Nd  Nd8  1  0.802273  0.498010  0.750000  1
  Nd  Nd9  1  0.867990  0.663064  0.378905  1
  Nd  Nd10  1  0.017500  0.181038  0.098885  1
  Nd  Nd11  1  0.982642  0.819504  0.901252  1
  Nd  Nd12  1  0.631212  0.162832  0.879673  1
  Nd  Nd13  1  0.517839  0.318987  0.099098  1
  Nd  Nd14  1  0.368363  0.837107  0.379402  1
  Nd  Nd15  1  0.982642  0.819504  0.598748  1
  Nd  Nd16  1  0.517839  0.318987  0.400902  1
  Y  Y17  1  0.199396  0.502014  0.250000  1
  Ho  Ho18  1  0.699674  0.998176  0.250000  1
  Ho  Ho19  1  0.300472  0.002258  0.750000  1
  Sn  Sn20  1  0.791550  0.463642  0.541718  1
  Sn  Sn21  1  0.708489  0.964700  0.456248  1
  Sn  Sn22  1  0.674826  0.858128  0.750000  1
  Sn  Sn23  1  0.208355  0.535072  0.456426  1
  Sn  Sn24  1  0.291683  0.035222  0.956490  1
  Sn  Sn25  1  0.824185  0.353971  0.250000  1
  Sn  Sn26  1  0.791550  0.463642  0.958282  1
  Sn  Sn27  1  0.565179  0.616834  0.250000  1
  Sn  Sn28  1  0.208355  0.535072  0.043574  1
  Sn  Sn29  1  0.431655  0.382595  0.750000  1
  Sn  Sn30  1  0.177678  0.646702  0.750000  1
  Sn  Sn31  1  0.935955  0.114499  0.750000  1
  Sn  Sn32  1  0.291683  0.035222  0.543510  1
  Sn  Sn33  1  0.708489  0.964700  0.043752  1
  Sn  Sn34  1  0.324082  0.145196  0.250000  1
  Sn  Sn35  1  0.065118  0.883446  0.250000  1
