# generated using pymatgen
data_HoEr11Tl2ZnFe2
_symmetry_space_group_name_H-M   'P 1'
_cell_length_a   8.34351039
_cell_length_b   8.34350973
_cell_length_c   8.34349400
_cell_angle_alpha   109.77832927
_cell_angle_beta   109.77834068
_cell_angle_gamma   108.85879289
_symmetry_Int_Tables_number   1
_chemical_formula_structural   HoEr11Tl2ZnFe2
_chemical_formula_sum   'Ho1 Er11 Tl2 Zn1 Fe2'
_cell_volume   447.08088969
_cell_formula_units_Z   1
loop_
 _symmetry_equiv_pos_site_id
 _symmetry_equiv_pos_as_xyz
  1  'x, y, z'
loop_
 _atom_site_type_symbol
 _atom_site_label
 _atom_site_symmetry_multiplicity
 _atom_site_fract_x
 _atom_site_fract_y
 _atom_site_fract_z
 _atom_site_occupancy
  Ho  Ho0  1  0.305434  0.305434  0.610867  1
  Er  Er1  1  0.694322  0.694322  0.388647  1
  Er  Er2  1  0.305720  0.694393  0.000114  1
  Er  Er3  1  0.694393  0.305720  0.000114  1
  Er  Er4  1  0.445574  0.202686  0.242720  1
  Er  Er5  1  0.554616  0.797579  0.757214  1
  Er  Er6  1  0.959636  0.202598  0.757214  1
  Er  Er7  1  0.202598  0.959636  0.757214  1
  Er  Er8  1  0.040034  0.797146  0.242720  1
  Er  Er9  1  0.797146  0.040034  0.242720  1
  Er  Er10  1  0.202686  0.445574  0.242720  1
  Er  Er11  1  0.797579  0.554616  0.757214  1
  Tl  Tl12  1  0.500051  0.999969  0.500019  1
  Tl  Tl13  1  0.999969  0.500051  0.500019  1
  Zn  Zn14  1  0.999994  0.999994  0.999988  1
  Fe  Fe15  1  0.387146  0.387146  0.000247  1
  Fe  Fe16  1  0.613102  0.613102  0.000247  1
