# generated using pymatgen
data_Tb2(CuP)3
_symmetry_space_group_name_H-M   'P 1'
_cell_length_a   3.86524800
_cell_length_b   10.70573100
_cell_length_c   12.98242700
_cell_angle_alpha   90.00000000
_cell_angle_beta   90.00000000
_cell_angle_gamma   90.00000000
_symmetry_Int_Tables_number   1
_chemical_formula_structural   Tb2(CuP)3
_chemical_formula_sum   'Tb8 Cu12 P12'
_cell_volume   537.21679327
_cell_formula_units_Z   4
loop_
 _symmetry_equiv_pos_site_id
 _symmetry_equiv_pos_as_xyz
  1  'x, y, z'
loop_
 _atom_site_type_symbol
 _atom_site_label
 _atom_site_symmetry_multiplicity
 _atom_site_fract_x
 _atom_site_fract_y
 _atom_site_fract_z
 _atom_site_occupancy
  Tb  Tb0  1  0.250000  0.930100  0.793427  1
  Tb  Tb1  1  0.750000  0.430100  0.706573  1
  Tb  Tb2  1  0.250000  0.569900  0.293427  1
  Tb  Tb3  1  0.750000  0.069900  0.206573  1
  Tb  Tb4  1  0.250000  0.841571  0.502627  1
  Tb  Tb5  1  0.750000  0.341571  0.997373  1
  Tb  Tb6  1  0.250000  0.658429  0.002627  1
  Tb  Tb7  1  0.750000  0.158429  0.497373  1
  Cu  Cu8  1  0.250000  0.401009  0.514273  1
  Cu  Cu9  1  0.750000  0.901009  0.985727  1
  Cu  Cu10  1  0.250000  0.098991  0.014273  1
  Cu  Cu11  1  0.750000  0.598991  0.485727  1
  Cu  Cu12  1  0.250000  0.273113  0.332472  1
  Cu  Cu13  1  0.750000  0.773113  0.167528  1
  Cu  Cu14  1  0.250000  0.226887  0.832472  1
  Cu  Cu15  1  0.750000  0.726887  0.667528  1
  Cu  Cu16  1  0.250000  0.860905  0.278634  1
  Cu  Cu17  1  0.750000  0.360905  0.221366  1
  Cu  Cu18  1  0.250000  0.639095  0.778634  1
  Cu  Cu19  1  0.750000  0.139095  0.721366  1
  P  P20  1  0.250000  0.239379  0.644483  1
  P  P21  1  0.750000  0.739379  0.855517  1
  P  P22  1  0.250000  0.260621  0.144483  1
  P  P23  1  0.750000  0.760621  0.355517  1
  P  P24  1  0.250000  0.603483  0.599631  1
  P  P25  1  0.750000  0.103483  0.900369  1
  P  P26  1  0.250000  0.896517  0.099631  1
  P  P27  1  0.750000  0.396517  0.400369  1
  P  P28  1  0.250000  0.057321  0.368139  1
  P  P29  1  0.750000  0.557321  0.131861  1
  P  P30  1  0.250000  0.442679  0.868139  1
  P  P31  1  0.750000  0.942679  0.631861  1
