# generated using pymatgen
data_Yb5EuAl4(SiO4)6
_symmetry_space_group_name_H-M   'P 1'
_cell_length_a   10.35642367
_cell_length_b   10.33766081
_cell_length_c   10.34478004
_cell_angle_alpha   109.36132069
_cell_angle_beta   109.43494434
_cell_angle_gamma   109.62645195
_symmetry_Int_Tables_number   1
_chemical_formula_structural   Yb5EuAl4(SiO4)6
_chemical_formula_sum   'Yb10 Eu2 Al8 Si12 O48'
_cell_volume   852.47382860
_cell_formula_units_Z   2
loop_
 _symmetry_equiv_pos_site_id
 _symmetry_equiv_pos_as_xyz
  1  'x, y, z'
loop_
 _atom_site_type_symbol
 _atom_site_label
 _atom_site_symmetry_multiplicity
 _atom_site_fract_x
 _atom_site_fract_y
 _atom_site_fract_z
 _atom_site_occupancy
  Yb  Yb0  1  0.375189  0.125189  0.250377  1
  Yb  Yb1  1  0.875275  0.625274  0.250549  1
  Yb  Yb2  1  0.751101  0.125607  0.375513  1
  Yb  Yb3  1  0.124412  0.249907  0.375513  1
  Yb  Yb4  1  0.875171  0.749642  0.624875  1
  Yb  Yb5  1  0.249704  0.875233  0.624875  1
  Yb  Yb6  1  0.124650  0.374650  0.749300  1
  Yb  Yb7  1  0.625325  0.875325  0.750650  1
  Yb  Yb8  1  0.749705  0.624816  0.874555  1
  Yb  Yb9  1  0.624850  0.249739  0.874555  1
  Eu  Eu10  1  0.374327  0.748553  0.124519  1
  Eu  Eu11  1  0.250193  0.375966  0.124518  1
  Al  Al12  1  0.998028  0.997300  0.998228  1
  Al  Al13  1  0.500200  0.000928  0.998228  1
  Al  Al14  1  0.995144  0.499512  0.998018  1
  Al  Al15  1  0.502874  0.498506  0.998018  1
  Al  Al16  1  0.001048  0.000159  0.500445  1
  Al  Al17  1  0.502311  0.500939  0.503330  1
  Al  Al18  1  0.999397  0.500285  0.500444  1
  Al  Al19  1  0.501018  0.002391  0.503330  1
  Si  Si20  1  0.872946  0.249102  0.124854  1
  Si  Si21  1  0.751908  0.875752  0.124854  1
  Si  Si22  1  0.626475  0.374503  0.250487  1
  Si  Si23  1  0.124012  0.875983  0.250487  1
  Si  Si24  1  0.248986  0.627634  0.379721  1
  Si  Si25  1  0.630734  0.752085  0.379721  1
  Si  Si26  1  0.749891  0.374976  0.625305  1
  Si  Si27  1  0.375413  0.250328  0.625304  1
  Si  Si28  1  0.873116  0.124386  0.748134  1
  Si  Si29  1  0.375018  0.623748  0.748134  1
  Si  Si30  1  0.250388  0.121597  0.871590  1
  Si  Si31  1  0.121202  0.749992  0.871589  1
  O  O32  1  0.196014  0.105951  0.002593  1
  O  O33  1  0.306578  0.896642  0.002592  1
  O  O34  1  0.699071  0.689564  0.083323  1
  O  O35  1  0.884252  0.393759  0.083323  1
  O  O36  1  0.615113  0.414808  0.105061  1
  O  O37  1  0.989948  0.690253  0.105061  1
  O  O38  1  0.003533  0.193019  0.113716  1
  O  O39  1  0.610184  0.920697  0.113716  1
  O  O40  1  0.190536  0.587425  0.194028  1
  O  O41  1  0.503491  0.606602  0.194028  1
  O  O42  1  0.113867  0.008943  0.196764  1
  O  O43  1  0.582897  0.187820  0.196764  1
  O  O44  1  0.311115  0.921708  0.307529  1
  O  O45  1  0.496414  0.385821  0.307529  1
  O  O46  1  0.916053  0.302306  0.311125  1
  O  O47  1  0.895073  0.008819  0.311126  1
  O  O48  1  0.591452  0.898264  0.395299  1
  O  O49  1  0.303847  0.497035  0.395300  1
  O  O50  1  0.811537  0.508684  0.394285  1
  O  O51  1  0.082748  0.885602  0.394286  1
  O  O52  1  0.815237  0.803675  0.419637  1
  O  O53  1  0.104400  0.615963  0.419637  1
  O  O54  1  0.385671  0.302522  0.491419  1
  O  O55  1  0.605748  0.188897  0.491419  1
  O  O56  1  0.394747  0.813076  0.510935  1
  O  O57  1  0.616188  0.697859  0.510935  1
  O  O58  1  0.893459  0.385124  0.582888  1
  O  O59  1  0.189428  0.197763  0.582888  1
  O  O60  1  0.917526  0.114592  0.605780  1
  O  O61  1  0.188253  0.491188  0.605779  1
  O  O62  1  0.416694  0.106298  0.615646  1
  O  O63  1  0.698950  0.509348  0.615646  1
  O  O64  1  0.105425  0.989191  0.687008  1
  O  O65  1  0.081583  0.697817  0.687008  1
  O  O66  1  0.688273  0.083895  0.698784  1
  O  O67  1  0.510510  0.614889  0.698784  1
  O  O68  1  0.416328  0.809743  0.801661  1
  O  O69  1  0.885334  0.991917  0.801662  1
  O  O70  1  0.511238  0.395037  0.810364  1
  O  O71  1  0.799126  0.415327  0.810364  1
  O  O72  1  0.395838  0.082662  0.883374  1
  O  O73  1  0.987536  0.800712  0.883374  1
  O  O74  1  0.386726  0.578577  0.890061  1
  O  O75  1  0.003335  0.311483  0.890061  1
  O  O76  1  0.304489  0.306655  0.908873  1
  O  O77  1  0.104385  0.602218  0.908874  1
  O  O78  1  0.687715  0.105301  0.989838  1
  O  O79  1  0.802123  0.884537  0.989839  1
