# generated using pymatgen
data_Ho8TmZn4
_symmetry_space_group_name_H-M   'P 1'
_cell_length_a   8.51129770
_cell_length_b   8.51127562
_cell_length_c   8.51148121
_cell_angle_alpha   94.97079947
_cell_angle_beta   94.97027107
_cell_angle_gamma   145.76232206
_symmetry_Int_Tables_number   1
_chemical_formula_structural   Ho8TmZn4
_chemical_formula_sum   'Ho8 Tm1 Zn4'
_cell_volume   331.54060362
_cell_formula_units_Z   1
loop_
 _symmetry_equiv_pos_site_id
 _symmetry_equiv_pos_as_xyz
  1  'x, y, z'
loop_
 _atom_site_type_symbol
 _atom_site_label
 _atom_site_symmetry_multiplicity
 _atom_site_fract_x
 _atom_site_fract_y
 _atom_site_fract_z
 _atom_site_occupancy
  Ho  Ho0  1  0.181856  0.887922  0.069795  1
  Ho  Ho1  1  0.112070  0.181877  0.293922  1
  Ho  Ho2  1  0.882505  0.402098  0.284620  1
  Ho  Ho3  1  0.597881  0.882510  0.480391  1
  Ho  Ho4  1  0.402118  0.117488  0.519608  1
  Ho  Ho5  1  0.117493  0.597901  0.715379  1
  Ho  Ho6  1  0.887929  0.818122  0.706078  1
  Ho  Ho7  1  0.818143  0.112076  0.930205  1
  Tm  Tm8  1  0.500000  0.500000  0.000000  1
  Zn  Zn9  1  0.392486  0.734887  0.127382  1
  Zn  Zn10  1  0.734880  0.607518  0.342403  1
  Zn  Zn11  1  0.265119  0.392481  0.657597  1
  Zn  Zn12  1  0.607513  0.265112  0.872617  1
