# generated using pymatgen
data_Tb3V(Ni4As3)2
_symmetry_space_group_name_H-M   'P 1'
_cell_length_a   3.87539800
_cell_length_b   10.98380300
_cell_length_c   12.67019600
_cell_angle_alpha   90.00000000
_cell_angle_beta   90.00000000
_cell_angle_gamma   90.00000000
_symmetry_Int_Tables_number   1
_chemical_formula_structural   Tb3V(Ni4As3)2
_chemical_formula_sum   'Tb6 V2 Ni16 As12'
_cell_volume   539.32726868
_cell_formula_units_Z   2
loop_
 _symmetry_equiv_pos_site_id
 _symmetry_equiv_pos_as_xyz
  1  'x, y, z'
loop_
 _atom_site_type_symbol
 _atom_site_label
 _atom_site_symmetry_multiplicity
 _atom_site_fract_x
 _atom_site_fract_y
 _atom_site_fract_z
 _atom_site_occupancy
  Tb  Tb0  1  0.000000  0.500000  0.522876  1
  Tb  Tb1  1  0.500000  0.000000  0.477124  1
  Tb  Tb2  1  0.500000  0.818463  0.206154  1
  Tb  Tb3  1  0.500000  0.181537  0.206154  1
  Tb  Tb4  1  0.000000  0.681537  0.793846  1
  Tb  Tb5  1  0.000000  0.318463  0.793846  1
  V  V6  1  0.500000  0.500000  0.147015  1
  V  V7  1  0.000000  0.000000  0.852985  1
  Ni  Ni8  1  0.500000  0.500000  0.698366  1
  Ni  Ni9  1  0.000000  0.000000  0.301634  1
  Ni  Ni10  1  0.000000  0.500000  0.983501  1
  Ni  Ni11  1  0.500000  0.000000  0.016499  1
  Ni  Ni12  1  0.500000  0.334600  0.992003  1
  Ni  Ni13  1  0.500000  0.665400  0.992003  1
  Ni  Ni14  1  0.000000  0.165400  0.007997  1
  Ni  Ni15  1  0.000000  0.834600  0.007997  1
  Ni  Ni16  1  0.500000  0.303756  0.425372  1
  Ni  Ni17  1  0.500000  0.696244  0.425372  1
  Ni  Ni18  1  0.000000  0.196244  0.574628  1
  Ni  Ni19  1  0.000000  0.803756  0.574628  1
  Ni  Ni20  1  0.500000  0.880665  0.709056  1
  Ni  Ni21  1  0.500000  0.119335  0.709056  1
  Ni  Ni22  1  0.000000  0.619335  0.290944  1
  Ni  Ni23  1  0.000000  0.380665  0.290944  1
  As  As24  1  0.500000  0.500000  0.877249  1
  As  As25  1  0.000000  0.000000  0.122751  1
  As  As26  1  0.500000  0.500000  0.343838  1
  As  As27  1  0.000000  0.000000  0.656162  1
  As  As28  1  0.500000  0.313798  0.613348  1
  As  As29  1  0.500000  0.686202  0.613348  1
  As  As30  1  0.000000  0.186202  0.386652  1
  As  As31  1  0.000000  0.813798  0.386652  1
  As  As32  1  0.500000  0.844934  0.891100  1
  As  As33  1  0.500000  0.155066  0.891100  1
  As  As34  1  0.000000  0.655066  0.108900  1
  As  As35  1  0.000000  0.344934  0.108900  1
