# generated using pymatgen
data_Na8Sr4TiSiAs8
_symmetry_space_group_name_H-M   'P 1'
_cell_length_a   9.60660152
_cell_length_b   9.61563232
_cell_length_c   7.54751845
_cell_angle_alpha   89.65372159
_cell_angle_beta   89.69471306
_cell_angle_gamma   120.02228908
_symmetry_Int_Tables_number   1
_chemical_formula_structural   Na8Sr4TiSiAs8
_chemical_formula_sum   'Na8 Sr4 Ti1 Si1 As8'
_cell_volume   603.61040068
_cell_formula_units_Z   1
loop_
 _symmetry_equiv_pos_site_id
 _symmetry_equiv_pos_as_xyz
  1  'x, y, z'
loop_
 _atom_site_type_symbol
 _atom_site_label
 _atom_site_symmetry_multiplicity
 _atom_site_fract_x
 _atom_site_fract_y
 _atom_site_fract_z
 _atom_site_occupancy
  Na  Na0  1  0.472229  0.941460  0.383883  1
  Na  Na1  1  0.943196  0.472949  0.888728  1
  Na  Na2  1  0.868475  0.732596  0.200968  1
  Na  Na3  1  0.276882  0.130525  0.224863  1
  Na  Na4  1  0.855020  0.133479  0.217529  1
  Na  Na5  1  0.136052  0.290465  0.727953  1
  Na  Na6  1  0.718911  0.862468  0.702257  1
  Na  Na7  1  0.139225  0.848143  0.718310  1
  Sr  Sr8  1  0.045609  0.525966  0.386326  1
  Sr  Sr9  1  0.480685  0.528297  0.383811  1
  Sr  Sr10  1  0.532339  0.057188  0.886230  1
  Sr  Sr11  1  0.534746  0.476738  0.886742  1
  Ti  Ti12  1  0.328153  0.664012  0.996908  1
  Si  Si13  1  0.661962  0.327492  0.503630  1
  As  As14  1  0.194198  0.382149  0.110121  1
  As  As15  1  0.617509  0.808182  0.092788  1
  As  As16  1  0.193676  0.810176  0.099656  1
  As  As17  1  0.806137  0.611692  0.595289  1
  As  As18  1  0.385977  0.195546  0.609073  1
  As  As19  1  0.807586  0.198453  0.600963  1
  As  As20  1  0.664255  0.337558  0.181599  1
  As  As21  1  0.337193  0.664480  0.666970  1
