# generated using pymatgen
data_Ho8Zn3Si12Au
_symmetry_space_group_name_H-M   'P 1'
_cell_length_a   8.13619700
_cell_length_b   8.13619786
_cell_length_c   7.97979500
_cell_angle_alpha   90.00000000
_cell_angle_beta   90.00000000
_cell_angle_gamma   120.00000056
_symmetry_Int_Tables_number   1
_chemical_formula_structural   Ho8Zn3Si12Au
_chemical_formula_sum   'Ho8 Zn3 Si12 Au1'
_cell_volume   457.47284593
_cell_formula_units_Z   1
loop_
 _symmetry_equiv_pos_site_id
 _symmetry_equiv_pos_as_xyz
  1  'x, y, z'
loop_
 _atom_site_type_symbol
 _atom_site_label
 _atom_site_symmetry_multiplicity
 _atom_site_fract_x
 _atom_site_fract_y
 _atom_site_fract_z
 _atom_site_occupancy
  Ho  Ho0  1  0.502391  0.004780  0.247877  1
  Ho  Ho1  1  0.500851  0.001703  0.752206  1
  Ho  Ho2  1  0.995220  0.497609  0.247877  1
  Ho  Ho3  1  0.998297  0.499149  0.752206  1
  Ho  Ho4  1  0.502391  0.497609  0.247877  1
  Ho  Ho5  1  0.500851  0.499149  0.752206  1
  Ho  Ho6  1  0.000000  0.000000  0.248582  1
  Ho  Ho7  1  0.000000  0.000000  0.751241  1
  Zn  Zn8  1  0.333333  0.666667  0.004624  1
  Zn  Zn9  1  0.666667  0.333333  0.995333  1
  Zn  Zn10  1  0.666667  0.333333  0.501907  1
  Si  Si11  1  0.166135  0.332268  0.998957  1
  Si  Si12  1  0.832724  0.665450  0.000988  1
  Si  Si13  1  0.667732  0.833865  0.998957  1
  Si  Si14  1  0.833153  0.666308  0.501223  1
  Si  Si15  1  0.334550  0.167276  0.000988  1
  Si  Si16  1  0.163266  0.326531  0.498589  1
  Si  Si17  1  0.166135  0.833865  0.998957  1
  Si  Si18  1  0.333692  0.166847  0.501223  1
  Si  Si19  1  0.832724  0.167276  0.000988  1
  Si  Si20  1  0.673469  0.836734  0.498589  1
  Si  Si21  1  0.833153  0.166847  0.501223  1
  Si  Si22  1  0.163266  0.836734  0.498589  1
  Au  Au23  1  0.333333  0.666667  0.498797  1
