# generated using pymatgen
data_GdTm3(MoN3)4
_symmetry_space_group_name_H-M   'P 1'
_cell_length_a   7.30357341
_cell_length_b   7.30357328
_cell_length_c   6.23851131
_cell_angle_alpha   73.51902850
_cell_angle_beta   73.51903043
_cell_angle_gamma   81.27988369
_symmetry_Int_Tables_number   1
_chemical_formula_structural   GdTm3(MoN3)4
_chemical_formula_sum   'Gd1 Tm3 Mo4 N12'
_cell_volume   305.07597594
_cell_formula_units_Z   1
loop_
 _symmetry_equiv_pos_site_id
 _symmetry_equiv_pos_as_xyz
  1  'x, y, z'
loop_
 _atom_site_type_symbol
 _atom_site_label
 _atom_site_symmetry_multiplicity
 _atom_site_fract_x
 _atom_site_fract_y
 _atom_site_fract_z
 _atom_site_occupancy
  Gd  Gd0  1  0.292828  0.707172  0.750000  1
  Tm  Tm1  1  0.911554  0.088446  0.750000  1
  Tm  Tm2  1  0.709465  0.290535  0.250000  1
  Tm  Tm3  1  0.085291  0.914709  0.250000  1
  Mo  Mo4  1  0.801236  0.618437  0.771642  1
  Mo  Mo5  1  0.198437  0.379724  0.231449  1
  Mo  Mo6  1  0.620276  0.801563  0.268551  1
  Mo  Mo7  1  0.381563  0.198764  0.728358  1
  N  N8  1  0.214171  0.002981  0.849454  1
  N  N9  1  0.370831  0.345783  0.429949  1
  N  N10  1  0.635459  0.654226  0.565050  1
  N  N11  1  0.626721  0.109200  0.662398  1
  N  N12  1  0.997019  0.785829  0.650546  1
  N  N13  1  0.782062  0.002862  0.151243  1
  N  N14  1  0.110420  0.625260  0.167925  1
  N  N15  1  0.890800  0.373279  0.837602  1
  N  N16  1  0.997138  0.217938  0.348757  1
  N  N17  1  0.345774  0.364541  0.934950  1
  N  N18  1  0.654217  0.629169  0.070051  1
  N  N19  1  0.374740  0.889580  0.332075  1
