# generated using pymatgen
data_Sr8Si12NiHg3
_symmetry_space_group_name_H-M   'P 1'
_cell_length_a   11.90576180
_cell_length_b   10.29992217
_cell_length_c   8.44042257
_cell_angle_alpha   78.19126881
_cell_angle_beta   57.88738541
_cell_angle_gamma   43.94218292
_symmetry_Int_Tables_number   1
_chemical_formula_structural   Sr8Si12NiHg3
_chemical_formula_sum   'Sr8 Si12 Ni1 Hg3'
_cell_volume   579.74987882
_cell_formula_units_Z   1
loop_
 _symmetry_equiv_pos_site_id
 _symmetry_equiv_pos_as_xyz
  1  'x, y, z'
loop_
 _atom_site_type_symbol
 _atom_site_label
 _atom_site_symmetry_multiplicity
 _atom_site_fract_x
 _atom_site_fract_y
 _atom_site_fract_z
 _atom_site_occupancy
  Sr  Sr0  1  0.123238  0.132067  0.879685  1
  Sr  Sr1  1  0.879686  0.865011  0.123237  1
  Sr  Sr2  1  0.125119  0.134921  0.367699  1
  Sr  Sr3  1  0.367700  0.372261  0.125118  1
  Sr  Sr4  1  0.633505  0.620061  0.369782  1
  Sr  Sr5  1  0.369782  0.376653  0.633505  1
  Sr  Sr6  1  0.627746  0.630103  0.872248  1
  Sr  Sr7  1  0.872249  0.869904  0.627745  1
  Si  Si8  1  0.923303  0.578803  0.402361  1
  Si  Si9  1  0.061816  0.435441  0.595270  1
  Si  Si10  1  0.402361  0.095533  0.923303  1
  Si  Si11  1  0.595270  0.907473  0.061816  1
  Si  Si12  1  0.340997  0.658064  0.818862  1
  Si  Si13  1  0.654283  0.337140  0.185990  1
  Si  Si14  1  0.818862  0.182077  0.340997  1
  Si  Si15  1  0.185990  0.822587  0.654283  1
  Si  Si16  1  0.923661  0.576340  0.923660  1
  Si  Si17  1  0.593042  0.906959  0.593041  1
  Si  Si18  1  0.340495  0.659506  0.340495  1
  Si  Si19  1  0.660096  0.339904  0.660096  1
  Ni  Ni20  1  0.082873  0.417127  0.082873  1
  Hg  Hg21  1  0.833309  0.166691  0.833309  1
  Hg  Hg22  1  0.167375  0.832625  0.167375  1
  Hg  Hg23  1  0.417247  0.082753  0.417247  1
