# generated using pymatgen
data_LaCe3F15
_symmetry_space_group_name_H-M   'P 1'
_cell_length_a   7.93247204
_cell_length_b   7.93247190
_cell_length_c   7.93247147
_cell_angle_alpha   112.90049466
_cell_angle_beta   112.90049421
_cell_angle_gamma   112.90049159
_symmetry_Int_Tables_number   1
_chemical_formula_structural   LaCe3F15
_chemical_formula_sum   'La1 Ce3 F15'
_cell_volume   326.50318486
_cell_formula_units_Z   1
loop_
 _symmetry_equiv_pos_site_id
 _symmetry_equiv_pos_as_xyz
  1  'x, y, z'
loop_
 _atom_site_type_symbol
 _atom_site_label
 _atom_site_symmetry_multiplicity
 _atom_site_fract_x
 _atom_site_fract_y
 _atom_site_fract_z
 _atom_site_occupancy
  La  La0  1  0.495085  0.495085  0.495085  1
  Ce  Ce1  1  0.855326  0.285378  0.855326  1
  Ce  Ce2  1  0.285378  0.855326  0.855326  1
  Ce  Ce3  1  0.855326  0.855326  0.285378  1
  F  F4  1  0.601944  0.931600  0.143672  1
  F  F5  1  0.931600  0.143672  0.601944  1
  F  F6  1  0.143672  0.601944  0.931600  1
  F  F7  1  0.931600  0.601944  0.143672  1
  F  F8  1  0.595682  0.595682  0.259769  1
  F  F9  1  0.259769  0.595682  0.595682  1
  F  F10  1  0.595682  0.259769  0.595682  1
  F  F11  1  0.143665  0.143665  0.361870  1
  F  F12  1  0.361870  0.143665  0.143665  1
  F  F13  1  0.143665  0.361870  0.143665  1
  F  F14  1  0.670133  0.670133  0.901019  1
  F  F15  1  0.901019  0.670133  0.670133  1
  F  F16  1  0.670133  0.901019  0.670133  1
  F  F17  1  0.143672  0.931600  0.601944  1
  F  F18  1  0.601944  0.143672  0.931600  1
