# generated using pymatgen
data_LaLu(AsPt)2
_symmetry_space_group_name_H-M   'P 1'
_cell_length_a   4.29787400
_cell_length_b   4.29787394
_cell_length_c   15.90666200
_cell_angle_alpha   90.00000000
_cell_angle_beta   90.00000000
_cell_angle_gamma   120.00000044
_symmetry_Int_Tables_number   1
_chemical_formula_structural   LaLu(AsPt)2
_chemical_formula_sum   'La2 Lu2 As4 Pt4'
_cell_volume   254.45854248
_cell_formula_units_Z   2
loop_
 _symmetry_equiv_pos_site_id
 _symmetry_equiv_pos_as_xyz
  1  'x, y, z'
loop_
 _atom_site_type_symbol
 _atom_site_label
 _atom_site_symmetry_multiplicity
 _atom_site_fract_x
 _atom_site_fract_y
 _atom_site_fract_z
 _atom_site_occupancy
  La  La0  1  0.000000  0.000000  0.500000  1
  La  La1  1  0.000000  0.000000  0.000000  1
  Lu  Lu2  1  0.000000  0.000000  0.250000  1
  Lu  Lu3  1  0.000000  0.000000  0.750000  1
  As  As4  1  0.333333  0.666667  0.878629  1
  As  As5  1  0.666667  0.333333  0.121371  1
  As  As6  1  0.666667  0.333333  0.378629  1
  As  As7  1  0.333333  0.666667  0.621371  1
  Pt  Pt8  1  0.333333  0.666667  0.353815  1
  Pt  Pt9  1  0.666667  0.333333  0.646185  1
  Pt  Pt10  1  0.666667  0.333333  0.853815  1
  Pt  Pt11  1  0.333333  0.666667  0.146185  1
