# generated using pymatgen
data_La3Mg2ZnIr2Pd
_symmetry_space_group_name_H-M   'P 1'
_cell_length_a   7.55193410
_cell_length_b   7.55193386
_cell_length_c   4.10837500
_cell_angle_alpha   90.00000000
_cell_angle_beta   90.00000000
_cell_angle_gamma   119.93822927
_symmetry_Int_Tables_number   1
_chemical_formula_structural   La3Mg2ZnIr2Pd
_chemical_formula_sum   'La3 Mg2 Zn1 Ir2 Pd1'
_cell_volume   203.04255313
_cell_formula_units_Z   1
loop_
 _symmetry_equiv_pos_site_id
 _symmetry_equiv_pos_as_xyz
  1  'x, y, z'
loop_
 _atom_site_type_symbol
 _atom_site_label
 _atom_site_symmetry_multiplicity
 _atom_site_fract_x
 _atom_site_fract_y
 _atom_site_fract_z
 _atom_site_occupancy
  La  La0  1  0.433830  0.433830  0.500000  1
  La  La1  1  0.580574  0.993583  0.500000  1
  La  La2  1  0.993583  0.580574  0.500000  1
  Mg  Mg3  1  0.238599  0.000239  0.000000  1
  Mg  Mg4  1  0.000239  0.238599  0.000000  1
  Zn  Zn5  1  0.759680  0.759680  0.000000  1
  Ir  Ir6  1  0.666585  0.332292  0.000000  1
  Ir  Ir7  1  0.332292  0.666585  0.000000  1
  Pd  Pd8  1  0.994616  0.994616  0.500000  1
