# generated using pymatgen
data_CsSr9(Tc2N7)2
_symmetry_space_group_name_H-M   'P 1'
_cell_length_a   6.51884656
_cell_length_b   9.25779597
_cell_length_c   9.48980757
_cell_angle_alpha   114.55539703
_cell_angle_beta   99.62074913
_cell_angle_gamma   89.71407154
_symmetry_Int_Tables_number   1
_chemical_formula_structural   CsSr9(Tc2N7)2
_chemical_formula_sum   'Cs1 Sr9 Tc4 N14'
_cell_volume   512.26025220
_cell_formula_units_Z   1
loop_
 _symmetry_equiv_pos_site_id
 _symmetry_equiv_pos_as_xyz
  1  'x, y, z'
loop_
 _atom_site_type_symbol
 _atom_site_label
 _atom_site_symmetry_multiplicity
 _atom_site_fract_x
 _atom_site_fract_y
 _atom_site_fract_z
 _atom_site_occupancy
  Cs  Cs0  1  0.874576  0.581013  0.337833  1
  Sr  Sr1  1  0.268113  0.984157  0.561387  1
  Sr  Sr2  1  0.702144  0.416502  0.856919  1
  Sr  Sr3  1  0.297806  0.589626  0.149090  1
  Sr  Sr4  1  0.398521  0.791957  0.907759  1
  Sr  Sr5  1  0.597601  0.215566  0.095546  1
  Sr  Sr6  1  0.136958  0.399060  0.668156  1
  Sr  Sr7  1  0.885756  0.844803  0.756268  1
  Sr  Sr8  1  0.112041  0.155314  0.237049  1
  Sr  Sr9  1  0.727049  0.005283  0.427583  1
  Tc  Tc10  1  0.570908  0.356725  0.478649  1
  Tc  Tc11  1  0.427304  0.641856  0.533524  1
  Tc  Tc12  1  0.126483  0.212116  0.907077  1
  Tc  Tc13  1  0.877893  0.789402  0.080121  1
  N  N14  1  0.567734  0.553823  0.674936  1
  N  N15  1  0.417672  0.441804  0.336275  1
  N  N16  1  0.193650  0.725876  0.615663  1
  N  N17  1  0.821732  0.277957  0.419921  1
  N  N18  1  0.413113  0.194101  0.486623  1
  N  N19  1  0.567314  0.807534  0.519673  1
  N  N20  1  0.967065  0.133834  0.705582  1
  N  N21  1  0.048926  0.876698  0.275382  1
  N  N22  1  0.236287  0.054628  0.963036  1
  N  N23  1  0.774126  0.950567  0.026949  1
  N  N24  1  0.356621  0.335616  0.912199  1
  N  N25  1  0.968810  0.328338  0.050216  1
  N  N26  1  0.021205  0.651612  0.929659  1
  N  N27  1  0.642594  0.684232  0.086925  1
