# generated using pymatgen
data_HoPaBeCoSi4
_symmetry_space_group_name_H-M   'P 1'
_cell_length_a   8.31605559
_cell_length_b   8.31605599
_cell_length_c   3.95510200
_cell_angle_alpha   90.00000000
_cell_angle_beta   90.00000000
_cell_angle_gamma   152.08997578
_symmetry_Int_Tables_number   1
_chemical_formula_structural   HoPaBeCoSi4
_chemical_formula_sum   'Ho1 Pa1 Be1 Co1 Si4'
_cell_volume   128.03145155
_cell_formula_units_Z   1
loop_
 _symmetry_equiv_pos_site_id
 _symmetry_equiv_pos_as_xyz
  1  'x, y, z'
loop_
 _atom_site_type_symbol
 _atom_site_label
 _atom_site_symmetry_multiplicity
 _atom_site_fract_x
 _atom_site_fract_y
 _atom_site_fract_z
 _atom_site_occupancy
  Ho  Ho0  1  0.100430  0.899570  0.250000  1
  Pa  Pa1  1  0.888194  0.111806  0.750000  1
  Be  Be2  1  0.328497  0.671503  0.250000  1
  Co  Co3  1  0.682556  0.317444  0.750000  1
  Si  Si4  1  0.247765  0.752235  0.750000  1
  Si  Si5  1  0.749591  0.250409  0.250000  1
  Si  Si6  1  0.542267  0.457733  0.750000  1
  Si  Si7  1  0.460700  0.539300  0.250000  1
