# generated using pymatgen
data_Tb6YCo6Sn22Au
_symmetry_space_group_name_H-M   'P 1'
_cell_length_a   9.69226217
_cell_length_b   9.69226196
_cell_length_c   9.95065118
_cell_angle_alpha   89.98098544
_cell_angle_beta   90.01901769
_cell_angle_gamma   119.98947165
_symmetry_Int_Tables_number   1
_chemical_formula_structural   Tb6YCo6Sn22Au
_chemical_formula_sum   'Tb6 Y1 Co6 Sn22 Au1'
_cell_volume   809.61484702
_cell_formula_units_Z   1
loop_
 _symmetry_equiv_pos_site_id
 _symmetry_equiv_pos_as_xyz
  1  'x, y, z'
loop_
 _atom_site_type_symbol
 _atom_site_label
 _atom_site_symmetry_multiplicity
 _atom_site_fract_x
 _atom_site_fract_y
 _atom_site_fract_z
 _atom_site_occupancy
  Tb  Tb0  1  0.999998  0.000002  0.000011  1
  Tb  Tb1  1  0.521285  0.478715  0.693656  1
  Tb  Tb2  1  0.478731  0.957414  0.306254  1
  Tb  Tb3  1  0.521273  0.042583  0.693748  1
  Tb  Tb4  1  0.042586  0.521269  0.306254  1
  Tb  Tb5  1  0.957417  0.478727  0.693748  1
  Y  Y6  1  0.478685  0.521315  0.306387  1
  Co  Co7  1  0.832226  0.167774  0.196264  1
  Co  Co8  1  0.167783  0.832217  0.803741  1
  Co  Co9  1  0.832320  0.664471  0.196249  1
  Co  Co10  1  0.167739  0.335563  0.803751  1
  Co  Co11  1  0.335529  0.167680  0.196249  1
  Co  Co12  1  0.664437  0.832261  0.803751  1
  Sn  Sn13  1  0.346436  0.000034  0.999992  1
  Sn  Sn14  1  0.653569  0.999984  0.000007  1
  Sn  Sn15  1  0.000016  0.346431  0.000007  1
  Sn  Sn16  1  0.999966  0.653564  0.999992  1
  Sn  Sn17  1  0.653647  0.653625  0.999996  1
  Sn  Sn18  1  0.346375  0.346353  0.999996  1
  Sn  Sn19  1  0.333319  0.666681  0.816317  1
  Sn  Sn20  1  0.666687  0.333313  0.183700  1
  Sn  Sn21  1  0.783511  0.216489  0.452702  1
  Sn  Sn22  1  0.216482  0.783518  0.547300  1
  Sn  Sn23  1  0.783417  0.567064  0.452701  1
  Sn  Sn24  1  0.216513  0.432913  0.547254  1
  Sn  Sn25  1  0.432936  0.216583  0.452701  1
  Sn  Sn26  1  0.567087  0.783487  0.547254  1
  Sn  Sn27  1  0.333367  0.666633  0.117701  1
  Sn  Sn28  1  0.666660  0.333340  0.882337  1
  Sn  Sn29  1  0.113077  0.886923  0.278409  1
  Sn  Sn30  1  0.886919  0.113081  0.721608  1
  Sn  Sn31  1  0.113149  0.226195  0.278412  1
  Sn  Sn32  1  0.886879  0.773826  0.721570  1
  Sn  Sn33  1  0.773805  0.886851  0.278412  1
  Sn  Sn34  1  0.226174  0.113121  0.721570  1
  Au  Au35  1  0.000000  0.000000  0.500002  1
