# generated using pymatgen
data_Dy4Al16Si2(OsPd)3
_symmetry_space_group_name_H-M   'P 1'
_cell_length_a   7.57933866
_cell_length_b   7.57934795
_cell_length_c   9.38113003
_cell_angle_alpha   90.07321339
_cell_angle_beta   90.07334071
_cell_angle_gamma   119.49264837
_symmetry_Int_Tables_number   1
_chemical_formula_structural   Dy4Al16Si2(OsPd)3
_chemical_formula_sum   'Dy4 Al16 Si2 Os3 Pd3'
_cell_volume   469.07815978
_cell_formula_units_Z   1
loop_
 _symmetry_equiv_pos_site_id
 _symmetry_equiv_pos_as_xyz
  1  'x, y, z'
loop_
 _atom_site_type_symbol
 _atom_site_label
 _atom_site_symmetry_multiplicity
 _atom_site_fract_x
 _atom_site_fract_y
 _atom_site_fract_z
 _atom_site_occupancy
  Dy  Dy0  1  0.994636  0.676655  0.248458  1
  Dy  Dy1  1  0.004845  0.322672  0.751138  1
  Dy  Dy2  1  0.677329  0.995156  0.248865  1
  Dy  Dy3  1  0.323340  0.005359  0.751542  1
  Al  Al4  1  0.997045  0.332081  0.077251  1
  Al  Al5  1  0.994182  0.661386  0.922040  1
  Al  Al6  1  0.997992  0.668446  0.580037  1
  Al  Al7  1  0.331554  0.002008  0.419963  1
  Al  Al8  1  0.001541  0.333106  0.421416  1
  Al  Al9  1  0.666895  0.998459  0.578584  1
  Al  Al10  1  0.667919  0.002956  0.922749  1
  Al  Al11  1  0.338615  0.005819  0.077959  1
  Al  Al12  1  0.331299  0.332050  0.558860  1
  Al  Al13  1  0.667950  0.668702  0.441139  1
  Al  Al14  1  0.670606  0.664197  0.052541  1
  Al  Al15  1  0.335804  0.329394  0.947459  1
  Al  Al16  1  0.337126  0.547930  0.249387  1
  Al  Al17  1  0.661302  0.450664  0.752909  1
  Al  Al18  1  0.549336  0.338698  0.247091  1
  Al  Al19  1  0.452071  0.662874  0.750612  1
  Si  Si20  1  0.125387  0.126477  0.249871  1
  Si  Si21  1  0.873523  0.874613  0.750129  1
  Os  Os22  1  0.672209  0.327788  0.000000  1
  Os  Os23  1  0.000863  0.999140  0.999998  1
  Os  Os24  1  0.999614  0.000388  0.500000  1
  Pd  Pd25  1  0.328084  0.671915  0.000000  1
  Pd  Pd26  1  0.327150  0.672850  0.500001  1
  Pd  Pd27  1  0.671780  0.328221  0.499999  1
