# generated using pymatgen
data_Ho3Lu5Cd2RuPt
_symmetry_space_group_name_H-M   'P 1'
_cell_length_a   9.51282928
_cell_length_b   9.51282936
_cell_length_c   9.56973000
_cell_angle_alpha   59.80193672
_cell_angle_beta   59.80193644
_cell_angle_gamma   59.59050081
_symmetry_Int_Tables_number   1
_chemical_formula_structural   Ho3Lu5Cd2RuPt
_chemical_formula_sum   'Ho6 Lu10 Cd4 Ru2 Pt2'
_cell_volume   608.61601509
_cell_formula_units_Z   2
loop_
 _symmetry_equiv_pos_site_id
 _symmetry_equiv_pos_as_xyz
  1  'x, y, z'
loop_
 _atom_site_type_symbol
 _atom_site_label
 _atom_site_symmetry_multiplicity
 _atom_site_fract_x
 _atom_site_fract_y
 _atom_site_fract_z
 _atom_site_occupancy
  Ho  Ho0  1  0.188265  0.807608  0.815609  1
  Ho  Ho1  1  0.807608  0.188265  0.188518  1
  Ho  Ho2  1  0.807608  0.188265  0.815609  1
  Ho  Ho3  1  0.188265  0.807608  0.188518  1
  Ho  Ho4  1  0.812582  0.812582  0.187418  1
  Ho  Ho5  1  0.189374  0.189374  0.810626  1
  Lu  Lu6  1  0.599708  0.599708  0.601576  1
  Lu  Lu7  1  0.599708  0.599708  0.199008  1
  Lu  Lu8  1  0.596727  0.205133  0.599070  1
  Lu  Lu9  1  0.205133  0.596727  0.599070  1
  Lu  Lu10  1  0.066971  0.435867  0.438387  1
  Lu  Lu11  1  0.435867  0.066971  0.058774  1
  Lu  Lu12  1  0.435867  0.066971  0.438387  1
  Lu  Lu13  1  0.066971  0.435867  0.058774  1
  Lu  Lu14  1  0.436073  0.436073  0.063927  1
  Lu  Lu15  1  0.060482  0.060482  0.439518  1
  Cd  Cd16  1  0.829109  0.829109  0.831358  1
  Cd  Cd17  1  0.829109  0.829109  0.510425  1
  Cd  Cd18  1  0.830405  0.506111  0.831741  1
  Cd  Cd19  1  0.506111  0.830405  0.831741  1
  Ru  Ru20  1  0.394577  0.394577  0.388520  1
  Ru  Ru21  1  0.394577  0.394577  0.822327  1
  Pt  Pt22  1  0.395260  0.823644  0.390548  1
  Pt  Pt23  1  0.823644  0.395260  0.390548  1
