# generated using pymatgen
data_Nb8CoIrS16
_symmetry_space_group_name_H-M   'P 1'
_cell_length_a   6.69414500
_cell_length_b   6.69414471
_cell_length_c   11.92349000
_cell_angle_alpha   90.00000000
_cell_angle_beta   90.00000000
_cell_angle_gamma   120.00000639
_symmetry_Int_Tables_number   1
_chemical_formula_structural   Nb8CoIrS16
_chemical_formula_sum   'Nb8 Co1 Ir1 S16'
_cell_volume   462.72632434
_cell_formula_units_Z   1
loop_
 _symmetry_equiv_pos_site_id
 _symmetry_equiv_pos_as_xyz
  1  'x, y, z'
loop_
 _atom_site_type_symbol
 _atom_site_label
 _atom_site_symmetry_multiplicity
 _atom_site_fract_x
 _atom_site_fract_y
 _atom_site_fract_z
 _atom_site_occupancy
  Nb  Nb0  1  0.014098  0.507049  0.250587  1
  Nb  Nb1  1  0.985902  0.492951  0.749413  1
  Nb  Nb2  1  0.492951  0.507049  0.250587  1
  Nb  Nb3  1  0.507049  0.492951  0.749413  1
  Nb  Nb4  1  0.492951  0.985902  0.250587  1
  Nb  Nb5  1  0.507049  0.014098  0.749413  1
  Nb  Nb6  1  0.000000  0.000000  0.252064  1
  Nb  Nb7  1  0.000000  0.000000  0.747936  1
  Co  Co8  1  0.000000  0.000000  0.500000  1
  Ir  Ir9  1  0.000000  0.000000  0.000000  1
  S  S10  1  0.333835  0.166918  0.119660  1
  S  S11  1  0.666165  0.833082  0.880340  1
  S  S12  1  0.833082  0.166918  0.119660  1
  S  S13  1  0.667850  0.833925  0.618265  1
  S  S14  1  0.166918  0.833082  0.880340  1
  S  S15  1  0.332150  0.166075  0.381735  1
  S  S16  1  0.833082  0.666165  0.119660  1
  S  S17  1  0.166075  0.833925  0.618265  1
  S  S18  1  0.166918  0.333835  0.880340  1
  S  S19  1  0.833925  0.166075  0.381735  1
  S  S20  1  0.166075  0.332150  0.618265  1
  S  S21  1  0.833925  0.667850  0.381735  1
  S  S22  1  0.333333  0.666667  0.114511  1
  S  S23  1  0.666667  0.333333  0.885489  1
  S  S24  1  0.666667  0.333333  0.613924  1
  S  S25  1  0.333333  0.666667  0.386076  1
