# generated using pymatgen
data_Hf6TiNb3(GaSi2)2
_symmetry_space_group_name_H-M   'P 1'
_cell_length_a   7.84862031
_cell_length_b   7.84862084
_cell_length_c   5.35768700
_cell_angle_alpha   89.99837716
_cell_angle_beta   89.99837922
_cell_angle_gamma   120.23920085
_symmetry_Int_Tables_number   1
_chemical_formula_structural   Hf6TiNb3(GaSi2)2
_chemical_formula_sum   'Hf6 Ti1 Nb3 Ga2 Si4'
_cell_volume   285.12991456
_cell_formula_units_Z   1
loop_
 _symmetry_equiv_pos_site_id
 _symmetry_equiv_pos_as_xyz
  1  'x, y, z'
loop_
 _atom_site_type_symbol
 _atom_site_label
 _atom_site_symmetry_multiplicity
 _atom_site_fract_x
 _atom_site_fract_y
 _atom_site_fract_z
 _atom_site_occupancy
  Hf  Hf0  1  0.253636  0.999181  0.249040  1
  Hf  Hf1  1  0.747360  0.002527  0.751653  1
  Hf  Hf2  1  0.997473  0.252640  0.248347  1
  Hf  Hf3  1  0.000819  0.746364  0.750960  1
  Hf  Hf4  1  0.755473  0.754658  0.247920  1
  Hf  Hf5  1  0.245342  0.244527  0.752080  1
  Ti  Ti6  1  0.329461  0.670539  0.500000  1
  Nb  Nb7  1  0.329203  0.670797  0.000000  1
  Nb  Nb8  1  0.670604  0.329396  0.000000  1
  Nb  Nb9  1  0.670636  0.329364  0.500000  1
  Ga  Ga10  1  0.398144  0.400077  0.252279  1
  Ga  Ga11  1  0.599923  0.601856  0.747721  1
  Si  Si12  1  0.603789  0.995730  0.251667  1
  Si  Si13  1  0.394431  0.000563  0.748434  1
  Si  Si14  1  0.999437  0.605569  0.251566  1
  Si  Si15  1  0.004270  0.396211  0.748333  1
