# generated using pymatgen
data_TmSc(Cu2P)4
_symmetry_space_group_name_H-M   'P 1'
_cell_length_a   7.16636686
_cell_length_b   7.16636750
_cell_length_c   3.74397500
_cell_angle_alpha   90.00000000
_cell_angle_beta   90.00000000
_cell_angle_gamma   89.54669886
_symmetry_Int_Tables_number   1
_chemical_formula_structural   TmSc(Cu2P)4
_chemical_formula_sum   'Tm1 Sc1 Cu8 P4'
_cell_volume   192.27262706
_cell_formula_units_Z   1
loop_
 _symmetry_equiv_pos_site_id
 _symmetry_equiv_pos_as_xyz
  1  'x, y, z'
loop_
 _atom_site_type_symbol
 _atom_site_label
 _atom_site_symmetry_multiplicity
 _atom_site_fract_x
 _atom_site_fract_y
 _atom_site_fract_z
 _atom_site_occupancy
  Tm  Tm0  1  0.500000  0.500000  0.000000  1
  Sc  Sc1  1  0.000000  0.000000  0.500000  1
  Cu  Cu2  1  0.587831  0.163576  0.500000  1
  Cu  Cu3  1  0.412169  0.836424  0.500000  1
  Cu  Cu4  1  0.086027  0.335361  0.000000  1
  Cu  Cu5  1  0.913973  0.664639  0.000000  1
  Cu  Cu6  1  0.163576  0.587831  0.500000  1
  Cu  Cu7  1  0.836424  0.412169  0.500000  1
  Cu  Cu8  1  0.335361  0.086027  0.000000  1
  Cu  Cu9  1  0.664639  0.913973  0.000000  1
  P  P10  1  0.713439  0.713439  0.500000  1
  P  P11  1  0.286561  0.286561  0.500000  1
  P  P12  1  0.205995  0.794005  0.000000  1
  P  P13  1  0.794005  0.205995  0.000000  1
