# generated using pymatgen
data_Gd5(Ge5Rh2)2
_symmetry_space_group_name_H-M   'P 1'
_cell_length_a   13.17765400
_cell_length_b   13.17765400
_cell_length_c   4.32855500
_cell_angle_alpha   90.00000000
_cell_angle_beta   90.00000000
_cell_angle_gamma   90.00000000
_symmetry_Int_Tables_number   1
_chemical_formula_structural   Gd5(Ge5Rh2)2
_chemical_formula_sum   'Gd10 Ge20 Rh8'
_cell_volume   751.65602114
_cell_formula_units_Z   2
loop_
 _symmetry_equiv_pos_site_id
 _symmetry_equiv_pos_as_xyz
  1  'x, y, z'
loop_
 _atom_site_type_symbol
 _atom_site_label
 _atom_site_symmetry_multiplicity
 _atom_site_fract_x
 _atom_site_fract_y
 _atom_site_fract_z
 _atom_site_occupancy
  Gd  Gd0  1  0.500000  0.500000  0.000000  1
  Gd  Gd1  1  0.000000  0.000000  0.000000  1
  Gd  Gd2  1  0.675824  0.175824  0.500000  1
  Gd  Gd3  1  0.324176  0.824176  0.500000  1
  Gd  Gd4  1  0.175824  0.324176  0.500000  1
  Gd  Gd5  1  0.824176  0.675824  0.500000  1
  Gd  Gd6  1  0.886496  0.386496  0.500000  1
  Gd  Gd7  1  0.113504  0.613504  0.500000  1
  Gd  Gd8  1  0.386496  0.113504  0.500000  1
  Gd  Gd9  1  0.613504  0.886496  0.500000  1
  Ge  Ge10  1  0.566499  0.066499  0.000000  1
  Ge  Ge11  1  0.433501  0.933501  0.000000  1
  Ge  Ge12  1  0.066499  0.433501  0.000000  1
  Ge  Ge13  1  0.933501  0.566499  0.000000  1
  Ge  Ge14  1  0.660680  0.700213  0.000000  1
  Ge  Ge15  1  0.339320  0.299787  0.000000  1
  Ge  Ge16  1  0.160680  0.799787  0.000000  1
  Ge  Ge17  1  0.839320  0.200213  0.000000  1
  Ge  Ge18  1  0.299787  0.660680  0.000000  1
  Ge  Ge19  1  0.700213  0.339320  0.000000  1
  Ge  Ge20  1  0.200213  0.160680  0.000000  1
  Ge  Ge21  1  0.799787  0.839320  0.000000  1
  Ge  Ge22  1  0.659646  0.502766  0.500000  1
  Ge  Ge23  1  0.340354  0.497234  0.500000  1
  Ge  Ge24  1  0.159646  0.997234  0.500000  1
  Ge  Ge25  1  0.840354  0.002766  0.500000  1
  Ge  Ge26  1  0.497234  0.659646  0.500000  1
  Ge  Ge27  1  0.502766  0.340354  0.500000  1
  Ge  Ge28  1  0.002766  0.159646  0.500000  1
  Ge  Ge29  1  0.997234  0.840354  0.500000  1
  Rh  Rh30  1  0.746086  0.522174  0.000000  1
  Rh  Rh31  1  0.253914  0.477826  0.000000  1
  Rh  Rh32  1  0.246086  0.977826  0.000000  1
  Rh  Rh33  1  0.753914  0.022174  0.000000  1
  Rh  Rh34  1  0.477826  0.746086  0.000000  1
  Rh  Rh35  1  0.522174  0.253914  0.000000  1
  Rh  Rh36  1  0.022174  0.246086  0.000000  1
  Rh  Rh37  1  0.977826  0.753914  0.000000  1
