# generated using pymatgen
data_LaHgPt2O7
_symmetry_space_group_name_H-M   'P 1'
_cell_length_a   7.40615923
_cell_length_b   7.56312040
_cell_length_c   7.40615972
_cell_angle_alpha   59.29642177
_cell_angle_beta   59.49471119
_cell_angle_gamma   59.29641842
_symmetry_Int_Tables_number   1
_chemical_formula_structural   LaHgPt2O7
_chemical_formula_sum   'La2 Hg2 Pt4 O14'
_cell_volume   289.08181307
_cell_formula_units_Z   2
loop_
 _symmetry_equiv_pos_site_id
 _symmetry_equiv_pos_as_xyz
  1  'x, y, z'
loop_
 _atom_site_type_symbol
 _atom_site_label
 _atom_site_symmetry_multiplicity
 _atom_site_fract_x
 _atom_site_fract_y
 _atom_site_fract_z
 _atom_site_occupancy
  La  La0  1  0.125000  0.125000  0.125000  1
  La  La1  1  0.125000  0.625000  0.125000  1
  Hg  Hg2  1  0.625000  0.125000  0.125000  1
  Hg  Hg3  1  0.125000  0.125000  0.625000  1
  Pt  Pt4  1  0.625000  0.625000  0.125000  1
  Pt  Pt5  1  0.625000  0.625000  0.625000  1
  Pt  Pt6  1  0.625000  0.125000  0.625000  1
  Pt  Pt7  1  0.125000  0.625000  0.625000  1
  O  O8  1  0.709173  0.298930  0.295642  1
  O  O9  1  0.709173  0.696255  0.295642  1
  O  O10  1  0.289116  0.710884  0.289116  1
  O  O11  1  0.986167  0.013833  0.986167  1
  O  O12  1  0.700261  0.299739  0.700261  1
  O  O13  1  0.954358  0.553745  0.540827  1
  O  O14  1  0.295642  0.696255  0.709173  1
  O  O15  1  0.549739  0.950261  0.549739  1
  O  O16  1  0.263833  0.236167  0.263833  1
  O  O17  1  0.960884  0.539116  0.960884  1
  O  O18  1  0.540827  0.553745  0.954358  1
  O  O19  1  0.954358  0.951070  0.540827  1
  O  O20  1  0.540827  0.951070  0.954358  1
  O  O21  1  0.295642  0.298930  0.709173  1
