# generated using pymatgen
data_Lu2Th2Re15Si8Ru
_symmetry_space_group_name_H-M   'P 1'
_cell_length_a   4.13274200
_cell_length_b   7.28753529
_cell_length_c   15.41269235
_cell_angle_alpha   90.66892215
_cell_angle_beta   90.00000000
_cell_angle_gamma   90.00000000
_symmetry_Int_Tables_number   1
_chemical_formula_structural   Lu2Th2Re15Si8Ru
_chemical_formula_sum   'Lu2 Th2 Re15 Si8 Ru1'
_cell_volume   464.16017546
_cell_formula_units_Z   1
loop_
 _symmetry_equiv_pos_site_id
 _symmetry_equiv_pos_as_xyz
  1  'x, y, z'
loop_
 _atom_site_type_symbol
 _atom_site_label
 _atom_site_symmetry_multiplicity
 _atom_site_fract_x
 _atom_site_fract_y
 _atom_site_fract_z
 _atom_site_occupancy
  Lu  Lu0  1  0.000000  0.580439  0.116104  1
  Lu  Lu1  1  0.000000  0.418854  0.884385  1
  Th  Th2  1  0.500000  0.081548  0.378419  1
  Th  Th3  1  0.500000  0.918381  0.621403  1
  Re  Re4  1  0.000000  0.854839  0.951971  1
  Re  Re5  1  0.500000  0.641411  0.448480  1
  Re  Re6  1  0.500000  0.358639  0.551317  1
  Re  Re7  1  0.000000  0.737647  0.318333  1
  Re  Re8  1  0.000000  0.264367  0.681043  1
  Re  Re9  1  0.500000  0.238560  0.174424  1
  Re  Re10  1  0.500000  0.759683  0.826198  1
  Re  Re11  1  0.000000  0.426522  0.417680  1
  Re  Re12  1  0.000000  0.573320  0.582276  1
  Re  Re13  1  0.500000  0.931423  0.081554  1
  Re  Re14  1  0.500000  0.065795  0.920319  1
  Re  Re15  1  0.000000  0.987632  0.200307  1
  Re  Re16  1  0.000000  0.012210  0.797467  1
  Re  Re17  1  0.500000  0.493030  0.290995  1
  Re  Re18  1  0.500000  0.505543  0.708981  1
  Si  Si19  1  0.000000  0.829509  0.475131  1
  Si  Si20  1  0.000000  0.169883  0.524399  1
  Si  Si21  1  0.500000  0.335818  0.022204  1
  Si  Si22  1  0.500000  0.660739  0.979111  1
  Si  Si23  1  0.000000  0.299008  0.267029  1
  Si  Si24  1  0.000000  0.700784  0.732697  1
  Si  Si25  1  0.500000  0.784758  0.221341  1
  Si  Si26  1  0.500000  0.211059  0.778632  1
  Ru  Ru27  1  0.000000  0.158597  0.047803  1
