# generated using pymatgen
data_Dy3YGa18Co5Pt
_symmetry_space_group_name_H-M   'P 1'
_cell_length_a   7.41766378
_cell_length_b   7.41768472
_cell_length_c   9.41457700
_cell_angle_alpha   90.11519496
_cell_angle_beta   90.11789152
_cell_angle_gamma   119.68820798
_symmetry_Int_Tables_number   1
_chemical_formula_structural   Dy3YGa18Co5Pt
_chemical_formula_sum   'Dy3 Y1 Ga18 Co5 Pt1'
_cell_volume   450.00705059
_cell_formula_units_Z   1
loop_
 _symmetry_equiv_pos_site_id
 _symmetry_equiv_pos_as_xyz
  1  'x, y, z'
loop_
 _atom_site_type_symbol
 _atom_site_label
 _atom_site_symmetry_multiplicity
 _atom_site_fract_x
 _atom_site_fract_y
 _atom_site_fract_z
 _atom_site_occupancy
  Dy  Dy0  1  0.996963  0.672981  0.748846  1
  Dy  Dy1  1  0.672977  0.996960  0.748852  1
  Dy  Dy2  1  0.003046  0.327007  0.251162  1
  Y  Y3  1  0.327013  0.003072  0.251143  1
  Ga  Ga4  1  0.344908  0.999465  0.923282  1
  Ga  Ga5  1  0.000451  0.655022  0.076595  1
  Ga  Ga6  1  0.335705  0.997861  0.571883  1
  Ga  Ga7  1  0.002057  0.664223  0.428243  1
  Ga  Ga8  1  0.655172  0.000500  0.076583  1
  Ga  Ga9  1  0.999474  0.344902  0.923349  1
  Ga  Ga10  1  0.664403  0.002212  0.428248  1
  Ga  Ga11  1  0.997778  0.335664  0.571800  1
  Ga  Ga12  1  0.656096  0.656111  0.936424  1
  Ga  Ga13  1  0.343896  0.343975  0.063527  1
  Ga  Ga14  1  0.666746  0.666715  0.557489  1
  Ga  Ga15  1  0.333285  0.333319  0.442567  1
  Ga  Ga16  1  0.131333  0.131325  0.740881  1
  Ga  Ga17  1  0.868584  0.868665  0.259120  1
  Ga  Ga18  1  0.446583  0.664455  0.251770  1
  Ga  Ga19  1  0.335484  0.553444  0.748223  1
  Ga  Ga20  1  0.553453  0.335475  0.748180  1
  Ga  Ga21  1  0.664631  0.446655  0.251815  1
  Co  Co22  1  0.999971  0.999995  0.500027  1
  Co  Co23  1  0.329632  0.670346  0.999992  1
  Co  Co24  1  0.329263  0.670714  0.500017  1
  Co  Co25  1  0.670374  0.329651  0.999990  1
  Co  Co26  1  0.670761  0.329289  0.500020  1
  Pt  Pt27  1  0.999960  0.999997  0.999973  1
