# generated using pymatgen
data_NaYb5(Fe3N5)2
_symmetry_space_group_name_H-M   'P 1'
_cell_length_a   5.42567093
_cell_length_b   6.77320342
_cell_length_c   8.12774733
_cell_angle_alpha   108.52425322
_cell_angle_beta   104.91306735
_cell_angle_gamma   95.22005114
_symmetry_Int_Tables_number   1
_chemical_formula_structural   NaYb5(Fe3N5)2
_chemical_formula_sum   'Na1 Yb5 Fe6 N10'
_cell_volume   268.76557769
_cell_formula_units_Z   1
loop_
 _symmetry_equiv_pos_site_id
 _symmetry_equiv_pos_as_xyz
  1  'x, y, z'
loop_
 _atom_site_type_symbol
 _atom_site_label
 _atom_site_symmetry_multiplicity
 _atom_site_fract_x
 _atom_site_fract_y
 _atom_site_fract_z
 _atom_site_occupancy
  Na  Na0  1  0.756171  0.418807  0.594649  1
  Yb  Yb1  1  0.166463  0.582425  0.381778  1
  Yb  Yb2  1  0.672748  0.873729  0.884993  1
  Yb  Yb3  1  0.333265  0.137621  0.128035  1
  Yb  Yb4  1  0.649003  0.674538  0.197330  1
  Yb  Yb5  1  0.312315  0.337194  0.782389  1
  Fe  Fe6  1  0.896258  0.322701  0.974642  1
  Fe  Fe7  1  0.085179  0.675578  0.025897  1
  Fe  Fe8  1  0.698114  0.945016  0.570789  1
  Fe  Fe9  1  0.323899  0.036322  0.429407  1
  Fe  Fe10  1  0.115700  0.882843  0.713068  1
  Fe  Fe11  1  0.901689  0.120617  0.301107  1
  N  N12  1  0.945985  0.108601  0.793784  1
  N  N13  1  0.058362  0.880227  0.220316  1
  N  N14  1  0.837290  0.710511  0.509157  1
  N  N15  1  0.213546  0.291162  0.466537  1
  N  N16  1  0.741943  0.531825  0.906347  1
  N  N17  1  0.247297  0.463802  0.090812  1
  N  N18  1  0.378724  0.938373  0.621971  1
  N  N19  1  0.635709  0.050491  0.380394  1
  N  N20  1  0.238301  0.779300  0.894356  1
  N  N21  1  0.792039  0.238316  0.132243  1
