# generated using pymatgen
data_Er8Ga12CoPt3
_symmetry_space_group_name_H-M   'P 1'
_cell_length_a   6.99498100
_cell_length_b   8.80506751
_cell_length_c   8.80506700
_cell_angle_alpha   120.00000185
_cell_angle_beta   90.00000000
_cell_angle_gamma   90.00000000
_symmetry_Int_Tables_number   1
_chemical_formula_structural   Er8Ga12CoPt3
_chemical_formula_sum   'Er8 Ga12 Co1 Pt3'
_cell_volume   469.65885792
_cell_formula_units_Z   1
loop_
 _symmetry_equiv_pos_site_id
 _symmetry_equiv_pos_as_xyz
  1  'x, y, z'
loop_
 _atom_site_type_symbol
 _atom_site_label
 _atom_site_symmetry_multiplicity
 _atom_site_fract_x
 _atom_site_fract_y
 _atom_site_fract_z
 _atom_site_occupancy
  Er  Er0  1  0.742809  0.000000  0.000000  1
  Er  Er1  1  0.248155  0.000000  0.000000  1
  Er  Er2  1  0.751381  0.480140  0.519860  1
  Er  Er3  1  0.254407  0.523060  0.476940  1
  Er  Er4  1  0.751381  0.039721  0.519860  1
  Er  Er5  1  0.254407  0.953880  0.476940  1
  Er  Er6  1  0.751381  0.480140  0.960279  1
  Er  Er7  1  0.254407  0.523060  0.046120  1
  Ga  Ga8  1  0.952535  0.833555  0.166445  1
  Ga  Ga9  1  0.048359  0.167233  0.832767  1
  Ga  Ga10  1  0.952535  0.332892  0.166445  1
  Ga  Ga11  1  0.454228  0.166348  0.833652  1
  Ga  Ga12  1  0.048359  0.665532  0.832767  1
  Ga  Ga13  1  0.545586  0.826214  0.173786  1
  Ga  Ga14  1  0.952535  0.833555  0.667108  1
  Ga  Ga15  1  0.454228  0.667303  0.833652  1
  Ga  Ga16  1  0.048359  0.167233  0.334468  1
  Ga  Ga17  1  0.545586  0.347573  0.173786  1
  Ga  Ga18  1  0.454228  0.166348  0.332697  1
  Ga  Ga19  1  0.545586  0.826214  0.652427  1
  Co  Co20  1  0.521500  0.666667  0.333333  1
  Pt  Pt21  1  0.966900  0.666667  0.333333  1
  Pt  Pt22  1  0.030768  0.333333  0.666667  1
  Pt  Pt23  1  0.470385  0.333333  0.666667  1
