# generated using pymatgen
data_AcNd(AsPt)2
_symmetry_space_group_name_H-M   'P 1'
_cell_length_a   4.41285200
_cell_length_b   4.41285119
_cell_length_c   16.40062000
_cell_angle_alpha   90.00000000
_cell_angle_beta   90.00000000
_cell_angle_gamma   120.00000607
_symmetry_Int_Tables_number   1
_chemical_formula_structural   AcNd(AsPt)2
_chemical_formula_sum   'Ac2 Nd2 As4 Pt4'
_cell_volume   276.58556842
_cell_formula_units_Z   2
loop_
 _symmetry_equiv_pos_site_id
 _symmetry_equiv_pos_as_xyz
  1  'x, y, z'
loop_
 _atom_site_type_symbol
 _atom_site_label
 _atom_site_symmetry_multiplicity
 _atom_site_fract_x
 _atom_site_fract_y
 _atom_site_fract_z
 _atom_site_occupancy
  Ac  Ac0  1  0.000000  0.000000  0.250000  1
  Ac  Ac1  1  0.000000  0.000000  0.750000  1
  Nd  Nd2  1  0.000000  0.000000  0.500000  1
  Nd  Nd3  1  0.000000  0.000000  0.000000  1
  As  As4  1  0.333333  0.666667  0.884691  1
  As  As5  1  0.666667  0.333333  0.115309  1
  As  As6  1  0.666667  0.333333  0.384691  1
  As  As7  1  0.333333  0.666667  0.615309  1
  Pt  Pt8  1  0.333333  0.666667  0.377533  1
  Pt  Pt9  1  0.666667  0.333333  0.622467  1
  Pt  Pt10  1  0.666667  0.333333  0.877533  1
  Pt  Pt11  1  0.333333  0.666667  0.122467  1
