# generated using pymatgen
data_PmThAu4
_symmetry_space_group_name_H-M   'P 1'
_cell_length_a   4.78812100
_cell_length_b   4.78812262
_cell_length_c   7.01858400
_cell_angle_alpha   90.00000000
_cell_angle_beta   90.00000000
_cell_angle_gamma   119.99999574
_symmetry_Int_Tables_number   1
_chemical_formula_structural   PmThAu4
_chemical_formula_sum   'Pm1 Th1 Au4'
_cell_volume   139.35114217
_cell_formula_units_Z   1
loop_
 _symmetry_equiv_pos_site_id
 _symmetry_equiv_pos_as_xyz
  1  'x, y, z'
loop_
 _atom_site_type_symbol
 _atom_site_label
 _atom_site_symmetry_multiplicity
 _atom_site_fract_x
 _atom_site_fract_y
 _atom_site_fract_z
 _atom_site_occupancy
  Pm  Pm0  1  0.000000  0.000000  0.500000  1
  Th  Th1  1  0.000000  0.000000  0.000000  1
  Au  Au2  1  0.666666  0.333332  0.249048  1
  Au  Au3  1  0.333333  0.666667  0.249048  1
  Au  Au4  1  0.666666  0.333332  0.750952  1
  Au  Au5  1  0.333333  0.666667  0.750952  1
