# generated using pymatgen
data_Pr4LuGa2Sn
_symmetry_space_group_name_H-M   'P 1'
_cell_length_a   8.02265400
_cell_length_b   8.02265400
_cell_length_c   14.58996100
_cell_angle_alpha   90.00000000
_cell_angle_beta   90.00000000
_cell_angle_gamma   90.00000000
_symmetry_Int_Tables_number   1
_chemical_formula_structural   Pr4LuGa2Sn
_chemical_formula_sum   'Pr16 Lu4 Ga8 Sn4'
_cell_volume   939.05332725
_cell_formula_units_Z   4
loop_
 _symmetry_equiv_pos_site_id
 _symmetry_equiv_pos_as_xyz
  1  'x, y, z'
loop_
 _atom_site_type_symbol
 _atom_site_label
 _atom_site_symmetry_multiplicity
 _atom_site_fract_x
 _atom_site_fract_y
 _atom_site_fract_z
 _atom_site_occupancy
  Pr  Pr0  1  0.825458  0.839236  0.606512  1
  Pr  Pr1  1  0.174542  0.839236  0.106512  1
  Pr  Pr2  1  0.160764  0.825458  0.393488  1
  Pr  Pr3  1  0.839236  0.174542  0.393488  1
  Pr  Pr4  1  0.674542  0.660764  0.393488  1
  Pr  Pr5  1  0.660764  0.325458  0.606512  1
  Pr  Pr6  1  0.339236  0.674542  0.606512  1
  Pr  Pr7  1  0.660764  0.674542  0.106512  1
  Pr  Pr8  1  0.674542  0.339236  0.893488  1
  Pr  Pr9  1  0.839236  0.825458  0.893488  1
  Pr  Pr10  1  0.325458  0.339236  0.393488  1
  Pr  Pr11  1  0.174542  0.160764  0.606512  1
  Pr  Pr12  1  0.825458  0.160764  0.106512  1
  Pr  Pr13  1  0.325458  0.660764  0.893488  1
  Pr  Pr14  1  0.339236  0.325458  0.106512  1
  Pr  Pr15  1  0.160764  0.174542  0.893488  1
  Lu  Lu16  1  0.000000  0.500000  0.733843  1
  Lu  Lu17  1  0.000000  0.500000  0.233843  1
  Lu  Lu18  1  0.500000  0.000000  0.266157  1
  Lu  Lu19  1  0.500000  0.000000  0.766157  1
  Ga  Ga20  1  0.627467  0.372533  0.250000  1
  Ga  Ga21  1  0.127467  0.872533  0.750000  1
  Ga  Ga22  1  0.372533  0.372533  0.750000  1
  Ga  Ga23  1  0.372533  0.627467  0.250000  1
  Ga  Ga24  1  0.872533  0.872533  0.250000  1
  Ga  Ga25  1  0.627467  0.627467  0.750000  1
  Ga  Ga26  1  0.872533  0.127467  0.750000  1
  Ga  Ga27  1  0.127467  0.127467  0.250000  1
  Sn  Sn28  1  0.000000  0.500000  0.508204  1
  Sn  Sn29  1  0.500000  0.000000  0.491796  1
  Sn  Sn30  1  0.500000  0.000000  0.991796  1
  Sn  Sn31  1  0.000000  0.500000  0.008204  1
