# generated using pymatgen
data_Dy6Sc4In8PtRh3
_symmetry_space_group_name_H-M   'P 1'
_cell_length_a   3.57421900
_cell_length_b   7.94707833
_cell_length_c   17.93351113
_cell_angle_alpha   90.04006053
_cell_angle_beta   90.00000000
_cell_angle_gamma   90.00000000
_symmetry_Int_Tables_number   1
_chemical_formula_structural   Dy6Sc4In8PtRh3
_chemical_formula_sum   'Dy6 Sc4 In8 Pt1 Rh3'
_cell_volume   509.39405625
_cell_formula_units_Z   1
loop_
 _symmetry_equiv_pos_site_id
 _symmetry_equiv_pos_as_xyz
  1  'x, y, z'
loop_
 _atom_site_type_symbol
 _atom_site_label
 _atom_site_symmetry_multiplicity
 _atom_site_fract_x
 _atom_site_fract_y
 _atom_site_fract_z
 _atom_site_occupancy
  Dy  Dy0  1  0.000000  0.239218  0.219075  1
  Dy  Dy1  1  0.000000  0.755284  0.781460  1
  Dy  Dy2  1  0.000000  0.254928  0.718546  1
  Dy  Dy3  1  0.000000  0.748907  0.282955  1
  Dy  Dy4  1  0.000000  0.999921  0.999555  1
  Dy  Dy5  1  0.000000  0.500419  0.500185  1
  Sc  Sc6  1  0.000000  0.117011  0.411064  1
  Sc  Sc7  1  0.000000  0.882823  0.590567  1
  Sc  Sc8  1  0.000000  0.383129  0.909157  1
  Sc  Sc9  1  0.000000  0.619555  0.086930  1
  In  In10  1  0.500000  0.415461  0.351186  1
  In  In11  1  0.500000  0.580646  0.649892  1
  In  In12  1  0.500000  0.081077  0.850024  1
  In  In13  1  0.500000  0.919642  0.149741  1
  In  In14  1  0.500000  0.306647  0.060257  1
  In  In15  1  0.500000  0.692684  0.937457  1
  In  In16  1  0.500000  0.192769  0.562287  1
  In  In17  1  0.500000  0.807923  0.438432  1
  Pt  Pt18  1  0.500000  0.530159  0.192534  1
  Rh  Rh19  1  0.500000  0.029650  0.309043  1
  Rh  Rh20  1  0.500000  0.971267  0.691581  1
  Rh  Rh21  1  0.500000  0.470878  0.808072  1
