# generated using pymatgen
data_MnCrCuSe4
_symmetry_space_group_name_H-M   'P 1'
_cell_length_a   7.37643282
_cell_length_b   7.37643292
_cell_length_c   7.37643333
_cell_angle_alpha   119.95880913
_cell_angle_beta   119.82082339
_cell_angle_gamma   90.19098633
_symmetry_Int_Tables_number   1
_chemical_formula_structural   MnCrCuSe4
_chemical_formula_sum   'Mn2 Cr2 Cu2 Se8'
_cell_volume   284.27817492
_cell_formula_units_Z   2
loop_
 _symmetry_equiv_pos_site_id
 _symmetry_equiv_pos_as_xyz
  1  'x, y, z'
loop_
 _atom_site_type_symbol
 _atom_site_label
 _atom_site_symmetry_multiplicity
 _atom_site_fract_x
 _atom_site_fract_y
 _atom_site_fract_z
 _atom_site_occupancy
  Mn  Mn0  1  0.000000  0.000000  0.000000  1
  Mn  Mn1  1  0.500000  0.000000  0.500000  1
  Cr  Cr2  1  0.000000  0.000000  0.500000  1
  Cr  Cr3  1  0.000000  0.500000  0.000000  1
  Cu  Cu4  1  0.377338  0.627338  0.750000  1
  Cu  Cu5  1  0.622662  0.372662  0.250000  1
  Se  Se6  1  0.243056  0.760182  0.017126  1
  Se  Se7  1  0.243056  0.225930  0.482874  1
  Se  Se8  1  0.241297  0.758802  0.482495  1
  Se  Se9  1  0.776307  0.758802  0.017505  1
  Se  Se10  1  0.756944  0.239818  0.982874  1
  Se  Se11  1  0.756944  0.774070  0.517126  1
  Se  Se12  1  0.758703  0.241198  0.517505  1
  Se  Se13  1  0.223693  0.241198  0.982495  1
