# generated using pymatgen
data_LiDy3Cd3HgAu
_symmetry_space_group_name_H-M   'P 1'
_cell_length_a   7.99854800
_cell_length_b   7.99854784
_cell_length_c   3.77730200
_cell_angle_alpha   90.00000000
_cell_angle_beta   90.00000000
_cell_angle_gamma   120.00000893
_symmetry_Int_Tables_number   1
_chemical_formula_structural   LiDy3Cd3HgAu
_chemical_formula_sum   'Li1 Dy3 Cd3 Hg1 Au1'
_cell_volume   209.28331380
_cell_formula_units_Z   1
loop_
 _symmetry_equiv_pos_site_id
 _symmetry_equiv_pos_as_xyz
  1  'x, y, z'
loop_
 _atom_site_type_symbol
 _atom_site_label
 _atom_site_symmetry_multiplicity
 _atom_site_fract_x
 _atom_site_fract_y
 _atom_site_fract_z
 _atom_site_occupancy
  Li  Li0  1  0.000000  0.000000  0.000000  1
  Dy  Dy1  1  0.596680  0.015000  0.000000  1
  Dy  Dy2  1  0.985000  0.581680  0.000000  1
  Dy  Dy3  1  0.418320  0.403320  0.000000  1
  Cd  Cd4  1  0.248170  0.997332  0.500000  1
  Cd  Cd5  1  0.002668  0.250838  0.500000  1
  Cd  Cd6  1  0.749162  0.751830  0.500000  1
  Hg  Hg7  1  0.333333  0.666667  0.500000  1
  Au  Au8  1  0.666667  0.333333  0.500000  1
