# generated using pymatgen
data_Tb19MgRu12
_symmetry_space_group_name_H-M   'P 1'
_cell_length_a   10.81996900
_cell_length_b   10.81996900
_cell_length_c   6.35681400
_cell_angle_alpha   90.00000000
_cell_angle_beta   90.00000000
_cell_angle_gamma   90.00000000
_symmetry_Int_Tables_number   1
_chemical_formula_structural   Tb19MgRu12
_chemical_formula_sum   'Tb19 Mg1 Ru12'
_cell_volume   744.20320693
_cell_formula_units_Z   1
loop_
 _symmetry_equiv_pos_site_id
 _symmetry_equiv_pos_as_xyz
  1  'x, y, z'
loop_
 _atom_site_type_symbol
 _atom_site_label
 _atom_site_symmetry_multiplicity
 _atom_site_fract_x
 _atom_site_fract_y
 _atom_site_fract_z
 _atom_site_occupancy
  Tb  Tb0  1  0.283675  0.084282  0.378814  1
  Tb  Tb1  1  0.292624  0.913040  0.877981  1
  Tb  Tb2  1  0.707376  0.086960  0.877981  1
  Tb  Tb3  1  0.716325  0.915718  0.378814  1
  Tb  Tb4  1  0.587780  0.792577  0.876639  1
  Tb  Tb5  1  0.585808  0.207574  0.376561  1
  Tb  Tb6  1  0.414192  0.792426  0.376561  1
  Tb  Tb7  1  0.412220  0.207423  0.876639  1
  Tb  Tb8  1  0.207574  0.414192  0.623439  1
  Tb  Tb9  1  0.207423  0.587780  0.123361  1
  Tb  Tb10  1  0.792577  0.412220  0.123361  1
  Tb  Tb11  1  0.792426  0.585808  0.623439  1
  Tb  Tb12  1  0.913040  0.707376  0.122019  1
  Tb  Tb13  1  0.915718  0.283675  0.621186  1
  Tb  Tb14  1  0.084282  0.716325  0.621186  1
  Tb  Tb15  1  0.086960  0.292624  0.122019  1
  Tb  Tb16  1  0.000000  0.000000  0.000000  1
  Tb  Tb17  1  0.500000  0.500000  0.000000  1
  Tb  Tb18  1  0.500000  0.500000  0.500000  1
  Mg  Mg19  1  0.000000  0.000000  0.500000  1
  Ru  Ru20  1  0.846311  0.154949  0.243247  1
  Ru  Ru21  1  0.845051  0.846311  0.756753  1
  Ru  Ru22  1  0.154949  0.153689  0.756753  1
  Ru  Ru23  1  0.153689  0.845051  0.243247  1
  Ru  Ru24  1  0.654394  0.346631  0.749432  1
  Ru  Ru25  1  0.653369  0.654394  0.250568  1
  Ru  Ru26  1  0.346631  0.345606  0.250568  1
  Ru  Ru27  1  0.345606  0.653369  0.749432  1
  Ru  Ru28  1  0.500000  0.000000  0.125905  1
  Ru  Ru29  1  0.500000  0.000000  0.624149  1
  Ru  Ru30  1  0.000000  0.500000  0.874095  1
  Ru  Ru31  1  0.000000  0.500000  0.375851  1
