# generated using pymatgen
data_LaZnHgPt3
_symmetry_space_group_name_H-M   'P 1'
_cell_length_a   5.33793826
_cell_length_b   5.33793935
_cell_length_c   5.33793951
_cell_angle_alpha   62.97517578
_cell_angle_beta   62.97516738
_cell_angle_gamma   62.97517593
_symmetry_Int_Tables_number   1
_chemical_formula_structural   LaZnHgPt3
_chemical_formula_sum   'La1 Zn1 Hg1 Pt3'
_cell_volume   114.65387563
_cell_formula_units_Z   1
loop_
 _symmetry_equiv_pos_site_id
 _symmetry_equiv_pos_as_xyz
  1  'x, y, z'
loop_
 _atom_site_type_symbol
 _atom_site_label
 _atom_site_symmetry_multiplicity
 _atom_site_fract_x
 _atom_site_fract_y
 _atom_site_fract_z
 _atom_site_occupancy
  La  La0  1  0.996672  0.996672  0.996672  1
  Zn  Zn1  1  0.376852  0.376852  0.376852  1
  Hg  Hg2  1  0.747483  0.747483  0.747483  1
  Pt  Pt3  1  0.874698  0.377149  0.377149  1
  Pt  Pt4  1  0.377149  0.874698  0.377149  1
  Pt  Pt5  1  0.377149  0.377149  0.874698  1
