# generated using pymatgen
data_Dy5Er5(SnSb2)2
_symmetry_space_group_name_H-M   'P 1'
_cell_length_a   8.94041922
_cell_length_b   8.92902587
_cell_length_c   6.35291600
_cell_angle_alpha   90.00000000
_cell_angle_beta   90.00000000
_cell_angle_gamma   119.73959991
_symmetry_Int_Tables_number   1
_chemical_formula_structural   Dy5Er5(SnSb2)2
_chemical_formula_sum   'Dy5 Er5 Sn2 Sb4'
_cell_volume   440.35133032
_cell_formula_units_Z   1
loop_
 _symmetry_equiv_pos_site_id
 _symmetry_equiv_pos_as_xyz
  1  'x, y, z'
loop_
 _atom_site_type_symbol
 _atom_site_label
 _atom_site_symmetry_multiplicity
 _atom_site_fract_x
 _atom_site_fract_y
 _atom_site_fract_z
 _atom_site_occupancy
  Dy  Dy0  1  0.001173  0.756971  0.750000  1
  Dy  Dy1  1  0.000922  0.244271  0.250000  1
  Dy  Dy2  1  0.754421  0.755249  0.250000  1
  Dy  Dy3  1  0.755075  0.999432  0.750000  1
  Dy  Dy4  1  0.243885  0.001740  0.250000  1
  Er  Er5  1  0.245073  0.243294  0.750000  1
  Er  Er6  1  0.333940  0.667090  0.500158  1
  Er  Er7  1  0.665066  0.332327  0.000179  1
  Er  Er8  1  0.665066  0.332327  0.499821  1
  Er  Er9  1  0.333940  0.667090  0.999842  1
  Sn  Sn10  1  0.391318  0.999147  0.750000  1
  Sn  Sn11  1  0.391297  0.391913  0.250000  1
  Sb  Sb12  1  0.999573  0.609343  0.250000  1
  Sb  Sb13  1  0.999966  0.389984  0.750000  1
  Sb  Sb14  1  0.609838  0.609533  0.750000  1
  Sb  Sb15  1  0.609444  0.000289  0.250000  1
