# generated using pymatgen
data_Tm6ScVO12
_symmetry_space_group_name_H-M   'P 1'
_cell_length_a   6.47766170
_cell_length_b   6.47766073
_cell_length_c   6.47766243
_cell_angle_alpha   92.51659290
_cell_angle_beta   92.51658355
_cell_angle_gamma   92.51660590
_symmetry_Int_Tables_number   1
_chemical_formula_structural   Tm6ScVO12
_chemical_formula_sum   'Tm6 Sc1 V1 O12'
_cell_volume   270.99306680
_cell_formula_units_Z   1
loop_
 _symmetry_equiv_pos_site_id
 _symmetry_equiv_pos_as_xyz
  1  'x, y, z'
loop_
 _atom_site_type_symbol
 _atom_site_label
 _atom_site_symmetry_multiplicity
 _atom_site_fract_x
 _atom_site_fract_y
 _atom_site_fract_z
 _atom_site_occupancy
  Tm  Tm0  1  0.743977  0.928098  0.436672  1
  Tm  Tm1  1  0.928098  0.436672  0.743977  1
  Tm  Tm2  1  0.436672  0.743977  0.928098  1
  Tm  Tm3  1  0.256023  0.071902  0.563328  1
  Tm  Tm4  1  0.071902  0.563328  0.256023  1
  Tm  Tm5  1  0.563328  0.256023  0.071902  1
  Sc  Sc6  1  0.000000  0.000000  0.000000  1
  V  V7  1  0.500000  0.500000  0.500000  1
  O  O8  1  0.591096  0.461825  0.804067  1
  O  O9  1  0.461825  0.804067  0.591096  1
  O  O10  1  0.804067  0.591096  0.461825  1
  O  O11  1  0.408904  0.538175  0.195933  1
  O  O12  1  0.538175  0.195933  0.408904  1
  O  O13  1  0.195933  0.408904  0.538175  1
  O  O14  1  0.070008  0.913581  0.309787  1
  O  O15  1  0.913581  0.309787  0.070008  1
  O  O16  1  0.690213  0.929992  0.086419  1
  O  O17  1  0.086419  0.690213  0.929992  1
  O  O18  1  0.929992  0.086419  0.690213  1
  O  O19  1  0.309787  0.070008  0.913581  1
