# generated using pymatgen
data_NaMnCo4As3
_symmetry_space_group_name_H-M   'P 1'
_cell_length_a   3.72816400
_cell_length_b   10.73708600
_cell_length_c   12.39414300
_cell_angle_alpha   90.00000000
_cell_angle_beta   90.00000000
_cell_angle_gamma   90.00000000
_symmetry_Int_Tables_number   1
_chemical_formula_structural   NaMnCo4As3
_chemical_formula_sum   'Na4 Mn4 Co16 As12'
_cell_volume   496.13280341
_cell_formula_units_Z   4
loop_
 _symmetry_equiv_pos_site_id
 _symmetry_equiv_pos_as_xyz
  1  'x, y, z'
loop_
 _atom_site_type_symbol
 _atom_site_label
 _atom_site_symmetry_multiplicity
 _atom_site_fract_x
 _atom_site_fract_y
 _atom_site_fract_z
 _atom_site_occupancy
  Na  Na0  1  0.250000  0.580398  0.706189  1
  Na  Na1  1  0.250000  0.919602  0.206189  1
  Na  Na2  1  0.750000  0.419602  0.293811  1
  Na  Na3  1  0.750000  0.080398  0.793811  1
  Mn  Mn4  1  0.250000  0.705104  0.988444  1
  Mn  Mn5  1  0.250000  0.794896  0.488444  1
  Mn  Mn6  1  0.750000  0.294896  0.011556  1
  Mn  Mn7  1  0.750000  0.205104  0.511556  1
  Co  Co8  1  0.250000  0.404909  0.488468  1
  Co  Co9  1  0.250000  0.095091  0.988468  1
  Co  Co10  1  0.750000  0.595091  0.511532  1
  Co  Co11  1  0.750000  0.904909  0.011532  1
  Co  Co12  1  0.250000  0.214724  0.172057  1
  Co  Co13  1  0.250000  0.285277  0.672057  1
  Co  Co14  1  0.750000  0.785277  0.827943  1
  Co  Co15  1  0.750000  0.714723  0.327943  1
  Co  Co16  1  0.250000  0.878679  0.696773  1
  Co  Co17  1  0.250000  0.621321  0.196773  1
  Co  Co18  1  0.750000  0.121321  0.303227  1
  Co  Co19  1  0.750000  0.378679  0.803227  1
  Co  Co20  1  0.250000  0.462427  0.934117  1
  Co  Co21  1  0.250000  0.037573  0.434117  1
  Co  Co22  1  0.750000  0.537573  0.065883  1
  Co  Co23  1  0.750000  0.962427  0.565883  1
  As  As24  1  0.250000  0.420520  0.118038  1
  As  As25  1  0.250000  0.079480  0.618038  1
  As  As26  1  0.750000  0.579480  0.881962  1
  As  As27  1  0.750000  0.920520  0.381962  1
  As  As28  1  0.250000  0.262640  0.862110  1
  As  As29  1  0.250000  0.237360  0.362110  1
  As  As30  1  0.750000  0.737360  0.137890  1
  As  As31  1  0.750000  0.762640  0.637890  1
  As  As32  1  0.250000  0.592453  0.386965  1
  As  As33  1  0.250000  0.907547  0.886965  1
  As  As34  1  0.750000  0.407547  0.613035  1
  As  As35  1  0.750000  0.092453  0.113035  1
