# generated using pymatgen
data_Er10Tm2Co4SnIr
_symmetry_space_group_name_H-M   'P 1'
_cell_length_a   8.20658010
_cell_length_b   8.20492188
_cell_length_c   8.20658124
_cell_angle_alpha   111.50013508
_cell_angle_beta   110.48164473
_cell_angle_gamma   106.48239759
_symmetry_Int_Tables_number   1
_chemical_formula_structural   Er10Tm2Co4SnIr
_chemical_formula_sum   'Er10 Tm2 Co4 Sn1 Ir1'
_cell_volume   424.43861992
_cell_formula_units_Z   1
loop_
 _symmetry_equiv_pos_site_id
 _symmetry_equiv_pos_as_xyz
  1  'x, y, z'
loop_
 _atom_site_type_symbol
 _atom_site_label
 _atom_site_symmetry_multiplicity
 _atom_site_fract_x
 _atom_site_fract_y
 _atom_site_fract_z
 _atom_site_occupancy
  Er  Er0  1  0.313331  0.008267  0.694936  1
  Er  Er1  1  0.686669  0.991733  0.305064  1
  Er  Er2  1  0.411745  0.215727  0.196755  1
  Er  Er3  1  0.588255  0.784273  0.803245  1
  Er  Er4  1  0.018971  0.215727  0.803981  1
  Er  Er5  1  0.981029  0.784273  0.196019  1
  Er  Er6  1  0.184655  0.287315  0.471103  1
  Er  Er7  1  0.815345  0.712685  0.528897  1
  Er  Er8  1  0.183788  0.712685  0.897338  1
  Er  Er9  1  0.816212  0.287315  0.102662  1
  Tm  Tm10  1  0.314053  0.619434  0.305379  1
  Tm  Tm11  1  0.685947  0.380567  0.694621  1
  Co  Co12  1  0.112352  0.612019  0.499668  1
  Co  Co13  1  0.887649  0.387982  0.500332  1
  Co  Co14  1  0.377361  0.000000  0.377361  1
  Co  Co15  1  0.622639  0.000000  0.622639  1
  Sn  Sn16  1  0.500000  0.500000  0.000000  1
  Ir  Ir17  1  0.000000  0.000000  0.000000  1
