# generated using pymatgen
data_Pu3U5(TcB6)4
_symmetry_space_group_name_H-M   'P 1'
_cell_length_a   3.64701800
_cell_length_b   9.29615942
_cell_length_c   11.37842452
_cell_angle_alpha   89.96546364
_cell_angle_beta   90.00000000
_cell_angle_gamma   90.00000000
_symmetry_Int_Tables_number   1
_chemical_formula_structural   Pu3U5(TcB6)4
_chemical_formula_sum   'Pu3 U5 Tc4 B24'
_cell_volume   385.76562316
_cell_formula_units_Z   1
loop_
 _symmetry_equiv_pos_site_id
 _symmetry_equiv_pos_as_xyz
  1  'x, y, z'
loop_
 _atom_site_type_symbol
 _atom_site_label
 _atom_site_symmetry_multiplicity
 _atom_site_fract_x
 _atom_site_fract_y
 _atom_site_fract_z
 _atom_site_occupancy
  Pu  Pu0  1  0.000000  0.336596  0.407026  1
  Pu  Pu1  1  0.000000  0.663232  0.592580  1
  Pu  Pu2  1  0.000000  0.836412  0.092098  1
  U  U3  1  0.000000  0.163235  0.907706  1
  U  U4  1  0.000000  0.956069  0.395728  1
  U  U5  1  0.000000  0.043710  0.603890  1
  U  U6  1  0.000000  0.457422  0.104570  1
  U  U7  1  0.000000  0.543740  0.895849  1
  Tc  Tc8  1  0.000000  0.645998  0.319106  1
  Tc  Tc9  1  0.000000  0.351853  0.683559  1
  Tc  Tc10  1  0.000000  0.146214  0.178518  1
  Tc  Tc11  1  0.000000  0.857110  0.819502  1
  B  B12  1  0.500000  0.551756  0.431781  1
  B  B13  1  0.500000  0.447620  0.569074  1
  B  B14  1  0.500000  0.051684  0.067595  1
  B  B15  1  0.500000  0.949683  0.931601  1
  B  B16  1  0.500000  0.743003  0.423225  1
  B  B17  1  0.500000  0.256941  0.576774  1
  B  B18  1  0.500000  0.242671  0.076282  1
  B  B19  1  0.500000  0.756797  0.922588  1
  B  B20  1  0.500000  0.803146  0.274029  1
  B  B21  1  0.500000  0.195858  0.726786  1
  B  B22  1  0.500000  0.303157  0.225775  1
  B  B23  1  0.500000  0.697247  0.774021  1
  B  B24  1  0.500000  0.644318  0.188426  1
  B  B25  1  0.500000  0.354690  0.812203  1
  B  B26  1  0.500000  0.144523  0.311171  1
  B  B27  1  0.500000  0.855480  0.688362  1
  B  B28  1  0.500000  0.988459  0.219441  1
  B  B29  1  0.500000  0.013104  0.781200  1
  B  B30  1  0.500000  0.488332  0.280969  1
  B  B31  1  0.500000  0.511519  0.719426  1
  B  B32  1  0.500000  0.641487  0.038943  1
  B  B33  1  0.500000  0.356545  0.960484  1
  B  B34  1  0.500000  0.141550  0.460558  1
  B  B35  1  0.500000  0.858837  0.539154  1
