# generated using pymatgen
data_TbEr5OsRu
_symmetry_space_group_name_H-M   'P 1'
_cell_length_a   6.25497700
_cell_length_b   7.39152600
_cell_length_c   8.99963500
_cell_angle_alpha   90.00000000
_cell_angle_beta   90.00000000
_cell_angle_gamma   90.00000000
_symmetry_Int_Tables_number   1
_chemical_formula_structural   TbEr5OsRu
_chemical_formula_sum   'Tb2 Er10 Os2 Ru2'
_cell_volume   416.08755078
_cell_formula_units_Z   2
loop_
 _symmetry_equiv_pos_site_id
 _symmetry_equiv_pos_as_xyz
  1  'x, y, z'
loop_
 _atom_site_type_symbol
 _atom_site_label
 _atom_site_symmetry_multiplicity
 _atom_site_fract_x
 _atom_site_fract_y
 _atom_site_fract_z
 _atom_site_occupancy
  Tb  Tb0  1  0.868589  0.541536  0.250000  1
  Tb  Tb1  1  0.631411  0.041536  0.250000  1
  Er  Er2  1  0.335129  0.674451  0.061904  1
  Er  Er3  1  0.164871  0.174451  0.438096  1
  Er  Er4  1  0.668285  0.324568  0.565149  1
  Er  Er5  1  0.831715  0.824568  0.934851  1
  Er  Er6  1  0.668285  0.324568  0.934851  1
  Er  Er7  1  0.831715  0.824568  0.565149  1
  Er  Er8  1  0.335129  0.674451  0.438096  1
  Er  Er9  1  0.164871  0.174451  0.061904  1
  Er  Er10  1  0.130487  0.460703  0.750000  1
  Er  Er11  1  0.369513  0.960703  0.750000  1
  Os  Os12  1  0.960793  0.117024  0.750000  1
  Os  Os13  1  0.539207  0.617024  0.750000  1
  Ru  Ru14  1  0.041353  0.882702  0.250000  1
  Ru  Ru15  1  0.458647  0.382702  0.250000  1
