# generated using pymatgen
data_Rb5Ba(MoH9)3
_symmetry_space_group_name_H-M   'P 1'
_cell_length_a   10.34087374
_cell_length_b   9.85047078
_cell_length_c   5.86654700
_cell_angle_alpha   90.00000000
_cell_angle_beta   90.00000000
_cell_angle_gamma   118.44326218
_symmetry_Int_Tables_number   1
_chemical_formula_structural   Rb5Ba(MoH9)3
_chemical_formula_sum   'Rb5 Ba1 Mo3 H27'
_cell_volume   525.44651082
_cell_formula_units_Z   1
loop_
 _symmetry_equiv_pos_site_id
 _symmetry_equiv_pos_as_xyz
  1  'x, y, z'
loop_
 _atom_site_type_symbol
 _atom_site_label
 _atom_site_symmetry_multiplicity
 _atom_site_fract_x
 _atom_site_fract_y
 _atom_site_fract_z
 _atom_site_occupancy
  Rb  Rb0  1  0.753716  0.762578  0.500000  1
  Rb  Rb1  1  0.246284  0.008862  0.500000  1
  Rb  Rb2  1  0.000000  0.613487  0.000000  1
  Rb  Rb3  1  0.373520  0.395455  0.000000  1
  Rb  Rb4  1  0.626480  0.021936  0.000000  1
  Ba  Ba5  1  0.000000  0.260347  0.500000  1
  Mo  Mo6  1  0.690558  0.314797  0.500000  1
  Mo  Mo7  1  0.309442  0.624240  0.500000  1
  Mo  Mo8  1  0.000000  0.016371  0.000000  1
  H  H9  1  0.779474  0.317988  0.759307  1
  H  H10  1  0.642537  0.435609  0.674999  1
  H  H11  1  0.544985  0.189213  0.677850  1
  H  H12  1  0.220526  0.538515  0.240693  1
  H  H13  1  0.544985  0.189213  0.322150  1
  H  H14  1  0.779474  0.317988  0.240693  1
  H  H15  1  0.642537  0.435609  0.325001  1
  H  H16  1  0.357463  0.793073  0.674999  1
  H  H17  1  0.455015  0.644228  0.677850  1
  H  H18  1  0.162931  0.005210  0.000000  1
  H  H19  1  0.837069  0.842279  0.000000  1
  H  H20  1  0.000000  0.195656  0.000000  1
  H  H21  1  0.878459  0.016359  0.215215  1
  H  H22  1  0.121541  0.137900  0.784785  1
  H  H23  1  0.000000  0.888613  0.789985  1
  H  H24  1  0.000000  0.888613  0.210015  1
  H  H25  1  0.121541  0.137900  0.215215  1
  H  H26  1  0.878459  0.016359  0.784785  1
  H  H27  1  0.154357  0.656729  0.500000  1
  H  H28  1  0.385374  0.831237  0.500000  1
  H  H29  1  0.302528  0.441058  0.500000  1
  H  H30  1  0.614626  0.445863  0.500000  1
  H  H31  1  0.845643  0.502372  0.500000  1
  H  H32  1  0.697472  0.138529  0.500000  1
  H  H33  1  0.220526  0.538515  0.759307  1
  H  H34  1  0.357463  0.793073  0.325001  1
  H  H35  1  0.455015  0.644228  0.322150  1
