# generated using pymatgen
data_YbErTm2(SiPt2)4
_symmetry_space_group_name_H-M   'P 1'
_cell_length_a   5.51487896
_cell_length_b   6.95753500
_cell_length_c   7.26957902
_cell_angle_alpha   90.00000000
_cell_angle_beta   89.96236740
_cell_angle_gamma   90.00000000
_symmetry_Int_Tables_number   1
_chemical_formula_structural   YbErTm2(SiPt2)4
_chemical_formula_sum   'Yb1 Er1 Tm2 Si4 Pt8'
_cell_volume   278.93342038
_cell_formula_units_Z   1
loop_
 _symmetry_equiv_pos_site_id
 _symmetry_equiv_pos_as_xyz
  1  'x, y, z'
loop_
 _atom_site_type_symbol
 _atom_site_label
 _atom_site_symmetry_multiplicity
 _atom_site_fract_x
 _atom_site_fract_y
 _atom_site_fract_z
 _atom_site_occupancy
  Yb  Yb0  1  0.364891  0.750000  0.024230  1
  Er  Er1  1  0.636147  0.250000  0.974624  1
  Tm  Tm2  1  0.136931  0.750000  0.525159  1
  Tm  Tm3  1  0.864172  0.250000  0.475323  1
  Si  Si4  1  0.635988  0.750000  0.379279  1
  Si  Si5  1  0.865465  0.750000  0.881018  1
  Si  Si6  1  0.364350  0.250000  0.620409  1
  Si  Si7  1  0.135208  0.250000  0.119988  1
  Pt  Pt8  1  0.906964  0.549717  0.181671  1
  Pt  Pt9  1  0.595469  0.949473  0.680408  1
  Pt  Pt10  1  0.089297  0.050532  0.816400  1
  Pt  Pt11  1  0.406696  0.448583  0.321505  1
  Pt  Pt12  1  0.089297  0.449468  0.816400  1
  Pt  Pt13  1  0.406696  0.051417  0.321505  1
  Pt  Pt14  1  0.906964  0.950283  0.181671  1
  Pt  Pt15  1  0.595469  0.550527  0.680408  1
