# generated using pymatgen
data_Tb20Fe2CoNiSb8
_symmetry_space_group_name_H-M   'P 1'
_cell_length_a   7.93128914
_cell_length_b   8.79595100
_cell_length_c   12.23409721
_cell_angle_alpha   90.00000000
_cell_angle_beta   89.97867525
_cell_angle_gamma   90.00000000
_symmetry_Int_Tables_number   1
_chemical_formula_structural   Tb20Fe2CoNiSb8
_chemical_formula_sum   'Tb20 Fe2 Co1 Ni1 Sb8'
_cell_volume   853.49008609
_cell_formula_units_Z   1
loop_
 _symmetry_equiv_pos_site_id
 _symmetry_equiv_pos_as_xyz
  1  'x, y, z'
loop_
 _atom_site_type_symbol
 _atom_site_label
 _atom_site_symmetry_multiplicity
 _atom_site_fract_x
 _atom_site_fract_y
 _atom_site_fract_z
 _atom_site_occupancy
  Tb  Tb0  1  0.154048  0.750000  0.204689  1
  Tb  Tb1  1  0.658425  0.250000  0.291650  1
  Tb  Tb2  1  0.846269  0.250000  0.797862  1
  Tb  Tb3  1  0.346807  0.750000  0.702352  1
  Tb  Tb4  1  0.449943  0.750000  0.996116  1
  Tb  Tb5  1  0.957871  0.250000  0.503550  1
  Tb  Tb6  1  0.544096  0.250000  0.001723  1
  Tb  Tb7  1  0.045121  0.750000  0.498078  1
  Tb  Tb8  1  0.622500  0.750000  0.305720  1
  Tb  Tb9  1  0.123355  0.250000  0.196057  1
  Tb  Tb10  1  0.375482  0.250000  0.695954  1
  Tb  Tb11  1  0.878623  0.750000  0.806555  1
  Tb  Tb12  1  0.823558  0.969544  0.063397  1
  Tb  Tb13  1  0.320272  0.031378  0.434236  1
  Tb  Tb14  1  0.179841  0.460500  0.935629  1
  Tb  Tb15  1  0.680048  0.539968  0.564527  1
  Tb  Tb16  1  0.179841  0.039500  0.935629  1
  Tb  Tb17  1  0.680048  0.960032  0.564527  1
  Tb  Tb18  1  0.823558  0.530456  0.063397  1
  Tb  Tb19  1  0.320272  0.468622  0.434236  1
  Fe  Fe20  1  0.430557  0.750000  0.488377  1
  Fe  Fe21  1  0.925888  0.250000  0.014058  1
  Co  Co22  1  0.066790  0.750000  0.991376  1
  Ni  Ni23  1  0.568022  0.250000  0.509678  1
  Sb  Sb24  1  0.926897  0.992317  0.327855  1
  Sb  Sb25  1  0.427794  0.007097  0.172415  1
  Sb  Sb26  1  0.072442  0.492506  0.673661  1
  Sb  Sb27  1  0.572250  0.508147  0.826382  1
  Sb  Sb28  1  0.072442  0.007494  0.673661  1
  Sb  Sb29  1  0.572250  0.991853  0.826382  1
  Sb  Sb30  1  0.926897  0.507683  0.327855  1
  Sb  Sb31  1  0.427794  0.492903  0.172415  1
