# generated using pymatgen
data_Ho8Tm2Sn5Bi
_symmetry_space_group_name_H-M   'P 1'
_cell_length_a   8.95144600
_cell_length_b   8.94468048
_cell_length_c   6.46985507
_cell_angle_alpha   89.98582948
_cell_angle_beta   90.00000000
_cell_angle_gamma   120.02501640
_symmetry_Int_Tables_number   1
_chemical_formula_structural   Ho8Tm2Sn5Bi
_chemical_formula_sum   'Ho8 Tm2 Sn5 Bi1'
_cell_volume   448.51158001
_cell_formula_units_Z   1
loop_
 _symmetry_equiv_pos_site_id
 _symmetry_equiv_pos_as_xyz
  1  'x, y, z'
loop_
 _atom_site_type_symbol
 _atom_site_label
 _atom_site_symmetry_multiplicity
 _atom_site_fract_x
 _atom_site_fract_y
 _atom_site_fract_z
 _atom_site_occupancy
  Ho  Ho0  1  0.994496  0.757563  0.749987  1
  Ho  Ho1  1  0.000426  0.239129  0.249971  1
  Ho  Ho2  1  0.761297  0.760871  0.250029  1
  Ho  Ho3  1  0.764862  0.000000  0.750000  1
  Ho  Ho4  1  0.236932  0.242437  0.750013  1
  Ho  Ho5  1  0.237672  0.000000  0.250000  1
  Ho  Ho6  1  0.669925  0.337379  0.498312  1
  Ho  Ho7  1  0.332545  0.662621  0.001688  1
  Tm  Tm8  1  0.332516  0.662466  0.498202  1
  Tm  Tm9  1  0.670052  0.337534  0.001798  1
  Sn  Sn10  1  0.395737  0.394389  0.250000  1
  Sn  Sn11  1  0.001348  0.605611  0.250000  1
  Sn  Sn12  1  0.999596  0.396103  0.750012  1
  Sn  Sn13  1  0.603493  0.603897  0.749988  1
  Sn  Sn14  1  0.605035  0.000000  0.250000  1
  Bi  Bi15  1  0.394068  0.000000  0.750000  1
