# generated using pymatgen
data_Sc4V4Co9P12Rh7
_symmetry_space_group_name_H-M   'P 1'
_cell_length_a   3.66150400
_cell_length_b   10.53460300
_cell_length_c   12.08657638
_cell_angle_alpha   90.07106553
_cell_angle_beta   90.00000000
_cell_angle_gamma   90.00000000
_symmetry_Int_Tables_number   1
_chemical_formula_structural   Sc4V4Co9P12Rh7
_chemical_formula_sum   'Sc4 V4 Co9 P12 Rh7'
_cell_volume   466.20900036
_cell_formula_units_Z   1
loop_
 _symmetry_equiv_pos_site_id
 _symmetry_equiv_pos_as_xyz
  1  'x, y, z'
loop_
 _atom_site_type_symbol
 _atom_site_label
 _atom_site_symmetry_multiplicity
 _atom_site_fract_x
 _atom_site_fract_y
 _atom_site_fract_z
 _atom_site_occupancy
  Sc  Sc0  1  0.250000  0.581219  0.710129  1
  Sc  Sc1  1  0.250000  0.914217  0.213501  1
  Sc  Sc2  1  0.750000  0.421923  0.289820  1
  Sc  Sc3  1  0.750000  0.080753  0.788006  1
  V  V4  1  0.250000  0.704073  0.990329  1
  V  V5  1  0.250000  0.797108  0.485283  1
  V  V6  1  0.750000  0.297052  0.011695  1
  V  V7  1  0.750000  0.202869  0.510218  1
  Co  Co8  1  0.750000  0.723550  0.320691  1
  Co  Co9  1  0.250000  0.887242  0.693876  1
  Co  Co10  1  0.250000  0.617400  0.197531  1
  Co  Co11  1  0.750000  0.108344  0.304625  1
  Co  Co12  1  0.750000  0.388471  0.804678  1
  Co  Co13  1  0.250000  0.465429  0.935740  1
  Co  Co14  1  0.250000  0.032958  0.433411  1
  Co  Co15  1  0.750000  0.536212  0.067342  1
  Co  Co16  1  0.750000  0.964407  0.563517  1
  P  P17  1  0.250000  0.428488  0.115449  1
  P  P18  1  0.250000  0.072960  0.612611  1
  P  P19  1  0.750000  0.573624  0.887165  1
  P  P20  1  0.750000  0.918419  0.383418  1
  P  P21  1  0.250000  0.271334  0.869046  1
  P  P22  1  0.250000  0.228232  0.368991  1
  P  P23  1  0.750000  0.729112  0.138627  1
  P  P24  1  0.750000  0.771068  0.630114  1
  P  P25  1  0.250000  0.601930  0.379394  1
  P  P26  1  0.250000  0.904690  0.882204  1
  P  P27  1  0.750000  0.406211  0.616539  1
  P  P28  1  0.750000  0.094094  0.118668  1
  Rh  Rh29  1  0.250000  0.405566  0.479602  1
  Rh  Rh30  1  0.250000  0.095932  0.981412  1
  Rh  Rh31  1  0.750000  0.598248  0.515207  1
  Rh  Rh32  1  0.750000  0.902046  0.021157  1
  Rh  Rh33  1  0.250000  0.226318  0.180681  1
  Rh  Rh34  1  0.250000  0.274299  0.679693  1
  Rh  Rh35  1  0.750000  0.774201  0.819629  1
