# generated using pymatgen
data_YMnF7
_symmetry_space_group_name_H-M   'P 1'
_cell_length_a   5.43227700
_cell_length_b   8.73958010
_cell_length_c   11.73155479
_cell_angle_alpha   62.25788576
_cell_angle_beta   90.00000000
_cell_angle_gamma   90.00000000
_symmetry_Int_Tables_number   1
_chemical_formula_structural   YMnF7
_chemical_formula_sum   'Y4 Mn4 F28'
_cell_volume   492.94298933
_cell_formula_units_Z   4
loop_
 _symmetry_equiv_pos_site_id
 _symmetry_equiv_pos_as_xyz
  1  'x, y, z'
loop_
 _atom_site_type_symbol
 _atom_site_label
 _atom_site_symmetry_multiplicity
 _atom_site_fract_x
 _atom_site_fract_y
 _atom_site_fract_z
 _atom_site_occupancy
  Y  Y0  1  0.261709  0.810852  0.263826  1
  Y  Y1  1  0.738291  0.189148  0.736174  1
  Y  Y2  1  0.761709  0.189148  0.236174  1
  Y  Y3  1  0.238291  0.810852  0.763826  1
  Mn  Mn4  1  0.758961  0.725314  0.043182  1
  Mn  Mn5  1  0.241039  0.274686  0.956818  1
  Mn  Mn6  1  0.258961  0.274686  0.456818  1
  Mn  Mn7  1  0.741039  0.725314  0.543182  1
  F  F8  1  0.929315  0.706533  0.420526  1
  F  F9  1  0.070685  0.293467  0.579474  1
  F  F10  1  0.429315  0.293467  0.079474  1
  F  F11  1  0.570685  0.706533  0.920526  1
  F  F12  1  0.478274  0.727505  0.130929  1
  F  F13  1  0.521726  0.272495  0.869071  1
  F  F14  1  0.978274  0.272495  0.369071  1
  F  F15  1  0.021726  0.727505  0.630929  1
  F  F16  1  0.944894  0.740184  0.170236  1
  F  F17  1  0.055106  0.259816  0.829764  1
  F  F18  1  0.444894  0.259816  0.329764  1
  F  F19  1  0.555106  0.740184  0.670236  1
  F  F20  1  0.771067  0.487472  0.137251  1
  F  F21  1  0.228933  0.512528  0.862749  1
  F  F22  1  0.271067  0.512528  0.362749  1
  F  F23  1  0.728933  0.487472  0.637251  1
  F  F24  1  0.953649  0.281140  0.039425  1
  F  F25  1  0.046351  0.718860  0.960575  1
  F  F26  1  0.453649  0.718860  0.460575  1
  F  F27  1  0.546351  0.281140  0.539425  1
  F  F28  1  0.739755  0.961571  0.453494  1
  F  F29  1  0.260245  0.038429  0.546506  1
  F  F30  1  0.239755  0.038429  0.046506  1
  F  F31  1  0.760245  0.961571  0.953494  1
  F  F32  1  0.597043  0.967879  0.227456  1
  F  F33  1  0.402957  0.032121  0.772544  1
  F  F34  1  0.097043  0.032121  0.272544  1
  F  F35  1  0.902957  0.967879  0.727456  1
