# generated using pymatgen
data_EuY2Ga8Ag3
_symmetry_space_group_name_H-M   'P 1'
_cell_length_a   4.38420718
_cell_length_b   8.43663436
_cell_length_c   8.43663522
_cell_angle_alpha   70.07620831
_cell_angle_beta   74.93993711
_cell_angle_gamma   74.93993101
_symmetry_Int_Tables_number   1
_chemical_formula_structural   EuY2Ga8Ag3
_chemical_formula_sum   'Eu1 Y2 Ga8 Ag3'
_cell_volume   278.21197310
_cell_formula_units_Z   1
loop_
 _symmetry_equiv_pos_site_id
 _symmetry_equiv_pos_as_xyz
  1  'x, y, z'
loop_
 _atom_site_type_symbol
 _atom_site_label
 _atom_site_symmetry_multiplicity
 _atom_site_fract_x
 _atom_site_fract_y
 _atom_site_fract_z
 _atom_site_occupancy
  Eu  Eu0  1  0.000000  0.000000  0.000000  1
  Y  Y1  1  0.300275  0.699725  0.699725  1
  Y  Y2  1  0.699725  0.300275  0.300275  1
  Ga  Ga3  1  0.339130  0.292687  0.029053  1
  Ga  Ga4  1  0.660870  0.707313  0.970947  1
  Ga  Ga5  1  0.339130  0.029053  0.292687  1
  Ga  Ga6  1  0.660870  0.970947  0.707313  1
  Ga  Ga7  1  0.144247  0.573992  0.137515  1
  Ga  Ga8  1  0.855753  0.426008  0.862485  1
  Ga  Ga9  1  0.144247  0.137515  0.573992  1
  Ga  Ga10  1  0.855753  0.862485  0.426008  1
  Ag  Ag11  1  0.500000  0.307287  0.692713  1
  Ag  Ag12  1  0.500000  0.692713  0.307287  1
  Ag  Ag13  1  0.000000  0.500000  0.500000  1
