# generated using pymatgen
data_Tm6Al24Ru7Au
_symmetry_space_group_name_H-M   'P 1'
_cell_length_a   8.79164989
_cell_length_b   8.79164946
_cell_length_c   9.55356725
_cell_angle_alpha   90.02257429
_cell_angle_beta   89.97742471
_cell_angle_gamma   119.85833077
_symmetry_Int_Tables_number   1
_chemical_formula_structural   Tm6Al24Ru7Au
_chemical_formula_sum   'Tm6 Al24 Ru7 Au1'
_cell_volume   640.40558438
_cell_formula_units_Z   1
loop_
 _symmetry_equiv_pos_site_id
 _symmetry_equiv_pos_as_xyz
  1  'x, y, z'
loop_
 _atom_site_type_symbol
 _atom_site_label
 _atom_site_symmetry_multiplicity
 _atom_site_fract_x
 _atom_site_fract_y
 _atom_site_fract_z
 _atom_site_occupancy
  Tm  Tm0  1  0.805021  0.194979  0.745659  1
  Tm  Tm1  1  0.194979  0.805021  0.254341  1
  Tm  Tm2  1  0.386948  0.190915  0.749789  1
  Tm  Tm3  1  0.613052  0.809085  0.250211  1
  Tm  Tm4  1  0.809085  0.613052  0.749789  1
  Tm  Tm5  1  0.190915  0.386948  0.250211  1
  Al  Al6  1  0.672145  0.327855  0.975427  1
  Al  Al7  1  0.327855  0.672145  0.024573  1
  Al  Al8  1  0.333686  0.666314  0.478224  1
  Al  Al9  1  0.666314  0.333686  0.521776  1
  Al  Al10  1  0.836858  0.163142  0.421603  1
  Al  Al11  1  0.163142  0.836858  0.578397  1
  Al  Al12  1  0.324998  0.162995  0.423151  1
  Al  Al13  1  0.162918  0.837082  0.920711  1
  Al  Al14  1  0.675002  0.837005  0.576849  1
  Al  Al15  1  0.837082  0.162918  0.079289  1
  Al  Al16  1  0.837005  0.675002  0.423151  1
  Al  Al17  1  0.678018  0.848420  0.918949  1
  Al  Al18  1  0.162995  0.324998  0.576849  1
  Al  Al19  1  0.321982  0.151580  0.081051  1
  Al  Al20  1  0.151580  0.321982  0.918949  1
  Al  Al21  1  0.848420  0.678018  0.081051  1
  Al  Al22  1  0.436138  0.563862  0.743436  1
  Al  Al23  1  0.563862  0.436138  0.256564  1
  Al  Al24  1  0.122054  0.561169  0.750571  1
  Al  Al25  1  0.877946  0.438831  0.249429  1
  Al  Al26  1  0.438831  0.877946  0.750571  1
  Al  Al27  1  0.561169  0.122054  0.249429  1
  Al  Al28  1  0.000699  0.999301  0.749635  1
  Al  Al29  1  0.999301  0.000699  0.250365  1
  Ru  Ru30  1  0.000000  0.500000  0.000000  1
  Ru  Ru31  1  0.500000  0.500000  0.500000  1
  Ru  Ru32  1  0.500000  0.000000  0.000000  1
  Ru  Ru33  1  0.000000  0.500000  0.500000  1
  Ru  Ru34  1  0.500000  0.000000  0.500000  1
  Ru  Ru35  1  0.000000  0.000000  0.000000  1
  Ru  Ru36  1  0.000000  0.000000  0.500000  1
  Au  Au37  1  0.500000  0.500000  0.000000  1
