# generated using pymatgen
data_K8V5In3P8(O4F)8
_symmetry_space_group_name_H-M   'P 1'
_cell_length_a   6.49820000
_cell_length_b   10.83800200
_cell_length_c   13.04120400
_cell_angle_alpha   90.00000000
_cell_angle_beta   90.00000000
_cell_angle_gamma   90.00000000
_symmetry_Int_Tables_number   1
_chemical_formula_structural   K8V5In3P8(O4F)8
_chemical_formula_sum   'K8 V5 In3 P8 O32 F8'
_cell_volume   918.45945465
_cell_formula_units_Z   1
loop_
 _symmetry_equiv_pos_site_id
 _symmetry_equiv_pos_as_xyz
  1  'x, y, z'
loop_
 _atom_site_type_symbol
 _atom_site_label
 _atom_site_symmetry_multiplicity
 _atom_site_fract_x
 _atom_site_fract_y
 _atom_site_fract_z
 _atom_site_occupancy
  K  K0  1  0.227596  0.799575  0.617921  1
  K  K1  1  0.724637  0.303373  0.885008  1
  K  K2  1  0.273762  0.795243  0.120001  1
  K  K3  1  0.774307  0.300787  0.377747  1
  K  K4  1  0.697108  0.056409  0.103103  1
  K  K5  1  0.296649  0.557210  0.898786  1
  K  K6  1  0.800332  0.058874  0.602457  1
  K  K7  1  0.199865  0.559194  0.394756  1
  V  V8  1  0.994948  0.503038  0.116394  1
  V  V9  1  0.251933  0.253230  0.245763  1
  V  V10  1  0.750767  0.751676  0.753146  1
  V  V11  1  0.248988  0.252639  0.747503  1
  V  V12  1  0.747527  0.750671  0.251493  1
  In  In13  1  0.489219  0.003118  0.385170  1
  In  In14  1  0.510295  0.503024  0.614543  1
  In  In15  1  0.010462  0.002729  0.886891  1
  P  P16  1  0.327674  0.256587  0.497845  1
  P  P17  1  0.673044  0.754416  0.500709  1
  P  P18  1  0.167636  0.258184  0.000911  1
  P  P19  1  0.830299  0.750526  0.002587  1
  P  P20  1  0.498814  0.503900  0.182337  1
  P  P21  1  0.503836  0.003761  0.817719  1
  P  P22  1  0.003502  0.503817  0.683744  1
  P  P23  1  0.996589  0.003391  0.315052  1
  O  O24  1  0.484034  0.148765  0.491739  1
  O  O25  1  0.513988  0.648107  0.507099  1
  O  O26  1  0.010214  0.151125  0.992054  1
  O  O27  1  0.981476  0.640075  0.014961  1
  O  O28  1  0.460316  0.375572  0.498174  1
  O  O29  1  0.543380  0.874652  0.500379  1
  O  O30  1  0.033596  0.376885  0.009287  1
  O  O31  1  0.968849  0.867051  0.998446  1
  O  O32  1  0.189717  0.263842  0.400898  1
  O  O33  1  0.810937  0.760136  0.597477  1
  O  O34  1  0.301687  0.269046  0.903104  1
  O  O35  1  0.688747  0.764698  0.097400  1
  O  O36  1  0.192935  0.242382  0.594542  1
  O  O37  1  0.807485  0.738748  0.403915  1
  O  O38  1  0.309114  0.238531  0.094449  1
  O  O39  1  0.697656  0.734882  0.905539  1
  O  O40  1  0.309853  0.532614  0.113570  1
  O  O41  1  0.687076  0.039513  0.887421  1
  O  O42  1  0.186586  0.540272  0.614368  1
  O  O43  1  0.813169  0.040489  0.384141  1
  O  O44  1  0.686865  0.476520  0.113917  1
  O  O45  1  0.325962  0.967944  0.890028  1
  O  O46  1  0.825502  0.467426  0.611791  1
  O  O47  1  0.173894  0.966915  0.387688  1
  O  O48  1  0.536873  0.616951  0.254453  1
  O  O49  1  0.452236  0.114884  0.746474  1
  O  O50  1  0.952779  0.614159  0.755996  1
  O  O51  1  0.048799  0.114194  0.243353  1
  O  O52  1  0.452166  0.393336  0.255277  1
  O  O53  1  0.557132  0.895184  0.744371  1
  O  O54  1  0.056199  0.395500  0.757478  1
  O  O55  1  0.943591  0.894018  0.242210  1
  F  F56  1  0.516226  0.875687  0.260771  1
  F  F57  1  0.484241  0.374916  0.738925  1
  F  F58  1  0.983871  0.875497  0.761343  1
  F  F59  1  0.022453  0.380044  0.231153  1
  F  F60  1  0.490939  0.138018  0.263257  1
  F  F61  1  0.508584  0.638298  0.736762  1
  F  F62  1  0.009291  0.137729  0.764036  1
  F  F63  1  0.981793  0.630706  0.230167  1
