# generated using pymatgen
data_Nd16Hg4Pt3Rh
_symmetry_space_group_name_H-M   'P 1'
_cell_length_a   9.97580265
_cell_length_b   9.97580258
_cell_length_c   9.97580404
_cell_angle_alpha   60.07203658
_cell_angle_beta   60.07203032
_cell_angle_gamma   60.07204020
_symmetry_Int_Tables_number   1
_chemical_formula_structural   Nd16Hg4Pt3Rh
_chemical_formula_sum   'Nd16 Hg4 Pt3 Rh1'
_cell_volume   703.13223394
_cell_formula_units_Z   1
loop_
 _symmetry_equiv_pos_site_id
 _symmetry_equiv_pos_as_xyz
  1  'x, y, z'
loop_
 _atom_site_type_symbol
 _atom_site_label
 _atom_site_symmetry_multiplicity
 _atom_site_fract_x
 _atom_site_fract_y
 _atom_site_fract_z
 _atom_site_occupancy
  Nd  Nd0  1  0.601736  0.601736  0.601736  1
  Nd  Nd1  1  0.601324  0.601324  0.193487  1
  Nd  Nd2  1  0.601324  0.193487  0.601324  1
  Nd  Nd3  1  0.193487  0.601324  0.601324  1
  Nd  Nd4  1  0.064480  0.440332  0.440332  1
  Nd  Nd5  1  0.440386  0.058677  0.058677  1
  Nd  Nd6  1  0.440332  0.064480  0.440332  1
  Nd  Nd7  1  0.058677  0.440386  0.058677  1
  Nd  Nd8  1  0.440332  0.440332  0.064480  1
  Nd  Nd9  1  0.058677  0.058677  0.440386  1
  Nd  Nd10  1  0.188996  0.812910  0.812910  1
  Nd  Nd11  1  0.811111  0.186618  0.186618  1
  Nd  Nd12  1  0.812910  0.188996  0.812910  1
  Nd  Nd13  1  0.186618  0.811111  0.186618  1
  Nd  Nd14  1  0.812910  0.812910  0.188996  1
  Nd  Nd15  1  0.186618  0.186618  0.811111  1
  Hg  Hg16  1  0.834465  0.834465  0.834465  1
  Hg  Hg17  1  0.835026  0.835026  0.494445  1
  Hg  Hg18  1  0.835026  0.494445  0.835026  1
  Hg  Hg19  1  0.494445  0.835026  0.835026  1
  Pt  Pt20  1  0.393732  0.393732  0.820026  1
  Pt  Pt21  1  0.393732  0.820026  0.393732  1
  Pt  Pt22  1  0.820026  0.393732  0.393732  1
  Rh  Rh23  1  0.393630  0.393630  0.393630  1
