# generated using pymatgen
data_Ho2Zn2IrPt
_symmetry_space_group_name_H-M   'P 1'
_cell_length_a   4.08755300
_cell_length_b   6.93258433
_cell_length_c   8.16088798
_cell_angle_alpha   90.02078662
_cell_angle_beta   90.00000000
_cell_angle_gamma   90.00000000
_symmetry_Int_Tables_number   1
_chemical_formula_structural   Ho2Zn2IrPt
_chemical_formula_sum   'Ho4 Zn4 Ir2 Pt2'
_cell_volume   231.25756362
_cell_formula_units_Z   2
loop_
 _symmetry_equiv_pos_site_id
 _symmetry_equiv_pos_as_xyz
  1  'x, y, z'
loop_
 _atom_site_type_symbol
 _atom_site_label
 _atom_site_symmetry_multiplicity
 _atom_site_fract_x
 _atom_site_fract_y
 _atom_site_fract_z
 _atom_site_occupancy
  Ho  Ho0  1  0.250000  0.538148  0.178628  1
  Ho  Ho1  1  0.750000  0.461852  0.821372  1
  Ho  Ho2  1  0.750000  0.956332  0.687599  1
  Ho  Ho3  1  0.250000  0.043668  0.312401  1
  Zn  Zn4  1  0.250000  0.639223  0.566910  1
  Zn  Zn5  1  0.750000  0.360777  0.433090  1
  Zn  Zn6  1  0.750000  0.863993  0.061149  1
  Zn  Zn7  1  0.250000  0.136007  0.938851  1
  Ir  Ir8  1  0.250000  0.753066  0.877111  1
  Ir  Ir9  1  0.750000  0.246934  0.122889  1
  Pt  Pt10  1  0.750000  0.746394  0.378692  1
  Pt  Pt11  1  0.250000  0.253606  0.621308  1
