# generated using pymatgen
data_Dy3Ho5Mg2(SiB4)4
_symmetry_space_group_name_H-M   'P 1'
_cell_length_a   7.15703607
_cell_length_b   7.15702007
_cell_length_c   7.82290500
_cell_angle_alpha   89.99905878
_cell_angle_beta   90.00215745
_cell_angle_gamma   90.01569084
_symmetry_Int_Tables_number   1
_chemical_formula_structural   Dy3Ho5Mg2(SiB4)4
_chemical_formula_sum   'Dy3 Ho5 Mg2 Si4 B16'
_cell_volume   400.71304466
_cell_formula_units_Z   1
loop_
 _symmetry_equiv_pos_site_id
 _symmetry_equiv_pos_as_xyz
  1  'x, y, z'
loop_
 _atom_site_type_symbol
 _atom_site_label
 _atom_site_symmetry_multiplicity
 _atom_site_fract_x
 _atom_site_fract_y
 _atom_site_fract_z
 _atom_site_occupancy
  Dy  Dy0  1  0.683097  0.183041  0.233398  1
  Dy  Dy1  1  0.316977  0.817026  0.766579  1
  Dy  Dy2  1  0.316997  0.816937  0.233424  1
  Ho  Ho3  1  0.817010  0.682953  0.232770  1
  Ho  Ho4  1  0.817021  0.682960  0.767207  1
  Ho  Ho5  1  0.683011  0.183065  0.767274  1
  Ho  Ho6  1  0.182970  0.317004  0.767246  1
  Ho  Ho7  1  0.182933  0.317032  0.232807  1
  Mg  Mg8  1  0.999885  0.000060  0.500090  1
  Mg  Mg9  1  0.500061  0.499888  0.500089  1
  Si  Si10  1  0.115005  0.615004  0.500038  1
  Si  Si11  1  0.884688  0.384687  0.500323  1
  Si  Si12  1  0.384490  0.115899  0.500268  1
  Si  Si13  1  0.615900  0.884486  0.500203  1
  B  B14  1  0.173525  0.040092  0.999883  1
  B  B15  1  0.826367  0.960115  0.999882  1
  B  B16  1  0.960139  0.173559  0.999904  1
  B  B17  1  0.326552  0.539643  0.999952  1
  B  B18  1  0.039641  0.826552  0.999909  1
  B  B19  1  0.673558  0.460145  0.999863  1
  B  B20  1  0.540093  0.673521  0.999959  1
  B  B21  1  0.460111  0.326368  0.999806  1
  B  B22  1  0.089431  0.589429  0.999956  1
  B  B23  1  0.910528  0.410525  0.999965  1
  B  B24  1  0.410534  0.089581  0.999830  1
  B  B25  1  0.589582  0.910532  0.999800  1
  B  B26  1  0.999959  0.000050  0.162762  1
  B  B27  1  0.999766  0.000114  0.837024  1
  B  B28  1  0.500128  0.499727  0.837022  1
  B  B29  1  0.500040  0.500002  0.162764  1
