# generated using pymatgen
data_Tb3Lu9Os3Rh
_symmetry_space_group_name_H-M   'P 1'
_cell_length_a   7.33562642
_cell_length_b   8.85758100
_cell_length_c   6.24135793
_cell_angle_alpha   90.00000000
_cell_angle_beta   89.96167081
_cell_angle_gamma   90.00000000
_symmetry_Int_Tables_number   1
_chemical_formula_structural   Tb3Lu9Os3Rh
_chemical_formula_sum   'Tb3 Lu9 Os3 Rh1'
_cell_volume   405.53779028
_cell_formula_units_Z   1
loop_
 _symmetry_equiv_pos_site_id
 _symmetry_equiv_pos_as_xyz
  1  'x, y, z'
loop_
 _atom_site_type_symbol
 _atom_site_label
 _atom_site_symmetry_multiplicity
 _atom_site_fract_x
 _atom_site_fract_y
 _atom_site_fract_z
 _atom_site_occupancy
  Tb  Tb0  1  0.537852  0.250000  0.872818  1
  Tb  Tb1  1  0.039299  0.250000  0.627095  1
  Tb  Tb2  1  0.461405  0.750000  0.127186  1
  Lu  Lu3  1  0.674110  0.060989  0.337122  1
  Lu  Lu4  1  0.175377  0.438965  0.166487  1
  Lu  Lu5  1  0.324868  0.563436  0.664477  1
  Lu  Lu6  1  0.824801  0.933615  0.830372  1
  Lu  Lu7  1  0.324868  0.936564  0.664477  1
  Lu  Lu8  1  0.824801  0.566385  0.830372  1
  Lu  Lu9  1  0.674110  0.439011  0.337122  1
  Lu  Lu10  1  0.175377  0.061035  0.166487  1
  Lu  Lu11  1  0.961230  0.750000  0.372216  1
  Os  Os12  1  0.383078  0.250000  0.455466  1
  Os  Os13  1  0.114742  0.750000  0.961190  1
  Os  Os14  1  0.619815  0.750000  0.542095  1
  Rh  Rh15  1  0.884271  0.250000  0.045019  1
