# generated using pymatgen
data_Ba14Na17ErN6
_symmetry_space_group_name_H-M   'P 1'
_cell_length_a   11.07107357
_cell_length_b   12.10575863
_cell_length_c   13.41133627
_cell_angle_alpha   67.01057714
_cell_angle_beta   67.84622484
_cell_angle_gamma   79.07524655
_symmetry_Int_Tables_number   1
_chemical_formula_structural   Ba14Na17ErN6
_chemical_formula_sum   'Ba14 Na17 Er1 N6'
_cell_volume   1530.64105819
_cell_formula_units_Z   1
loop_
 _symmetry_equiv_pos_site_id
 _symmetry_equiv_pos_as_xyz
  1  'x, y, z'
loop_
 _atom_site_type_symbol
 _atom_site_label
 _atom_site_symmetry_multiplicity
 _atom_site_fract_x
 _atom_site_fract_y
 _atom_site_fract_z
 _atom_site_occupancy
  Ba  Ba0  1  0.367320  0.782153  0.444617  1
  Ba  Ba1  1  0.632680  0.217847  0.555383  1
  Ba  Ba2  1  0.270660  0.307135  0.700916  1
  Ba  Ba3  1  0.729340  0.692865  0.299084  1
  Ba  Ba4  1  0.258824  0.520923  0.400831  1
  Ba  Ba5  1  0.741176  0.479077  0.599169  1
  Ba  Ba6  1  0.380655  0.569158  0.741805  1
  Ba  Ba7  1  0.619345  0.430842  0.258195  1
  Ba  Ba8  1  0.345270  0.165932  0.456068  1
  Ba  Ba9  1  0.654730  0.834068  0.543932  1
  Ba  Ba10  1  0.477750  0.788527  0.119376  1
  Ba  Ba11  1  0.522250  0.211473  0.880624  1
  Ba  Ba12  1  0.034495  0.620090  0.675556  1
  Ba  Ba13  1  0.965505  0.379910  0.324444  1
  Na  Na14  1  0.000000  0.000000  0.500000  1
  Na  Na15  1  0.238965  0.096913  0.206428  1
  Na  Na16  1  0.761035  0.903087  0.793572  1
  Na  Na17  1  0.631853  0.600019  0.894532  1
  Na  Na18  1  0.368147  0.399981  0.105468  1
  Na  Na19  1  0.041578  0.815296  0.310687  1
  Na  Na20  1  0.958422  0.184704  0.689313  1
  Na  Na21  1  0.135434  0.891741  0.755788  1
  Na  Na22  1  0.864566  0.108259  0.244212  1
  Na  Na23  1  0.586222  0.083927  0.186633  1
  Na  Na24  1  0.413778  0.916073  0.813367  1
  Na  Na25  1  0.905594  0.644288  0.984109  1
  Na  Na26  1  0.094406  0.355712  0.015891  1
  Na  Na27  1  0.850737  0.972701  0.990746  1
  Na  Na28  1  0.149263  0.027299  0.009254  1
  Na  Na29  1  0.168740  0.688480  0.057613  1
  Na  Na30  1  0.831260  0.311520  0.942387  1
  Er  Er31  1  0.500000  0.500000  0.500000  1
  N  N32  1  0.486932  0.634630  0.312706  1
  N  N33  1  0.513068  0.365370  0.687294  1
  N  N34  1  0.429568  0.334383  0.476044  1
  N  N35  1  0.570432  0.665617  0.523956  1
  N  N36  1  0.727886  0.444826  0.408474  1
  N  N37  1  0.272114  0.555174  0.591526  1
