# generated using pymatgen
data_Dy16In4Ir3Pt
_symmetry_space_group_name_H-M   'P 1'
_cell_length_a   9.64757725
_cell_length_b   9.64757739
_cell_length_c   9.64757737
_cell_angle_alpha   60.43286996
_cell_angle_beta   60.43286915
_cell_angle_gamma   60.43286984
_symmetry_Int_Tables_number   1
_chemical_formula_structural   Dy16In4Ir3Pt
_chemical_formula_sum   'Dy16 In4 Ir3 Pt1'
_cell_volume   641.16472451
_cell_formula_units_Z   1
loop_
 _symmetry_equiv_pos_site_id
 _symmetry_equiv_pos_as_xyz
  1  'x, y, z'
loop_
 _atom_site_type_symbol
 _atom_site_label
 _atom_site_symmetry_multiplicity
 _atom_site_fract_x
 _atom_site_fract_y
 _atom_site_fract_z
 _atom_site_occupancy
  Dy  Dy0  1  0.596336  0.596336  0.596336  1
  Dy  Dy1  1  0.602931  0.602931  0.197953  1
  Dy  Dy2  1  0.602931  0.197953  0.602931  1
  Dy  Dy3  1  0.197953  0.602931  0.602931  1
  Dy  Dy4  1  0.054259  0.441577  0.441577  1
  Dy  Dy5  1  0.441628  0.058931  0.058931  1
  Dy  Dy6  1  0.441577  0.054259  0.441577  1
  Dy  Dy7  1  0.058931  0.441628  0.058931  1
  Dy  Dy8  1  0.441577  0.441577  0.054259  1
  Dy  Dy9  1  0.058931  0.058931  0.441628  1
  Dy  Dy10  1  0.189767  0.811807  0.811807  1
  Dy  Dy11  1  0.812689  0.190648  0.190648  1
  Dy  Dy12  1  0.811807  0.189767  0.811807  1
  Dy  Dy13  1  0.190648  0.812689  0.190648  1
  Dy  Dy14  1  0.811807  0.811807  0.189767  1
  Dy  Dy15  1  0.190648  0.190648  0.812689  1
  In  In16  1  0.833343  0.833343  0.833343  1
  In  In17  1  0.832281  0.832281  0.501623  1
  In  In18  1  0.832281  0.501623  0.832281  1
  In  In19  1  0.501623  0.832281  0.832281  1
  Ir  Ir20  1  0.389332  0.389332  0.825291  1
  Ir  Ir21  1  0.389332  0.825291  0.389332  1
  Ir  Ir22  1  0.825291  0.389332  0.389332  1
  Pt  Pt23  1  0.392099  0.392099  0.392099  1
