# generated using pymatgen
data_Ca3Cd3(AsO4)4
_symmetry_space_group_name_H-M   'P 1'
_cell_length_a   5.60471521
_cell_length_b   10.17801910
_cell_length_c   7.10849480
_cell_angle_alpha   90.17323593
_cell_angle_beta   90.78510178
_cell_angle_gamma   90.21003492
_symmetry_Int_Tables_number   1
_chemical_formula_structural   Ca3Cd3(AsO4)4
_chemical_formula_sum   'Ca3 Cd3 As4 O16'
_cell_volume   405.46065520
_cell_formula_units_Z   1
loop_
 _symmetry_equiv_pos_site_id
 _symmetry_equiv_pos_as_xyz
  1  'x, y, z'
loop_
 _atom_site_type_symbol
 _atom_site_label
 _atom_site_symmetry_multiplicity
 _atom_site_fract_x
 _atom_site_fract_y
 _atom_site_fract_z
 _atom_site_occupancy
  Ca  Ca0  1  0.734765  0.367039  0.081018  1
  Ca  Ca1  1  0.750910  0.997976  0.250556  1
  Ca  Ca2  1  0.246611  0.500937  0.746024  1
  Cd  Cd3  1  0.761346  0.631762  0.423558  1
  Cd  Cd4  1  0.239256  0.130848  0.576517  1
  Cd  Cd5  1  0.264175  0.869325  0.920088  1
  As  As6  1  0.243599  0.188695  0.076477  1
  As  As7  1  0.253993  0.809112  0.421814  1
  As  As8  1  0.747025  0.309825  0.579299  1
  As  As9  1  0.754431  0.692427  0.923486  1
  O  O10  1  0.324044  0.348810  0.031755  1
  O  O11  1  0.685062  0.590208  0.107026  1
  O  O12  1  0.943542  0.173984  0.114352  1
  O  O13  1  0.102422  0.869130  0.227067  1
  O  O14  1  0.407083  0.133729  0.269728  1
  O  O15  1  0.557590  0.819460  0.388456  1
  O  O16  1  0.815702  0.412288  0.395067  1
  O  O17  1  0.164851  0.649981  0.467520  1
  O  O18  1  0.836560  0.151320  0.531888  1
  O  O19  1  0.178701  0.912203  0.605036  1
  O  O20  1  0.443481  0.319394  0.615522  1
  O  O21  1  0.599191  0.630477  0.729952  1
  O  O22  1  0.898002  0.370018  0.773779  1
  O  O23  1  0.057257  0.681551  0.884828  1
  O  O24  1  0.323435  0.087767  0.891880  1
  O  O25  1  0.666968  0.851782  0.967304  1
