# generated using pymatgen
data_CaPr3Sc6(Si5Ir2)4
_symmetry_space_group_name_H-M   'P 1'
_cell_length_a   12.59362687
_cell_length_b   12.59362583
_cell_length_c   4.17688700
_cell_angle_alpha   90.00000000
_cell_angle_beta   90.00000000
_cell_angle_gamma   89.96018198
_symmetry_Int_Tables_number   1
_chemical_formula_structural   CaPr3Sc6(Si5Ir2)4
_chemical_formula_sum   'Ca1 Pr3 Sc6 Si20 Ir8'
_cell_volume   662.45171513
_cell_formula_units_Z   1
loop_
 _symmetry_equiv_pos_site_id
 _symmetry_equiv_pos_as_xyz
  1  'x, y, z'
loop_
 _atom_site_type_symbol
 _atom_site_label
 _atom_site_symmetry_multiplicity
 _atom_site_fract_x
 _atom_site_fract_y
 _atom_site_fract_z
 _atom_site_occupancy
  Ca  Ca0  1  0.384389  0.115611  0.500000  1
  Pr  Pr1  1  0.115591  0.615480  0.500000  1
  Pr  Pr2  1  0.884520  0.384409  0.500000  1
  Pr  Pr3  1  0.614902  0.885098  0.500000  1
  Sc  Sc4  1  0.673823  0.176434  0.500000  1
  Sc  Sc5  1  0.323566  0.826177  0.500000  1
  Sc  Sc6  1  0.176197  0.323803  0.500000  1
  Sc  Sc7  1  0.824059  0.675941  0.500000  1
  Sc  Sc8  1  0.000685  0.000237  0.000000  1
  Sc  Sc9  1  0.499763  0.499315  0.000000  1
  Si  Si10  1  0.569127  0.069008  0.000000  1
  Si  Si11  1  0.430992  0.930873  0.000000  1
  Si  Si12  1  0.069664  0.430336  0.000000  1
  Si  Si13  1  0.930740  0.569260  0.000000  1
  Si  Si14  1  0.201875  0.163202  0.000000  1
  Si  Si15  1  0.799636  0.837377  0.000000  1
  Si  Si16  1  0.163350  0.799999  0.000000  1
  Si  Si17  1  0.700001  0.336650  0.000000  1
  Si  Si18  1  0.837124  0.200204  0.000000  1
  Si  Si19  1  0.299796  0.662876  0.000000  1
  Si  Si20  1  0.662623  0.700364  0.000000  1
  Si  Si21  1  0.336798  0.298125  0.000000  1
  Si  Si22  1  0.011491  0.149257  0.500000  1
  Si  Si23  1  0.990535  0.851166  0.500000  1
  Si  Si24  1  0.151021  0.992212  0.500000  1
  Si  Si25  1  0.507788  0.348979  0.500000  1
  Si  Si26  1  0.850956  0.010789  0.500000  1
  Si  Si27  1  0.489211  0.649044  0.500000  1
  Si  Si28  1  0.648834  0.509465  0.500000  1
  Si  Si29  1  0.350743  0.488509  0.500000  1
  Ir  Ir30  1  0.024817  0.241583  0.000000  1
  Ir  Ir31  1  0.975399  0.758561  0.000000  1
  Ir  Ir32  1  0.242576  0.975956  0.000000  1
  Ir  Ir33  1  0.524044  0.257424  0.000000  1
  Ir  Ir34  1  0.758828  0.025321  0.000000  1
  Ir  Ir35  1  0.474679  0.741172  0.000000  1
  Ir  Ir36  1  0.741439  0.524601  0.000000  1
  Ir  Ir37  1  0.258417  0.475183  0.000000  1
