# generated using pymatgen
data_Lu4Mn7Fe13P12
_symmetry_space_group_name_H-M   'P 1'
_cell_length_a   3.61946500
_cell_length_b   10.21027606
_cell_length_c   12.07168760
_cell_angle_alpha   90.01207034
_cell_angle_beta   90.00000000
_cell_angle_gamma   90.00000000
_symmetry_Int_Tables_number   1
_chemical_formula_structural   Lu4Mn7Fe13P12
_chemical_formula_sum   'Lu4 Mn7 Fe13 P12'
_cell_volume   446.11810029
_cell_formula_units_Z   1
loop_
 _symmetry_equiv_pos_site_id
 _symmetry_equiv_pos_as_xyz
  1  'x, y, z'
loop_
 _atom_site_type_symbol
 _atom_site_label
 _atom_site_symmetry_multiplicity
 _atom_site_fract_x
 _atom_site_fract_y
 _atom_site_fract_z
 _atom_site_occupancy
  Lu  Lu0  1  0.250000  0.579648  0.710474  1
  Lu  Lu1  1  0.250000  0.919601  0.210816  1
  Lu  Lu2  1  0.750000  0.419832  0.289275  1
  Lu  Lu3  1  0.750000  0.080066  0.789439  1
  Mn  Mn4  1  0.250000  0.705827  0.991769  1
  Mn  Mn5  1  0.250000  0.794018  0.491236  1
  Mn  Mn6  1  0.750000  0.293041  0.007254  1
  Mn  Mn7  1  0.750000  0.206225  0.507762  1
  Mn  Mn8  1  0.250000  0.408648  0.489622  1
  Mn  Mn9  1  0.250000  0.091834  0.990673  1
  Mn  Mn10  1  0.750000  0.591435  0.510023  1
  Fe  Fe11  1  0.750000  0.910700  0.011494  1
  Fe  Fe12  1  0.250000  0.219829  0.171547  1
  Fe  Fe13  1  0.250000  0.279060  0.671843  1
  Fe  Fe14  1  0.750000  0.778515  0.828198  1
  Fe  Fe15  1  0.750000  0.721189  0.327655  1
  Fe  Fe16  1  0.250000  0.877389  0.696515  1
  Fe  Fe17  1  0.250000  0.623409  0.195452  1
  Fe  Fe18  1  0.750000  0.122806  0.303736  1
  Fe  Fe19  1  0.750000  0.377439  0.803563  1
  Fe  Fe20  1  0.250000  0.462676  0.935935  1
  Fe  Fe21  1  0.250000  0.037355  0.435855  1
  Fe  Fe22  1  0.750000  0.537328  0.064623  1
  Fe  Fe23  1  0.750000  0.962404  0.564606  1
  P  P24  1  0.250000  0.422935  0.114229  1
  P  P25  1  0.250000  0.076990  0.614130  1
  P  P26  1  0.750000  0.576278  0.886024  1
  P  P27  1  0.750000  0.923406  0.385881  1
  P  P28  1  0.250000  0.267743  0.859913  1
  P  P29  1  0.250000  0.232816  0.360829  1
  P  P30  1  0.750000  0.733497  0.139085  1
  P  P31  1  0.750000  0.766846  0.639663  1
  P  P32  1  0.250000  0.601712  0.380271  1
  P  P33  1  0.250000  0.897484  0.881363  1
  P  P34  1  0.750000  0.398221  0.619007  1
  P  P35  1  0.750000  0.101795  0.120239  1
