# generated using pymatgen
data_UCdHg2(SeBr3)2
_symmetry_space_group_name_H-M   'P 1'
_cell_length_a   7.70054100
_cell_length_b   7.39034129
_cell_length_c   14.62556875
_cell_angle_alpha   90.21994162
_cell_angle_beta   90.00000000
_cell_angle_gamma   90.00000000
_symmetry_Int_Tables_number   1
_chemical_formula_structural   UCdHg2(SeBr3)2
_chemical_formula_sum   'U2 Cd2 Hg4 Se4 Br12'
_cell_volume   832.32951603
_cell_formula_units_Z   2
loop_
 _symmetry_equiv_pos_site_id
 _symmetry_equiv_pos_as_xyz
  1  'x, y, z'
loop_
 _atom_site_type_symbol
 _atom_site_label
 _atom_site_symmetry_multiplicity
 _atom_site_fract_x
 _atom_site_fract_y
 _atom_site_fract_z
 _atom_site_occupancy
  U  U0  1  0.000000  0.000000  0.000000  1
  U  U1  1  0.500000  0.000000  0.500000  1
  Cd  Cd2  1  0.000000  0.500000  0.500000  1
  Cd  Cd3  1  0.500000  0.500000  0.000000  1
  Hg  Hg4  1  0.715749  0.497519  0.252831  1
  Hg  Hg5  1  0.284251  0.502481  0.747169  1
  Hg  Hg6  1  0.215749  0.502481  0.247169  1
  Hg  Hg7  1  0.784251  0.497519  0.752831  1
  Se  Se8  1  0.967574  0.653900  0.332192  1
  Se  Se9  1  0.032426  0.346100  0.667808  1
  Se  Se10  1  0.467574  0.346100  0.167808  1
  Se  Se11  1  0.532426  0.653900  0.832192  1
  Br  Br12  1  0.459758  0.858427  0.327781  1
  Br  Br13  1  0.540242  0.141573  0.672219  1
  Br  Br14  1  0.959758  0.141573  0.172219  1
  Br  Br15  1  0.040242  0.858427  0.827781  1
  Br  Br16  1  0.308067  0.834513  0.057382  1
  Br  Br17  1  0.691933  0.165487  0.942618  1
  Br  Br18  1  0.808067  0.165487  0.442618  1
  Br  Br19  1  0.191933  0.834513  0.557382  1
  Br  Br20  1  0.823931  0.681644  0.056723  1
  Br  Br21  1  0.176069  0.318356  0.943277  1
  Br  Br22  1  0.323931  0.318356  0.443277  1
  Br  Br23  1  0.676069  0.681644  0.556723  1
