# generated using pymatgen
data_Ho8Ti6Nb5Si16Ir
_symmetry_space_group_name_H-M   'P 1'
_cell_length_a   7.03248631
_cell_length_b   7.04114892
_cell_length_c   12.90426244
_cell_angle_alpha   90.15257508
_cell_angle_beta   89.81407494
_cell_angle_gamma   89.67620951
_symmetry_Int_Tables_number   1
_chemical_formula_structural   Ho8Ti6Nb5Si16Ir
_chemical_formula_sum   'Ho8 Ti6 Nb5 Si16 Ir1'
_cell_volume   638.96170325
_cell_formula_units_Z   1
loop_
 _symmetry_equiv_pos_site_id
 _symmetry_equiv_pos_as_xyz
  1  'x, y, z'
loop_
 _atom_site_type_symbol
 _atom_site_label
 _atom_site_symmetry_multiplicity
 _atom_site_fract_x
 _atom_site_fract_y
 _atom_site_fract_z
 _atom_site_occupancy
  Ho  Ho0  1  0.341400  0.001956  0.467076  1
  Ho  Ho1  1  0.497085  0.842078  0.718349  1
  Ho  Ho2  1  0.501571  0.157634  0.215948  1
  Ho  Ho3  1  0.842018  0.497478  0.281632  1
  Ho  Ho4  1  0.157886  0.500950  0.784309  1
  Ho  Ho5  1  0.657253  0.998657  0.968514  1
  Ho  Ho6  1  0.001591  0.341499  0.532456  1
  Ho  Ho7  1  0.998356  0.658781  0.031499  1
  Ti  Ti8  1  0.507772  0.349310  0.628370  1
  Ti  Ti9  1  0.657844  0.491174  0.875389  1
  Ti  Ti10  1  0.349461  0.507722  0.373138  1
  Ti  Ti11  1  0.848469  0.991965  0.374009  1
  Ti  Ti12  1  0.003183  0.147246  0.124900  1
  Ti  Ti13  1  0.991383  0.848635  0.626043  1
  Nb  Nb14  1  0.173978  0.827608  0.247807  1
  Nb  Nb15  1  0.826294  0.175316  0.752026  1
  Nb  Nb16  1  0.673263  0.672590  0.499875  1
  Nb  Nb17  1  0.147587  0.000609  0.874776  1
  Nb  Nb18  1  0.494076  0.657430  0.124643  1
  Si  Si19  1  0.204517  0.133889  0.683389  1
  Si  Si20  1  0.372368  0.701364  0.932692  1
  Si  Si21  1  0.631240  0.296577  0.434357  1
  Si  Si22  1  0.702207  0.369054  0.066962  1
  Si  Si23  1  0.296323  0.631388  0.565640  1
  Si  Si24  1  0.796905  0.868353  0.183617  1
  Si  Si25  1  0.132858  0.203161  0.315610  1
  Si  Si26  1  0.863930  0.794205  0.816638  1
  Si  Si27  1  0.288764  0.955029  0.061277  1
  Si  Si28  1  0.547545  0.794930  0.315288  1
  Si  Si29  1  0.447921  0.211008  0.817811  1
  Si  Si30  1  0.793228  0.547729  0.685218  1
  Si  Si31  1  0.208714  0.447678  0.182091  1
  Si  Si32  1  0.708125  0.048428  0.564141  1
  Si  Si33  1  0.953450  0.290406  0.938464  1
  Si  Si34  1  0.048380  0.708055  0.435840  1
  Ir  Ir35  1  0.333057  0.330106  0.000207  1
