# generated using pymatgen
data_HoEr3Pa4(ReB6)4
_symmetry_space_group_name_H-M   'P 1'
_cell_length_a   3.70911300
_cell_length_b   9.14871001
_cell_length_c   11.50224701
_cell_angle_alpha   90.00405650
_cell_angle_beta   90.00000000
_cell_angle_gamma   90.00000000
_symmetry_Int_Tables_number   1
_chemical_formula_structural   HoEr3Pa4(ReB6)4
_chemical_formula_sum   'Ho1 Er3 Pa4 Re4 B24'
_cell_volume   390.31263904
_cell_formula_units_Z   1
loop_
 _symmetry_equiv_pos_site_id
 _symmetry_equiv_pos_as_xyz
  1  'x, y, z'
loop_
 _atom_site_type_symbol
 _atom_site_label
 _atom_site_symmetry_multiplicity
 _atom_site_fract_x
 _atom_site_fract_y
 _atom_site_fract_z
 _atom_site_occupancy
  Ho  Ho0  1  0.000000  0.944904  0.374407  1
  Er  Er1  1  0.000000  0.055195  0.625808  1
  Er  Er2  1  0.000000  0.444890  0.125580  1
  Er  Er3  1  0.000000  0.555106  0.874364  1
  Pa  Pa4  1  0.000000  0.322845  0.413430  1
  Pa  Pa5  1  0.000000  0.677182  0.586690  1
  Pa  Pa6  1  0.000000  0.822725  0.086532  1
  Pa  Pa7  1  0.000000  0.177279  0.913373  1
  Re  Re8  1  0.000000  0.638506  0.321328  1
  Re  Re9  1  0.000000  0.361226  0.678695  1
  Re  Re10  1  0.000000  0.139005  0.178483  1
  Re  Re11  1  0.000000  0.861150  0.821376  1
  B  B12  1  0.500000  0.552829  0.433365  1
  B  B13  1  0.500000  0.447046  0.566683  1
  B  B14  1  0.500000  0.052927  0.066541  1
  B  B15  1  0.500000  0.947118  0.933359  1
  B  B16  1  0.500000  0.748465  0.420061  1
  B  B17  1  0.500000  0.251271  0.580024  1
  B  B18  1  0.500000  0.248831  0.079923  1
  B  B19  1  0.500000  0.751208  0.920033  1
  B  B20  1  0.500000  0.793029  0.265609  1
  B  B21  1  0.500000  0.206729  0.734293  1
  B  B22  1  0.500000  0.293372  0.234205  1
  B  B23  1  0.500000  0.706736  0.765762  1
  B  B24  1  0.500000  0.632674  0.184787  1
  B  B25  1  0.500000  0.367238  0.815159  1
  B  B26  1  0.500000  0.132999  0.315012  1
  B  B27  1  0.500000  0.867246  0.684934  1
  B  B28  1  0.500000  0.982540  0.213336  1
  B  B29  1  0.500000  0.017584  0.786451  1
  B  B30  1  0.500000  0.482397  0.286407  1
  B  B31  1  0.500000  0.517546  0.713577  1
  B  B32  1  0.500000  0.609807  0.030272  1
  B  B33  1  0.500000  0.390179  0.969684  1
  B  B34  1  0.500000  0.110308  0.469846  1
  B  B35  1  0.500000  0.889909  0.530613  1
