# generated using pymatgen
data_U2Be24ZnCo
_symmetry_space_group_name_H-M   'P 1'
_cell_length_a   7.25191259
_cell_length_b   7.27923912
_cell_length_c   7.28365582
_cell_angle_alpha   59.73180119
_cell_angle_beta   60.31499036
_cell_angle_gamma   60.16434666
_symmetry_Int_Tables_number   1
_chemical_formula_structural   U2Be24ZnCo
_chemical_formula_sum   'U2 Be24 Zn1 Co1'
_cell_volume   272.29581182
_cell_formula_units_Z   1
loop_
 _symmetry_equiv_pos_site_id
 _symmetry_equiv_pos_as_xyz
  1  'x, y, z'
loop_
 _atom_site_type_symbol
 _atom_site_label
 _atom_site_symmetry_multiplicity
 _atom_site_fract_x
 _atom_site_fract_y
 _atom_site_fract_z
 _atom_site_occupancy
  U  U0  1  0.760016  0.746555  0.754753  1
  U  U1  1  0.245247  0.261325  0.239984  1
  Be  Be2  1  0.005358  0.991826  0.994642  1
  Be  Be3  1  0.501729  0.499588  0.498271  1
  Be  Be4  1  0.944755  0.300407  0.055245  1
  Be  Be5  1  0.787771  0.437931  0.564709  1
  Be  Be6  1  0.435291  0.790411  0.212229  1
  Be  Be7  1  0.215558  0.433273  0.784442  1
  Be  Be8  1  0.785917  0.562982  0.214083  1
  Be  Be9  1  0.437613  0.562578  0.789679  1
  Be  Be10  1  0.210321  0.789870  0.562387  1
  Be  Be11  1  0.066949  0.941653  0.290815  1
  Be  Be12  1  0.295424  0.059049  0.941118  1
  Be  Be13  1  0.943869  0.699878  0.294297  1
  Be  Be14  1  0.940335  0.060614  0.706131  1
  Be  Be15  1  0.293869  0.707079  0.059665  1
  Be  Be16  1  0.705703  0.938044  0.056131  1
  Be  Be17  1  0.709185  0.299418  0.933051  1
  Be  Be18  1  0.058882  0.295590  0.704576  1
  Be  Be19  1  0.557815  0.783647  0.442185  1
  Be  Be20  1  0.562482  0.210255  0.788685  1
  Be  Be21  1  0.793731  0.212326  0.441402  1
  Be  Be22  1  0.558598  0.447459  0.206269  1
  Be  Be23  1  0.211315  0.561422  0.437518  1
  Be  Be24  1  0.428252  0.217080  0.571748  1
  Be  Be25  1  0.292637  0.935384  0.707363  1
  Zn  Zn26  1  0.694387  0.059729  0.305613  1
  Co  Co27  1  0.056992  0.694628  0.943008  1
