# generated using pymatgen
data_Y2Er2ReB12Os
_symmetry_space_group_name_H-M   'P 1'
_cell_length_a   3.65988400
_cell_length_b   9.14714878
_cell_length_c   11.53997708
_cell_angle_alpha   90.12669074
_cell_angle_beta   90.00000000
_cell_angle_gamma   90.00000000
_symmetry_Int_Tables_number   1
_chemical_formula_structural   Y2Er2ReB12Os
_chemical_formula_sum   'Y4 Er4 Re2 B24 Os2'
_cell_volume   386.32867824
_cell_formula_units_Z   2
loop_
 _symmetry_equiv_pos_site_id
 _symmetry_equiv_pos_as_xyz
  1  'x, y, z'
loop_
 _atom_site_type_symbol
 _atom_site_label
 _atom_site_symmetry_multiplicity
 _atom_site_fract_x
 _atom_site_fract_y
 _atom_site_fract_z
 _atom_site_occupancy
  Y  Y0  1  0.000000  0.320567  0.412466  1
  Y  Y1  1  0.000000  0.679433  0.587534  1
  Y  Y2  1  0.000000  0.824333  0.084760  1
  Y  Y3  1  0.000000  0.175667  0.915240  1
  Er  Er4  1  0.000000  0.943496  0.370690  1
  Er  Er5  1  0.000000  0.056504  0.629310  1
  Er  Er6  1  0.000000  0.442719  0.128786  1
  Er  Er7  1  0.000000  0.557281  0.871214  1
  Re  Re8  1  0.000000  0.138687  0.179835  1
  Re  Re9  1  0.000000  0.861313  0.820165  1
  B  B10  1  0.500000  0.553934  0.432908  1
  B  B11  1  0.500000  0.446066  0.567092  1
  B  B12  1  0.500000  0.053365  0.067085  1
  B  B13  1  0.500000  0.946635  0.932915  1
  B  B14  1  0.500000  0.749185  0.418596  1
  B  B15  1  0.500000  0.250815  0.581404  1
  B  B16  1  0.500000  0.249247  0.081196  1
  B  B17  1  0.500000  0.750753  0.918804  1
  B  B18  1  0.500000  0.790959  0.266010  1
  B  B19  1  0.500000  0.209041  0.733990  1
  B  B20  1  0.500000  0.291943  0.234450  1
  B  B21  1  0.500000  0.708057  0.765550  1
  B  B22  1  0.500000  0.630639  0.186054  1
  B  B23  1  0.500000  0.369361  0.813946  1
  B  B24  1  0.500000  0.131056  0.314816  1
  B  B25  1  0.500000  0.868944  0.685184  1
  B  B26  1  0.500000  0.982722  0.212774  1
  B  B27  1  0.500000  0.017278  0.787226  1
  B  B28  1  0.500000  0.483115  0.287733  1
  B  B29  1  0.500000  0.516885  0.712267  1
  B  B30  1  0.500000  0.602495  0.028646  1
  B  B31  1  0.500000  0.397505  0.971354  1
  B  B32  1  0.500000  0.102839  0.471677  1
  B  B33  1  0.500000  0.897161  0.528323  1
  Os  Os34  1  0.000000  0.637817  0.321562  1
  Os  Os35  1  0.000000  0.362183  0.678438  1
