# generated using pymatgen
data_PuH6Pt
_symmetry_space_group_name_H-M   'P 1'
_cell_length_a   4.23758635
_cell_length_b   4.23758713
_cell_length_c   4.23758428
_cell_angle_alpha   97.49535066
_cell_angle_beta   97.49533309
_cell_angle_gamma   97.49535697
_symmetry_Int_Tables_number   1
_chemical_formula_structural   PuH6Pt
_chemical_formula_sum   'Pu1 H6 Pt1'
_cell_volume   73.95361193
_cell_formula_units_Z   1
loop_
 _symmetry_equiv_pos_site_id
 _symmetry_equiv_pos_as_xyz
  1  'x, y, z'
loop_
 _atom_site_type_symbol
 _atom_site_label
 _atom_site_symmetry_multiplicity
 _atom_site_fract_x
 _atom_site_fract_y
 _atom_site_fract_z
 _atom_site_occupancy
  Pu  Pu0  1  0.500000  0.500000  0.500000  1
  H  H1  1  0.290079  0.937800  0.290079  1
  H  H2  1  0.290079  0.290079  0.937800  1
  H  H3  1  0.937800  0.290079  0.290079  1
  H  H4  1  0.709921  0.062200  0.709921  1
  H  H5  1  0.709921  0.709921  0.062200  1
  H  H6  1  0.062200  0.709921  0.709921  1
  Pt  Pt7  1  0.000000  0.000000  0.000000  1
