# generated using pymatgen
data_Nd5SmRuI10
_symmetry_space_group_name_H-M   'P 1'
_cell_length_a   7.97905212
_cell_length_b   9.99141510
_cell_length_c   10.01193030
_cell_angle_alpha   107.30342665
_cell_angle_beta   96.69164678
_cell_angle_gamma   104.68110987
_symmetry_Int_Tables_number   1
_chemical_formula_structural   Nd5SmRuI10
_chemical_formula_sum   'Nd5 Sm1 Ru1 I10'
_cell_volume   721.07918354
_cell_formula_units_Z   1
loop_
 _symmetry_equiv_pos_site_id
 _symmetry_equiv_pos_as_xyz
  1  'x, y, z'
loop_
 _atom_site_type_symbol
 _atom_site_label
 _atom_site_symmetry_multiplicity
 _atom_site_fract_x
 _atom_site_fract_y
 _atom_site_fract_z
 _atom_site_occupancy
  Nd  Nd0  1  0.116047  0.042570  0.760631  1
  Nd  Nd1  1  0.881844  0.956589  0.239078  1
  Nd  Nd2  1  0.966465  0.281216  0.083353  1
  Nd  Nd3  1  0.031853  0.718342  0.915694  1
  Nd  Nd4  1  0.355435  0.127677  0.171529  1
  Sm  Sm5  1  0.648405  0.874111  0.830829  1
  Ru  Ru6  1  0.999736  0.000079  0.000364  1
  I  I7  1  0.545956  0.181962  0.908477  1
  I  I8  1  0.454628  0.814630  0.087129  1
  I  I9  1  0.349274  0.451248  0.271191  1
  I  I10  1  0.648989  0.552394  0.727677  1
  I  I11  1  0.255878  0.084416  0.458692  1
  I  I12  1  0.741130  0.913081  0.543193  1
  I  I13  1  0.785599  0.258571  0.349439  1
  I  I14  1  0.220551  0.743690  0.653603  1
  I  I15  1  0.088032  0.370091  0.820310  1
  I  I16  1  0.910179  0.629331  0.178811  1
