# generated using pymatgen
data_Ac3Yb(InIr)4
_symmetry_space_group_name_H-M   'P 1'
_cell_length_a   4.38392400
_cell_length_b   7.55800820
_cell_length_c   8.82579489
_cell_angle_alpha   89.75612110
_cell_angle_beta   90.00000000
_cell_angle_gamma   90.00000000
_symmetry_Int_Tables_number   1
_chemical_formula_structural   Ac3Yb(InIr)4
_chemical_formula_sum   'Ac3 Yb1 In4 Ir4'
_cell_volume   292.42888726
_cell_formula_units_Z   1
loop_
 _symmetry_equiv_pos_site_id
 _symmetry_equiv_pos_as_xyz
  1  'x, y, z'
loop_
 _atom_site_type_symbol
 _atom_site_label
 _atom_site_symmetry_multiplicity
 _atom_site_fract_x
 _atom_site_fract_y
 _atom_site_fract_z
 _atom_site_occupancy
  Ac  Ac0  1  0.250000  0.031391  0.182015  1
  Ac  Ac1  1  0.750000  0.966758  0.817469  1
  Ac  Ac2  1  0.250000  0.531110  0.326249  1
  Yb  Yb3  1  0.750000  0.465198  0.683659  1
  In  In4  1  0.750000  0.362865  0.053479  1
  In  In5  1  0.250000  0.632525  0.932149  1
  In  In6  1  0.750000  0.856369  0.445008  1
  In  In7  1  0.250000  0.152420  0.563440  1
  Ir  Ir8  1  0.250000  0.764567  0.631670  1
  Ir  Ir9  1  0.750000  0.234368  0.365920  1
  Ir  Ir10  1  0.250000  0.266068  0.866613  1
  Ir  Ir11  1  0.750000  0.736358  0.132330  1
