# generated using pymatgen
data_Be3Zn(SiRh3)2
_symmetry_space_group_name_H-M   'P 1'
_cell_length_a   4.08476301
_cell_length_b   5.77211700
_cell_length_c   12.24704602
_cell_angle_alpha   90.00000000
_cell_angle_beta   90.00666933
_cell_angle_gamma   90.00000000
_symmetry_Int_Tables_number   1
_chemical_formula_structural   Be3Zn(SiRh3)2
_chemical_formula_sum   'Be6 Zn2 Si4 Rh12'
_cell_volume   288.75754234
_cell_formula_units_Z   2
loop_
 _symmetry_equiv_pos_site_id
 _symmetry_equiv_pos_as_xyz
  1  'x, y, z'
loop_
 _atom_site_type_symbol
 _atom_site_label
 _atom_site_symmetry_multiplicity
 _atom_site_fract_x
 _atom_site_fract_y
 _atom_site_fract_z
 _atom_site_occupancy
  Be  Be0  1  0.000023  0.500000  0.005188  1
  Be  Be1  1  0.499625  0.000000  0.161482  1
  Be  Be2  1  0.999659  0.500000  0.326449  1
  Be  Be3  1  0.500003  0.000000  0.499407  1
  Be  Be4  1  0.000298  0.500000  0.667264  1
  Be  Be5  1  0.500348  0.000000  0.840211  1
  Zn  Zn6  1  0.000087  0.000000  0.999091  1
  Zn  Zn7  1  0.499687  0.500000  0.167576  1
  Si  Si8  1  0.999760  0.000000  0.333677  1
  Si  Si9  1  0.500002  0.500000  0.500278  1
  Si  Si10  1  0.000215  0.000000  0.666389  1
  Si  Si11  1  0.500285  0.500000  0.832990  1
  Rh  Rh12  1  0.500082  0.256211  0.993453  1
  Rh  Rh13  1  0.500082  0.743789  0.993453  1
  Rh  Rh14  1  0.999727  0.243792  0.173214  1
  Rh  Rh15  1  0.999727  0.756209  0.173214  1
  Rh  Rh16  1  0.499815  0.246235  0.342054  1
  Rh  Rh17  1  0.499815  0.753766  0.342054  1
  Rh  Rh18  1  0.999993  0.250217  0.502628  1
  Rh  Rh19  1  0.999993  0.749784  0.502628  1
  Rh  Rh20  1  0.500165  0.249783  0.664038  1
  Rh  Rh21  1  0.500165  0.750218  0.664038  1
  Rh  Rh22  1  0.000221  0.253769  0.824612  1
  Rh  Rh23  1  0.000221  0.746232  0.824612  1
