# generated using pymatgen
data_SmGd7(Si3Au)4
_symmetry_space_group_name_H-M   'P 1'
_cell_length_a   8.22570400
_cell_length_b   8.22570346
_cell_length_c   8.32225100
_cell_angle_alpha   90.00000000
_cell_angle_beta   90.00000000
_cell_angle_gamma   120.00000219
_symmetry_Int_Tables_number   1
_chemical_formula_structural   SmGd7(Si3Au)4
_chemical_formula_sum   'Sm1 Gd7 Si12 Au4'
_cell_volume   487.66047616
_cell_formula_units_Z   1
loop_
 _symmetry_equiv_pos_site_id
 _symmetry_equiv_pos_as_xyz
  1  'x, y, z'
loop_
 _atom_site_type_symbol
 _atom_site_label
 _atom_site_symmetry_multiplicity
 _atom_site_fract_x
 _atom_site_fract_y
 _atom_site_fract_z
 _atom_site_occupancy
  Sm  Sm0  1  0.000000  0.000000  0.250000  1
  Gd  Gd1  1  0.499649  0.500351  0.750000  1
  Gd  Gd2  1  0.500480  0.499520  0.250000  1
  Gd  Gd3  1  0.000702  0.500351  0.750000  1
  Gd  Gd4  1  0.999040  0.499520  0.250000  1
  Gd  Gd5  1  0.499649  0.999298  0.750000  1
  Gd  Gd6  1  0.500480  0.000960  0.250000  1
  Gd  Gd7  1  0.000000  0.000000  0.750000  1
  Si  Si8  1  0.836265  0.163735  0.997146  1
  Si  Si9  1  0.163743  0.836257  0.997283  1
  Si  Si10  1  0.327469  0.163735  0.997146  1
  Si  Si11  1  0.163743  0.836257  0.502717  1
  Si  Si12  1  0.672515  0.836257  0.997283  1
  Si  Si13  1  0.836265  0.163735  0.502854  1
  Si  Si14  1  0.836265  0.672531  0.997146  1
  Si  Si15  1  0.672515  0.836257  0.502717  1
  Si  Si16  1  0.163743  0.327485  0.997283  1
  Si  Si17  1  0.327469  0.163735  0.502854  1
  Si  Si18  1  0.163743  0.327485  0.502717  1
  Si  Si19  1  0.836265  0.672531  0.502854  1
  Au  Au20  1  0.666667  0.333333  0.000073  1
  Au  Au21  1  0.333333  0.666667  0.002251  1
  Au  Au22  1  0.333333  0.666667  0.497749  1
  Au  Au23  1  0.666667  0.333333  0.499927  1
