# generated using pymatgen
data_Sc12Tc(PtI8)2
_symmetry_space_group_name_H-M   'P 1'
_cell_length_a   9.12859275
_cell_length_b   11.99622431
_cell_length_c   12.60638151
_cell_angle_alpha   117.07671491
_cell_angle_beta   101.13270756
_cell_angle_gamma   100.63230178
_symmetry_Int_Tables_number   1
_chemical_formula_structural   Sc12Tc(PtI8)2
_chemical_formula_sum   'Sc12 Tc1 Pt2 I16'
_cell_volume   1145.94939882
_cell_formula_units_Z   1
loop_
 _symmetry_equiv_pos_site_id
 _symmetry_equiv_pos_as_xyz
  1  'x, y, z'
loop_
 _atom_site_type_symbol
 _atom_site_label
 _atom_site_symmetry_multiplicity
 _atom_site_fract_x
 _atom_site_fract_y
 _atom_site_fract_z
 _atom_site_occupancy
  Sc  Sc0  1  0.089778  0.270496  0.358241  1
  Sc  Sc1  1  0.910701  0.729768  0.641238  1
  Sc  Sc2  1  0.779217  0.535328  0.328299  1
  Sc  Sc3  1  0.222176  0.466486  0.666912  1
  Sc  Sc4  1  0.277867  0.730281  0.641678  1
  Sc  Sc5  1  0.722916  0.269516  0.358905  1
  Sc  Sc6  1  0.147998  0.533730  0.333335  1
  Sc  Sc7  1  0.855268  0.464519  0.671479  1
  Sc  Sc8  1  0.402689  0.360126  0.278063  1
  Sc  Sc9  1  0.588264  0.639827  0.721883  1
  Sc  Sc10  1  0.454640  0.312376  0.519288  1
  Sc  Sc11  1  0.536182  0.687503  0.480614  1
  Tc  Tc12  1  0.337008  0.500120  0.499665  1
  Pt  Pt13  1  0.997094  0.500027  0.500116  1
  Pt  Pt14  1  0.661653  0.499838  0.500368  1
  I  I15  1  0.392903  0.741400  0.886893  1
  I  I16  1  0.608123  0.260485  0.116294  1
  I  I17  1  0.187117  0.964509  0.783466  1
  I  I18  1  0.810727  0.035471  0.216597  1
  I  I19  1  0.342883  0.095261  0.251545  1
  I  I20  1  0.667447  0.904748  0.748491  1
  I  I21  1  0.562290  0.438136  0.799041  1
  I  I22  1  0.444976  0.561733  0.200985  1
  I  I23  1  0.303411  0.826574  0.460535  1
  I  I24  1  0.696760  0.175012  0.538961  1
  I  I25  1  0.163311  0.172484  0.536182  1
  I  I26  1  0.836031  0.825856  0.464123  1
  I  I27  1  0.926320  0.574095  0.158360  1
  I  I28  1  0.075840  0.426003  0.841627  1
  I  I29  1  0.926931  0.737994  0.883829  1
  I  I30  1  0.071478  0.260296  0.112987  1
