# generated using pymatgen
data_Dy3ErAl12(GaIr)6
_symmetry_space_group_name_H-M   'P 1'
_cell_length_a   7.52612938
_cell_length_b   7.52739382
_cell_length_c   9.57392000
_cell_angle_alpha   90.00000000
_cell_angle_beta   90.00000000
_cell_angle_gamma   119.67447675
_symmetry_Int_Tables_number   1
_chemical_formula_structural   Dy3ErAl12(GaIr)6
_chemical_formula_sum   'Dy3 Er1 Al12 Ga6 Ir6'
_cell_volume   471.25067595
_cell_formula_units_Z   1
loop_
 _symmetry_equiv_pos_site_id
 _symmetry_equiv_pos_as_xyz
  1  'x, y, z'
loop_
 _atom_site_type_symbol
 _atom_site_label
 _atom_site_symmetry_multiplicity
 _atom_site_fract_x
 _atom_site_fract_y
 _atom_site_fract_z
 _atom_site_occupancy
  Dy  Dy0  1  0.997254  0.669486  0.750000  1
  Dy  Dy1  1  0.002820  0.330513  0.250000  1
  Dy  Dy2  1  0.669481  0.997225  0.750000  1
  Er  Er3  1  0.330407  0.002730  0.250000  1
  Al  Al4  1  0.002123  0.334414  0.572239  1
  Al  Al5  1  0.998200  0.665903  0.427434  1
  Al  Al6  1  0.998200  0.665903  0.072566  1
  Al  Al7  1  0.334414  0.002087  0.928114  1
  Al  Al8  1  0.002123  0.334414  0.927761  1
  Al  Al9  1  0.665231  0.997898  0.072575  1
  Al  Al10  1  0.665231  0.997898  0.427425  1
  Al  Al11  1  0.334414  0.002087  0.571886  1
  Al  Al12  1  0.334265  0.333953  0.057012  1
  Al  Al13  1  0.665776  0.665776  0.943408  1
  Al  Al14  1  0.665776  0.665776  0.556592  1
  Al  Al15  1  0.334265  0.333953  0.442988  1
  Ga  Ga16  1  0.128168  0.128098  0.750000  1
  Ga  Ga17  1  0.872325  0.872072  0.250000  1
  Ga  Ga18  1  0.338383  0.546646  0.750000  1
  Ga  Ga19  1  0.661192  0.452849  0.250000  1
  Ga  Ga20  1  0.546525  0.338248  0.750000  1
  Ga  Ga21  1  0.453336  0.661975  0.250000  1
  Ir  Ir22  1  0.671698  0.328087  0.499849  1
  Ir  Ir23  1  0.328162  0.671885  0.499843  1
  Ir  Ir24  1  0.328162  0.671885  0.000157  1
  Ir  Ir25  1  0.671698  0.328087  0.000151  1
  Ir  Ir26  1  0.000184  0.000075  0.499823  1
  Ir  Ir27  1  0.000184  0.000075  0.000177  1
