# generated using pymatgen
data_Nb12Ga8FeCu3N4
_symmetry_space_group_name_H-M   'P 1'
_cell_length_a   8.26038238
_cell_length_b   8.26038252
_cell_length_c   8.26038310
_cell_angle_alpha   59.54842353
_cell_angle_beta   59.54842752
_cell_angle_gamma   59.54842241
_symmetry_Int_Tables_number   1
_chemical_formula_structural   Nb12Ga8FeCu3N4
_chemical_formula_sum   'Nb12 Ga8 Fe1 Cu3 N4'
_cell_volume   394.46052272
_cell_formula_units_Z   1
loop_
 _symmetry_equiv_pos_site_id
 _symmetry_equiv_pos_as_xyz
  1  'x, y, z'
loop_
 _atom_site_type_symbol
 _atom_site_label
 _atom_site_symmetry_multiplicity
 _atom_site_fract_x
 _atom_site_fract_y
 _atom_site_fract_z
 _atom_site_occupancy
  Nb  Nb0  1  0.809972  0.809972  0.190174  1
  Nb  Nb1  1  0.188611  0.188611  0.810800  1
  Nb  Nb2  1  0.809972  0.190174  0.809972  1
  Nb  Nb3  1  0.188611  0.810800  0.188611  1
  Nb  Nb4  1  0.190174  0.809972  0.809972  1
  Nb  Nb5  1  0.810800  0.188611  0.188611  1
  Nb  Nb6  1  0.440028  0.440028  0.059826  1
  Nb  Nb7  1  0.061389  0.061389  0.439200  1
  Nb  Nb8  1  0.440028  0.059826  0.440028  1
  Nb  Nb9  1  0.061389  0.439200  0.061389  1
  Nb  Nb10  1  0.059826  0.440028  0.440028  1
  Nb  Nb11  1  0.439200  0.061389  0.061389  1
  Ga  Ga12  1  0.753607  0.417113  0.417113  1
  Ga  Ga13  1  0.417113  0.753607  0.417113  1
  Ga  Ga14  1  0.417113  0.417113  0.753607  1
  Ga  Ga15  1  0.413977  0.413977  0.413977  1
  Ga  Ga16  1  0.496393  0.832887  0.832887  1
  Ga  Ga17  1  0.832887  0.496393  0.832887  1
  Ga  Ga18  1  0.832887  0.832887  0.496393  1
  Ga  Ga19  1  0.836023  0.836023  0.836023  1
  Fe  Fe20  1  0.625000  0.625000  0.625000  1
  Cu  Cu21  1  0.125000  0.625000  0.625000  1
  Cu  Cu22  1  0.625000  0.125000  0.625000  1
  Cu  Cu23  1  0.625000  0.625000  0.125000  1
  N  N24  1  0.625000  0.125000  0.125000  1
  N  N25  1  0.125000  0.625000  0.125000  1
  N  N26  1  0.125000  0.125000  0.625000  1
  N  N27  1  0.125000  0.125000  0.125000  1
