# generated using pymatgen
data_Ho3ZnIn3HgRh
_symmetry_space_group_name_H-M   'P 1'
_cell_length_a   7.87579200
_cell_length_b   7.87579205
_cell_length_c   3.80975400
_cell_angle_alpha   90.00000000
_cell_angle_beta   90.00000000
_cell_angle_gamma   119.99999981
_symmetry_Int_Tables_number   1
_chemical_formula_structural   Ho3ZnIn3HgRh
_chemical_formula_sum   'Ho3 Zn1 In3 Hg1 Rh1'
_cell_volume   204.65202418
_cell_formula_units_Z   1
loop_
 _symmetry_equiv_pos_site_id
 _symmetry_equiv_pos_as_xyz
  1  'x, y, z'
loop_
 _atom_site_type_symbol
 _atom_site_label
 _atom_site_symmetry_multiplicity
 _atom_site_fract_x
 _atom_site_fract_y
 _atom_site_fract_z
 _atom_site_occupancy
  Ho  Ho0  1  0.969610  0.387138  0.500000  1
  Ho  Ho1  1  0.612862  0.582471  0.500000  1
  Ho  Ho2  1  0.417529  0.030390  0.500000  1
  Zn  Zn3  1  0.000000  0.000000  0.500000  1
  In  In4  1  0.261085  0.258594  0.000000  1
  In  In5  1  0.997508  0.738915  0.000000  1
  In  In6  1  0.741406  0.002492  0.000000  1
  Hg  Hg7  1  0.333333  0.666667  0.000000  1
  Rh  Rh8  1  0.666667  0.333333  0.000000  1
