# generated using pymatgen
data_La3DyTmIn3Br
_symmetry_space_group_name_H-M   'P 1'
_cell_length_a   9.60166200
_cell_length_b   9.60166182
_cell_length_c   6.81522100
_cell_angle_alpha   90.00000000
_cell_angle_beta   90.00000000
_cell_angle_gamma   120.00000063
_symmetry_Int_Tables_number   1
_chemical_formula_structural   La3DyTmIn3Br
_chemical_formula_sum   'La6 Dy2 Tm2 In6 Br2'
_cell_volume   544.13090305
_cell_formula_units_Z   2
loop_
 _symmetry_equiv_pos_site_id
 _symmetry_equiv_pos_as_xyz
  1  'x, y, z'
loop_
 _atom_site_type_symbol
 _atom_site_label
 _atom_site_symmetry_multiplicity
 _atom_site_fract_x
 _atom_site_fract_y
 _atom_site_fract_z
 _atom_site_occupancy
  La  La0  1  0.731291  0.731291  0.250440  1
  La  La1  1  0.000000  0.731291  0.749560  1
  La  La2  1  0.731291  0.000000  0.749560  1
  La  La3  1  0.268709  0.268709  0.749560  1
  La  La4  1  0.000000  0.268709  0.250440  1
  La  La5  1  0.268709  0.000000  0.250440  1
  Dy  Dy6  1  0.333333  0.666667  0.000000  1
  Dy  Dy7  1  0.666667  0.333333  0.000000  1
  Tm  Tm8  1  0.333333  0.666667  0.500000  1
  Tm  Tm9  1  0.666667  0.333333  0.500000  1
  In  In10  1  0.394525  0.000000  0.749646  1
  In  In11  1  0.000000  0.605475  0.250354  1
  In  In12  1  0.605475  0.000000  0.250354  1
  In  In13  1  0.000000  0.394525  0.749646  1
  In  In14  1  0.394525  0.394525  0.250354  1
  In  In15  1  0.605475  0.605475  0.749646  1
  Br  Br16  1  0.000000  0.000000  0.500000  1
  Br  Br17  1  0.000000  0.000000  0.000000  1
