# generated using pymatgen
data_La2PrNd3(SbO7)2
_symmetry_space_group_name_H-M   'P 1'
_cell_length_a   6.72504746
_cell_length_b   6.72799614
_cell_length_c   7.81396500
_cell_angle_alpha   90.00000000
_cell_angle_beta   90.00000000
_cell_angle_gamma   109.15125027
_symmetry_Int_Tables_number   1
_chemical_formula_structural   La2PrNd3(SbO7)2
_chemical_formula_sum   'La2 Pr1 Nd3 Sb2 O14'
_cell_volume   333.98438568
_cell_formula_units_Z   1
loop_
 _symmetry_equiv_pos_site_id
 _symmetry_equiv_pos_as_xyz
  1  'x, y, z'
loop_
 _atom_site_type_symbol
 _atom_site_label
 _atom_site_symmetry_multiplicity
 _atom_site_fract_x
 _atom_site_fract_y
 _atom_site_fract_z
 _atom_site_occupancy
  La  La0  1  0.498809  0.498945  0.500346  1
  La  La1  1  0.498809  0.498945  0.999654  1
  Pr  Pr2  1  0.998836  0.532384  0.250000  1
  Nd  Nd3  1  0.000456  0.467656  0.750000  1
  Nd  Nd4  1  0.532760  0.999195  0.750000  1
  Nd  Nd5  1  0.466988  0.000146  0.250000  1
  Sb  Sb6  1  0.000168  0.000320  0.500554  1
  Sb  Sb7  1  0.000168  0.000320  0.999446  1
  O  O8  1  0.936615  0.061933  0.750000  1
  O  O9  1  0.062186  0.939380  0.250000  1
  O  O10  1  0.365435  0.636448  0.250000  1
  O  O11  1  0.636223  0.362970  0.750000  1
  O  O12  1  0.369649  0.630523  0.750000  1
  O  O13  1  0.627865  0.367977  0.250000  1
  O  O14  1  0.312171  0.063860  0.972299  1
  O  O15  1  0.688277  0.936675  0.472186  1
  O  O16  1  0.312171  0.063860  0.527701  1
  O  O17  1  0.688277  0.936675  0.027814  1
  O  O18  1  0.067927  0.312873  0.474389  1
  O  O19  1  0.934144  0.688021  0.971379  1
  O  O20  1  0.934144  0.688021  0.528621  1
  O  O21  1  0.067927  0.312873  0.025611  1
