# generated using pymatgen
data_NaCo6As3P
_symmetry_space_group_name_H-M   'P 1'
_cell_length_a   6.80517600
_cell_length_b   6.80517625
_cell_length_c   3.48559600
_cell_angle_alpha   90.00000000
_cell_angle_beta   90.00000000
_cell_angle_gamma   120.00000853
_symmetry_Int_Tables_number   1
_chemical_formula_structural   NaCo6As3P
_chemical_formula_sum   'Na1 Co6 As3 P1'
_cell_volume   139.79330803
_cell_formula_units_Z   1
loop_
 _symmetry_equiv_pos_site_id
 _symmetry_equiv_pos_as_xyz
  1  'x, y, z'
loop_
 _atom_site_type_symbol
 _atom_site_label
 _atom_site_symmetry_multiplicity
 _atom_site_fract_x
 _atom_site_fract_y
 _atom_site_fract_z
 _atom_site_occupancy
  Na  Na0  1  0.000000  0.000000  0.000000  1
  Co  Co1  1  0.208790  0.791210  0.500000  1
  Co  Co2  1  0.208790  0.417579  0.500000  1
  Co  Co3  1  0.531412  0.062823  0.000000  1
  Co  Co4  1  0.937177  0.468588  0.000000  1
  Co  Co5  1  0.531412  0.468588  0.000000  1
  Co  Co6  1  0.582421  0.791210  0.500000  1
  As  As7  1  0.815132  0.184868  0.500000  1
  As  As8  1  0.369735  0.184868  0.500000  1
  As  As9  1  0.815132  0.630265  0.500000  1
  P  P10  1  0.333333  0.666667  0.000000  1
