# generated using pymatgen
data_Ca4Yb6SnBi5
_symmetry_space_group_name_H-M   'P 1'
_cell_length_a   9.28106810
_cell_length_b   9.30206346
_cell_length_c   7.02637000
_cell_angle_alpha   90.00000000
_cell_angle_beta   90.00000000
_cell_angle_gamma   120.07743277
_symmetry_Int_Tables_number   1
_chemical_formula_structural   Ca4Yb6SnBi5
_chemical_formula_sum   'Ca4 Yb6 Sn1 Bi5'
_cell_volume   524.92772453
_cell_formula_units_Z   1
loop_
 _symmetry_equiv_pos_site_id
 _symmetry_equiv_pos_as_xyz
  1  'x, y, z'
loop_
 _atom_site_type_symbol
 _atom_site_label
 _atom_site_symmetry_multiplicity
 _atom_site_fract_x
 _atom_site_fract_y
 _atom_site_fract_z
 _atom_site_occupancy
  Ca  Ca0  1  0.263008  0.000527  0.250000  1
  Ca  Ca1  1  0.739342  0.006763  0.750000  1
  Ca  Ca2  1  0.000058  0.262353  0.250000  1
  Ca  Ca3  1  0.736854  0.737374  0.250000  1
  Yb  Yb4  1  0.327878  0.661666  0.997133  1
  Yb  Yb5  1  0.672002  0.333983  0.502796  1
  Yb  Yb6  1  0.672002  0.333983  0.997204  1
  Yb  Yb7  1  0.327878  0.661666  0.502867  1
  Yb  Yb8  1  0.261317  0.268834  0.750000  1
  Yb  Yb9  1  0.999983  0.727179  0.750000  1
  Sn  Sn10  1  0.000582  0.384083  0.750000  1
  Bi  Bi11  1  0.613643  0.997641  0.250000  1
  Bi  Bi12  1  0.379782  0.001667  0.750000  1
  Bi  Bi13  1  0.999883  0.617180  0.250000  1
  Bi  Bi14  1  0.386010  0.383686  0.250000  1
  Bi  Bi15  1  0.619777  0.621415  0.750000  1
