# generated using pymatgen
data_Ho5Zn2Bi
_symmetry_space_group_name_H-M   'P 1'
_cell_length_a   8.60980552
_cell_length_b   8.60980624
_cell_length_c   8.60980543
_cell_angle_alpha   123.54640192
_cell_angle_beta   123.54640426
_cell_angle_gamma   83.95990889
_symmetry_Int_Tables_number   1
_chemical_formula_structural   Ho5Zn2Bi
_chemical_formula_sum   'Ho10 Zn4 Bi2'
_cell_volume   424.52615305
_cell_formula_units_Z   2
loop_
 _symmetry_equiv_pos_site_id
 _symmetry_equiv_pos_as_xyz
  1  'x, y, z'
loop_
 _atom_site_type_symbol
 _atom_site_label
 _atom_site_symmetry_multiplicity
 _atom_site_fract_x
 _atom_site_fract_y
 _atom_site_fract_z
 _atom_site_occupancy
  Ho  Ho0  1  0.000000  0.000000  0.000000  1
  Ho  Ho1  1  0.500000  0.500000  0.000000  1
  Ho  Ho2  1  0.011968  0.511968  0.806484  1
  Ho  Ho3  1  0.705483  0.205483  0.193516  1
  Ho  Ho4  1  0.511968  0.705483  0.500000  1
  Ho  Ho5  1  0.205483  0.011968  0.500000  1
  Ho  Ho6  1  0.988032  0.488032  0.193516  1
  Ho  Ho7  1  0.294517  0.794517  0.806484  1
  Ho  Ho8  1  0.488032  0.294517  0.500000  1
  Ho  Ho9  1  0.794517  0.988032  0.500000  1
  Zn  Zn10  1  0.638433  0.138433  0.776865  1
  Zn  Zn11  1  0.361567  0.861567  0.223135  1
  Zn  Zn12  1  0.138433  0.361567  0.500000  1
  Zn  Zn13  1  0.861567  0.638433  0.500000  1
  Bi  Bi14  1  0.750000  0.750000  0.000000  1
  Bi  Bi15  1  0.250000  0.250000  0.000000  1
