# generated using pymatgen
data_Er3SbP6N13
_symmetry_space_group_name_H-M   'P 1'
_cell_length_a   7.30543881
_cell_length_b   7.30543978
_cell_length_c   7.30544000
_cell_angle_alpha   108.88031949
_cell_angle_beta   108.88032210
_cell_angle_gamma   108.88031184
_symmetry_Int_Tables_number   1
_chemical_formula_structural   Er3SbP6N13
_chemical_formula_sum   'Er3 Sb1 P6 N13'
_cell_volume   306.52574622
_cell_formula_units_Z   1
loop_
 _symmetry_equiv_pos_site_id
 _symmetry_equiv_pos_as_xyz
  1  'x, y, z'
loop_
 _atom_site_type_symbol
 _atom_site_label
 _atom_site_symmetry_multiplicity
 _atom_site_fract_x
 _atom_site_fract_y
 _atom_site_fract_z
 _atom_site_occupancy
  Er  Er0  1  0.663302  0.985158  0.985158  1
  Er  Er1  1  0.985158  0.985158  0.663302  1
  Er  Er2  1  0.985158  0.663302  0.985158  1
  Sb  Sb3  1  0.173856  0.173856  0.173856  1
  P  P4  1  0.268733  0.760020  0.511357  1
  P  P5  1  0.760020  0.268733  0.511357  1
  P  P6  1  0.760020  0.511357  0.268733  1
  P  P7  1  0.268733  0.511357  0.760020  1
  P  P8  1  0.511357  0.760020  0.268733  1
  P  P9  1  0.511357  0.268733  0.760020  1
  N  N10  1  0.883006  0.883006  0.883006  1
  N  N11  1  0.721041  0.290783  0.290783  1
  N  N12  1  0.290783  0.721041  0.290783  1
  N  N13  1  0.346519  0.626120  0.626120  1
  N  N14  1  0.626120  0.626120  0.346519  1
  N  N15  1  0.433944  0.714703  0.015321  1
  N  N16  1  0.015321  0.714703  0.433944  1
  N  N17  1  0.626120  0.346519  0.626120  1
  N  N18  1  0.714703  0.015321  0.433944  1
  N  N19  1  0.433944  0.015321  0.714703  1
  N  N20  1  0.714703  0.433944  0.015321  1
  N  N21  1  0.290783  0.290783  0.721041  1
  N  N22  1  0.015321  0.433944  0.714703  1
