# generated using pymatgen
data_Ho17Lu3Sn3Pb13
_symmetry_space_group_name_H-M   'P 1'
_cell_length_a   8.15296849
_cell_length_b   15.54564800
_cell_length_c   8.20149100
_cell_angle_alpha   90.00000000
_cell_angle_beta   89.86845732
_cell_angle_gamma   90.00000000
_symmetry_Int_Tables_number   1
_chemical_formula_structural   Ho17Lu3Sn3Pb13
_chemical_formula_sum   'Ho17 Lu3 Sn3 Pb13'
_cell_volume   1039.48029622
_cell_formula_units_Z   1
loop_
 _symmetry_equiv_pos_site_id
 _symmetry_equiv_pos_as_xyz
  1  'x, y, z'
loop_
 _atom_site_type_symbol
 _atom_site_label
 _atom_site_symmetry_multiplicity
 _atom_site_fract_x
 _atom_site_fract_y
 _atom_site_fract_z
 _atom_site_occupancy
  Ho  Ho0  1  0.620985  0.623037  0.161648  1
  Ho  Ho1  1  0.121106  0.877161  0.338483  1
  Ho  Ho2  1  0.381339  0.122474  0.837991  1
  Ho  Ho3  1  0.876759  0.378850  0.659248  1
  Ho  Ho4  1  0.381339  0.377526  0.837991  1
  Ho  Ho5  1  0.876759  0.121150  0.659248  1
  Ho  Ho6  1  0.620985  0.876963  0.161648  1
  Ho  Ho7  1  0.121106  0.622839  0.338483  1
  Ho  Ho8  1  0.462900  0.601341  0.672378  1
  Ho  Ho9  1  0.962939  0.898658  0.827689  1
  Ho  Ho10  1  0.537077  0.100662  0.327592  1
  Ho  Ho11  1  0.036804  0.400179  0.175707  1
  Ho  Ho12  1  0.537077  0.399338  0.327592  1
  Ho  Ho13  1  0.036804  0.099821  0.175707  1
  Ho  Ho14  1  0.462900  0.898659  0.672378  1
  Ho  Ho15  1  0.962939  0.601342  0.827689  1
  Ho  Ho16  1  0.288488  0.750000  0.007069  1
  Lu  Lu17  1  0.788728  0.750000  0.492555  1
  Lu  Lu18  1  0.212315  0.250000  0.505523  1
  Lu  Lu19  1  0.709106  0.250000  0.993380  1
  Sn  Sn20  1  0.425619  0.750000  0.377033  1
  Sn  Sn21  1  0.924350  0.750000  0.124674  1
  Sn  Sn22  1  0.574648  0.250000  0.623913  1
  Pb  Pb23  1  0.717960  0.457713  0.968241  1
  Pb  Pb24  1  0.218054  0.042316  0.532827  1
  Pb  Pb25  1  0.282562  0.958164  0.031840  1
  Pb  Pb26  1  0.782201  0.542788  0.466777  1
  Pb  Pb27  1  0.282562  0.541836  0.031840  1
  Pb  Pb28  1  0.782201  0.957212  0.466777  1
  Pb  Pb29  1  0.717960  0.042287  0.968241  1
  Pb  Pb30  1  0.218054  0.457684  0.532827  1
  Pb  Pb31  1  0.072669  0.250000  0.875202  1
  Pb  Pb32  1  0.652401  0.750000  0.846202  1
  Pb  Pb33  1  0.151922  0.750000  0.652273  1
  Pb  Pb34  1  0.349745  0.250000  0.154951  1
  Pb  Pb35  1  0.848636  0.250000  0.346381  1
