# generated using pymatgen
data_Sr3Pa(AsPd)4
_symmetry_space_group_name_H-M   'P 1'
_cell_length_a   4.37067100
_cell_length_b   8.25718944
_cell_length_c   7.59501247
_cell_angle_alpha   90.29170304
_cell_angle_beta   90.00000000
_cell_angle_gamma   90.00000000
_symmetry_Int_Tables_number   1
_chemical_formula_structural   Sr3Pa(AsPd)4
_chemical_formula_sum   'Sr3 Pa1 As4 Pd4'
_cell_volume   274.09633452
_cell_formula_units_Z   1
loop_
 _symmetry_equiv_pos_site_id
 _symmetry_equiv_pos_as_xyz
  1  'x, y, z'
loop_
 _atom_site_type_symbol
 _atom_site_label
 _atom_site_symmetry_multiplicity
 _atom_site_fract_x
 _atom_site_fract_y
 _atom_site_fract_z
 _atom_site_occupancy
  Sr  Sr0  1  0.250000  0.500006  0.250238  1
  Sr  Sr1  1  0.250000  0.999799  0.250149  1
  Sr  Sr2  1  0.750000  0.499398  0.749598  1
  Pa  Pa3  1  0.750000  0.999861  0.750082  1
  As  As4  1  0.250000  0.211585  0.910041  1
  As  As5  1  0.250000  0.787815  0.590088  1
  As  As6  1  0.750000  0.763152  0.079124  1
  As  As7  1  0.750000  0.236725  0.420575  1
  Pd  Pd8  1  0.250000  0.757752  0.913730  1
  Pd  Pd9  1  0.250000  0.242483  0.585877  1
  Pd  Pd10  1  0.750000  0.238948  0.075152  1
  Pd  Pd11  1  0.750000  0.762475  0.425347  1
