# generated using pymatgen
data_Hf4Si4Ir3Ru
_symmetry_space_group_name_H-M   'P 1'
_cell_length_a   3.98856700
_cell_length_b   6.48241691
_cell_length_c   7.40931879
_cell_angle_alpha   89.80257832
_cell_angle_beta   90.00000000
_cell_angle_gamma   90.00000000
_symmetry_Int_Tables_number   1
_chemical_formula_structural   Hf4Si4Ir3Ru
_chemical_formula_sum   'Hf4 Si4 Ir3 Ru1'
_cell_volume   191.57090605
_cell_formula_units_Z   1
loop_
 _symmetry_equiv_pos_site_id
 _symmetry_equiv_pos_as_xyz
  1  'x, y, z'
loop_
 _atom_site_type_symbol
 _atom_site_label
 _atom_site_symmetry_multiplicity
 _atom_site_fract_x
 _atom_site_fract_y
 _atom_site_fract_z
 _atom_site_occupancy
  Hf  Hf0  1  0.250000  0.984050  0.318471  1
  Hf  Hf1  1  0.250000  0.480682  0.183000  1
  Hf  Hf2  1  0.750000  0.020546  0.680778  1
  Hf  Hf3  1  0.750000  0.515918  0.817904  1
  Si  Si4  1  0.250000  0.723893  0.620366  1
  Si  Si5  1  0.250000  0.219121  0.882120  1
  Si  Si6  1  0.750000  0.277479  0.375945  1
  Si  Si7  1  0.750000  0.781009  0.121141  1
  Ir  Ir8  1  0.250000  0.344728  0.564915  1
  Ir  Ir9  1  0.250000  0.840397  0.937051  1
  Ir  Ir10  1  0.750000  0.655942  0.436558  1
  Ru  Ru11  1  0.750000  0.156233  0.061751  1
