# generated using pymatgen
data_CaTbSi7Ir12
_symmetry_space_group_name_H-M   'P 1'
_cell_length_a   9.76608200
_cell_length_b   9.76608191
_cell_length_c   3.89323900
_cell_angle_alpha   90.00000000
_cell_angle_beta   90.00000000
_cell_angle_gamma   120.00000032
_symmetry_Int_Tables_number   1
_chemical_formula_structural   CaTbSi7Ir12
_chemical_formula_sum   'Ca1 Tb1 Si7 Ir12'
_cell_volume   321.57510813
_cell_formula_units_Z   1
loop_
 _symmetry_equiv_pos_site_id
 _symmetry_equiv_pos_as_xyz
  1  'x, y, z'
loop_
 _atom_site_type_symbol
 _atom_site_label
 _atom_site_symmetry_multiplicity
 _atom_site_fract_x
 _atom_site_fract_y
 _atom_site_fract_z
 _atom_site_occupancy
  Ca  Ca0  1  0.666667  0.333333  0.250837  1
  Tb  Tb1  1  0.333333  0.666667  0.749931  1
  Si  Si2  1  0.000000  0.000000  0.499481  1
  Si  Si3  1  0.290068  0.885929  0.248663  1
  Si  Si4  1  0.595862  0.709932  0.248663  1
  Si  Si5  1  0.114071  0.404138  0.248663  1
  Si  Si6  1  0.711244  0.117197  0.751170  1
  Si  Si7  1  0.405953  0.288756  0.751170  1
  Si  Si8  1  0.882803  0.594047  0.751170  1
  Ir  Ir9  1  0.260498  0.116321  0.254136  1
  Ir  Ir10  1  0.855822  0.739502  0.254136  1
  Ir  Ir11  1  0.883679  0.144178  0.254136  1
  Ir  Ir12  1  0.739541  0.885293  0.746023  1
  Ir  Ir13  1  0.145753  0.260459  0.746023  1
  Ir  Ir14  1  0.114707  0.854247  0.746023  1
  Ir  Ir15  1  0.062982  0.619693  0.248766  1
  Ir  Ir16  1  0.556710  0.937018  0.248766  1
  Ir  Ir17  1  0.380307  0.443290  0.248766  1
  Ir  Ir18  1  0.941289  0.383049  0.751159  1
  Ir  Ir19  1  0.441760  0.058711  0.751159  1
  Ir  Ir20  1  0.616951  0.558240  0.751159  1
