# generated using pymatgen
data_Cr2GaAgO8
_symmetry_space_group_name_H-M   'P 1'
_cell_length_a   5.10778717
_cell_length_b   5.10778669
_cell_length_c   7.03296707
_cell_angle_alpha   91.60287043
_cell_angle_beta   91.60286889
_cell_angle_gamma   66.16764722
_symmetry_Int_Tables_number   1
_chemical_formula_structural   Cr2GaAgO8
_chemical_formula_sum   'Cr2 Ga1 Ag1 O8'
_cell_volume   167.74735892
_cell_formula_units_Z   1
loop_
 _symmetry_equiv_pos_site_id
 _symmetry_equiv_pos_as_xyz
  1  'x, y, z'
loop_
 _atom_site_type_symbol
 _atom_site_label
 _atom_site_symmetry_multiplicity
 _atom_site_fract_x
 _atom_site_fract_y
 _atom_site_fract_z
 _atom_site_occupancy
  Cr  Cr0  1  0.355762  0.355762  0.781777  1
  Cr  Cr1  1  0.644238  0.644238  0.218223  1
  Ga  Ga2  1  0.000000  0.000000  0.000000  1
  Ag  Ag3  1  0.000000  0.000000  0.500000  1
  O  O4  1  0.261383  0.261383  0.577411  1
  O  O5  1  0.738617  0.738617  0.422589  1
  O  O6  1  0.720941  0.215269  0.797500  1
  O  O7  1  0.279059  0.784731  0.202500  1
  O  O8  1  0.784731  0.279059  0.202500  1
  O  O9  1  0.215269  0.720941  0.797500  1
  O  O10  1  0.229517  0.229517  0.955723  1
  O  O11  1  0.770483  0.770483  0.044277  1
