# generated using pymatgen
data_Nd8GaPI12
_symmetry_space_group_name_H-M   'P 1'
_cell_length_a   4.34546100
_cell_length_b   14.42970833
_cell_length_c   15.13547900
_cell_angle_alpha   89.84568721
_cell_angle_beta   90.00000000
_cell_angle_gamma   90.00000000
_symmetry_Int_Tables_number   1
_chemical_formula_structural   Nd8GaPI12
_chemical_formula_sum   'Nd8 Ga1 P1 I12'
_cell_volume   949.04761935
_cell_formula_units_Z   1
loop_
 _symmetry_equiv_pos_site_id
 _symmetry_equiv_pos_as_xyz
  1  'x, y, z'
loop_
 _atom_site_type_symbol
 _atom_site_label
 _atom_site_symmetry_multiplicity
 _atom_site_fract_x
 _atom_site_fract_y
 _atom_site_fract_z
 _atom_site_occupancy
  Nd  Nd0  1  0.500000  0.120054  0.344059  1
  Nd  Nd1  1  0.500000  0.879946  0.655941  1
  Nd  Nd2  1  0.500000  0.614241  0.149661  1
  Nd  Nd3  1  0.500000  0.385759  0.850339  1
  Nd  Nd4  1  0.000000  0.114427  0.580620  1
  Nd  Nd5  1  0.000000  0.885573  0.419380  1
  Nd  Nd6  1  0.000000  0.605583  0.926560  1
  Nd  Nd7  1  0.000000  0.394417  0.073440  1
  Ga  Ga8  1  0.500000  0.000000  0.500000  1
  P  P9  1  0.500000  0.500000  0.000000  1
  I  I10  1  0.500000  0.255207  0.166167  1
  I  I11  1  0.500000  0.744793  0.833833  1
  I  I12  1  0.500000  0.750225  0.327984  1
  I  I13  1  0.500000  0.249775  0.672016  1
  I  I14  1  0.000000  0.262394  0.419466  1
  I  I15  1  0.000000  0.737606  0.580534  1
  I  I16  1  0.000000  0.758210  0.080643  1
  I  I17  1  0.000000  0.241790  0.919357  1
  I  I18  1  0.000000  0.003289  0.235804  1
  I  I19  1  0.000000  0.996711  0.764196  1
  I  I20  1  0.000000  0.501493  0.259647  1
  I  I21  1  0.000000  0.498507  0.740353  1
