# generated using pymatgen
data_Ce2MnRu3
_symmetry_space_group_name_H-M   'P 1'
_cell_length_a   5.13134652
_cell_length_b   5.13134674
_cell_length_c   5.13134716
_cell_angle_alpha   65.53502384
_cell_angle_beta   65.53502228
_cell_angle_gamma   65.53502562
_symmetry_Int_Tables_number   1
_chemical_formula_structural   Ce2MnRu3
_chemical_formula_sum   'Ce2 Mn1 Ru3'
_cell_volume   107.03131346
_cell_formula_units_Z   1
loop_
 _symmetry_equiv_pos_site_id
 _symmetry_equiv_pos_as_xyz
  1  'x, y, z'
loop_
 _atom_site_type_symbol
 _atom_site_label
 _atom_site_symmetry_multiplicity
 _atom_site_fract_x
 _atom_site_fract_y
 _atom_site_fract_z
 _atom_site_occupancy
  Ce  Ce0  1  0.627799  0.627799  0.627799  1
  Ce  Ce1  1  0.372201  0.372201  0.372201  1
  Mn  Mn2  1  0.000000  0.000000  0.000000  1
  Ru  Ru3  1  0.000000  0.500000  0.000000  1
  Ru  Ru4  1  0.500000  0.000000  0.000000  1
  Ru  Ru5  1  0.000000  0.000000  0.500000  1
