# generated using pymatgen
data_Ho2TmSn3HgRh2
_symmetry_space_group_name_H-M   'P 1'
_cell_length_a   7.70778757
_cell_length_b   7.69825726
_cell_length_c   3.86891400
_cell_angle_alpha   90.00000000
_cell_angle_beta   90.00000000
_cell_angle_gamma   119.99667070
_symmetry_Int_Tables_number   1
_chemical_formula_structural   Ho2TmSn3HgRh2
_chemical_formula_sum   'Ho2 Tm1 Sn3 Hg1 Rh2'
_cell_volume   198.81833581
_cell_formula_units_Z   1
loop_
 _symmetry_equiv_pos_site_id
 _symmetry_equiv_pos_as_xyz
  1  'x, y, z'
loop_
 _atom_site_type_symbol
 _atom_site_label
 _atom_site_symmetry_multiplicity
 _atom_site_fract_x
 _atom_site_fract_y
 _atom_site_fract_z
 _atom_site_occupancy
  Ho  Ho0  1  0.022403  0.411296  0.000000  1
  Ho  Ho1  1  0.588746  0.611351  0.000000  1
  Tm  Tm2  1  0.388219  0.976900  0.000000  1
  Sn  Sn3  1  0.252306  0.257979  0.500000  1
  Sn  Sn4  1  0.006450  0.748008  0.500000  1
  Sn  Sn5  1  0.741518  0.994044  0.500000  1
  Hg  Hg6  1  0.666142  0.332634  0.500000  1
  Rh  Rh7  1  0.333680  0.667750  0.500000  1
  Rh  Rh8  1  0.000536  0.000038  0.000000  1
