# generated using pymatgen
data_Dy5Tm2Cd(Co3Sn11)2
_symmetry_space_group_name_H-M   'P 1'
_cell_length_a   9.67325935
_cell_length_b   9.67325884
_cell_length_c   10.01494945
_cell_angle_alpha   89.97034715
_cell_angle_beta   90.02964957
_cell_angle_gamma   120.00862140
_symmetry_Int_Tables_number   1
_chemical_formula_structural   Dy5Tm2Cd(Co3Sn11)2
_chemical_formula_sum   'Dy5 Tm2 Cd1 Co6 Sn22'
_cell_volume   811.49756412
_cell_formula_units_Z   1
loop_
 _symmetry_equiv_pos_site_id
 _symmetry_equiv_pos_as_xyz
  1  'x, y, z'
loop_
 _atom_site_type_symbol
 _atom_site_label
 _atom_site_symmetry_multiplicity
 _atom_site_fract_x
 _atom_site_fract_y
 _atom_site_fract_z
 _atom_site_occupancy
  Dy  Dy0  1  0.000000  0.000000  0.000000  1
  Dy  Dy1  1  0.478977  0.957958  0.305869  1
  Dy  Dy2  1  0.521023  0.042042  0.694131  1
  Dy  Dy3  1  0.042042  0.521023  0.305869  1
  Dy  Dy4  1  0.957958  0.478977  0.694131  1
  Tm  Tm5  1  0.479311  0.520689  0.305980  1
  Tm  Tm6  1  0.520689  0.479311  0.694020  1
  Cd  Cd7  1  0.000000  0.000000  0.500000  1
  Co  Co8  1  0.832047  0.167953  0.196657  1
  Co  Co9  1  0.167953  0.832047  0.803343  1
  Co  Co10  1  0.831580  0.663901  0.196796  1
  Co  Co11  1  0.168420  0.336099  0.803204  1
  Co  Co12  1  0.336099  0.168420  0.196796  1
  Co  Co13  1  0.663901  0.831580  0.803204  1
  Sn  Sn14  1  0.346130  0.000106  0.999969  1
  Sn  Sn15  1  0.653870  0.999894  0.000031  1
  Sn  Sn16  1  0.000106  0.346130  0.000031  1
  Sn  Sn17  1  0.999894  0.653870  0.999969  1
  Sn  Sn18  1  0.653706  0.653706  0.000000  1
  Sn  Sn19  1  0.346294  0.346294  0.000000  1
  Sn  Sn20  1  0.333449  0.666551  0.818413  1
  Sn  Sn21  1  0.666551  0.333449  0.181587  1
  Sn  Sn22  1  0.782293  0.217707  0.453030  1
  Sn  Sn23  1  0.217707  0.782293  0.546970  1
  Sn  Sn24  1  0.781439  0.564502  0.453071  1
  Sn  Sn25  1  0.218561  0.435498  0.546929  1
  Sn  Sn26  1  0.435498  0.218561  0.453071  1
  Sn  Sn27  1  0.564502  0.781439  0.546929  1
  Sn  Sn28  1  0.333766  0.666234  0.118866  1
  Sn  Sn29  1  0.666234  0.333766  0.881134  1
  Sn  Sn30  1  0.116286  0.883714  0.271032  1
  Sn  Sn31  1  0.883714  0.116286  0.728968  1
  Sn  Sn32  1  0.116803  0.233017  0.271036  1
  Sn  Sn33  1  0.883197  0.766983  0.728964  1
  Sn  Sn34  1  0.766983  0.883197  0.271036  1
  Sn  Sn35  1  0.233017  0.116803  0.728964  1
