# generated using pymatgen
data_Sc6N5
_symmetry_space_group_name_H-M   'P 1'
_cell_length_a   5.55322279
_cell_length_b   5.55322325
_cell_length_c   5.55930210
_cell_angle_alpha   99.72091574
_cell_angle_beta   99.72091028
_cell_angle_gamma   119.87735469
_symmetry_Int_Tables_number   1
_chemical_formula_structural   Sc6N5
_chemical_formula_sum   'Sc6 N5'
_cell_volume   139.95449315
_cell_formula_units_Z   1
loop_
 _symmetry_equiv_pos_site_id
 _symmetry_equiv_pos_as_xyz
  1  'x, y, z'
loop_
 _atom_site_type_symbol
 _atom_site_label
 _atom_site_symmetry_multiplicity
 _atom_site_fract_x
 _atom_site_fract_y
 _atom_site_fract_z
 _atom_site_occupancy
  Sc  Sc0  1  0.433611  0.085190  0.254217  1
  Sc  Sc1  1  0.085190  0.433611  0.254217  1
  Sc  Sc2  1  0.738588  0.738588  0.262174  1
  Sc  Sc3  1  0.261413  0.261413  0.737827  1
  Sc  Sc4  1  0.914811  0.566390  0.745782  1
  Sc  Sc5  1  0.566390  0.914811  0.745782  1
  N  N6  1  0.666696  0.333303  0.000000  1
  N  N7  1  0.333303  0.666696  0.000000  1
  N  N8  1  0.833306  0.166695  0.500000  1
  N  N9  1  0.500000  0.500000  0.500000  1
  N  N10  1  0.166695  0.833306  0.500000  1
