# generated using pymatgen
data_GaSn4(BRh3)2
_symmetry_space_group_name_H-M   'P 1'
_cell_length_a   6.63355910
_cell_length_b   6.50927847
_cell_length_c   5.62557100
_cell_angle_alpha   90.00000000
_cell_angle_beta   90.00000000
_cell_angle_gamma   119.38216262
_symmetry_Int_Tables_number   1
_chemical_formula_structural   GaSn4(BRh3)2
_chemical_formula_sum   'Ga1 Sn4 B2 Rh6'
_cell_volume   211.66398683
_cell_formula_units_Z   1
loop_
 _symmetry_equiv_pos_site_id
 _symmetry_equiv_pos_as_xyz
  1  'x, y, z'
loop_
 _atom_site_type_symbol
 _atom_site_label
 _atom_site_symmetry_multiplicity
 _atom_site_fract_x
 _atom_site_fract_y
 _atom_site_fract_z
 _atom_site_occupancy
  Ga  Ga0  1  0.000000  0.599034  0.000000  1
  Sn  Sn1  1  0.668808  0.333050  0.500000  1
  Sn  Sn2  1  0.402049  0.405738  0.000000  1
  Sn  Sn3  1  0.597951  0.003691  0.000000  1
  Sn  Sn4  1  0.331192  0.664242  0.500000  1
  B  B5  1  0.000000  0.001973  0.500000  1
  B  B6  1  0.000000  0.994193  0.000000  1
  Rh  Rh7  1  0.000000  0.258520  0.748509  1
  Rh  Rh8  1  0.000000  0.258520  0.251491  1
  Rh  Rh9  1  0.750213  0.745367  0.252905  1
  Rh  Rh10  1  0.249787  0.995153  0.747095  1
  Rh  Rh11  1  0.249787  0.995153  0.252905  1
  Rh  Rh12  1  0.750213  0.745367  0.747095  1
