# generated using pymatgen
data_SrLi6ThUN6
_symmetry_space_group_name_H-M   'P 1'
_cell_length_a   6.33471800
_cell_length_b   6.33471875
_cell_length_c   5.48463000
_cell_angle_alpha   90.00000000
_cell_angle_beta   90.00000000
_cell_angle_gamma   120.00000654
_symmetry_Int_Tables_number   1
_chemical_formula_structural   SrLi6ThUN6
_chemical_formula_sum   'Sr1 Li6 Th1 U1 N6'
_cell_volume   190.60424201
_cell_formula_units_Z   1
loop_
 _symmetry_equiv_pos_site_id
 _symmetry_equiv_pos_as_xyz
  1  'x, y, z'
loop_
 _atom_site_type_symbol
 _atom_site_label
 _atom_site_symmetry_multiplicity
 _atom_site_fract_x
 _atom_site_fract_y
 _atom_site_fract_z
 _atom_site_occupancy
  Sr  Sr0  1  0.000000  0.000000  0.992137  1
  Li  Li1  1  0.904961  0.591586  0.584791  1
  Li  Li2  1  0.408414  0.313375  0.584791  1
  Li  Li3  1  0.686625  0.095039  0.584791  1
  Li  Li4  1  0.068318  0.370518  0.409182  1
  Li  Li5  1  0.629482  0.697801  0.409182  1
  Li  Li6  1  0.302199  0.931682  0.409182  1
  Th  Th7  1  0.333333  0.666667  0.967507  1
  U  U8  1  0.666667  0.333333  0.026225  1
  N  N9  1  0.989461  0.620778  0.231461  1
  N  N10  1  0.379222  0.368684  0.231461  1
  N  N11  1  0.631316  0.010539  0.231461  1
  N  N12  1  0.961201  0.355595  0.779276  1
  N  N13  1  0.644405  0.605605  0.779276  1
  N  N14  1  0.394395  0.038799  0.779276  1
