# generated using pymatgen
data_Be2SiW5
_symmetry_space_group_name_H-M   'P 1'
_cell_length_a   7.12406108
_cell_length_b   7.12385927
_cell_length_c   6.17882930
_cell_angle_alpha   64.30128684
_cell_angle_beta   64.29790853
_cell_angle_gamma   51.40080587
_symmetry_Int_Tables_number   1
_chemical_formula_structural   Be2SiW5
_chemical_formula_sum   'Be4 Si2 W10'
_cell_volume   214.82287314
_cell_formula_units_Z   2
loop_
 _symmetry_equiv_pos_site_id
 _symmetry_equiv_pos_as_xyz
  1  'x, y, z'
loop_
 _atom_site_type_symbol
 _atom_site_label
 _atom_site_symmetry_multiplicity
 _atom_site_fract_x
 _atom_site_fract_y
 _atom_site_fract_z
 _atom_site_occupancy
  Be  Be0  1  0.624213  0.375787  0.624213  1
  Be  Be1  1  0.876213  0.123787  0.124147  1
  Be  Be2  1  0.124147  0.875853  0.876213  1
  Be  Be3  1  0.376139  0.623861  0.376139  1
  Si  Si4  1  0.249720  0.250280  0.249720  1
  Si  Si5  1  0.749720  0.750280  0.749720  1
  W  W6  1  0.519728  0.190821  0.479885  1
  W  W7  1  0.190434  0.520115  0.809179  1
  W  W8  1  0.019782  0.690701  0.309299  1
  W  W9  1  0.690795  0.019409  0.980591  1
  W  W10  1  0.479885  0.809566  0.519728  1
  W  W11  1  0.809179  0.480272  0.190434  1
  W  W12  1  0.980591  0.309205  0.690795  1
  W  W13  1  0.309299  0.980218  0.019782  1
  W  W14  1  0.500060  0.499940  0.000092  1
  W  W15  1  0.000092  0.999908  0.500060  1
