# generated using pymatgen
data_Dy2WC2
_symmetry_space_group_name_H-M   'P 1'
_cell_length_a   5.73764600
_cell_length_b   5.73764600
_cell_length_c   9.91462600
_cell_angle_alpha   90.00000000
_cell_angle_beta   90.00000000
_cell_angle_gamma   90.00000000
_symmetry_Int_Tables_number   1
_chemical_formula_structural   Dy2WC2
_chemical_formula_sum   'Dy8 W4 C8'
_cell_volume   326.39525448
_cell_formula_units_Z   4
loop_
 _symmetry_equiv_pos_site_id
 _symmetry_equiv_pos_as_xyz
  1  'x, y, z'
loop_
 _atom_site_type_symbol
 _atom_site_label
 _atom_site_symmetry_multiplicity
 _atom_site_fract_x
 _atom_site_fract_y
 _atom_site_fract_z
 _atom_site_occupancy
  Dy  Dy0  1  0.199758  0.199758  0.342506  1
  Dy  Dy1  1  0.800242  0.800242  0.657494  1
  Dy  Dy2  1  0.300242  0.699758  0.842506  1
  Dy  Dy3  1  0.800242  0.800242  0.342506  1
  Dy  Dy4  1  0.199758  0.199758  0.657494  1
  Dy  Dy5  1  0.699758  0.300242  0.157494  1
  Dy  Dy6  1  0.699758  0.300242  0.842506  1
  Dy  Dy7  1  0.300242  0.699758  0.157494  1
  W  W8  1  0.177854  0.177854  0.000000  1
  W  W9  1  0.822146  0.822146  0.000000  1
  W  W10  1  0.322146  0.677854  0.500000  1
  W  W11  1  0.677854  0.322146  0.500000  1
  C  C12  1  0.000000  0.000000  0.153407  1
  C  C13  1  0.500000  0.500000  0.346593  1
  C  C14  1  0.500000  0.500000  0.653407  1
  C  C15  1  0.500000  0.000000  0.000000  1
  C  C16  1  0.000000  0.500000  0.000000  1
  C  C17  1  0.000000  0.000000  0.846593  1
  C  C18  1  0.500000  0.000000  0.500000  1
  C  C19  1  0.000000  0.500000  0.500000  1
