# generated using pymatgen
data_Tb4Er4Re3B24Ir
_symmetry_space_group_name_H-M   'P 1'
_cell_length_a   3.66894800
_cell_length_b   9.15637346
_cell_length_c   11.54990905
_cell_angle_alpha   90.12140523
_cell_angle_beta   90.00000000
_cell_angle_gamma   90.00000000
_symmetry_Int_Tables_number   1
_chemical_formula_structural   Tb4Er4Re3B24Ir
_chemical_formula_sum   'Tb4 Er4 Re3 B24 Ir1'
_cell_volume   388.00975458
_cell_formula_units_Z   1
loop_
 _symmetry_equiv_pos_site_id
 _symmetry_equiv_pos_as_xyz
  1  'x, y, z'
loop_
 _atom_site_type_symbol
 _atom_site_label
 _atom_site_symmetry_multiplicity
 _atom_site_fract_x
 _atom_site_fract_y
 _atom_site_fract_z
 _atom_site_occupancy
  Tb  Tb0  1  0.000000  0.318307  0.415531  1
  Tb  Tb1  1  0.000000  0.678642  0.591084  1
  Tb  Tb2  1  0.000000  0.826677  0.081710  1
  Tb  Tb3  1  0.000000  0.177449  0.912599  1
  Er  Er4  1  0.000000  0.944322  0.370510  1
  Er  Er5  1  0.000000  0.055878  0.628953  1
  Er  Er6  1  0.000000  0.440995  0.128251  1
  Er  Er7  1  0.000000  0.556662  0.871557  1
  Re  Re8  1  0.000000  0.362303  0.677966  1
  Re  Re9  1  0.000000  0.138666  0.180285  1
  Re  Re10  1  0.000000  0.861359  0.820637  1
  B  B11  1  0.500000  0.554037  0.433355  1
  B  B12  1  0.500000  0.446476  0.567088  1
  B  B13  1  0.500000  0.053639  0.067049  1
  B  B14  1  0.500000  0.946757  0.932288  1
  B  B15  1  0.500000  0.749646  0.419626  1
  B  B16  1  0.500000  0.250126  0.581395  1
  B  B17  1  0.500000  0.249497  0.081615  1
  B  B18  1  0.500000  0.751144  0.918526  1
  B  B19  1  0.500000  0.791351  0.265472  1
  B  B20  1  0.500000  0.208342  0.733841  1
  B  B21  1  0.500000  0.291761  0.234734  1
  B  B22  1  0.500000  0.708026  0.766178  1
  B  B23  1  0.500000  0.631209  0.184349  1
  B  B24  1  0.500000  0.369748  0.814132  1
  B  B25  1  0.500000  0.130464  0.314844  1
  B  B26  1  0.500000  0.868861  0.685447  1
  B  B27  1  0.500000  0.983081  0.212483  1
  B  B28  1  0.500000  0.017250  0.786574  1
  B  B29  1  0.500000  0.483027  0.287473  1
  B  B30  1  0.500000  0.518051  0.712813  1
  B  B31  1  0.500000  0.602506  0.029022  1
  B  B32  1  0.500000  0.398428  0.972241  1
  B  B33  1  0.500000  0.100886  0.471460  1
  B  B34  1  0.500000  0.896340  0.527958  1
  Ir  Ir35  1  0.000000  0.638092  0.320954  1
