# generated using pymatgen
data_Sc5Co12P12Ru7
_symmetry_space_group_name_H-M   'P 1'
_cell_length_a   12.01992334
_cell_length_b   12.06001133
_cell_length_c   3.67123300
_cell_angle_alpha   90.00000000
_cell_angle_beta   90.00000000
_cell_angle_gamma   119.90048890
_symmetry_Int_Tables_number   1
_chemical_formula_structural   Sc5Co12P12Ru7
_chemical_formula_sum   'Sc5 Co12 P12 Ru7'
_cell_volume   461.34583636
_cell_formula_units_Z   1
loop_
 _symmetry_equiv_pos_site_id
 _symmetry_equiv_pos_as_xyz
  1  'x, y, z'
loop_
 _atom_site_type_symbol
 _atom_site_label
 _atom_site_symmetry_multiplicity
 _atom_site_fract_x
 _atom_site_fract_y
 _atom_site_fract_z
 _atom_site_occupancy
  Sc  Sc0  1  0.667117  0.333022  0.000000  1
  Sc  Sc1  1  0.337421  0.667239  0.000000  1
  Sc  Sc2  1  0.178004  0.177481  0.500000  1
  Sc  Sc3  1  0.822774  0.000367  0.500000  1
  Sc  Sc4  1  0.999445  0.822578  0.500000  1
  Co  Co5  1  0.828898  0.193371  0.000000  1
  Co  Co6  1  0.802515  0.633863  0.000000  1
  Co  Co7  1  0.367544  0.171505  0.000000  1
  Co  Co8  1  0.193958  0.826853  0.000000  1
  Co  Co9  1  0.628366  0.807014  0.000000  1
  Co  Co10  1  0.178213  0.370754  0.000000  1
  Co  Co11  1  0.518265  0.868801  0.500000  1
  Co  Co12  1  0.353115  0.484915  0.500000  1
  Co  Co13  1  0.717042  0.721814  0.500000  1
  Co  Co14  1  0.280446  0.998759  0.500000  1
  Co  Co15  1  0.003107  0.280361  0.500000  1
  Co  Co16  1  0.999707  0.999422  0.000000  1
  P  P17  1  0.355005  0.358426  0.000000  1
  P  P18  1  0.642594  0.996754  0.000000  1
  P  P19  1  0.000312  0.643190  0.000000  1
  P  P20  1  0.839212  0.315759  0.500000  1
  P  P21  1  0.681363  0.523673  0.500000  1
  P  P22  1  0.477889  0.161873  0.500000  1
  P  P23  1  0.321849  0.839242  0.500000  1
  P  P24  1  0.517417  0.684797  0.500000  1
  P  P25  1  0.167723  0.478347  0.500000  1
  P  P26  1  0.823289  0.826143  0.000000  1
  P  P27  1  0.174785  0.999208  0.000000  1
  P  P28  1  0.002714  0.175435  0.000000  1
  Ru  Ru29  1  0.546301  0.556925  0.000000  1
  Ru  Ru30  1  0.444447  0.991447  0.000000  1
  Ru  Ru31  1  0.000784  0.444976  0.000000  1
  Ru  Ru32  1  0.647349  0.125220  0.500000  1
  Ru  Ru33  1  0.869537  0.519131  0.500000  1
  Ru  Ru34  1  0.477327  0.353169  0.500000  1
  Ru  Ru35  1  0.134162  0.648167  0.500000  1
