# generated using pymatgen
data_K4SmUSe6
_symmetry_space_group_name_H-M   'P 1'
_cell_length_a   7.60024321
_cell_length_b   7.60024385
_cell_length_c   8.05423833
_cell_angle_alpha   80.80300058
_cell_angle_beta   80.80300420
_cell_angle_gamma   119.97562253
_symmetry_Int_Tables_number   1
_chemical_formula_structural   K4SmUSe6
_chemical_formula_sum   'K4 Sm1 U1 Se6'
_cell_volume   381.88196708
_cell_formula_units_Z   1
loop_
 _symmetry_equiv_pos_site_id
 _symmetry_equiv_pos_as_xyz
  1  'x, y, z'
loop_
 _atom_site_type_symbol
 _atom_site_label
 _atom_site_symmetry_multiplicity
 _atom_site_fract_x
 _atom_site_fract_y
 _atom_site_fract_z
 _atom_site_occupancy
  K  K0  1  0.344180  0.655820  0.500000  1
  K  K1  1  0.654874  0.345126  0.500000  1
  K  K2  1  0.000647  0.999353  0.500000  1
  K  K3  1  0.499923  0.500077  0.000000  1
  Sm  Sm4  1  0.167845  0.832155  0.000000  1
  U  U5  1  0.832301  0.167699  0.000000  1
  Se  Se6  1  0.792559  0.808573  0.207104  1
  Se  Se7  1  0.445413  0.065267  0.210380  1
  Se  Se8  1  0.047517  0.411418  0.209475  1
  Se  Se9  1  0.588582  0.952483  0.790525  1
  Se  Se10  1  0.934733  0.554587  0.789620  1
  Se  Se11  1  0.191427  0.207441  0.792896  1
