# generated using pymatgen
data_Sr3AsP5Ir6
_symmetry_space_group_name_H-M   'P 1'
_cell_length_a   6.83994824
_cell_length_b   6.81718600
_cell_length_c   7.18815148
_cell_angle_alpha   90.39630170
_cell_angle_beta   89.76513861
_cell_angle_gamma   120.09796964
_symmetry_Int_Tables_number   1
_chemical_formula_structural   Sr3AsP5Ir6
_chemical_formula_sum   'Sr3 As1 P5 Ir6'
_cell_volume   289.97844794
_cell_formula_units_Z   1
loop_
 _symmetry_equiv_pos_site_id
 _symmetry_equiv_pos_as_xyz
  1  'x, y, z'
loop_
 _atom_site_type_symbol
 _atom_site_label
 _atom_site_symmetry_multiplicity
 _atom_site_fract_x
 _atom_site_fract_y
 _atom_site_fract_z
 _atom_site_occupancy
  Sr  Sr0  1  0.001389  0.604221  0.837562  1
  Sr  Sr1  1  0.400939  0.397483  0.501523  1
  Sr  Sr2  1  0.599328  0.997911  0.163911  1
  As  As3  1  0.876611  0.221687  0.541671  1
  P  P4  1  0.216675  0.878646  0.457762  1
  P  P5  1  0.125731  0.341776  0.122966  1
  P  P6  1  0.782226  0.663768  0.206183  1
  P  P7  1  0.338903  0.121086  0.879119  1
  P  P8  1  0.662349  0.783103  0.789888  1
  Ir  Ir9  1  0.869461  0.860163  0.500444  1
  Ir  Ir10  1  0.129966  0.002539  0.169436  1
  Ir  Ir11  1  0.490751  0.488822  0.999975  1
  Ir  Ir12  1  0.005514  0.524268  0.319905  1
  Ir  Ir13  1  0.496583  0.988424  0.671577  1
  Ir  Ir14  1  0.003574  0.126104  0.838077  1
