# generated using pymatgen
data_Zr11Sc(Si3Ir)4
_symmetry_space_group_name_H-M   'P 1'
_cell_length_a   3.94854600
_cell_length_b   10.35550016
_cell_length_c   11.76691633
_cell_angle_alpha   90.05377486
_cell_angle_beta   90.00000000
_cell_angle_gamma   90.00000000
_symmetry_Int_Tables_number   1
_chemical_formula_structural   Zr11Sc(Si3Ir)4
_chemical_formula_sum   'Zr11 Sc1 Si12 Ir4'
_cell_volume   481.13921549
_cell_formula_units_Z   1
loop_
 _symmetry_equiv_pos_site_id
 _symmetry_equiv_pos_as_xyz
  1  'x, y, z'
loop_
 _atom_site_type_symbol
 _atom_site_label
 _atom_site_symmetry_multiplicity
 _atom_site_fract_x
 _atom_site_fract_y
 _atom_site_fract_z
 _atom_site_occupancy
  Zr  Zr0  1  0.250000  0.876168  0.021558  1
  Zr  Zr1  1  0.250000  0.624286  0.522428  1
  Zr  Zr2  1  0.750000  0.123095  0.978030  1
  Zr  Zr3  1  0.750000  0.377121  0.477732  1
  Zr  Zr4  1  0.250000  0.925348  0.594901  1
  Zr  Zr5  1  0.250000  0.573636  0.095949  1
  Zr  Zr6  1  0.750000  0.074936  0.404245  1
  Zr  Zr7  1  0.750000  0.425023  0.903739  1
  Zr  Zr8  1  0.250000  0.658396  0.800785  1
  Zr  Zr9  1  0.250000  0.841273  0.300421  1
  Zr  Zr10  1  0.750000  0.341958  0.199155  1
  Sc  Sc11  1  0.750000  0.158629  0.699395  1
  Si  Si12  1  0.250000  0.015341  0.823306  1
  Si  Si13  1  0.250000  0.485201  0.324373  1
  Si  Si14  1  0.750000  0.984527  0.175479  1
  Si  Si15  1  0.750000  0.515026  0.676010  1
  Si  Si16  1  0.250000  0.247580  0.842853  1
  Si  Si17  1  0.250000  0.251703  0.344109  1
  Si  Si18  1  0.750000  0.751562  0.156166  1
  Si  Si19  1  0.750000  0.749275  0.656984  1
  Si  Si20  1  0.250000  0.193119  0.545057  1
  Si  Si21  1  0.250000  0.306422  0.042784  1
  Si  Si22  1  0.750000  0.808423  0.456587  1
  Si  Si23  1  0.750000  0.692872  0.956901  1
  Ir  Ir24  1  0.250000  0.383566  0.680216  1
  Ir  Ir25  1  0.250000  0.114973  0.181233  1
  Ir  Ir26  1  0.750000  0.615545  0.319342  1
  Ir  Ir27  1  0.750000  0.884997  0.820259  1
