# generated using pymatgen
data_Tb7Y(Si3Ir)4
_symmetry_space_group_name_H-M   'P 1'
_cell_length_a   8.18711001
_cell_length_b   8.18641977
_cell_length_c   7.98019200
_cell_angle_alpha   90.00000000
_cell_angle_beta   90.00000000
_cell_angle_gamma   119.99720052
_symmetry_Int_Tables_number   1
_chemical_formula_structural   Tb7Y(Si3Ir)4
_chemical_formula_sum   'Tb7 Y1 Si12 Ir4'
_cell_volume   463.21312731
_cell_formula_units_Z   1
loop_
 _symmetry_equiv_pos_site_id
 _symmetry_equiv_pos_as_xyz
  1  'x, y, z'
loop_
 _atom_site_type_symbol
 _atom_site_label
 _atom_site_symmetry_multiplicity
 _atom_site_fract_x
 _atom_site_fract_y
 _atom_site_fract_z
 _atom_site_occupancy
  Tb  Tb0  1  0.999966  0.999983  0.250000  1
  Tb  Tb1  1  0.000015  0.000008  0.750000  1
  Tb  Tb2  1  0.509139  0.490883  0.250000  1
  Tb  Tb3  1  0.509139  0.018255  0.250000  1
  Tb  Tb4  1  0.981744  0.490872  0.250000  1
  Tb  Tb5  1  0.490854  0.509113  0.750000  1
  Tb  Tb6  1  0.490854  0.981741  0.750000  1
  Y  Y7  1  0.018282  0.509141  0.750000  1
  Si  Si8  1  0.166894  0.833080  0.499486  1
  Si  Si9  1  0.166894  0.333813  0.499486  1
  Si  Si10  1  0.666219  0.833109  0.499467  1
  Si  Si11  1  0.833096  0.166898  0.500527  1
  Si  Si12  1  0.833096  0.666200  0.500527  1
  Si  Si13  1  0.333789  0.166895  0.500552  1
  Si  Si14  1  0.833096  0.166898  0.999473  1
  Si  Si15  1  0.833096  0.666200  0.999473  1
  Si  Si16  1  0.333789  0.166895  0.999448  1
  Si  Si17  1  0.166894  0.833080  0.000514  1
  Si  Si18  1  0.166894  0.333813  0.000514  1
  Si  Si19  1  0.666219  0.833109  0.000533  1
  Ir  Ir20  1  0.333336  0.666668  0.467764  1
  Ir  Ir21  1  0.666678  0.333339  0.532266  1
  Ir  Ir22  1  0.666678  0.333339  0.967734  1
  Ir  Ir23  1  0.333336  0.666668  0.032236  1
