# generated using pymatgen
data_Er2MnCrCo10P7
_symmetry_space_group_name_H-M   'P 1'
_cell_length_a   9.02232585
_cell_length_b   9.00626635
_cell_length_c   3.61218900
_cell_angle_alpha   90.00000000
_cell_angle_beta   90.00000000
_cell_angle_gamma   120.17789861
_symmetry_Int_Tables_number   1
_chemical_formula_structural   Er2MnCrCo10P7
_chemical_formula_sum   'Er2 Mn1 Cr1 Co10 P7'
_cell_volume   253.73657334
_cell_formula_units_Z   1
loop_
 _symmetry_equiv_pos_site_id
 _symmetry_equiv_pos_as_xyz
  1  'x, y, z'
loop_
 _atom_site_type_symbol
 _atom_site_label
 _atom_site_symmetry_multiplicity
 _atom_site_fract_x
 _atom_site_fract_y
 _atom_site_fract_z
 _atom_site_occupancy
  Er  Er0  1  0.330684  0.665831  0.000000  1
  Er  Er1  1  0.998972  0.998884  0.500000  1
  Mn  Mn2  1  0.445109  0.209534  0.500000  1
  Cr  Cr3  1  0.766105  0.554442  0.500000  1
  Co  Co4  1  0.038724  0.272506  0.000000  1
  Co  Co5  1  0.726728  0.765001  0.000000  1
  Co  Co6  1  0.233617  0.962187  0.000000  1
  Co  Co7  1  0.548018  0.056846  0.000000  1
  Co  Co8  1  0.941718  0.489313  0.000000  1
  Co  Co9  1  0.508723  0.453676  0.000000  1
  Co  Co10  1  0.617816  0.898898  0.500000  1
  Co  Co11  1  0.103061  0.716613  0.500000  1
  Co  Co12  1  0.283048  0.384115  0.500000  1
  Co  Co13  1  0.793600  0.238932  0.500000  1
  P  P14  1  0.780034  0.037433  0.000000  1
  P  P15  1  0.963901  0.743235  0.000000  1
  P  P16  1  0.256287  0.219502  0.000000  1
  P  P17  1  0.377694  0.931040  0.500000  1
  P  P18  1  0.070558  0.445949  0.500000  1
  P  P19  1  0.551088  0.624535  0.500000  1
  P  P20  1  0.664516  0.331533  0.000000  1
