# generated using pymatgen
data_Rb4TaNb5Br18
_symmetry_space_group_name_H-M   'P 1'
_cell_length_a   10.62347605
_cell_length_b   10.62347822
_cell_length_c   10.52876423
_cell_angle_alpha   76.67203731
_cell_angle_beta   76.67199028
_cell_angle_gamma   116.35339265
_symmetry_Int_Tables_number   1
_chemical_formula_structural   Rb4TaNb5Br18
_chemical_formula_sum   'Rb4 Ta1 Nb5 Br18'
_cell_volume   957.62360303
_cell_formula_units_Z   1
loop_
 _symmetry_equiv_pos_site_id
 _symmetry_equiv_pos_as_xyz
  1  'x, y, z'
loop_
 _atom_site_type_symbol
 _atom_site_label
 _atom_site_symmetry_multiplicity
 _atom_site_fract_x
 _atom_site_fract_y
 _atom_site_fract_z
 _atom_site_occupancy
  Rb  Rb0  1  0.732572  0.052009  0.326785  1
  Rb  Rb1  1  0.267780  0.948252  0.673351  1
  Rb  Rb2  1  0.948253  0.267781  0.673351  1
  Rb  Rb3  1  0.052010  0.732573  0.326785  1
  Ta  Ta4  1  0.608239  0.608239  0.119993  1
  Nb  Nb5  1  0.390659  0.390658  0.878876  1
  Nb  Nb6  1  0.456492  0.291775  0.132346  1
  Nb  Nb7  1  0.543410  0.708146  0.867518  1
  Nb  Nb8  1  0.708146  0.543410  0.867519  1
  Nb  Nb9  1  0.291775  0.456492  0.132345  1
  Br  Br10  1  0.702910  0.297076  0.999973  1
  Br  Br11  1  0.297076  0.702910  0.999973  1
  Br  Br12  1  0.394987  0.005691  0.316018  1
  Br  Br13  1  0.605542  0.994724  0.684501  1
  Br  Br14  1  0.994724  0.605542  0.684501  1
  Br  Br15  1  0.005691  0.394986  0.316018  1
  Br  Br16  1  0.314652  0.111088  0.014379  1
  Br  Br17  1  0.685209  0.887267  0.987382  1
  Br  Br18  1  0.887267  0.685208  0.987382  1
  Br  Br19  1  0.111088  0.314653  0.014378  1
  Br  Br20  1  0.754432  0.754432  0.280528  1
  Br  Br21  1  0.243882  0.243882  0.717721  1
  Br  Br22  1  0.810132  0.810132  0.674763  1
  Br  Br23  1  0.189844  0.189844  0.325163  1
  Br  Br24  1  0.580243  0.379992  0.308268  1
  Br  Br25  1  0.420525  0.622469  0.690959  1
  Br  Br26  1  0.622470  0.420526  0.690959  1
  Br  Br27  1  0.379991  0.580243  0.308268  1
