# generated using pymatgen
data_Er16ZnIn3(PtRh)2
_symmetry_space_group_name_H-M   'P 1'
_cell_length_a   9.55940562
_cell_length_b   9.56015368
_cell_length_c   9.56795109
_cell_angle_alpha   60.05931652
_cell_angle_beta   60.02953927
_cell_angle_gamma   60.00258755
_symmetry_Int_Tables_number   1
_chemical_formula_structural   Er16ZnIn3(PtRh)2
_chemical_formula_sum   'Er16 Zn1 In3 Pt2 Rh2'
_cell_volume   618.72757464
_cell_formula_units_Z   1
loop_
 _symmetry_equiv_pos_site_id
 _symmetry_equiv_pos_as_xyz
  1  'x, y, z'
loop_
 _atom_site_type_symbol
 _atom_site_label
 _atom_site_symmetry_multiplicity
 _atom_site_fract_x
 _atom_site_fract_y
 _atom_site_fract_z
 _atom_site_occupancy
  Er  Er0  1  0.192707  0.187645  0.809792  1
  Er  Er1  1  0.437032  0.057784  0.068152  1
  Er  Er2  1  0.436019  0.058191  0.436896  1
  Er  Er3  1  0.063286  0.436188  0.063558  1
  Er  Er4  1  0.648426  0.052676  0.650471  1
  Er  Er5  1  0.189460  0.810833  0.810248  1
  Er  Er6  1  0.068893  0.058191  0.436896  1
  Er  Er7  1  0.808988  0.190978  0.191045  1
  Er  Er8  1  0.809500  0.810475  0.187515  1
  Er  Er9  1  0.647183  0.650890  0.054745  1
  Er  Er10  1  0.645532  0.650090  0.648483  1
  Er  Er11  1  0.063813  0.435335  0.437040  1
  Er  Er12  1  0.055895  0.650090  0.648483  1
  Er  Er13  1  0.809856  0.187645  0.809792  1
  Er  Er14  1  0.436969  0.436188  0.063558  1
  Er  Er15  1  0.192511  0.810475  0.187515  1
  Zn  Zn16  1  0.415458  0.753112  0.415971  1
  In  In17  1  0.416458  0.421086  0.745997  1
  In  In18  1  0.746777  0.420649  0.416406  1
  In  In19  1  0.416167  0.420649  0.416406  1
  Pt  Pt20  1  0.856588  0.429596  0.857229  1
  Pt  Pt21  1  0.857140  0.857078  0.428642  1
  Rh  Rh22  1  0.428123  0.857078  0.857581  1
  Rh  Rh23  1  0.857219  0.857078  0.857581  1
