# generated using pymatgen
data_La5Gd5Ru4
_symmetry_space_group_name_H-M   'P 1'
_cell_length_a   8.85225627
_cell_length_b   8.85732362
_cell_length_c   7.16871900
_cell_angle_alpha   84.57671083
_cell_angle_beta   84.63978606
_cell_angle_gamma   43.17775372
_symmetry_Int_Tables_number   1
_chemical_formula_structural   La5Gd5Ru4
_chemical_formula_sum   'La5 Gd5 Ru4'
_cell_volume   382.64176393
_cell_formula_units_Z   1
loop_
 _symmetry_equiv_pos_site_id
 _symmetry_equiv_pos_as_xyz
  1  'x, y, z'
loop_
 _atom_site_type_symbol
 _atom_site_label
 _atom_site_symmetry_multiplicity
 _atom_site_fract_x
 _atom_site_fract_y
 _atom_site_fract_z
 _atom_site_occupancy
  La  La0  1  0.019481  0.793558  0.914624  1
  La  La1  1  0.214534  0.975246  0.585897  1
  La  La2  1  0.976273  0.212745  0.087497  1
  La  La3  1  0.792163  0.020304  0.412339  1
  La  La4  1  0.358471  0.209212  0.812498  1
  Gd  Gd5  1  0.791792  0.639489  0.687259  1
  Gd  Gd6  1  0.639922  0.791295  0.188959  1
  Gd  Gd7  1  0.206034  0.362482  0.313978  1
  Gd  Gd8  1  0.575929  0.425641  0.749082  1
  Gd  Gd9  1  0.424720  0.574348  0.249552  1
  Ru  Ru10  1  0.173640  0.600946  0.579595  1
  Ru  Ru11  1  0.400611  0.818834  0.920433  1
  Ru  Ru12  1  0.825564  0.399116  0.419556  1
  Ru  Ru13  1  0.600868  0.176785  0.078733  1
