# generated using pymatgen
data_Ce10Al3SiOs6
_symmetry_space_group_name_H-M   'P 1'
_cell_length_a   8.35854110
_cell_length_b   8.35854113
_cell_length_c   8.35854177
_cell_angle_alpha   109.44658692
_cell_angle_beta   109.44658840
_cell_angle_gamma   109.44657751
_symmetry_Int_Tables_number   1
_chemical_formula_structural   Ce10Al3SiOs6
_chemical_formula_sum   'Ce10 Al3 Si1 Os6'
_cell_volume   449.95087133
_cell_formula_units_Z   1
loop_
 _symmetry_equiv_pos_site_id
 _symmetry_equiv_pos_as_xyz
  1  'x, y, z'
loop_
 _atom_site_type_symbol
 _atom_site_label
 _atom_site_symmetry_multiplicity
 _atom_site_fract_x
 _atom_site_fract_y
 _atom_site_fract_z
 _atom_site_occupancy
  Ce  Ce0  1  0.771066  0.771066  0.771066  1
  Ce  Ce1  1  0.312321  0.562324  0.748739  1
  Ce  Ce2  1  0.748739  0.312321  0.562324  1
  Ce  Ce3  1  0.562324  0.748739  0.312321  1
  Ce  Ce4  1  0.716245  0.498627  0.004302  1
  Ce  Ce5  1  0.004302  0.716245  0.498627  1
  Ce  Ce6  1  0.498627  0.004302  0.716245  1
  Ce  Ce7  1  0.246541  0.191961  0.947312  1
  Ce  Ce8  1  0.947312  0.246541  0.191961  1
  Ce  Ce9  1  0.191961  0.947312  0.246541  1
  Al  Al10  1  0.101486  0.502323  0.000959  1
  Al  Al11  1  0.000959  0.101486  0.502323  1
  Al  Al12  1  0.502323  0.000959  0.101486  1
  Si  Si13  1  0.388369  0.388369  0.388369  1
  Os  Os14  1  0.875248  0.125523  0.751059  1
  Os  Os15  1  0.751059  0.875248  0.125523  1
  Os  Os16  1  0.125523  0.751059  0.875248  1
  Os  Os17  1  0.259503  0.620505  0.375588  1
  Os  Os18  1  0.375588  0.259503  0.620505  1
  Os  Os19  1  0.620505  0.375588  0.259503  1
