# generated using pymatgen
data_Ho4(Al8Ni3)3
_symmetry_space_group_name_H-M   'P 1'
_cell_length_a   7.27916713
_cell_length_b   7.31145027
_cell_length_c   12.72047503
_cell_angle_alpha   84.56920791
_cell_angle_beta   79.06806947
_cell_angle_gamma   59.95341800
_symmetry_Int_Tables_number   1
_chemical_formula_structural   Ho4(Al8Ni3)3
_chemical_formula_sum   'Ho4 Al24 Ni9'
_cell_volume   575.38913740
_cell_formula_units_Z   1
loop_
 _symmetry_equiv_pos_site_id
 _symmetry_equiv_pos_as_xyz
  1  'x, y, z'
loop_
 _atom_site_type_symbol
 _atom_site_label
 _atom_site_symmetry_multiplicity
 _atom_site_fract_x
 _atom_site_fract_y
 _atom_site_fract_z
 _atom_site_occupancy
  Ho  Ho0  1  0.394106  0.168629  0.804822  1
  Ho  Ho1  1  0.605894  0.831371  0.195178  1
  Ho  Ho2  1  0.735156  0.497797  0.804918  1
  Ho  Ho3  1  0.264844  0.502203  0.195082  1
  Al  Al4  1  0.680575  0.833545  0.947995  1
  Al  Al5  1  0.319425  0.166455  0.052005  1
  Al  Al6  1  0.145876  0.833327  0.559652  1
  Al  Al7  1  0.854124  0.166673  0.440348  1
  Al  Al8  1  0.480730  0.166783  0.557248  1
  Al  Al9  1  0.519270  0.833217  0.442752  1
  Al  Al10  1  0.214793  0.165637  0.336873  1
  Al  Al11  1  0.785207  0.834363  0.663127  1
  Al  Al12  1  0.439063  0.506904  0.663176  1
  Al  Al13  1  0.560937  0.493096  0.336824  1
  Al  Al14  1  0.111804  0.159124  0.661751  1
  Al  Al15  1  0.888196  0.840876  0.338249  1
  Al  Al16  1  0.354212  0.496681  0.948011  1
  Al  Al17  1  0.645788  0.503319  0.051989  1
  Al  Al18  1  0.012915  0.169510  0.961442  1
  Al  Al19  1  0.987085  0.830490  0.038558  1
  Al  Al20  1  0.186245  0.499861  0.442630  1
  Al  Al21  1  0.813755  0.500139  0.557370  1
  Al  Al22  1  0.729047  0.163968  0.184879  1
  Al  Al23  1  0.270953  0.836032  0.815121  1
  Al  Al24  1  0.061930  0.626690  0.813882  1
  Al  Al25  1  0.938070  0.373310  0.186118  1
  Al  Al26  1  0.851542  0.045997  0.815444  1
  Al  Al27  1  0.148458  0.954003  0.184556  1
  Ni  Ni28  1  0.119867  0.492634  0.637638  1
  Ni  Ni29  1  0.880133  0.507366  0.362362  1
  Ni  Ni30  1  0.658971  0.170398  0.000176  1
  Ni  Ni31  1  0.341029  0.829602  0.999824  1
  Ni  Ni32  1  0.538440  0.167065  0.362453  1
  Ni  Ni33  1  0.461560  0.832935  0.637547  1
  Ni  Ni34  1  0.778635  0.174203  0.637599  1
  Ni  Ni35  1  0.221365  0.825797  0.362401  1
  Ni  Ni36  1  0.000000  0.500000  0.000000  1
