# generated using pymatgen
data_NdY7(HgPt)2
_symmetry_space_group_name_H-M   'P 1'
_cell_length_a   9.73181970
_cell_length_b   9.73181600
_cell_length_c   9.72637500
_cell_angle_alpha   60.01914525
_cell_angle_beta   60.01910345
_cell_angle_gamma   60.13439319
_symmetry_Int_Tables_number   1
_chemical_formula_structural   NdY7(HgPt)2
_chemical_formula_sum   'Nd2 Y14 Hg4 Pt4'
_cell_volume   652.21209977
_cell_formula_units_Z   2
loop_
 _symmetry_equiv_pos_site_id
 _symmetry_equiv_pos_as_xyz
  1  'x, y, z'
loop_
 _atom_site_type_symbol
 _atom_site_label
 _atom_site_symmetry_multiplicity
 _atom_site_fract_x
 _atom_site_fract_y
 _atom_site_fract_z
 _atom_site_occupancy
  Nd  Nd0  1  0.354487  0.354487  0.354784  1
  Nd  Nd1  1  0.354488  0.354489  0.936240  1
  Y  Y2  1  0.357913  0.931597  0.355244  1
  Y  Y3  1  0.931597  0.357913  0.355244  1
  Y  Y4  1  0.811811  0.188312  0.188985  1
  Y  Y5  1  0.188314  0.811810  0.810894  1
  Y  Y6  1  0.188314  0.811810  0.188985  1
  Y  Y7  1  0.811809  0.188315  0.810893  1
  Y  Y8  1  0.187784  0.187784  0.812217  1
  Y  Y9  1  0.810546  0.810545  0.189456  1
  Y  Y10  1  0.936831  0.564641  0.564198  1
  Y  Y11  1  0.564642  0.936833  0.934329  1
  Y  Y12  1  0.564642  0.936831  0.564198  1
  Y  Y13  1  0.936833  0.564641  0.934329  1
  Y  Y14  1  0.565526  0.565526  0.934471  1
  Y  Y15  1  0.938088  0.938088  0.561909  1
  Hg  Hg16  1  0.588855  0.588855  0.584337  1
  Hg  Hg17  1  0.588857  0.588857  0.237953  1
  Hg  Hg18  1  0.589805  0.237598  0.586301  1
  Hg  Hg19  1  0.237598  0.589804  0.586301  1
  Pt  Pt20  1  0.140747  0.140748  0.150101  1
  Pt  Pt21  1  0.140750  0.140749  0.568404  1
  Pt  Pt22  1  0.137802  0.571966  0.145114  1
  Pt  Pt23  1  0.571966  0.137802  0.145116  1
