# generated using pymatgen
data_CaLa7Pr4(GaRh)8
_symmetry_space_group_name_H-M   'P 1'
_cell_length_a   5.74637106
_cell_length_b   8.34056329
_cell_length_c   13.73362163
_cell_angle_alpha   90.02846948
_cell_angle_beta   90.06481689
_cell_angle_gamma   90.09830722
_symmetry_Int_Tables_number   1
_chemical_formula_structural   CaLa7Pr4(GaRh)8
_chemical_formula_sum   'Ca1 La7 Pr4 Ga8 Rh8'
_cell_volume   658.22315405
_cell_formula_units_Z   1
loop_
 _symmetry_equiv_pos_site_id
 _symmetry_equiv_pos_as_xyz
  1  'x, y, z'
loop_
 _atom_site_type_symbol
 _atom_site_label
 _atom_site_symmetry_multiplicity
 _atom_site_fract_x
 _atom_site_fract_y
 _atom_site_fract_z
 _atom_site_occupancy
  Ca  Ca0  1  0.149475  0.400102  0.101115  1
  La  La1  1  0.850651  0.593547  0.907183  1
  La  La2  1  0.847126  0.598050  0.596336  1
  La  La3  1  0.848048  0.901883  0.402753  1
  La  La4  1  0.151044  0.402368  0.404271  1
  La  La5  1  0.152589  0.096747  0.596362  1
  La  La6  1  0.152693  0.100441  0.905560  1
  La  La7  1  0.844900  0.901756  0.096523  1
  Pr  Pr8  1  0.636774  0.262392  0.247458  1
  Pr  Pr9  1  0.361736  0.739478  0.749490  1
  Pr  Pr10  1  0.360656  0.757905  0.248498  1
  Pr  Pr11  1  0.636754  0.240586  0.749704  1
  Ga  Ga12  1  0.141620  0.111553  0.248909  1
  Ga  Ga13  1  0.857862  0.888075  0.750792  1
  Ga  Ga14  1  0.858860  0.609802  0.248614  1
  Ga  Ga15  1  0.143546  0.389558  0.750018  1
  Ga  Ga16  1  0.623057  0.252934  0.001795  1
  Ga  Ga17  1  0.370341  0.748035  0.999861  1
  Ga  Ga18  1  0.369530  0.750686  0.499630  1
  Ga  Ga19  1  0.631009  0.249609  0.499666  1
  Rh  Rh20  1  0.357928  0.026621  0.091263  1
  Rh  Rh21  1  0.644935  0.973739  0.909886  1
  Rh  Rh22  1  0.643485  0.971543  0.590335  1
  Rh  Rh23  1  0.642987  0.527591  0.409063  1
  Rh  Rh24  1  0.357734  0.029373  0.408837  1
  Rh  Rh25  1  0.357274  0.471475  0.589477  1
  Rh  Rh26  1  0.363521  0.470956  0.907850  1
  Rh  Rh27  1  0.643866  0.533192  0.088751  1
