# generated using pymatgen
data_Sm4GeBr6
_symmetry_space_group_name_H-M   'P 1'
_cell_length_a   4.16492400
_cell_length_b   13.52861900
_cell_length_c   14.33884100
_cell_angle_alpha   90.00000000
_cell_angle_beta   90.00000000
_cell_angle_gamma   90.00000000
_symmetry_Int_Tables_number   1
_chemical_formula_structural   Sm4GeBr6
_chemical_formula_sum   'Sm8 Ge2 Br12'
_cell_volume   807.93160259
_cell_formula_units_Z   2
loop_
 _symmetry_equiv_pos_site_id
 _symmetry_equiv_pos_as_xyz
  1  'x, y, z'
loop_
 _atom_site_type_symbol
 _atom_site_label
 _atom_site_symmetry_multiplicity
 _atom_site_fract_x
 _atom_site_fract_y
 _atom_site_fract_z
 _atom_site_occupancy
  Sm  Sm0  1  0.500000  0.119299  0.339498  1
  Sm  Sm1  1  0.500000  0.880701  0.660502  1
  Sm  Sm2  1  0.500000  0.619299  0.160502  1
  Sm  Sm3  1  0.500000  0.380701  0.839498  1
  Sm  Sm4  1  0.000000  0.119718  0.579408  1
  Sm  Sm5  1  0.000000  0.880282  0.420592  1
  Sm  Sm6  1  0.000000  0.619718  0.920592  1
  Sm  Sm7  1  0.000000  0.380282  0.079408  1
  Ge  Ge8  1  0.500000  0.000000  0.500000  1
  Ge  Ge9  1  0.500000  0.500000  0.000000  1
  Br  Br10  1  0.500000  0.243780  0.162387  1
  Br  Br11  1  0.500000  0.756220  0.837613  1
  Br  Br12  1  0.500000  0.743780  0.337613  1
  Br  Br13  1  0.500000  0.256220  0.662387  1
  Br  Br14  1  0.000000  0.255217  0.411540  1
  Br  Br15  1  0.000000  0.744783  0.588460  1
  Br  Br16  1  0.000000  0.755217  0.088460  1
  Br  Br17  1  0.000000  0.244783  0.911540  1
  Br  Br18  1  0.000000  0.001369  0.243451  1
  Br  Br19  1  0.000000  0.998631  0.756549  1
  Br  Br20  1  0.000000  0.501369  0.256549  1
  Br  Br21  1  0.000000  0.498631  0.743451  1
