# generated using pymatgen
data_YbTm7(HfIr3)2
_symmetry_space_group_name_H-M   'P 1'
_cell_length_a   10.73194314
_cell_length_b   10.69041400
_cell_length_c   6.22410599
_cell_angle_alpha   90.00000000
_cell_angle_beta   90.17207528
_cell_angle_gamma   90.00000000
_symmetry_Int_Tables_number   1
_chemical_formula_structural   YbTm7(HfIr3)2
_chemical_formula_sum   'Yb2 Tm14 Hf4 Ir12'
_cell_volume   714.08170834
_cell_formula_units_Z   2
loop_
 _symmetry_equiv_pos_site_id
 _symmetry_equiv_pos_as_xyz
  1  'x, y, z'
loop_
 _atom_site_type_symbol
 _atom_site_label
 _atom_site_symmetry_multiplicity
 _atom_site_fract_x
 _atom_site_fract_y
 _atom_site_fract_z
 _atom_site_occupancy
  Yb  Yb0  1  0.287556  0.086755  0.370145  1
  Yb  Yb1  1  0.287556  0.913245  0.870145  1
  Tm  Tm2  1  0.710272  0.084572  0.874479  1
  Tm  Tm3  1  0.710272  0.915428  0.374479  1
  Tm  Tm4  1  0.585038  0.790713  0.873175  1
  Tm  Tm5  1  0.585038  0.209287  0.373175  1
  Tm  Tm6  1  0.414991  0.791167  0.372845  1
  Tm  Tm7  1  0.414991  0.208833  0.872845  1
  Tm  Tm8  1  0.210755  0.414991  0.628684  1
  Tm  Tm9  1  0.210755  0.585009  0.128684  1
  Tm  Tm10  1  0.789677  0.414049  0.125932  1
  Tm  Tm11  1  0.789677  0.585951  0.625932  1
  Tm  Tm12  1  0.914551  0.711107  0.127208  1
  Tm  Tm13  1  0.914551  0.288893  0.627208  1
  Tm  Tm14  1  0.085451  0.709946  0.626213  1
  Tm  Tm15  1  0.085451  0.290054  0.126213  1
  Hf  Hf16  1  0.999783  0.999364  0.499258  1
  Hf  Hf17  1  0.999783  0.000636  0.999258  1
  Hf  Hf18  1  0.500359  0.499888  0.000053  1
  Hf  Hf19  1  0.500359  0.500112  0.500053  1
  Ir  Ir20  1  0.856495  0.145521  0.249823  1
  Ir  Ir21  1  0.856495  0.854479  0.749823  1
  Ir  Ir22  1  0.140164  0.149680  0.753110  1
  Ir  Ir23  1  0.140164  0.850320  0.253110  1
  Ir  Ir24  1  0.643976  0.354986  0.750184  1
  Ir  Ir25  1  0.643976  0.645014  0.250184  1
  Ir  Ir26  1  0.355761  0.358481  0.247287  1
  Ir  Ir27  1  0.355761  0.641519  0.747287  1
  Ir  Ir28  1  0.505123  0.000181  0.123066  1
  Ir  Ir29  1  0.505123  0.999819  0.623066  1
  Ir  Ir30  1  0.000049  0.500198  0.878538  1
  Ir  Ir31  1  0.000049  0.499802  0.378538  1
