# generated using pymatgen
data_DyTm9Co4
_symmetry_space_group_name_H-M   'P 1'
_cell_length_a   6.21172909
_cell_length_b   6.85394619
_cell_length_c   8.38046587
_cell_angle_alpha   96.39022700
_cell_angle_beta   111.64272537
_cell_angle_gamma   89.96711789
_symmetry_Int_Tables_number   1
_chemical_formula_structural   DyTm9Co4
_chemical_formula_sum   'Dy1 Tm9 Co4'
_cell_volume   329.26647544
_cell_formula_units_Z   1
loop_
 _symmetry_equiv_pos_site_id
 _symmetry_equiv_pos_as_xyz
  1  'x, y, z'
loop_
 _atom_site_type_symbol
 _atom_site_label
 _atom_site_symmetry_multiplicity
 _atom_site_fract_x
 _atom_site_fract_y
 _atom_site_fract_z
 _atom_site_occupancy
  Dy  Dy0  1  0.517455  0.086485  0.810333  1
  Tm  Tm1  1  0.482073  0.913354  0.188956  1
  Tm  Tm2  1  0.705206  0.412525  0.187753  1
  Tm  Tm3  1  0.294728  0.587421  0.813735  1
  Tm  Tm4  1  0.285116  0.317561  0.433997  1
  Tm  Tm5  1  0.716133  0.684151  0.565100  1
  Tm  Tm6  1  0.852124  0.184937  0.564664  1
  Tm  Tm7  1  0.149614  0.814082  0.434009  1
  Tm  Tm8  1  0.072277  0.249947  0.000202  1
  Tm  Tm9  1  0.926802  0.749289  0.000378  1
  Co  Co10  1  0.324008  0.571164  0.218904  1
  Co  Co11  1  0.675614  0.429685  0.778952  1
  Co  Co12  1  0.099795  0.928005  0.779811  1
  Co  Co13  1  0.899054  0.071395  0.223205  1
