# generated using pymatgen
data_Ho2(PuAl5)3
_symmetry_space_group_name_H-M   'P 1'
_cell_length_a   12.58987637
_cell_length_b   12.58987609
_cell_length_c   12.58987600
_cell_angle_alpha   28.00389462
_cell_angle_beta   28.00389702
_cell_angle_gamma   28.00389686
_symmetry_Int_Tables_number   1
_chemical_formula_structural   Ho2(PuAl5)3
_chemical_formula_sum   'Ho2 Pu3 Al15'
_cell_volume   388.57603198
_cell_formula_units_Z   1
loop_
 _symmetry_equiv_pos_site_id
 _symmetry_equiv_pos_as_xyz
  1  'x, y, z'
loop_
 _atom_site_type_symbol
 _atom_site_label
 _atom_site_symmetry_multiplicity
 _atom_site_fract_x
 _atom_site_fract_y
 _atom_site_fract_z
 _atom_site_occupancy
  Ho  Ho0  1  0.131024  0.131024  0.131024  1
  Ho  Ho1  1  0.000303  0.000303  0.000303  1
  Pu  Pu2  1  0.599302  0.599302  0.599302  1
  Pu  Pu3  1  0.400813  0.400813  0.400813  1
  Pu  Pu4  1  0.868970  0.868970  0.868970  1
  Al  Al5  1  0.577012  0.112340  0.112340  1
  Al  Al6  1  0.112340  0.577012  0.112340  1
  Al  Al7  1  0.112340  0.112340  0.577012  1
  Al  Al8  1  0.426638  0.885838  0.885838  1
  Al  Al9  1  0.885838  0.426638  0.885838  1
  Al  Al10  1  0.499570  0.499570  0.000743  1
  Al  Al11  1  0.499570  0.000743  0.499570  1
  Al  Al12  1  0.000743  0.499570  0.499570  1
  Al  Al13  1  0.637391  0.637391  0.126028  1
  Al  Al14  1  0.637391  0.126028  0.637391  1
  Al  Al15  1  0.126028  0.637391  0.637391  1
  Al  Al16  1  0.366076  0.366076  0.866738  1
  Al  Al17  1  0.366076  0.866738  0.366076  1
  Al  Al18  1  0.866738  0.366076  0.366076  1
  Al  Al19  1  0.885838  0.885838  0.426638  1
