# generated using pymatgen
data_Ho3Tl2InCuPd2
_symmetry_space_group_name_H-M   'P 1'
_cell_length_a   7.63120900
_cell_length_b   7.67898237
_cell_length_c   3.86707600
_cell_angle_alpha   90.00000000
_cell_angle_beta   90.00000000
_cell_angle_gamma   119.79440875
_symmetry_Int_Tables_number   1
_chemical_formula_structural   Ho3Tl2InCuPd2
_chemical_formula_sum   'Ho3 Tl2 In1 Cu1 Pd2'
_cell_volume   196.65561517
_cell_formula_units_Z   1
loop_
 _symmetry_equiv_pos_site_id
 _symmetry_equiv_pos_as_xyz
  1  'x, y, z'
loop_
 _atom_site_type_symbol
 _atom_site_label
 _atom_site_symmetry_multiplicity
 _atom_site_fract_x
 _atom_site_fract_y
 _atom_site_fract_z
 _atom_site_occupancy
  Ho  Ho0  1  0.000281  0.592755  0.000000  1
  Ho  Ho1  1  0.407526  0.407245  0.000000  1
  Ho  Ho2  1  0.592655  0.000000  0.000000  1
  Tl  Tl3  1  0.745716  0.743285  0.500000  1
  Tl  Tl4  1  0.002431  0.256715  0.500000  1
  In  In5  1  0.252732  0.000000  0.500000  1
  Cu  Cu6  1  0.006192  0.000000  0.000000  1
  Pd  Pd7  1  0.332839  0.673212  0.500000  1
  Pd  Pd8  1  0.659627  0.326788  0.500000  1
