# generated using pymatgen
data_TbLuMn6P7Ir6
_symmetry_space_group_name_H-M   'P 1'
_cell_length_a   9.38019302
_cell_length_b   9.38014158
_cell_length_c   3.86134200
_cell_angle_alpha   90.00000000
_cell_angle_beta   90.00000000
_cell_angle_gamma   119.95835306
_symmetry_Int_Tables_number   1
_chemical_formula_structural   TbLuMn6P7Ir6
_chemical_formula_sum   'Tb1 Lu1 Mn6 P7 Ir6'
_cell_volume   294.35551254
_cell_formula_units_Z   1
loop_
 _symmetry_equiv_pos_site_id
 _symmetry_equiv_pos_as_xyz
  1  'x, y, z'
loop_
 _atom_site_type_symbol
 _atom_site_label
 _atom_site_symmetry_multiplicity
 _atom_site_fract_x
 _atom_site_fract_y
 _atom_site_fract_z
 _atom_site_occupancy
  Tb  Tb0  1  0.666722  0.333345  0.000000  1
  Lu  Lu1  1  0.999954  0.999950  0.500000  1
  Mn  Mn2  1  0.493516  0.937756  0.000000  1
  Mn  Mn3  1  0.062627  0.556072  0.000000  1
  Mn  Mn4  1  0.444478  0.506079  0.000000  1
  Mn  Mn5  1  0.548452  0.762449  0.500000  1
  Mn  Mn6  1  0.237533  0.787195  0.500000  1
  Mn  Mn7  1  0.213818  0.451342  0.500000  1
  P  P8  1  0.451929  0.062761  0.500000  1
  P  P9  1  0.937393  0.389117  0.500000  1
  P  P10  1  0.610737  0.548006  0.500000  1
  P  P11  1  0.745266  0.966925  0.000000  1
  P  P12  1  0.033110  0.778400  0.000000  1
  P  P13  1  0.221351  0.254500  0.000000  1
  P  P14  1  0.333756  0.666566  0.000000  1
  Ir  Ir15  1  0.761074  0.732831  0.000000  1
  Ir  Ir16  1  0.266797  0.028193  0.000000  1
  Ir  Ir17  1  0.971507  0.238965  0.000000  1
  Ir  Ir18  1  0.721498  0.107751  0.500000  1
  Ir  Ir19  1  0.892142  0.613555  0.500000  1
  Ir  Ir20  1  0.386338  0.278243  0.500000  1
