# generated using pymatgen
data_Tb2Ni5C3
_symmetry_space_group_name_H-M   'P 1'
_cell_length_a   8.22622100
_cell_length_b   8.22622100
_cell_length_c   3.83269500
_cell_angle_alpha   90.00000000
_cell_angle_beta   90.00000000
_cell_angle_gamma   90.00000000
_symmetry_Int_Tables_number   1
_chemical_formula_structural   Tb2Ni5C3
_chemical_formula_sum   'Tb4 Ni10 C6'
_cell_volume   259.36119930
_cell_formula_units_Z   2
loop_
 _symmetry_equiv_pos_site_id
 _symmetry_equiv_pos_as_xyz
  1  'x, y, z'
loop_
 _atom_site_type_symbol
 _atom_site_label
 _atom_site_symmetry_multiplicity
 _atom_site_fract_x
 _atom_site_fract_y
 _atom_site_fract_z
 _atom_site_occupancy
  Tb  Tb0  1  0.343502  0.843502  0.000000  1
  Tb  Tb1  1  0.656498  0.156498  0.000000  1
  Tb  Tb2  1  0.156498  0.343502  0.000000  1
  Tb  Tb3  1  0.843502  0.656498  0.000000  1
  Ni  Ni4  1  0.577810  0.712334  0.500000  1
  Ni  Ni5  1  0.422190  0.287666  0.500000  1
  Ni  Ni6  1  0.922190  0.212334  0.500000  1
  Ni  Ni7  1  0.077810  0.787666  0.500000  1
  Ni  Ni8  1  0.712334  0.422190  0.500000  1
  Ni  Ni9  1  0.287666  0.577810  0.500000  1
  Ni  Ni10  1  0.212334  0.077810  0.500000  1
  Ni  Ni11  1  0.787666  0.922190  0.500000  1
  Ni  Ni12  1  0.500000  0.500000  0.000000  1
  Ni  Ni13  1  0.000000  0.000000  0.000000  1
  C  C14  1  0.500000  0.500000  0.500000  1
  C  C15  1  0.000000  0.000000  0.500000  1
  C  C16  1  0.058804  0.558804  0.500000  1
  C  C17  1  0.941196  0.441196  0.500000  1
  C  C18  1  0.441196  0.058804  0.500000  1
  C  C19  1  0.558804  0.941196  0.500000  1
