# generated using pymatgen
data_Sm7Tm(Pt2Pb)4
_symmetry_space_group_name_H-M   'P 1'
_cell_length_a   8.01045916
_cell_length_b   8.01046034
_cell_length_c   7.38897000
_cell_angle_alpha   90.00000000
_cell_angle_beta   90.00000000
_cell_angle_gamma   89.79115760
_symmetry_Int_Tables_number   1
_chemical_formula_structural   Sm7Tm(Pt2Pb)4
_chemical_formula_sum   'Sm7 Tm1 Pt8 Pb4'
_cell_volume   474.12832733
_cell_formula_units_Z   1
loop_
 _symmetry_equiv_pos_site_id
 _symmetry_equiv_pos_as_xyz
  1  'x, y, z'
loop_
 _atom_site_type_symbol
 _atom_site_label
 _atom_site_symmetry_multiplicity
 _atom_site_fract_x
 _atom_site_fract_y
 _atom_site_fract_z
 _atom_site_occupancy
  Sm  Sm0  1  0.673979  0.671589  0.000000  1
  Sm  Sm1  1  0.334810  0.335985  0.500000  1
  Sm  Sm2  1  0.828318  0.171682  0.500000  1
  Sm  Sm3  1  0.664015  0.665190  0.500000  1
  Sm  Sm4  1  0.328411  0.326021  0.000000  1
  Sm  Sm5  1  0.174753  0.825247  0.500000  1
  Sm  Sm6  1  0.833821  0.166179  0.000000  1
  Tm  Tm7  1  0.161682  0.838318  0.000000  1
  Pt  Pt8  1  0.876100  0.871040  0.744968  1
  Pt  Pt9  1  0.128960  0.123900  0.744968  1
  Pt  Pt10  1  0.626410  0.373590  0.757131  1
  Pt  Pt11  1  0.626410  0.373590  0.242869  1
  Pt  Pt12  1  0.368545  0.631455  0.231866  1
  Pt  Pt13  1  0.128960  0.123900  0.255032  1
  Pt  Pt14  1  0.876100  0.871040  0.255032  1
  Pt  Pt15  1  0.368545  0.631455  0.768134  1
  Pb  Pb16  1  0.498535  0.998445  0.751993  1
  Pb  Pb17  1  0.498535  0.998445  0.248007  1
  Pb  Pb18  1  0.001555  0.501465  0.751993  1
  Pb  Pb19  1  0.001555  0.501465  0.248007  1
