# generated using pymatgen
data_Tb3Ho(Sc4Bi3)4
_symmetry_space_group_name_H-M   'P 1'
_cell_length_a   7.89769102
_cell_length_b   9.05942700
_cell_length_c   11.57371902
_cell_angle_alpha   90.00000000
_cell_angle_beta   90.00710929
_cell_angle_gamma   90.00000000
_symmetry_Int_Tables_number   1
_chemical_formula_structural   Tb3Ho(Sc4Bi3)4
_chemical_formula_sum   'Tb3 Ho1 Sc16 Bi12'
_cell_volume   828.08286820
_cell_formula_units_Z   1
loop_
 _symmetry_equiv_pos_site_id
 _symmetry_equiv_pos_as_xyz
  1  'x, y, z'
loop_
 _atom_site_type_symbol
 _atom_site_label
 _atom_site_symmetry_multiplicity
 _atom_site_fract_x
 _atom_site_fract_y
 _atom_site_fract_z
 _atom_site_occupancy
  Tb  Tb0  1  0.815736  0.250000  0.280965  1
  Tb  Tb1  1  0.684241  0.750000  0.780969  1
  Tb  Tb2  1  0.184230  0.750000  0.719035  1
  Ho  Ho3  1  0.315657  0.250000  0.218839  1
  Sc  Sc4  1  0.348434  0.750000  0.220527  1
  Sc  Sc5  1  0.848483  0.750000  0.279437  1
  Sc  Sc6  1  0.651528  0.250000  0.779444  1
  Sc  Sc7  1  0.151568  0.250000  0.720538  1
  Sc  Sc8  1  0.693297  0.567246  0.062336  1
  Sc  Sc9  1  0.193246  0.932786  0.437615  1
  Sc  Sc10  1  0.306737  0.067225  0.937725  1
  Sc  Sc11  1  0.806764  0.432783  0.562349  1
  Sc  Sc12  1  0.306737  0.432775  0.937725  1
  Sc  Sc13  1  0.806764  0.067217  0.562349  1
  Sc  Sc14  1  0.693297  0.932754  0.062336  1
  Sc  Sc15  1  0.193246  0.567214  0.437615  1
  Sc  Sc16  1  0.481354  0.250000  0.488485  1
  Sc  Sc17  1  0.981570  0.250000  0.011538  1
  Sc  Sc18  1  0.518507  0.750000  0.511430  1
  Sc  Sc19  1  0.018602  0.750000  0.988577  1
  Bi  Bi20  1  0.402550  0.750000  0.967455  1
  Bi  Bi21  1  0.902501  0.750000  0.532549  1
  Bi  Bi22  1  0.597046  0.250000  0.032889  1
  Bi  Bi23  1  0.097651  0.250000  0.467277  1
  Bi  Bi24  1  0.563618  0.989523  0.328575  1
  Bi  Bi25  1  0.064242  0.510381  0.171402  1
  Bi  Bi26  1  0.436152  0.489273  0.671329  1
  Bi  Bi27  1  0.936116  0.010732  0.828691  1
  Bi  Bi28  1  0.436152  0.010727  0.671329  1
  Bi  Bi29  1  0.936116  0.489268  0.828691  1
  Bi  Bi30  1  0.563618  0.510477  0.328575  1
  Bi  Bi31  1  0.064242  0.989619  0.171402  1
