# generated using pymatgen
data_Ag3Bi(Rh2O7)2
_symmetry_space_group_name_H-M   'P 1'
_cell_length_a   7.17055890
_cell_length_b   7.24288550
_cell_length_c   7.18004278
_cell_angle_alpha   60.43263012
_cell_angle_beta   60.08415636
_cell_angle_gamma   60.37466561
_symmetry_Int_Tables_number   1
_chemical_formula_structural   Ag3Bi(Rh2O7)2
_chemical_formula_sum   'Ag3 Bi1 Rh4 O14'
_cell_volume   265.44719267
_cell_formula_units_Z   1
loop_
 _symmetry_equiv_pos_site_id
 _symmetry_equiv_pos_as_xyz
  1  'x, y, z'
loop_
 _atom_site_type_symbol
 _atom_site_label
 _atom_site_symmetry_multiplicity
 _atom_site_fract_x
 _atom_site_fract_y
 _atom_site_fract_z
 _atom_site_occupancy
  Ag  Ag0  1  0.125000  0.125000  0.125000  1
  Ag  Ag1  1  0.625000  0.125000  0.125000  1
  Ag  Ag2  1  0.125000  0.125000  0.625000  1
  Bi  Bi3  1  0.125000  0.625000  0.125000  1
  Rh  Rh4  1  0.625000  0.625000  0.625000  1
  Rh  Rh5  1  0.625000  0.625000  0.125000  1
  Rh  Rh6  1  0.125000  0.625000  0.625000  1
  Rh  Rh7  1  0.625000  0.125000  0.625000  1
  O  O8  1  0.255028  0.234741  0.255163  1
  O  O9  1  0.293442  0.699033  0.293541  1
  O  O10  1  0.951012  0.945370  0.552153  1
  O  O11  1  0.551448  0.945379  0.552189  1
  O  O12  1  0.713975  0.699026  0.293504  1
  O  O13  1  0.956575  0.550811  0.536129  1
  O  O14  1  0.698552  0.304621  0.697811  1
  O  O15  1  0.298988  0.304630  0.697847  1
  O  O16  1  0.698571  0.304289  0.298630  1
  O  O17  1  0.293425  0.699189  0.713871  1
  O  O18  1  0.956558  0.550967  0.956459  1
  O  O19  1  0.536025  0.550974  0.956496  1
  O  O20  1  0.994972  0.015259  0.994837  1
  O  O21  1  0.551429  0.945711  0.951370  1
