# generated using pymatgen
data_LiNd7PaRh6
_symmetry_space_group_name_H-M   'P 1'
_cell_length_a   7.66272662
_cell_length_b   7.66272627
_cell_length_c   7.66272683
_cell_angle_alpha   68.53312332
_cell_angle_beta   68.53312038
_cell_angle_gamma   68.53310907
_symmetry_Int_Tables_number   1
_chemical_formula_structural   LiNd7PaRh6
_chemical_formula_sum   'Li1 Nd7 Pa1 Rh6'
_cell_volume   375.43010350
_cell_formula_units_Z   1
loop_
 _symmetry_equiv_pos_site_id
 _symmetry_equiv_pos_as_xyz
  1  'x, y, z'
loop_
 _atom_site_type_symbol
 _atom_site_label
 _atom_site_symmetry_multiplicity
 _atom_site_fract_x
 _atom_site_fract_y
 _atom_site_fract_z
 _atom_site_occupancy
  Li  Li0  1  0.997968  0.997968  0.997968  1
  Nd  Nd1  1  0.188082  0.188082  0.188082  1
  Nd  Nd2  1  0.147396  0.379380  0.678622  1
  Nd  Nd3  1  0.678622  0.147396  0.379380  1
  Nd  Nd4  1  0.379380  0.678622  0.147396  1
  Nd  Nd5  1  0.852552  0.613789  0.329684  1
  Nd  Nd6  1  0.329684  0.852552  0.613789  1
  Nd  Nd7  1  0.613789  0.329684  0.852552  1
  Pa  Pa8  1  0.816659  0.816659  0.816659  1
  Rh  Rh9  1  0.946268  0.156523  0.591514  1
  Rh  Rh10  1  0.591514  0.946268  0.156523  1
  Rh  Rh11  1  0.156523  0.591514  0.946268  1
  Rh  Rh12  1  0.034068  0.808645  0.458851  1
  Rh  Rh13  1  0.458851  0.034068  0.808645  1
  Rh  Rh14  1  0.808645  0.458851  0.034068  1
