# generated using pymatgen
data_Tb2ErHf(NiP)4
_symmetry_space_group_name_H-M   'P 1'
_cell_length_a   3.87330000
_cell_length_b   3.87329983
_cell_length_c   15.04432900
_cell_angle_alpha   90.00000000
_cell_angle_beta   90.00000000
_cell_angle_gamma   120.00000145
_symmetry_Int_Tables_number   1
_chemical_formula_structural   Tb2ErHf(NiP)4
_chemical_formula_sum   'Tb2 Er1 Hf1 Ni4 P4'
_cell_volume   195.46351315
_cell_formula_units_Z   1
loop_
 _symmetry_equiv_pos_site_id
 _symmetry_equiv_pos_as_xyz
  1  'x, y, z'
loop_
 _atom_site_type_symbol
 _atom_site_label
 _atom_site_symmetry_multiplicity
 _atom_site_fract_x
 _atom_site_fract_y
 _atom_site_fract_z
 _atom_site_occupancy
  Tb  Tb0  1  0.000000  0.000000  0.008146  1
  Tb  Tb1  1  0.000000  0.000000  0.491854  1
  Er  Er2  1  0.000000  0.000000  0.750000  1
  Hf  Hf3  1  0.000000  0.000000  0.250000  1
  Ni  Ni4  1  0.333333  0.666667  0.154944  1
  Ni  Ni5  1  0.666667  0.333333  0.875577  1
  Ni  Ni6  1  0.666667  0.333333  0.624423  1
  Ni  Ni7  1  0.333333  0.666667  0.345056  1
  P  P8  1  0.333333  0.666667  0.620195  1
  P  P9  1  0.666667  0.333333  0.371695  1
  P  P10  1  0.666667  0.333333  0.128305  1
  P  P11  1  0.333333  0.666667  0.879805  1
