# generated using pymatgen
data_LiTc12I25
_symmetry_space_group_name_H-M   'P 1'
_cell_length_a   10.35193453
_cell_length_b   11.55992618
_cell_length_c   12.36526689
_cell_angle_alpha   85.47093530
_cell_angle_beta   75.74400942
_cell_angle_gamma   88.00828358
_symmetry_Int_Tables_number   1
_chemical_formula_structural   LiTc12I25
_chemical_formula_sum   'Li1 Tc12 I25'
_cell_volume   1429.49624084
_cell_formula_units_Z   1
loop_
 _symmetry_equiv_pos_site_id
 _symmetry_equiv_pos_as_xyz
  1  'x, y, z'
loop_
 _atom_site_type_symbol
 _atom_site_label
 _atom_site_symmetry_multiplicity
 _atom_site_fract_x
 _atom_site_fract_y
 _atom_site_fract_z
 _atom_site_occupancy
  Li  Li0  1  0.500000  0.000000  0.000000  1
  Tc  Tc1  1  0.825331  0.251143  0.129378  1
  Tc  Tc2  1  0.174669  0.748857  0.870622  1
  Tc  Tc3  1  0.758744  0.125776  0.274376  1
  Tc  Tc4  1  0.241256  0.874224  0.725624  1
  Tc  Tc5  1  0.057745  0.274779  0.193121  1
  Tc  Tc6  1  0.942255  0.725221  0.806879  1
  Tc  Tc7  1  0.846885  0.419207  0.265968  1
  Tc  Tc8  1  0.153115  0.580793  0.734032  1
  Tc  Tc9  1  0.776361  0.294969  0.413410  1
  Tc  Tc10  1  0.223639  0.705031  0.586590  1
  Tc  Tc11  1  0.988665  0.151979  0.341131  1
  Tc  Tc12  1  0.011335  0.848021  0.658869  1
  I  I13  1  0.940573  0.956847  0.261062  1
  I  I14  1  0.059427  0.043153  0.738938  1
  I  I15  1  0.971762  0.274682  0.516757  1
  I  I16  1  0.028238  0.725318  0.483243  1
  I  I17  1  0.643161  0.422586  0.167660  1
  I  I18  1  0.356839  0.577414  0.832340  1
  I  I19  1  0.092722  0.470491  0.281059  1
  I  I20  1  0.907278  0.529509  0.718941  1
  I  I21  1  0.000000  0.500000  0.000000  1
  I  I22  1  0.597831  0.964192  0.218609  1
  I  I23  1  0.402169  0.035808  0.781391  1
  I  I24  1  0.207137  0.041403  0.392792  1
  I  I25  1  0.792863  0.958597  0.607208  1
  I  I26  1  0.541958  0.214223  0.405440  1
  I  I27  1  0.458042  0.785777  0.594560  1
  I  I28  1  0.054958  0.158665  0.018245  1
  I  I29  1  0.945042  0.841335  0.981755  1
  I  I30  1  0.773425  0.641897  0.318625  1
  I  I31  1  0.226575  0.358103  0.681375  1
  I  I32  1  0.719002  0.197514  0.953038  1
  I  I33  1  0.280998  0.802486  0.046962  1
  I  I34  1  0.331293  0.254957  0.117541  1
  I  I35  1  0.668707  0.745043  0.882459  1
  I  I36  1  0.640137  0.410931  0.591807  1
  I  I37  1  0.359863  0.589069  0.408193  1
