# generated using pymatgen
data_Gd2PbO2
_symmetry_space_group_name_H-M   'P 1'
_cell_length_a   7.68751369
_cell_length_b   7.68751394
_cell_length_c   7.68751291
_cell_angle_alpha   150.56950582
_cell_angle_beta   150.56950842
_cell_angle_gamma   42.10606655
_symmetry_Int_Tables_number   1
_chemical_formula_structural   Gd2PbO2
_chemical_formula_sum   'Gd2 Pb1 O2'
_cell_volume   109.42957845
_cell_formula_units_Z   1
loop_
 _symmetry_equiv_pos_site_id
 _symmetry_equiv_pos_as_xyz
  1  'x, y, z'
loop_
 _atom_site_type_symbol
 _atom_site_label
 _atom_site_symmetry_multiplicity
 _atom_site_fract_x
 _atom_site_fract_y
 _atom_site_fract_z
 _atom_site_occupancy
  Gd  Gd0  1  0.669918  0.669918  0.000000  1
  Gd  Gd1  1  0.330082  0.330082  0.000000  1
  Pb  Pb2  1  0.000000  0.000000  0.000000  1
  O  O3  1  0.750000  0.250000  0.500000  1
  O  O4  1  0.250000  0.750000  0.500000  1
