# generated using pymatgen
data_GdHo(ZnPt)2
_symmetry_space_group_name_H-M   'P 1'
_cell_length_a   4.22909200
_cell_length_b   6.83919387
_cell_length_c   8.04442800
_cell_angle_alpha   88.74795730
_cell_angle_beta   90.00000000
_cell_angle_gamma   90.00000000
_symmetry_Int_Tables_number   1
_chemical_formula_structural   GdHo(ZnPt)2
_chemical_formula_sum   'Gd2 Ho2 Zn4 Pt4'
_cell_volume   232.61810621
_cell_formula_units_Z   2
loop_
 _symmetry_equiv_pos_site_id
 _symmetry_equiv_pos_as_xyz
  1  'x, y, z'
loop_
 _atom_site_type_symbol
 _atom_site_label
 _atom_site_symmetry_multiplicity
 _atom_site_fract_x
 _atom_site_fract_y
 _atom_site_fract_z
 _atom_site_occupancy
  Gd  Gd0  1  0.750000  0.965645  0.686795  1
  Gd  Gd1  1  0.250000  0.034355  0.313205  1
  Ho  Ho2  1  0.250000  0.536714  0.185775  1
  Ho  Ho3  1  0.750000  0.463286  0.814225  1
  Zn  Zn4  1  0.250000  0.641807  0.563580  1
  Zn  Zn5  1  0.750000  0.358193  0.436420  1
  Zn  Zn6  1  0.750000  0.858119  0.062306  1
  Zn  Zn7  1  0.250000  0.141881  0.937694  1
  Pt  Pt8  1  0.250000  0.752311  0.880266  1
  Pt  Pt9  1  0.750000  0.247689  0.119734  1
  Pt  Pt10  1  0.750000  0.741990  0.381090  1
  Pt  Pt11  1  0.250000  0.258010  0.618910  1
