# generated using pymatgen
data_V5GeB2
_symmetry_space_group_name_H-M   'P 1'
_cell_length_a   6.83195045
_cell_length_b   6.83195095
_cell_length_c   6.83195189
_cell_angle_alpha   129.57734314
_cell_angle_beta   129.57734280
_cell_angle_gamma   74.08336350
_symmetry_Int_Tables_number   1
_chemical_formula_structural   V5GeB2
_chemical_formula_sum   'V10 Ge2 B4'
_cell_volume   184.73046865
_cell_formula_units_Z   2
loop_
 _symmetry_equiv_pos_site_id
 _symmetry_equiv_pos_as_xyz
  1  'x, y, z'
loop_
 _atom_site_type_symbol
 _atom_site_label
 _atom_site_symmetry_multiplicity
 _atom_site_fract_x
 _atom_site_fract_y
 _atom_site_fract_z
 _atom_site_occupancy
  V  V0  1  0.533826  0.697504  0.500000  1
  V  V1  1  0.033826  0.533826  0.836322  1
  V  V2  1  0.697504  0.197504  0.163678  1
  V  V3  1  0.966174  0.466174  0.163678  1
  V  V4  1  0.197504  0.033826  0.500000  1
  V  V5  1  0.466174  0.302496  0.500000  1
  V  V6  1  0.802496  0.966174  0.500000  1
  V  V7  1  0.302496  0.802496  0.836322  1
  V  V8  1  0.000000  0.000000  0.000000  1
  V  V9  1  0.500000  0.500000  0.000000  1
  Ge  Ge10  1  0.250000  0.250000  0.000000  1
  Ge  Ge11  1  0.750000  0.750000  0.000000  1
  B  B12  1  0.615548  0.115548  0.731096  1
  B  B13  1  0.115548  0.384452  0.500000  1
  B  B14  1  0.884452  0.615548  0.500000  1
  B  B15  1  0.384452  0.884452  0.268904  1
