# generated using pymatgen
data_Tb5Nd3(Tm3Si4)4
_symmetry_space_group_name_H-M   'P 1'
_cell_length_a   7.64980057
_cell_length_b   7.64654400
_cell_length_c   14.09108665
_cell_angle_alpha   90.09225303
_cell_angle_beta   89.98790047
_cell_angle_gamma   90.04239888
_symmetry_Int_Tables_number   1
_chemical_formula_structural   Tb5Nd3(Tm3Si4)4
_chemical_formula_sum   'Tb5 Nd3 Tm12 Si16'
_cell_volume   824.25027157
_cell_formula_units_Z   1
loop_
 _symmetry_equiv_pos_site_id
 _symmetry_equiv_pos_as_xyz
  1  'x, y, z'
loop_
 _atom_site_type_symbol
 _atom_site_label
 _atom_site_symmetry_multiplicity
 _atom_site_fract_x
 _atom_site_fract_y
 _atom_site_fract_z
 _atom_site_occupancy
  Tb  Tb0  1  0.641109  0.993982  0.458777  1
  Tb  Tb1  1  0.359331  0.005888  0.958311  1
  Tb  Tb2  1  0.993425  0.641797  0.541500  1
  Tb  Tb3  1  0.493927  0.859334  0.208591  1
  Tb  Tb4  1  0.505902  0.140468  0.707917  1
  Nd  Nd5  1  0.856291  0.491991  0.790144  1
  Nd  Nd6  1  0.143518  0.508230  0.291271  1
  Nd  Nd7  1  0.008083  0.355798  0.040597  1
  Tm  Tm8  1  0.492191  0.359887  0.124298  1
  Tm  Tm9  1  0.992862  0.139044  0.625331  1
  Tm  Tm10  1  0.859821  0.007233  0.873925  1
  Tm  Tm11  1  0.139512  0.991987  0.374673  1
  Tm  Tm12  1  0.508835  0.640730  0.623685  1
  Tm  Tm13  1  0.360003  0.492709  0.875646  1
  Tm  Tm14  1  0.639837  0.508065  0.376319  1
  Tm  Tm15  1  0.007531  0.860290  0.125819  1
  Tm  Tm16  1  0.318778  0.317317  0.500225  1
  Tm  Tm17  1  0.182957  0.818955  0.749758  1
  Tm  Tm18  1  0.816675  0.180329  0.250410  1
  Tm  Tm19  1  0.680029  0.683496  0.000179  1
  Si  Si20  1  0.292709  0.939422  0.562112  1
  Si  Si21  1  0.705877  0.059189  0.062016  1
  Si  Si22  1  0.937021  0.290611  0.438966  1
  Si  Si23  1  0.441047  0.205920  0.312178  1
  Si  Si24  1  0.559199  0.794044  0.811880  1
  Si  Si25  1  0.210451  0.437715  0.687166  1
  Si  Si26  1  0.787854  0.564235  0.188273  1
  Si  Si27  1  0.064214  0.711977  0.938182  1
  Si  Si28  1  0.796086  0.849423  0.685559  1
  Si  Si29  1  0.206347  0.148573  0.187481  1
  Si  Si30  1  0.844605  0.798751  0.313295  1
  Si  Si31  1  0.348834  0.705263  0.438289  1
  Si  Si32  1  0.648656  0.293775  0.937347  1
  Si  Si33  1  0.702683  0.346829  0.563418  1
  Si  Si34  1  0.298724  0.655372  0.063211  1
  Si  Si35  1  0.155077  0.201371  0.813255  1
