# generated using pymatgen
data_Ta7Ti5Al8(AuC)4
_symmetry_space_group_name_H-M   'P 1'
_cell_length_a   8.37119253
_cell_length_b   8.38356848
_cell_length_c   8.37443015
_cell_angle_alpha   59.95288837
_cell_angle_beta   60.00238549
_cell_angle_gamma   59.95657398
_symmetry_Int_Tables_number   1
_chemical_formula_structural   Ta7Ti5Al8(AuC)4
_chemical_formula_sum   'Ta7 Ti5 Al8 Au4 C4'
_cell_volume   415.30468537
_cell_formula_units_Z   1
loop_
 _symmetry_equiv_pos_site_id
 _symmetry_equiv_pos_as_xyz
  1  'x, y, z'
loop_
 _atom_site_type_symbol
 _atom_site_label
 _atom_site_symmetry_multiplicity
 _atom_site_fract_x
 _atom_site_fract_y
 _atom_site_fract_z
 _atom_site_occupancy
  Ta  Ta0  1  0.930123  0.927840  0.570333  1
  Ta  Ta1  1  0.680811  0.321134  0.319703  1
  Ta  Ta2  1  0.319012  0.680025  0.678797  1
  Ta  Ta3  1  0.678195  0.677798  0.320832  1
  Ta  Ta4  1  0.680177  0.320264  0.678475  1
  Ta  Ta5  1  0.319734  0.680821  0.320556  1
  Ta  Ta6  1  0.572084  0.928815  0.570223  1
  Ti  Ti7  1  0.571241  0.927520  0.930252  1
  Ti  Ti8  1  0.929952  0.572710  0.569648  1
  Ti  Ti9  1  0.929309  0.571411  0.929637  1
  Ti  Ti10  1  0.320164  0.322565  0.679013  1
  Ti  Ti11  1  0.570258  0.571307  0.930646  1
  Al  Al12  1  0.912041  0.263651  0.912314  1
  Al  Al13  1  0.335202  0.335810  0.991199  1
  Al  Al14  1  0.994318  0.335365  0.334962  1
  Al  Al15  1  0.335873  0.335928  0.337825  1
  Al  Al16  1  0.260997  0.911922  0.914734  1
  Al  Al17  1  0.912285  0.911900  0.914145  1
  Al  Al18  1  0.914977  0.912239  0.258279  1
  Al  Al19  1  0.335471  0.993486  0.335539  1
  Au  Au20  1  0.125429  0.624713  0.124830  1
  Au  Au21  1  0.124599  0.126443  0.626836  1
  Au  Au22  1  0.625154  0.125863  0.123475  1
  Au  Au23  1  0.125770  0.125903  0.121969  1
  C  C24  1  0.619401  0.126091  0.629566  1
  C  C25  1  0.626973  0.626695  0.118012  1
  C  C26  1  0.123148  0.618929  0.629103  1
  C  C27  1  0.627302  0.622851  0.629098  1
