# generated using pymatgen
data_LiTb3Pd8
_symmetry_space_group_name_H-M   'P 1'
_cell_length_a   4.21250300
_cell_length_b   5.87287906
_cell_length_c   17.58004100
_cell_angle_alpha   89.99645857
_cell_angle_beta   90.00027203
_cell_angle_gamma   90.00759994
_symmetry_Int_Tables_number   1
_chemical_formula_structural   LiTb3Pd8
_chemical_formula_sum   'Li2 Tb6 Pd16'
_cell_volume   434.92178306
_cell_formula_units_Z   2
loop_
 _symmetry_equiv_pos_site_id
 _symmetry_equiv_pos_as_xyz
  1  'x, y, z'
loop_
 _atom_site_type_symbol
 _atom_site_label
 _atom_site_symmetry_multiplicity
 _atom_site_fract_x
 _atom_site_fract_y
 _atom_site_fract_z
 _atom_site_occupancy
  Li  Li0  1  0.026531  0.039969  0.456150  1
  Li  Li1  1  0.025470  0.039088  0.956037  1
  Tb  Tb2  1  0.524933  0.333734  0.044468  1
  Tb  Tb3  1  0.524772  0.838018  0.206144  1
  Tb  Tb4  1  0.525827  0.333904  0.367889  1
  Tb  Tb5  1  0.527092  0.745733  0.544430  1
  Tb  Tb6  1  0.527226  0.240602  0.706170  1
  Tb  Tb7  1  0.526205  0.744227  0.867831  1
  Pd  Pd8  1  0.524842  0.830927  0.034994  1
  Pd  Pd9  1  0.024625  0.086095  0.121000  1
  Pd  Pd10  1  0.024653  0.589285  0.121776  1
  Pd  Pd11  1  0.524695  0.338075  0.206198  1
  Pd  Pd12  1  0.025203  0.589075  0.290571  1
  Pd  Pd13  1  0.025149  0.085976  0.291366  1
  Pd  Pd14  1  0.525755  0.830994  0.377284  1
  Pd  Pd15  1  0.026578  0.539955  0.456214  1
  Pd  Pd16  1  0.527290  0.248745  0.535138  1
  Pd  Pd17  1  0.027388  0.993306  0.620984  1
  Pd  Pd18  1  0.027382  0.490188  0.621831  1
  Pd  Pd19  1  0.527333  0.740474  0.706118  1
  Pd  Pd20  1  0.026814  0.488743  0.790497  1
  Pd  Pd21  1  0.026854  0.991858  0.791177  1
  Pd  Pd22  1  0.526235  0.246967  0.877166  1
  Pd  Pd23  1  0.025483  0.539030  0.956104  1
