# generated using pymatgen
data_HfNbFeB2Ru5
_symmetry_space_group_name_H-M   'P 1'
_cell_length_a   9.30462585
_cell_length_b   9.30462506
_cell_length_c   3.02991200
_cell_angle_alpha   90.00000000
_cell_angle_beta   90.00000000
_cell_angle_gamma   90.05878211
_symmetry_Int_Tables_number   1
_chemical_formula_structural   HfNbFeB2Ru5
_chemical_formula_sum   'Hf2 Nb2 Fe2 B4 Ru10'
_cell_volume   262.31768950
_cell_formula_units_Z   2
loop_
 _symmetry_equiv_pos_site_id
 _symmetry_equiv_pos_as_xyz
  1  'x, y, z'
loop_
 _atom_site_type_symbol
 _atom_site_label
 _atom_site_symmetry_multiplicity
 _atom_site_fract_x
 _atom_site_fract_y
 _atom_site_fract_z
 _atom_site_occupancy
  Hf  Hf0  1  0.823217  0.676783  0.000000  1
  Hf  Hf1  1  0.176783  0.323217  0.000000  1
  Nb  Nb2  1  0.323382  0.823382  0.000000  1
  Nb  Nb3  1  0.676618  0.176618  0.000000  1
  Fe  Fe4  1  0.500000  0.500000  0.000000  1
  Fe  Fe5  1  0.000000  0.000000  0.000000  1
  B  B6  1  0.623988  0.876012  0.000000  1
  B  B7  1  0.376012  0.123988  0.000000  1
  B  B8  1  0.124410  0.624410  0.000000  1
  B  B9  1  0.875590  0.375590  0.000000  1
  Ru  Ru10  1  0.567871  0.714454  0.500000  1
  Ru  Ru11  1  0.432129  0.285546  0.500000  1
  Ru  Ru12  1  0.073954  0.787775  0.500000  1
  Ru  Ru13  1  0.926046  0.212225  0.500000  1
  Ru  Ru14  1  0.287775  0.573954  0.500000  1
  Ru  Ru15  1  0.712225  0.426046  0.500000  1
  Ru  Ru16  1  0.214454  0.067871  0.500000  1
  Ru  Ru17  1  0.785546  0.932129  0.500000  1
  Ru  Ru18  1  0.500000  0.000000  0.500000  1
  Ru  Ru19  1  0.000000  0.500000  0.500000  1
