# generated using pymatgen
data_Er4AlReRu6
_symmetry_space_group_name_H-M   'P 1'
_cell_length_a   5.16963337
_cell_length_b   5.40562813
_cell_length_c   8.85202400
_cell_angle_alpha   90.00000000
_cell_angle_beta   90.00000000
_cell_angle_gamma   119.66838228
_symmetry_Int_Tables_number   1
_chemical_formula_structural   Er4AlReRu6
_chemical_formula_sum   'Er4 Al1 Re1 Ru6'
_cell_volume   214.94170300
_cell_formula_units_Z   1
loop_
 _symmetry_equiv_pos_site_id
 _symmetry_equiv_pos_as_xyz
  1  'x, y, z'
loop_
 _atom_site_type_symbol
 _atom_site_label
 _atom_site_symmetry_multiplicity
 _atom_site_fract_x
 _atom_site_fract_y
 _atom_site_fract_z
 _atom_site_occupancy
  Er  Er0  1  0.333841  0.670639  0.438794  1
  Er  Er1  1  0.658274  0.328078  0.566165  1
  Er  Er2  1  0.658274  0.328078  0.933835  1
  Er  Er3  1  0.333841  0.670639  0.061206  1
  Al  Al4  1  0.835708  0.167510  0.250000  1
  Re  Re5  1  0.667614  0.836001  0.750000  1
  Ru  Ru6  1  0.990033  0.989533  0.499324  1
  Ru  Ru7  1  0.990033  0.989533  0.000676  1
  Ru  Ru8  1  0.826057  0.655602  0.250000  1
  Ru  Ru9  1  0.349943  0.181565  0.250000  1
  Ru  Ru10  1  0.176701  0.833659  0.750000  1
  Ru  Ru11  1  0.179678  0.349163  0.750000  1
