# generated using pymatgen
data_Tb2CuIr2
_symmetry_space_group_name_H-M   'P 1'
_cell_length_a   5.44186127
_cell_length_b   5.44186101
_cell_length_c   5.44186023
_cell_angle_alpha   134.46376735
_cell_angle_beta   116.42014034
_cell_angle_gamma   81.63909524
_symmetry_Int_Tables_number   1
_chemical_formula_structural   Tb2CuIr2
_chemical_formula_sum   'Tb2 Cu1 Ir2'
_cell_volume   99.45628855
_cell_formula_units_Z   1
loop_
 _symmetry_equiv_pos_site_id
 _symmetry_equiv_pos_as_xyz
  1  'x, y, z'
loop_
 _atom_site_type_symbol
 _atom_site_label
 _atom_site_symmetry_multiplicity
 _atom_site_fract_x
 _atom_site_fract_y
 _atom_site_fract_z
 _atom_site_occupancy
  Tb  Tb0  1  0.704204  0.204204  0.500000  1
  Tb  Tb1  1  0.295796  0.795796  0.499999  1
  Cu  Cu2  1  0.000000  0.000000  0.000000  1
  Ir  Ir3  1  0.731199  0.500000  0.231198  1
  Ir  Ir4  1  0.268802  0.499999  0.768801  1
