# generated using pymatgen
data_Th2P7(Rh3W)3
_symmetry_space_group_name_H-M   'P 1'
_cell_length_a   3.99043506
_cell_length_b   9.59804508
_cell_length_c   9.60033972
_cell_angle_alpha   119.96263552
_cell_angle_beta   89.99949656
_cell_angle_gamma   90.00027465
_symmetry_Int_Tables_number   1
_chemical_formula_structural   Th2P7(Rh3W)3
_chemical_formula_sum   'Th2 P7 Rh9 W3'
_cell_volume   318.55443731
_cell_formula_units_Z   1
loop_
 _symmetry_equiv_pos_site_id
 _symmetry_equiv_pos_as_xyz
  1  'x, y, z'
loop_
 _atom_site_type_symbol
 _atom_site_label
 _atom_site_symmetry_multiplicity
 _atom_site_fract_x
 _atom_site_fract_y
 _atom_site_fract_z
 _atom_site_occupancy
  Th  Th0  1  0.261921  0.666811  0.333316  1
  Th  Th1  1  0.761905  0.333425  0.666837  1
  P  P2  1  0.262043  0.999336  0.999409  1
  P  P3  1  0.761987  0.887610  0.598101  1
  P  P4  1  0.761973  0.401788  0.289651  1
  P  P5  1  0.761979  0.710449  0.111204  1
  P  P6  1  0.261939  0.112597  0.406416  1
  P  P7  1  0.261948  0.593768  0.706403  1
  P  P8  1  0.261944  0.293733  0.887531  1
  Rh  Rh9  1  0.261889  0.883245  0.157502  1
  Rh  Rh10  1  0.261894  0.842514  0.724692  1
  Rh  Rh11  1  0.261887  0.273701  0.116894  1
  Rh  Rh12  1  0.761863  0.614761  0.560690  1
  Rh  Rh13  1  0.761867  0.439510  0.054967  1
  Rh  Rh14  1  0.761870  0.944983  0.384708  1
  Rh  Rh15  1  0.261819  0.368295  0.438325  1
  Rh  Rh16  1  0.261813  0.561627  0.930186  1
  Rh  Rh17  1  0.261840  0.070466  0.631580  1
  W  W18  1  0.761877  0.091038  0.875954  1
  W  W19  1  0.761873  0.125197  0.218075  1
  W  W20  1  0.761868  0.785147  0.907560  1
