# generated using pymatgen
data_Yb4Eu2Ag2Ru
_symmetry_space_group_name_H-M   'P 1'
_cell_length_a   8.15914592
_cell_length_b   8.15914615
_cell_length_c   4.37552100
_cell_angle_alpha   90.00000000
_cell_angle_beta   90.00000000
_cell_angle_gamma   119.78084041
_symmetry_Int_Tables_number   1
_chemical_formula_structural   Yb4Eu2Ag2Ru
_chemical_formula_sum   'Yb4 Eu2 Ag2 Ru1'
_cell_volume   252.81607332
_cell_formula_units_Z   1
loop_
 _symmetry_equiv_pos_site_id
 _symmetry_equiv_pos_as_xyz
  1  'x, y, z'
loop_
 _atom_site_type_symbol
 _atom_site_label
 _atom_site_symmetry_multiplicity
 _atom_site_fract_x
 _atom_site_fract_y
 _atom_site_fract_z
 _atom_site_occupancy
  Yb  Yb0  1  0.760715  0.998398  0.000000  1
  Yb  Yb1  1  0.238885  0.238884  0.000000  1
  Yb  Yb2  1  0.998398  0.760715  0.000000  1
  Yb  Yb3  1  0.604197  0.604197  0.500001  1
  Eu  Eu4  1  0.395999  0.999768  0.500001  1
  Eu  Eu5  1  0.999768  0.395999  0.500001  1
  Ag  Ag6  1  0.665711  0.337430  0.000000  1
  Ag  Ag7  1  0.337430  0.665710  0.000000  1
  Ru  Ru8  1  0.998896  0.998896  0.500001  1
