# generated using pymatgen
data_NdTm3Th6(Bi3C)2
_symmetry_space_group_name_H-M   'P 1'
_cell_length_a   9.35848400
_cell_length_b   9.35848410
_cell_length_c   6.46659900
_cell_angle_alpha   90.00000000
_cell_angle_beta   90.00000000
_cell_angle_gamma   119.99999965
_symmetry_Int_Tables_number   1
_chemical_formula_structural   NdTm3Th6(Bi3C)2
_chemical_formula_sum   'Nd1 Tm3 Th6 Bi6 C2'
_cell_volume   490.47578732
_cell_formula_units_Z   1
loop_
 _symmetry_equiv_pos_site_id
 _symmetry_equiv_pos_as_xyz
  1  'x, y, z'
loop_
 _atom_site_type_symbol
 _atom_site_label
 _atom_site_symmetry_multiplicity
 _atom_site_fract_x
 _atom_site_fract_y
 _atom_site_fract_z
 _atom_site_occupancy
  Nd  Nd0  1  0.666667  0.333333  0.000000  1
  Tm  Tm1  1  0.333333  0.666667  0.000000  1
  Tm  Tm2  1  0.333333  0.666667  0.500000  1
  Tm  Tm3  1  0.666667  0.333333  0.500000  1
  Th  Th4  1  0.780935  0.780563  0.750429  1
  Th  Th5  1  0.219437  0.000373  0.750429  1
  Th  Th6  1  0.999627  0.219065  0.750429  1
  Th  Th7  1  0.219437  0.219065  0.249571  1
  Th  Th8  1  0.780935  0.000373  0.249571  1
  Th  Th9  1  0.999627  0.780563  0.249571  1
  Bi  Bi10  1  0.403605  0.407117  0.747045  1
  Bi  Bi11  1  0.592883  0.996488  0.747045  1
  Bi  Bi12  1  0.003512  0.596395  0.747045  1
  Bi  Bi13  1  0.592883  0.596395  0.252955  1
  Bi  Bi14  1  0.403605  0.996488  0.252955  1
  Bi  Bi15  1  0.003512  0.407117  0.252955  1
  C  C16  1  0.000000  0.000000  0.000000  1
  C  C17  1  0.000000  0.000000  0.500000  1
