# generated using pymatgen
data_Yb(S8I)3
_symmetry_space_group_name_H-M   'P 1'
_cell_length_a   15.23131703
_cell_length_b   15.23131787
_cell_length_c   15.23131804
_cell_angle_alpha   118.99740894
_cell_angle_beta   118.99740878
_cell_angle_gamma   118.99740243
_symmetry_Int_Tables_number   1
_chemical_formula_structural   Yb(S8I)3
_chemical_formula_sum   'Yb1 S24 I3'
_cell_volume   915.66390426
_cell_formula_units_Z   1
loop_
 _symmetry_equiv_pos_site_id
 _symmetry_equiv_pos_as_xyz
  1  'x, y, z'
loop_
 _atom_site_type_symbol
 _atom_site_label
 _atom_site_symmetry_multiplicity
 _atom_site_fract_x
 _atom_site_fract_y
 _atom_site_fract_z
 _atom_site_occupancy
  Yb  Yb0  1  0.453157  0.453157  0.453157  1
  S  S1  1  0.005586  0.598678  0.598678  1
  S  S2  1  0.598678  0.598678  0.005586  1
  S  S3  1  0.598678  0.005586  0.598678  1
  S  S4  1  0.243287  0.851747  0.723973  1
  S  S5  1  0.851747  0.723973  0.243287  1
  S  S6  1  0.723973  0.243287  0.851747  1
  S  S7  1  0.851747  0.243287  0.723973  1
  S  S8  1  0.243287  0.723973  0.851747  1
  S  S9  1  0.723973  0.851747  0.243287  1
  S  S10  1  0.093222  0.619432  0.438596  1
  S  S11  1  0.619432  0.438596  0.093222  1
  S  S12  1  0.438596  0.093222  0.619432  1
  S  S13  1  0.619432  0.093222  0.438596  1
  S  S14  1  0.093222  0.438596  0.619432  1
  S  S15  1  0.438596  0.619432  0.093222  1
  S  S16  1  0.366180  0.752729  0.624225  1
  S  S17  1  0.752729  0.624225  0.366180  1
  S  S18  1  0.624225  0.366180  0.752729  1
  S  S19  1  0.752729  0.366180  0.624225  1
  S  S20  1  0.366180  0.624225  0.752729  1
  S  S21  1  0.624225  0.752729  0.366180  1
  S  S22  1  0.180186  0.458615  0.458615  1
  S  S23  1  0.458615  0.458615  0.180186  1
  S  S24  1  0.458615  0.180186  0.458615  1
  I  I25  1  0.053990  0.906406  0.906406  1
  I  I26  1  0.906406  0.906406  0.053990  1
  I  I27  1  0.906406  0.053990  0.906406  1
