# generated using pymatgen
data_ZrNb8VSe16
_symmetry_space_group_name_H-M   'P 1'
_cell_length_a   6.99673000
_cell_length_b   6.99673143
_cell_length_c   13.26232700
_cell_angle_alpha   90.00000000
_cell_angle_beta   90.00000000
_cell_angle_gamma   120.00000268
_symmetry_Int_Tables_number   1
_chemical_formula_structural   ZrNb8VSe16
_chemical_formula_sum   'Zr1 Nb8 V1 Se16'
_cell_volume   562.26450864
_cell_formula_units_Z   1
loop_
 _symmetry_equiv_pos_site_id
 _symmetry_equiv_pos_as_xyz
  1  'x, y, z'
loop_
 _atom_site_type_symbol
 _atom_site_label
 _atom_site_symmetry_multiplicity
 _atom_site_fract_x
 _atom_site_fract_y
 _atom_site_fract_z
 _atom_site_occupancy
  Zr  Zr0  1  0.000000  0.000000  0.000000  1
  Nb  Nb1  1  0.000000  0.000000  0.257476  1
  Nb  Nb2  1  0.000000  0.000000  0.742524  1
  Nb  Nb3  1  0.506974  0.013947  0.258682  1
  Nb  Nb4  1  0.493026  0.986053  0.741318  1
  Nb  Nb5  1  0.986053  0.493026  0.258682  1
  Nb  Nb6  1  0.013947  0.506974  0.741318  1
  Nb  Nb7  1  0.506974  0.493026  0.258682  1
  Nb  Nb8  1  0.493026  0.506974  0.741318  1
  V  V9  1  0.000000  0.000000  0.500000  1
  Se  Se10  1  0.333333  0.666667  0.611173  1
  Se  Se11  1  0.666667  0.333333  0.388827  1
  Se  Se12  1  0.666667  0.333333  0.128057  1
  Se  Se13  1  0.333333  0.666667  0.871943  1
  Se  Se14  1  0.169360  0.338721  0.131461  1
  Se  Se15  1  0.830640  0.661279  0.868539  1
  Se  Se16  1  0.661279  0.830640  0.131461  1
  Se  Se17  1  0.832559  0.665118  0.616302  1
  Se  Se18  1  0.338721  0.169360  0.868539  1
  Se  Se19  1  0.167441  0.334882  0.383698  1
  Se  Se20  1  0.169360  0.830640  0.131461  1
  Se  Se21  1  0.334882  0.167441  0.616302  1
  Se  Se22  1  0.830640  0.169360  0.868539  1
  Se  Se23  1  0.665118  0.832559  0.383698  1
  Se  Se24  1  0.832559  0.167441  0.616302  1
  Se  Se25  1  0.167441  0.832559  0.383698  1
