# generated using pymatgen
data_LaDyEr5CoI12
_symmetry_space_group_name_H-M   'P 1'
_cell_length_a   9.71801405
_cell_length_b   9.71631310
_cell_length_c   9.71430914
_cell_angle_alpha   106.23210235
_cell_angle_beta   106.21448401
_cell_angle_gamma   106.28900375
_symmetry_Int_Tables_number   1
_chemical_formula_structural   LaDyEr5CoI12
_chemical_formula_sum   'La1 Dy1 Er5 Co1 I12'
_cell_volume   779.09395160
_cell_formula_units_Z   1
loop_
 _symmetry_equiv_pos_site_id
 _symmetry_equiv_pos_as_xyz
  1  'x, y, z'
loop_
 _atom_site_type_symbol
 _atom_site_label
 _atom_site_symmetry_multiplicity
 _atom_site_fract_x
 _atom_site_fract_y
 _atom_site_fract_z
 _atom_site_occupancy
  La  La0  1  0.996870  0.996939  0.996797  1
  Dy  Dy1  1  0.409743  0.214482  0.481821  1
  Er  Er2  1  0.516303  0.587880  0.781046  1
  Er  Er3  1  0.780963  0.516576  0.587238  1
  Er  Er4  1  0.587275  0.780561  0.516128  1
  Er  Er5  1  0.481998  0.411150  0.217447  1
  Er  Er6  1  0.217545  0.482010  0.410799  1
  Co  Co7  1  0.499163  0.498992  0.499298  1
  I  I8  1  0.276285  0.822298  0.426297  1
  I  I9  1  0.426911  0.277790  0.824612  1
  I  I10  1  0.822896  0.426730  0.276676  1
  I  I11  1  0.723720  0.175854  0.572120  1
  I  I12  1  0.571584  0.721885  0.175178  1
  I  I13  1  0.175485  0.571709  0.721617  1
  I  I14  1  0.044414  0.124738  0.352555  1
  I  I15  1  0.353144  0.046007  0.123366  1
  I  I16  1  0.124625  0.353192  0.046089  1
  I  I17  1  0.951809  0.872980  0.641658  1
  I  I18  1  0.641777  0.951878  0.872997  1
  I  I19  1  0.872856  0.641718  0.951627  1
