# generated using pymatgen
data_Ca4GaSiPt4
_symmetry_space_group_name_H-M   'P 1'
_cell_length_a   5.65724132
_cell_length_b   5.65723993
_cell_length_c   7.78212738
_cell_angle_alpha   79.62286927
_cell_angle_beta   79.62287617
_cell_angle_gamma   61.04961526
_symmetry_Int_Tables_number   1
_chemical_formula_structural   Ca4GaSiPt4
_chemical_formula_sum   'Ca4 Ga1 Si1 Pt4'
_cell_volume   213.12107929
_cell_formula_units_Z   1
loop_
 _symmetry_equiv_pos_site_id
 _symmetry_equiv_pos_as_xyz
  1  'x, y, z'
loop_
 _atom_site_type_symbol
 _atom_site_label
 _atom_site_symmetry_multiplicity
 _atom_site_fract_x
 _atom_site_fract_y
 _atom_site_fract_z
 _atom_site_occupancy
  Ca  Ca0  1  0.778844  0.520504  0.349164  1
  Ca  Ca1  1  0.479496  0.221156  0.150836  1
  Ca  Ca2  1  0.216657  0.479428  0.650330  1
  Ca  Ca3  1  0.520572  0.783343  0.849670  1
  Ga  Ga4  1  0.874205  0.125795  0.750000  1
  Si  Si5  1  0.112384  0.887616  0.250000  1
  Pt  Pt6  1  0.010785  0.736356  0.010172  1
  Pt  Pt7  1  0.263644  0.989215  0.489828  1
  Pt  Pt8  1  0.000599  0.257185  0.006902  1
  Pt  Pt9  1  0.742815  0.999401  0.493098  1
