# generated using pymatgen
data_LaTmP7Ru12
_symmetry_space_group_name_H-M   'P 1'
_cell_length_a   9.46114500
_cell_length_b   9.46114345
_cell_length_c   3.96401500
_cell_angle_alpha   90.00000000
_cell_angle_beta   90.00000000
_cell_angle_gamma   119.99999492
_symmetry_Int_Tables_number   1
_chemical_formula_structural   LaTmP7Ru12
_chemical_formula_sum   'La1 Tm1 P7 Ru12'
_cell_volume   307.29342581
_cell_formula_units_Z   1
loop_
 _symmetry_equiv_pos_site_id
 _symmetry_equiv_pos_as_xyz
  1  'x, y, z'
loop_
 _atom_site_type_symbol
 _atom_site_label
 _atom_site_symmetry_multiplicity
 _atom_site_fract_x
 _atom_site_fract_y
 _atom_site_fract_z
 _atom_site_occupancy
  La  La0  1  0.333333  0.666667  0.000000  1
  Tm  Tm1  1  0.666667  0.333333  0.500000  1
  P  P2  1  0.607001  0.718965  0.500000  1
  P  P3  1  0.000000  0.000000  0.000000  1
  P  P4  1  0.281035  0.888036  0.500000  1
  P  P5  1  0.111964  0.392999  0.500000  1
  P  P6  1  0.887075  0.570833  0.000000  1
  P  P7  1  0.429167  0.316241  0.000000  1
  P  P8  1  0.683759  0.112925  0.000000  1
  Ru  Ru9  1  0.560057  0.957298  0.500000  1
  Ru  Ru10  1  0.397242  0.439943  0.500000  1
  Ru  Ru11  1  0.914674  0.118748  0.500000  1
  Ru  Ru12  1  0.204073  0.085326  0.500000  1
  Ru  Ru13  1  0.881252  0.795927  0.500000  1
  Ru  Ru14  1  0.728641  0.892668  0.000000  1
  Ru  Ru15  1  0.107332  0.835972  0.000000  1
  Ru  Ru16  1  0.164028  0.271359  0.000000  1
  Ru  Ru17  1  0.421742  0.070691  0.000000  1
  Ru  Ru18  1  0.929309  0.351053  0.000000  1
  Ru  Ru19  1  0.648947  0.578258  0.000000  1
  Ru  Ru20  1  0.042702  0.602758  0.500000  1
