# generated using pymatgen
data_Rb2Mn11GaO24
_symmetry_space_group_name_H-M   'P 1'
_cell_length_a   8.25508477
_cell_length_b   8.25508627
_cell_length_c   9.89817700
_cell_angle_alpha   54.24941326
_cell_angle_beta   54.24940578
_cell_angle_gamma   64.73632979
_symmetry_Int_Tables_number   1
_chemical_formula_structural   Rb2Mn11GaO24
_chemical_formula_sum   'Rb2 Mn11 Ga1 O24'
_cell_volume   440.51846120
_cell_formula_units_Z   1
loop_
 _symmetry_equiv_pos_site_id
 _symmetry_equiv_pos_as_xyz
  1  'x, y, z'
loop_
 _atom_site_type_symbol
 _atom_site_label
 _atom_site_symmetry_multiplicity
 _atom_site_fract_x
 _atom_site_fract_y
 _atom_site_fract_z
 _atom_site_occupancy
  Rb  Rb0  1  0.704355  0.297703  0.998362  1
  Rb  Rb1  1  0.297703  0.704355  0.998362  1
  Mn  Mn2  1  0.004270  0.669975  0.817399  1
  Mn  Mn3  1  0.669975  0.004270  0.817399  1
  Mn  Mn4  1  0.998871  0.330832  0.180486  1
  Mn  Mn5  1  0.663749  0.663749  0.183526  1
  Mn  Mn6  1  0.330832  0.998871  0.180486  1
  Mn  Mn7  1  0.148648  0.148648  0.516785  1
  Mn  Mn8  1  0.481344  0.817298  0.516692  1
  Mn  Mn9  1  0.817298  0.481344  0.516692  1
  Mn  Mn10  1  0.852258  0.852258  0.478139  1
  Mn  Mn11  1  0.185499  0.515355  0.481430  1
  Mn  Mn12  1  0.515355  0.185499  0.481430  1
  Ga  Ga13  1  0.339566  0.339566  0.810674  1
  O  O14  1  0.343728  0.343728  0.611054  1
  O  O15  1  0.011485  0.672672  0.616353  1
  O  O16  1  0.672672  0.011485  0.616353  1
  O  O17  1  0.989246  0.321976  0.386136  1
  O  O18  1  0.653448  0.653448  0.388999  1
  O  O19  1  0.321976  0.989246  0.386136  1
  O  O20  1  0.341062  0.341062  0.356094  1
  O  O21  1  0.011992  0.668660  0.360086  1
  O  O22  1  0.668660  0.011992  0.360086  1
  O  O23  1  0.994055  0.324393  0.637044  1
  O  O24  1  0.659773  0.659773  0.637154  1
  O  O25  1  0.324393  0.994055  0.637044  1
  O  O26  1  0.631017  0.291427  0.717444  1
  O  O27  1  0.291427  0.631017  0.717444  1
  O  O28  1  0.959050  0.959050  0.716083  1
  O  O29  1  0.707906  0.375348  0.281526  1
  O  O30  1  0.375348  0.707906  0.281526  1
  O  O31  1  0.042818  0.042818  0.279439  1
  O  O32  1  0.955360  0.624294  0.062577  1
  O  O33  1  0.624294  0.955360  0.062577  1
  O  O34  1  0.290022  0.290022  0.064207  1
  O  O35  1  0.378986  0.035832  0.948981  1
  O  O36  1  0.035832  0.378986  0.948981  1
  O  O37  1  0.705734  0.705734  0.948813  1
