# generated using pymatgen
data_Tb4HoIn3S
_symmetry_space_group_name_H-M   'P 1'
_cell_length_a   9.18178900
_cell_length_b   9.18178929
_cell_length_c   6.72485900
_cell_angle_alpha   90.00000000
_cell_angle_beta   90.00000000
_cell_angle_gamma   120.00000975
_symmetry_Int_Tables_number   1
_chemical_formula_structural   Tb4HoIn3S
_chemical_formula_sum   'Tb8 Ho2 In6 S2'
_cell_volume   490.98520157
_cell_formula_units_Z   2
loop_
 _symmetry_equiv_pos_site_id
 _symmetry_equiv_pos_as_xyz
  1  'x, y, z'
loop_
 _atom_site_type_symbol
 _atom_site_label
 _atom_site_symmetry_multiplicity
 _atom_site_fract_x
 _atom_site_fract_y
 _atom_site_fract_z
 _atom_site_occupancy
  Tb  Tb0  1  0.757486  0.757486  0.749929  1
  Tb  Tb1  1  0.242514  0.000000  0.749929  1
  Tb  Tb2  1  0.000000  0.242514  0.749929  1
  Tb  Tb3  1  0.242514  0.242514  0.250071  1
  Tb  Tb4  1  0.757486  0.000000  0.250071  1
  Tb  Tb5  1  0.000000  0.757486  0.250071  1
  Tb  Tb6  1  0.666667  0.333333  0.000000  1
  Tb  Tb7  1  0.333333  0.666667  0.000000  1
  Ho  Ho8  1  0.333333  0.666667  0.500000  1
  Ho  Ho9  1  0.666667  0.333333  0.500000  1
  In  In10  1  0.400635  0.400635  0.749523  1
  In  In11  1  0.599365  0.000000  0.749523  1
  In  In12  1  0.000000  0.599365  0.749523  1
  In  In13  1  0.599365  0.599365  0.250477  1
  In  In14  1  0.400635  0.000000  0.250477  1
  In  In15  1  0.000000  0.400635  0.250477  1
  S  S16  1  0.000000  0.000000  0.000000  1
  S  S17  1  0.000000  0.000000  0.500000  1
