# generated using pymatgen
data_TbY7Sc11Si16Tc
_symmetry_space_group_name_H-M   'P 1'
_cell_length_a   7.02661695
_cell_length_b   7.35586338
_cell_length_c   13.91344527
_cell_angle_alpha   90.04315118
_cell_angle_beta   89.97659340
_cell_angle_gamma   90.15362443
_symmetry_Int_Tables_number   1
_chemical_formula_structural   TbY7Sc11Si16Tc
_chemical_formula_sum   'Tb1 Y7 Sc11 Si16 Tc1'
_cell_volume   719.13909164
_cell_formula_units_Z   1
loop_
 _symmetry_equiv_pos_site_id
 _symmetry_equiv_pos_as_xyz
  1  'x, y, z'
loop_
 _atom_site_type_symbol
 _atom_site_label
 _atom_site_symmetry_multiplicity
 _atom_site_fract_x
 _atom_site_fract_y
 _atom_site_fract_z
 _atom_site_occupancy
  Tb  Tb0  1  0.487144  0.671922  0.598552  1
  Y  Y1  1  0.011834  0.176766  0.093865  1
  Y  Y2  1  0.992815  0.818811  0.900407  1
  Y  Y3  1  0.487006  0.671915  0.901357  1
  Y  Y4  1  0.992830  0.818791  0.599606  1
  Y  Y5  1  0.511438  0.324079  0.095651  1
  Y  Y6  1  0.011901  0.176854  0.406096  1
  Y  Y7  1  0.511449  0.324176  0.404360  1
  Sc  Sc8  1  0.841257  0.496763  0.250017  1
  Sc  Sc9  1  0.341398  0.002941  0.249965  1
  Sc  Sc10  1  0.657799  0.996876  0.749975  1
  Sc  Sc11  1  0.325940  0.178798  0.627317  1
  Sc  Sc12  1  0.671992  0.824070  0.374679  1
  Sc  Sc13  1  0.172007  0.675026  0.376575  1
  Sc  Sc14  1  0.671983  0.823895  0.125241  1
  Sc  Sc15  1  0.828566  0.330418  0.628129  1
  Sc  Sc16  1  0.326032  0.178906  0.872752  1
  Sc  Sc17  1  0.828595  0.330529  0.872014  1
  Sc  Sc18  1  0.172105  0.675020  0.123386  1
  Si  Si19  1  0.029926  0.121735  0.750039  1
  Si  Si20  1  0.971771  0.884334  0.249991  1
  Si  Si21  1  0.468199  0.617523  0.249957  1
  Si  Si22  1  0.520633  0.391983  0.750099  1
  Si  Si23  1  0.285381  0.865961  0.750061  1
  Si  Si24  1  0.716703  0.127688  0.250005  1
  Si  Si25  1  0.214619  0.372701  0.249988  1
  Si  Si26  1  0.794671  0.627719  0.750072  1
  Si  Si27  1  0.155232  0.465538  0.547132  1
  Si  Si28  1  0.843255  0.535990  0.462895  1
  Si  Si29  1  0.346058  0.964697  0.462849  1
  Si  Si30  1  0.843157  0.535943  0.037065  1
  Si  Si31  1  0.657125  0.034756  0.540143  1
  Si  Si32  1  0.155497  0.465622  0.952813  1
  Si  Si33  1  0.657121  0.034598  0.959822  1
  Si  Si34  1  0.346121  0.964556  0.037109  1
  Tc  Tc35  1  0.150445  0.492101  0.750015  1
