# generated using pymatgen
data_ErTm4ReMoC7
_symmetry_space_group_name_H-M   'P 1'
_cell_length_a   8.26693353
_cell_length_b   8.27007185
_cell_length_c   3.38308000
_cell_angle_alpha   90.00000000
_cell_angle_beta   90.00000000
_cell_angle_gamma   122.03626828
_symmetry_Int_Tables_number   1
_chemical_formula_structural   ErTm4ReMoC7
_chemical_formula_sum   'Er1 Tm4 Re1 Mo1 C7'
_cell_volume   196.07154748
_cell_formula_units_Z   1
loop_
 _symmetry_equiv_pos_site_id
 _symmetry_equiv_pos_as_xyz
  1  'x, y, z'
loop_
 _atom_site_type_symbol
 _atom_site_label
 _atom_site_symmetry_multiplicity
 _atom_site_fract_x
 _atom_site_fract_y
 _atom_site_fract_z
 _atom_site_occupancy
  Er  Er0  1  0.333908  0.075458  0.500000  1
  Tm  Tm1  1  0.499192  0.501283  0.000000  1
  Tm  Tm2  1  0.078113  0.336334  0.500000  1
  Tm  Tm3  1  0.923826  0.664729  0.500000  1
  Tm  Tm4  1  0.664079  0.921625  0.500000  1
  Re  Re5  1  0.286264  0.713688  0.000000  1
  Mo  Mo6  1  0.714185  0.285972  0.000000  1
  C  C7  1  0.622809  0.377730  0.500000  1
  C  C8  1  0.375587  0.624446  0.500000  1
  C  C9  1  0.999676  0.000384  0.000000  1
  C  C10  1  0.168883  0.169644  0.000000  1
  C  C11  1  0.831159  0.830009  0.000000  1
  C  C12  1  0.002318  0.500986  0.000000  1
  C  C13  1  0.499998  0.997713  0.000000  1
