# generated using pymatgen
data_La3Nd3(SiPd5)2
_symmetry_space_group_name_H-M   'P 1'
_cell_length_a   8.49845566
_cell_length_b   8.47663973
_cell_length_c   8.47664034
_cell_angle_alpha   127.47919992
_cell_angle_beta   126.20695926
_cell_angle_gamma   78.45238952
_symmetry_Int_Tables_number   1
_chemical_formula_structural   La3Nd3(SiPd5)2
_chemical_formula_sum   'La3 Nd3 Si2 Pd10'
_cell_volume   378.72595760
_cell_formula_units_Z   1
loop_
 _symmetry_equiv_pos_site_id
 _symmetry_equiv_pos_as_xyz
  1  'x, y, z'
loop_
 _atom_site_type_symbol
 _atom_site_label
 _atom_site_symmetry_multiplicity
 _atom_site_fract_x
 _atom_site_fract_y
 _atom_site_fract_z
 _atom_site_occupancy
  La  La0  1  0.383859  0.249555  0.134304  1
  La  La1  1  0.777720  0.549250  0.228469  1
  La  La2  1  0.615580  0.750080  0.865500  1
  Nd  Nd3  1  0.820858  0.049078  0.771780  1
  Nd  Nd4  1  0.220999  0.450409  0.770591  1
  Nd  Nd5  1  0.179338  0.950829  0.228509  1
  Si  Si6  1  0.212081  0.750666  0.461416  1
  Si  Si7  1  0.789765  0.249842  0.539923  1
  Pd  Pd8  1  0.830645  0.592452  0.638408  1
  Pd  Pd9  1  0.545227  0.307116  0.636881  1
  Pd  Pd10  1  0.453562  0.091380  0.760797  1
  Pd  Pd11  1  0.830645  0.192237  0.238194  1
  Pd  Pd12  1  0.169897  0.407735  0.362019  1
  Pd  Pd13  1  0.453562  0.692766  0.362182  1
  Pd  Pd14  1  0.545227  0.908347  0.238111  1
  Pd  Pd15  1  0.169897  0.807878  0.762163  1
  Pd  Pd16  1  0.000567  0.000611  0.500797  1
  Pd  Pd17  1  0.000567  0.499770  0.999957  1
