# generated using pymatgen
data_Pr17Dy3Si15Ni
_symmetry_space_group_name_H-M   'P 1'
_cell_length_a   7.89319383
_cell_length_b   7.86781247
_cell_length_c   15.20980900
_cell_angle_alpha   90.29196328
_cell_angle_beta   89.85919928
_cell_angle_gamma   90.21165646
_symmetry_Int_Tables_number   1
_chemical_formula_structural   Pr17Dy3Si15Ni
_chemical_formula_sum   'Pr17 Dy3 Si15 Ni1'
_cell_volume   944.54061018
_cell_formula_units_Z   1
loop_
 _symmetry_equiv_pos_site_id
 _symmetry_equiv_pos_as_xyz
  1  'x, y, z'
loop_
 _atom_site_type_symbol
 _atom_site_label
 _atom_site_symmetry_multiplicity
 _atom_site_fract_x
 _atom_site_fract_y
 _atom_site_fract_z
 _atom_site_occupancy
  Pr  Pr0  1  0.696238  0.688571  0.500692  1
  Pr  Pr1  1  0.375278  0.010850  0.447366  1
  Pr  Pr2  1  0.488334  0.875351  0.699376  1
  Pr  Pr3  1  0.511511  0.123675  0.196324  1
  Pr  Pr4  1  0.877050  0.486967  0.301021  1
  Pr  Pr5  1  0.122609  0.506169  0.799752  1
  Pr  Pr6  1  0.624749  0.988598  0.947700  1
  Pr  Pr7  1  0.004736  0.376365  0.552512  1
  Pr  Pr8  1  0.988432  0.625298  0.052040  1
  Pr  Pr9  1  0.134694  0.983936  0.873993  1
  Pr  Pr10  1  0.519311  0.630932  0.125824  1
  Pr  Pr11  1  0.467978  0.363930  0.630050  1
  Pr  Pr12  1  0.627696  0.518417  0.873418  1
  Pr  Pr13  1  0.372551  0.480874  0.371951  1
  Pr  Pr14  1  0.874497  0.023045  0.377417  1
  Pr  Pr15  1  0.980209  0.125289  0.122221  1
  Pr  Pr16  1  0.026446  0.883581  0.625035  1
  Dy  Dy17  1  0.308232  0.308327  0.998987  1
  Dy  Dy18  1  0.189240  0.809579  0.249762  1
  Dy  Dy19  1  0.813387  0.188125  0.750642  1
  Si  Si20  1  0.330150  0.690232  0.952739  1
  Si  Si21  1  0.662847  0.304538  0.454643  1
  Si  Si22  1  0.693093  0.331548  0.046229  1
  Si  Si23  1  0.306068  0.670167  0.546383  1
  Si  Si24  1  0.810710  0.829944  0.205399  1
  Si  Si25  1  0.170485  0.191832  0.294223  1
  Si  Si26  1  0.832170  0.808100  0.796162  1
  Si  Si27  1  0.286787  0.922810  0.061403  1
  Si  Si28  1  0.576005  0.787809  0.309620  1
  Si  Si29  1  0.426936  0.208339  0.813711  1
  Si  Si30  1  0.785210  0.576473  0.690507  1
  Si  Si31  1  0.213215  0.423687  0.186543  1
  Si  Si32  1  0.708495  0.078902  0.563012  1
  Si  Si33  1  0.922191  0.285859  0.938162  1
  Si  Si34  1  0.082727  0.716790  0.437444  1
  Ni  Ni35  1  0.189732  0.175089  0.707737  1
