# generated using pymatgen
data_NdMgInIr9
_symmetry_space_group_name_H-M   'P 1'
_cell_length_a   5.13288300
_cell_length_b   8.93133670
_cell_length_c   8.93133670
_cell_angle_alpha   89.91088086
_cell_angle_beta   90.00000000
_cell_angle_gamma   90.00000000
_symmetry_Int_Tables_number   1
_chemical_formula_structural   NdMgInIr9
_chemical_formula_sum   'Nd2 Mg2 In2 Ir18'
_cell_volume   409.44329520
_cell_formula_units_Z   2
loop_
 _symmetry_equiv_pos_site_id
 _symmetry_equiv_pos_as_xyz
  1  'x, y, z'
loop_
 _atom_site_type_symbol
 _atom_site_label
 _atom_site_symmetry_multiplicity
 _atom_site_fract_x
 _atom_site_fract_y
 _atom_site_fract_z
 _atom_site_occupancy
  Nd  Nd0  1  0.000000  0.500000  0.500000  1
  Nd  Nd1  1  0.000000  0.000000  0.000000  1
  Mg  Mg2  1  0.000000  0.617283  0.117283  1
  Mg  Mg3  1  0.000000  0.382717  0.882717  1
  In  In4  1  0.000000  0.879402  0.620598  1
  In  In5  1  0.000000  0.120598  0.379402  1
  Ir  Ir6  1  0.758722  0.182301  0.682301  1
  Ir  Ir7  1  0.758722  0.817699  0.317699  1
  Ir  Ir8  1  0.758875  0.320153  0.179847  1
  Ir  Ir9  1  0.758875  0.679847  0.820153  1
  Ir  Ir10  1  0.241278  0.817699  0.317699  1
  Ir  Ir11  1  0.241278  0.182301  0.682301  1
  Ir  Ir12  1  0.241125  0.679847  0.820153  1
  Ir  Ir13  1  0.241125  0.320153  0.179847  1
  Ir  Ir14  1  0.500000  0.702142  0.555950  1
  Ir  Ir15  1  0.500000  0.297858  0.444050  1
  Ir  Ir16  1  0.500000  0.793751  0.057150  1
  Ir  Ir17  1  0.500000  0.206249  0.942850  1
  Ir  Ir18  1  0.500000  0.557150  0.293751  1
  Ir  Ir19  1  0.500000  0.442850  0.706249  1
  Ir  Ir20  1  0.500000  0.055950  0.202142  1
  Ir  Ir21  1  0.500000  0.944050  0.797858  1
  Ir  Ir22  1  0.500000  0.000000  0.500000  1
  Ir  Ir23  1  0.500000  0.500000  0.000000  1
