# generated using pymatgen
data_BaCrCo2(PO4)3
_symmetry_space_group_name_H-M   'P 1'
_cell_length_a   9.21123508
_cell_length_b   9.21123517
_cell_length_c   9.21123600
_cell_angle_alpha   137.66398623
_cell_angle_beta   109.86543232
_cell_angle_gamma   85.46775518
_symmetry_Int_Tables_number   1
_chemical_formula_structural   BaCrCo2(PO4)3
_chemical_formula_sum   'Ba2 Cr2 Co4 P6 O24'
_cell_volume   476.39189479
_cell_formula_units_Z   2
loop_
 _symmetry_equiv_pos_site_id
 _symmetry_equiv_pos_as_xyz
  1  'x, y, z'
loop_
 _atom_site_type_symbol
 _atom_site_label
 _atom_site_symmetry_multiplicity
 _atom_site_fract_x
 _atom_site_fract_y
 _atom_site_fract_z
 _atom_site_occupancy
  Ba  Ba0  1  0.750000  0.147565  0.397565  1
  Ba  Ba1  1  0.250000  0.852435  0.602435  1
  Cr  Cr2  1  0.000000  0.000000  0.000000  1
  Cr  Cr3  1  0.500000  0.500000  0.000000  1
  Co  Co4  1  0.617765  0.617765  0.500000  1
  Co  Co5  1  0.382235  0.382235  0.500000  1
  Co  Co6  1  0.117765  0.617765  0.000000  1
  Co  Co7  1  0.882235  0.382235  0.000000  1
  P  P8  1  0.320610  0.820610  0.000000  1
  P  P9  1  0.750000  0.653235  0.903235  1
  P  P10  1  0.179390  0.179390  0.500000  1
  P  P11  1  0.679390  0.179390  0.000000  1
  P  P12  1  0.250000  0.346765  0.096765  1
  P  P13  1  0.820610  0.820610  0.500000  1
  O  O14  1  0.582445  0.932825  0.782475  1
  O  O15  1  0.082445  0.299971  0.649621  1
  O  O16  1  0.844667  0.878675  0.034009  1
  O  O17  1  0.349650  0.700029  0.782475  1
  O  O18  1  0.142339  0.211027  0.344336  1
  O  O19  1  0.344667  0.310658  0.965991  1
  O  O20  1  0.633308  0.701997  0.344336  1
  O  O21  1  0.857661  0.788973  0.655664  1
  O  O22  1  0.368849  0.486062  0.354910  1
  O  O23  1  0.150350  0.932825  0.350379  1
  O  O24  1  0.642339  0.298003  0.931312  1
  O  O25  1  0.631151  0.513938  0.645090  1
  O  O26  1  0.866692  0.211027  0.068688  1
  O  O27  1  0.849650  0.067175  0.649621  1
  O  O28  1  0.357661  0.701997  0.068688  1
  O  O29  1  0.366692  0.298003  0.655664  1
  O  O30  1  0.655333  0.689342  0.034009  1
  O  O31  1  0.917555  0.700029  0.350379  1
  O  O32  1  0.155333  0.121324  0.965991  1
  O  O33  1  0.868849  0.513938  0.882787  1
  O  O34  1  0.131151  0.486062  0.117213  1
  O  O35  1  0.133308  0.788973  0.931312  1
  O  O36  1  0.650350  0.299971  0.217525  1
  O  O37  1  0.417555  0.067175  0.217525  1
