# generated using pymatgen
data_Tb2ZnCoNi
_symmetry_space_group_name_H-M   'P 1'
_cell_length_a   5.31807314
_cell_length_b   5.31807300
_cell_length_c   5.31807315
_cell_angle_alpha   133.61598163
_cell_angle_beta   118.72560545
_cell_angle_gamma   80.18677655
_symmetry_Int_Tables_number   1
_chemical_formula_structural   Tb2ZnCoNi
_chemical_formula_sum   'Tb2 Zn1 Co1 Ni1'
_cell_volume   92.36390041
_cell_formula_units_Z   1
loop_
 _symmetry_equiv_pos_site_id
 _symmetry_equiv_pos_as_xyz
  1  'x, y, z'
loop_
 _atom_site_type_symbol
 _atom_site_label
 _atom_site_symmetry_multiplicity
 _atom_site_fract_x
 _atom_site_fract_y
 _atom_site_fract_z
 _atom_site_occupancy
  Tb  Tb0  1  0.702792  0.205496  0.497296  1
  Tb  Tb1  1  0.291800  0.794504  0.497296  1
  Zn  Zn2  1  0.004047  0.000000  0.004047  1
  Co  Co3  1  0.277256  0.500000  0.777256  1
  Ni  Ni4  1  0.724104  0.500000  0.224104  1
