# generated using pymatgen
data_Hf16TcNi4Ir3
_symmetry_space_group_name_H-M   'P 1'
_cell_length_a   8.63872722
_cell_length_b   8.61324808
_cell_length_c   8.61324900
_cell_angle_alpha   60.00000030
_cell_angle_beta   60.09751811
_cell_angle_gamma   60.09752504
_symmetry_Int_Tables_number   1
_chemical_formula_structural   Hf16TcNi4Ir3
_chemical_formula_sum   'Hf16 Tc1 Ni4 Ir3'
_cell_volume   453.84475276
_cell_formula_units_Z   1
loop_
 _symmetry_equiv_pos_site_id
 _symmetry_equiv_pos_as_xyz
  1  'x, y, z'
loop_
 _atom_site_type_symbol
 _atom_site_label
 _atom_site_symmetry_multiplicity
 _atom_site_fract_x
 _atom_site_fract_y
 _atom_site_fract_z
 _atom_site_occupancy
  Hf  Hf0  1  0.672520  0.109160  0.109160  1
  Hf  Hf1  1  0.106475  0.680494  0.106514  1
  Hf  Hf2  1  0.106475  0.106514  0.680494  1
  Hf  Hf3  1  0.106475  0.106514  0.106514  1
  Hf  Hf4  1  0.315473  0.314508  0.685010  1
  Hf  Hf5  1  0.690539  0.681152  0.314155  1
  Hf  Hf6  1  0.315473  0.685010  0.314508  1
  Hf  Hf7  1  0.690539  0.314155  0.681152  1
  Hf  Hf8  1  0.690539  0.314155  0.314155  1
  Hf  Hf9  1  0.315473  0.685010  0.685010  1
  Hf  Hf10  1  0.946813  0.949676  0.551756  1
  Hf  Hf11  1  0.552027  0.551889  0.948043  1
  Hf  Hf12  1  0.946813  0.551756  0.949676  1
  Hf  Hf13  1  0.552027  0.948043  0.551889  1
  Hf  Hf14  1  0.552027  0.948043  0.948043  1
  Hf  Hf15  1  0.946813  0.551756  0.551756  1
  Tc  Tc16  1  0.000229  0.333257  0.333257  1
  Ni  Ni17  1  0.321286  0.892905  0.892905  1
  Ni  Ni18  1  0.891335  0.318301  0.895182  1
  Ni  Ni19  1  0.891335  0.895182  0.318301  1
  Ni  Ni20  1  0.891335  0.895182  0.895182  1
  Ir  Ir21  1  0.332659  0.996437  0.335451  1
  Ir  Ir22  1  0.332659  0.335451  0.996437  1
  Ir  Ir23  1  0.332659  0.335451  0.335451  1
