# generated using pymatgen
data_Er8Hf8TaSi16W3
_symmetry_space_group_name_H-M   'P 1'
_cell_length_a   7.14099509
_cell_length_b   7.14099476
_cell_length_c   13.04970514
_cell_angle_alpha   90.03105304
_cell_angle_beta   89.96894812
_cell_angle_gamma   89.97283545
_symmetry_Int_Tables_number   1
_chemical_formula_structural   Er8Hf8TaSi16W3
_chemical_formula_sum   'Er8 Hf8 Ta1 Si16 W3'
_cell_volume   665.45389442
_cell_formula_units_Z   1
loop_
 _symmetry_equiv_pos_site_id
 _symmetry_equiv_pos_as_xyz
  1  'x, y, z'
loop_
 _atom_site_type_symbol
 _atom_site_label
 _atom_site_symmetry_multiplicity
 _atom_site_fract_x
 _atom_site_fract_y
 _atom_site_fract_z
 _atom_site_occupancy
  Er  Er0  1  0.343840  0.001479  0.465623  1
  Er  Er1  1  0.498962  0.844990  0.716607  1
  Er  Er2  1  0.500293  0.155260  0.215227  1
  Er  Er3  1  0.844990  0.498962  0.283393  1
  Er  Er4  1  0.155260  0.500293  0.784773  1
  Er  Er5  1  0.655840  0.999382  0.965808  1
  Er  Er6  1  0.001479  0.343840  0.534377  1
  Er  Er7  1  0.999382  0.655840  0.034192  1
  Hf  Hf8  1  0.146790  0.006957  0.876250  1
  Hf  Hf9  1  0.493516  0.647301  0.125081  1
  Hf  Hf10  1  0.506004  0.352516  0.626752  1
  Hf  Hf11  1  0.647301  0.493516  0.874919  1
  Hf  Hf12  1  0.352516  0.506004  0.373248  1
  Hf  Hf13  1  0.853629  0.993798  0.375313  1
  Hf  Hf14  1  0.006957  0.146790  0.123750  1
  Hf  Hf15  1  0.993798  0.853629  0.624687  1
  Ta  Ta16  1  0.675780  0.675780  0.500000  1
  Si  Si17  1  0.202222  0.140506  0.683495  1
  Si  Si18  1  0.359300  0.702398  0.933033  1
  Si  Si19  1  0.640730  0.297027  0.433300  1
  Si  Si20  1  0.702398  0.359300  0.066967  1
  Si  Si21  1  0.297027  0.640730  0.566700  1
  Si  Si22  1  0.797572  0.859449  0.182878  1
  Si  Si23  1  0.140506  0.202222  0.316505  1
  Si  Si24  1  0.859449  0.797572  0.817122  1
  Si  Si25  1  0.297978  0.949672  0.066515  1
  Si  Si26  1  0.548985  0.798446  0.315745  1
  Si  Si27  1  0.449574  0.202511  0.817077  1
  Si  Si28  1  0.798446  0.548985  0.684255  1
  Si  Si29  1  0.202511  0.449574  0.182923  1
  Si  Si30  1  0.701984  0.050666  0.567001  1
  Si  Si31  1  0.949672  0.297978  0.933485  1
  Si  Si32  1  0.050666  0.701984  0.432999  1
  W  W33  1  0.323864  0.323864  0.000000  1
  W  W34  1  0.176668  0.824113  0.249168  1
  W  W35  1  0.824113  0.176668  0.750832  1
