# generated using pymatgen
data_DyHo3Er2GaCo2
_symmetry_space_group_name_H-M   'P 1'
_cell_length_a   8.20562782
_cell_length_b   8.21506566
_cell_length_c   8.21506600
_cell_angle_alpha   112.05792879
_cell_angle_beta   109.44067531
_cell_angle_gamma   106.99832044
_symmetry_Int_Tables_number   1
_chemical_formula_structural   DyHo3Er2GaCo2
_chemical_formula_sum   'Dy2 Ho6 Er4 Ga2 Co4'
_cell_volume   425.23493566
_cell_formula_units_Z   2
loop_
 _symmetry_equiv_pos_site_id
 _symmetry_equiv_pos_as_xyz
  1  'x, y, z'
loop_
 _atom_site_type_symbol
 _atom_site_label
 _atom_site_symmetry_multiplicity
 _atom_site_fract_x
 _atom_site_fract_y
 _atom_site_fract_z
 _atom_site_occupancy
  Dy  Dy0  1  0.959018  0.261576  0.697442  1
  Dy  Dy1  1  0.040982  0.738424  0.302558  1
  Ho  Ho2  1  0.563504  0.260866  0.302638  1
  Ho  Ho3  1  0.436496  0.739134  0.697362  1
  Ho  Ho4  1  0.180127  0.780683  0.960764  1
  Ho  Ho5  1  0.819873  0.780636  0.600557  1
  Ho  Ho6  1  0.180127  0.219364  0.399443  1
  Ho  Ho7  1  0.819873  0.219317  0.039236  1
  Er  Er8  1  0.672178  0.860002  0.186652  1
  Er  Er9  1  0.327822  0.514474  0.187825  1
  Er  Er10  1  0.327822  0.139998  0.813348  1
  Er  Er11  1  0.672178  0.485526  0.812175  1
  Ga  Ga12  1  0.000000  0.500000  0.500000  1
  Ga  Ga13  1  0.500000  0.000000  0.500000  1
  Co  Co14  1  0.116888  0.115275  0.001615  1
  Co  Co15  1  0.883112  0.884725  0.998385  1
  Co  Co16  1  0.662222  0.499730  0.162492  1
  Co  Co17  1  0.337778  0.500270  0.837508  1
