# generated using pymatgen
data_Ta8FeCu2P
_symmetry_space_group_name_H-M   'P 1'
_cell_length_a   6.19942900
_cell_length_b   6.19942900
_cell_length_c   4.97520100
_cell_angle_alpha   90.00000000
_cell_angle_beta   90.00000000
_cell_angle_gamma   90.00000000
_symmetry_Int_Tables_number   1
_chemical_formula_structural   Ta8FeCu2P
_chemical_formula_sum   'Ta8 Fe1 Cu2 P1'
_cell_volume   191.21150165
_cell_formula_units_Z   1
loop_
 _symmetry_equiv_pos_site_id
 _symmetry_equiv_pos_as_xyz
  1  'x, y, z'
loop_
 _atom_site_type_symbol
 _atom_site_label
 _atom_site_symmetry_multiplicity
 _atom_site_fract_x
 _atom_site_fract_y
 _atom_site_fract_z
 _atom_site_occupancy
  Ta  Ta0  1  0.653222  0.165295  0.497678  1
  Ta  Ta1  1  0.346778  0.834705  0.497678  1
  Ta  Ta2  1  0.834705  0.653222  0.497678  1
  Ta  Ta3  1  0.165295  0.346778  0.497678  1
  Ta  Ta4  1  0.346778  0.165295  0.002322  1
  Ta  Ta5  1  0.653222  0.834705  0.002322  1
  Ta  Ta6  1  0.165295  0.653222  0.002322  1
  Ta  Ta7  1  0.834705  0.346778  0.002322  1
  Fe  Fe8  1  0.500000  0.500000  0.250000  1
  Cu  Cu9  1  0.000000  0.000000  0.250000  1
  Cu  Cu10  1  0.000000  0.000000  0.750000  1
  P  P11  1  0.500000  0.500000  0.750000  1
