# generated using pymatgen
data_TbNd4(SiHg)2
_symmetry_space_group_name_H-M   'P 1'
_cell_length_a   9.11099298
_cell_length_b   9.11099313
_cell_length_c   7.74783300
_cell_angle_alpha   90.00000000
_cell_angle_beta   90.00000000
_cell_angle_gamma   129.73682688
_symmetry_Int_Tables_number   1
_chemical_formula_structural   TbNd4(SiHg)2
_chemical_formula_sum   'Tb2 Nd8 Si4 Hg4'
_cell_volume   494.57449102
_cell_formula_units_Z   2
loop_
 _symmetry_equiv_pos_site_id
 _symmetry_equiv_pos_as_xyz
  1  'x, y, z'
loop_
 _atom_site_type_symbol
 _atom_site_label
 _atom_site_symmetry_multiplicity
 _atom_site_fract_x
 _atom_site_fract_y
 _atom_site_fract_z
 _atom_site_occupancy
  Tb  Tb0  1  0.000000  0.000000  0.000000  1
  Tb  Tb1  1  0.500000  0.500000  0.500000  1
  Nd  Nd2  1  0.057481  0.311830  0.322545  1
  Nd  Nd3  1  0.942519  0.688170  0.677455  1
  Nd  Nd4  1  0.442519  0.188170  0.822545  1
  Nd  Nd5  1  0.811830  0.557481  0.177455  1
  Nd  Nd6  1  0.557481  0.811830  0.177455  1
  Nd  Nd7  1  0.188170  0.442519  0.822545  1
  Nd  Nd8  1  0.688170  0.942519  0.677455  1
  Nd  Nd9  1  0.311830  0.057481  0.322545  1
  Si  Si10  1  0.384684  0.384684  0.118098  1
  Si  Si11  1  0.615316  0.615316  0.881902  1
  Si  Si12  1  0.115316  0.115316  0.618098  1
  Si  Si13  1  0.884684  0.884684  0.381902  1
  Hg  Hg14  1  0.781309  0.218691  0.000000  1
  Hg  Hg15  1  0.218691  0.781309  0.000000  1
  Hg  Hg16  1  0.718691  0.281309  0.500000  1
  Hg  Hg17  1  0.281309  0.718691  0.500000  1
