# generated using pymatgen
data_Dy3Lu5Sc12Si15Bi
_symmetry_space_group_name_H-M   'P 1'
_cell_length_a   7.11930443
_cell_length_b   7.36071761
_cell_length_c   13.97403429
_cell_angle_alpha   90.06230969
_cell_angle_beta   88.64176609
_cell_angle_gamma   90.09176052
_symmetry_Int_Tables_number   1
_chemical_formula_structural   Dy3Lu5Sc12Si15Bi
_chemical_formula_sum   'Dy3 Lu5 Sc12 Si15 Bi1'
_cell_volume   732.07687797
_cell_formula_units_Z   1
loop_
 _symmetry_equiv_pos_site_id
 _symmetry_equiv_pos_as_xyz
  1  'x, y, z'
loop_
 _atom_site_type_symbol
 _atom_site_label
 _atom_site_symmetry_multiplicity
 _atom_site_fract_x
 _atom_site_fract_y
 _atom_site_fract_z
 _atom_site_occupancy
  Dy  Dy0  1  0.998223  0.169984  0.399327  1
  Dy  Dy1  1  0.511081  0.316774  0.397661  1
  Dy  Dy2  1  0.512221  0.687090  0.601686  1
  Lu  Lu3  1  0.011982  0.177580  0.095761  1
  Lu  Lu4  1  0.988233  0.823583  0.905562  1
  Lu  Lu5  1  0.489338  0.676910  0.904263  1
  Lu  Lu6  1  0.994606  0.832508  0.599360  1
  Lu  Lu7  1  0.510940  0.323261  0.096426  1
  Sc  Sc8  1  0.166166  0.502246  0.756812  1
  Sc  Sc9  1  0.832973  0.497923  0.250144  1
  Sc  Sc10  1  0.332565  0.002653  0.248923  1
  Sc  Sc11  1  0.669284  0.997642  0.752038  1
  Sc  Sc12  1  0.350923  0.155265  0.632035  1
  Sc  Sc13  1  0.656287  0.827946  0.372121  1
  Sc  Sc14  1  0.152465  0.683003  0.368241  1
  Sc  Sc15  1  0.666336  0.821558  0.122574  1
  Sc  Sc16  1  0.828113  0.326012  0.627052  1
  Sc  Sc17  1  0.331809  0.176317  0.876305  1
  Sc  Sc18  1  0.833163  0.322853  0.875985  1
  Sc  Sc19  1  0.167092  0.677041  0.123685  1
  Si  Si20  1  0.038394  0.116057  0.752117  1
  Si  Si21  1  0.958978  0.886778  0.244803  1
  Si  Si22  1  0.459826  0.614818  0.246413  1
  Si  Si23  1  0.537077  0.386188  0.754024  1
  Si  Si24  1  0.289008  0.866137  0.754760  1
  Si  Si25  1  0.709847  0.127958  0.244093  1
  Si  Si26  1  0.208805  0.371795  0.246596  1
  Si  Si27  1  0.795872  0.631175  0.753533  1
  Si  Si28  1  0.812792  0.543199  0.457043  1
  Si  Si29  1  0.325625  0.961455  0.460493  1
  Si  Si30  1  0.841167  0.532794  0.039669  1
  Si  Si31  1  0.676571  0.038516  0.539359  1
  Si  Si32  1  0.158441  0.466176  0.961472  1
  Si  Si33  1  0.657562  0.033789  0.960240  1
  Si  Si34  1  0.340590  0.966736  0.039850  1
  Bi  Bi35  1  0.185643  0.458279  0.539573  1
