# generated using pymatgen
data_Nd12CoOs2Pd
_symmetry_space_group_name_H-M   'P 1'
_cell_length_a   6.50959325
_cell_length_b   7.40515875
_cell_length_c   9.79978800
_cell_angle_alpha   90.00000000
_cell_angle_beta   90.00000000
_cell_angle_gamma   90.42559166
_symmetry_Int_Tables_number   1
_chemical_formula_structural   Nd12CoOs2Pd
_chemical_formula_sum   'Nd12 Co1 Os2 Pd1'
_cell_volume   472.38154856
_cell_formula_units_Z   1
loop_
 _symmetry_equiv_pos_site_id
 _symmetry_equiv_pos_as_xyz
  1  'x, y, z'
loop_
 _atom_site_type_symbol
 _atom_site_label
 _atom_site_symmetry_multiplicity
 _atom_site_fract_x
 _atom_site_fract_y
 _atom_site_fract_z
 _atom_site_occupancy
  Nd  Nd0  1  0.340800  0.671893  0.059195  1
  Nd  Nd1  1  0.170871  0.186006  0.437245  1
  Nd  Nd2  1  0.673421  0.320075  0.567431  1
  Nd  Nd3  1  0.827941  0.827689  0.927798  1
  Nd  Nd4  1  0.673421  0.320075  0.932569  1
  Nd  Nd5  1  0.827941  0.827689  0.572202  1
  Nd  Nd6  1  0.340800  0.671893  0.440805  1
  Nd  Nd7  1  0.170871  0.186006  0.062755  1
  Nd  Nd8  1  0.854498  0.529991  0.250000  1
  Nd  Nd9  1  0.634342  0.038522  0.250000  1
  Nd  Nd10  1  0.132883  0.458716  0.750000  1
  Nd  Nd11  1  0.353971  0.963664  0.750000  1
  Co  Co12  1  0.936407  0.116298  0.750000  1
  Os  Os13  1  0.439433  0.382148  0.250000  1
  Os  Os14  1  0.550073  0.615021  0.750000  1
  Pd  Pd15  1  0.072323  0.884314  0.250000  1
