# generated using pymatgen
data_Ca2NdNi5Sb5Pd
_symmetry_space_group_name_H-M   'P 1'
_cell_length_a   4.30821300
_cell_length_b   9.86118200
_cell_length_c   13.07129300
_cell_angle_alpha   90.00000000
_cell_angle_beta   90.00000000
_cell_angle_gamma   90.00000000
_symmetry_Int_Tables_number   1
_chemical_formula_structural   Ca2NdNi5Sb5Pd
_chemical_formula_sum   'Ca4 Nd2 Ni10 Sb10 Pd2'
_cell_volume   555.32175932
_cell_formula_units_Z   2
loop_
 _symmetry_equiv_pos_site_id
 _symmetry_equiv_pos_as_xyz
  1  'x, y, z'
loop_
 _atom_site_type_symbol
 _atom_site_label
 _atom_site_symmetry_multiplicity
 _atom_site_fract_x
 _atom_site_fract_y
 _atom_site_fract_z
 _atom_site_occupancy
  Ca  Ca0  1  0.000000  0.245455  0.324900  1
  Ca  Ca1  1  0.500000  0.754545  0.175100  1
  Ca  Ca2  1  0.000000  0.245455  0.675100  1
  Ca  Ca3  1  0.500000  0.754545  0.824900  1
  Nd  Nd4  1  0.000000  0.242572  0.000000  1
  Nd  Nd5  1  0.500000  0.757428  0.500000  1
  Ni  Ni6  1  0.000000  0.994408  0.159015  1
  Ni  Ni7  1  0.500000  0.005592  0.340985  1
  Ni  Ni8  1  0.000000  0.994408  0.840985  1
  Ni  Ni9  1  0.500000  0.005592  0.659015  1
  Ni  Ni10  1  0.500000  0.990249  0.000000  1
  Ni  Ni11  1  0.000000  0.009751  0.500000  1
  Ni  Ni12  1  0.000000  0.617880  0.322389  1
  Ni  Ni13  1  0.500000  0.382120  0.177611  1
  Ni  Ni14  1  0.000000  0.617880  0.677611  1
  Ni  Ni15  1  0.500000  0.382120  0.822389  1
  Sb  Sb16  1  0.000000  0.513439  0.141648  1
  Sb  Sb17  1  0.500000  0.486561  0.358352  1
  Sb  Sb18  1  0.000000  0.513439  0.858352  1
  Sb  Sb19  1  0.500000  0.486561  0.641648  1
  Sb  Sb20  1  0.000000  0.872472  0.333728  1
  Sb  Sb21  1  0.500000  0.127528  0.166272  1
  Sb  Sb22  1  0.000000  0.872472  0.666272  1
  Sb  Sb23  1  0.500000  0.127528  0.833728  1
  Sb  Sb24  1  0.000000  0.849198  0.000000  1
  Sb  Sb25  1  0.500000  0.150802  0.500000  1
  Pd  Pd26  1  0.500000  0.508951  0.000000  1
  Pd  Pd27  1  0.000000  0.491049  0.500000  1
