# generated using pymatgen
data_Pr8Mg8Ir7Pd
_symmetry_space_group_name_H-M   'P 1'
_cell_length_a   4.17298600
_cell_length_b   7.54208382
_cell_length_c   17.17456600
_cell_angle_alpha   89.84438675
_cell_angle_beta   90.00000000
_cell_angle_gamma   90.00000000
_symmetry_Int_Tables_number   1
_chemical_formula_structural   Pr8Mg8Ir7Pd
_chemical_formula_sum   'Pr8 Mg8 Ir7 Pd1'
_cell_volume   540.53329692
_cell_formula_units_Z   1
loop_
 _symmetry_equiv_pos_site_id
 _symmetry_equiv_pos_as_xyz
  1  'x, y, z'
loop_
 _atom_site_type_symbol
 _atom_site_label
 _atom_site_symmetry_multiplicity
 _atom_site_fract_x
 _atom_site_fract_y
 _atom_site_fract_z
 _atom_site_occupancy
  Pr  Pr0  1  0.750000  0.453210  0.215203  1
  Pr  Pr1  1  0.750000  0.950860  0.282569  1
  Pr  Pr2  1  0.750000  0.838600  0.061391  1
  Pr  Pr3  1  0.250000  0.042848  0.720895  1
  Pr  Pr4  1  0.250000  0.161105  0.939404  1
  Pr  Pr5  1  0.250000  0.549592  0.784871  1
  Pr  Pr6  1  0.750000  0.341900  0.432300  1
  Pr  Pr7  1  0.250000  0.665944  0.560775  1
  Mg  Mg8  1  0.250000  0.993720  0.433623  1
  Mg  Mg9  1  0.750000  0.502441  0.937103  1
  Mg  Mg10  1  0.750000  0.000568  0.563578  1
  Mg  Mg11  1  0.250000  0.627654  0.348414  1
  Mg  Mg12  1  0.750000  0.376551  0.653855  1
  Mg  Mg13  1  0.750000  0.873178  0.851797  1
  Mg  Mg14  1  0.250000  0.497052  0.063017  1
  Mg  Mg15  1  0.250000  0.126623  0.149598  1
  Ir  Ir16  1  0.750000  0.253969  0.062234  1
  Ir  Ir17  1  0.250000  0.250743  0.313244  1
  Ir  Ir18  1  0.750000  0.250461  0.810967  1
  Ir  Ir19  1  0.250000  0.745858  0.938161  1
  Ir  Ir20  1  0.750000  0.751633  0.687324  1
  Ir  Ir21  1  0.750000  0.752895  0.438020  1
  Ir  Ir22  1  0.250000  0.749651  0.188043  1
  Pd  Pd23  1  0.250000  0.242942  0.563613  1
