# generated using pymatgen
data_NdLu(PN3)2
_symmetry_space_group_name_H-M   'P 1'
_cell_length_a   7.15861348
_cell_length_b   7.15861279
_cell_length_c   4.88564821
_cell_angle_alpha   87.58450087
_cell_angle_beta   87.58449258
_cell_angle_gamma   100.97779614
_symmetry_Int_Tables_number   1
_chemical_formula_structural   NdLu(PN3)2
_chemical_formula_sum   'Nd2 Lu2 P4 N12'
_cell_volume   245.24730914
_cell_formula_units_Z   2
loop_
 _symmetry_equiv_pos_site_id
 _symmetry_equiv_pos_as_xyz
  1  'x, y, z'
loop_
 _atom_site_type_symbol
 _atom_site_label
 _atom_site_symmetry_multiplicity
 _atom_site_fract_x
 _atom_site_fract_y
 _atom_site_fract_z
 _atom_site_occupancy
  Nd  Nd0  1  0.099390  0.900610  0.250000  1
  Nd  Nd1  1  0.900610  0.099390  0.750000  1
  Lu  Lu2  1  0.296531  0.703469  0.750000  1
  Lu  Lu3  1  0.703469  0.296531  0.250000  1
  P  P4  1  0.375766  0.227029  0.810956  1
  P  P5  1  0.624234  0.772971  0.189044  1
  P  P6  1  0.772971  0.624234  0.689044  1
  P  P7  1  0.227029  0.375766  0.310956  1
  N  N8  1  0.979858  0.747745  0.732093  1
  N  N9  1  0.760037  0.394939  0.794838  1
  N  N10  1  0.747745  0.979858  0.232093  1
  N  N11  1  0.239963  0.605061  0.205162  1
  N  N12  1  0.020142  0.252255  0.267907  1
  N  N13  1  0.252255  0.020142  0.767907  1
  N  N14  1  0.605061  0.239963  0.705162  1
  N  N15  1  0.610963  0.721082  0.859285  1
  N  N16  1  0.389037  0.278918  0.140715  1
  N  N17  1  0.394939  0.760037  0.294838  1
  N  N18  1  0.721082  0.610963  0.359285  1
  N  N19  1  0.278918  0.389037  0.640715  1
