# generated using pymatgen
data_Zr2InSnIrRh
_symmetry_space_group_name_H-M   'P 1'
_cell_length_a   7.56069607
_cell_length_b   7.55918253
_cell_length_c   7.04530506
_cell_angle_alpha   90.01016025
_cell_angle_beta   90.00455852
_cell_angle_gamma   119.99152072
_symmetry_Int_Tables_number   1
_chemical_formula_structural   Zr2InSnIrRh
_chemical_formula_sum   'Zr6 In3 Sn3 Ir3 Rh3'
_cell_volume   348.74190325
_cell_formula_units_Z   3
loop_
 _symmetry_equiv_pos_site_id
 _symmetry_equiv_pos_as_xyz
  1  'x, y, z'
loop_
 _atom_site_type_symbol
 _atom_site_label
 _atom_site_symmetry_multiplicity
 _atom_site_fract_x
 _atom_site_fract_y
 _atom_site_fract_z
 _atom_site_occupancy
  Zr  Zr0  1  0.601729  0.999874  0.747142  1
  Zr  Zr1  1  0.398603  0.398967  0.747753  1
  Zr  Zr2  1  0.000140  0.601604  0.746978  1
  Zr  Zr3  1  0.604057  0.005213  0.252898  1
  Zr  Zr4  1  0.401533  0.396552  0.252832  1
  Zr  Zr5  1  0.994843  0.598679  0.252318  1
  In  In6  1  0.275880  0.995976  0.999975  1
  In  In7  1  0.733059  0.735970  0.499803  1
  In  In8  1  0.000377  0.265611  0.499955  1
  Sn  Sn9  1  0.004627  0.275238  0.999977  1
  Sn  Sn10  1  0.725824  0.728089  0.999926  1
  Sn  Sn11  1  0.259112  0.998525  0.499951  1
  Ir  Ir12  1  0.671537  0.336413  0.994171  1
  Ir  Ir13  1  0.661215  0.329809  0.505158  1
  Ir  Ir14  1  0.331636  0.670925  0.495774  1
  Rh  Rh15  1  0.335281  0.662828  0.005524  1
  Rh  Rh16  1  0.000254  0.999854  0.761614  1
  Rh  Rh17  1  0.000291  0.999874  0.238250  1
