# generated using pymatgen
data_Nd16TlAg3Ir4
_symmetry_space_group_name_H-M   'P 1'
_cell_length_a   9.88259085
_cell_length_b   9.92848058
_cell_length_c   9.92844800
_cell_angle_alpha   60.19612498
_cell_angle_beta   60.02162386
_cell_angle_gamma   60.02124079
_symmetry_Int_Tables_number   1
_chemical_formula_structural   Nd16TlAg3Ir4
_chemical_formula_sum   'Nd16 Tl1 Ag3 Ir4'
_cell_volume   690.08182756
_cell_formula_units_Z   1
loop_
 _symmetry_equiv_pos_site_id
 _symmetry_equiv_pos_as_xyz
  1  'x, y, z'
loop_
 _atom_site_type_symbol
 _atom_site_label
 _atom_site_symmetry_multiplicity
 _atom_site_fract_x
 _atom_site_fract_y
 _atom_site_fract_z
 _atom_site_occupancy
  Nd  Nd0  1  0.810277  0.190342  0.809081  1
  Nd  Nd1  1  0.934792  0.561417  0.561318  1
  Nd  Nd2  1  0.559851  0.939966  0.562894  1
  Nd  Nd3  1  0.810294  0.189424  0.189443  1
  Nd  Nd4  1  0.190811  0.808150  0.192409  1
  Nd  Nd5  1  0.349172  0.950430  0.349228  1
  Nd  Nd6  1  0.934920  0.942413  0.561791  1
  Nd  Nd7  1  0.559958  0.939814  0.939763  1
  Nd  Nd8  1  0.192019  0.807066  0.806910  1
  Nd  Nd9  1  0.349226  0.349145  0.950413  1
  Nd  Nd10  1  0.559756  0.562925  0.939982  1
  Nd  Nd11  1  0.350828  0.348163  0.348364  1
  Nd  Nd12  1  0.190802  0.192400  0.808084  1
  Nd  Nd13  1  0.810211  0.809163  0.190342  1
  Nd  Nd14  1  0.935025  0.561777  0.942434  1
  Nd  Nd15  1  0.947048  0.350789  0.350959  1
  Tl  Tl16  1  0.262800  0.579836  0.579849  1
  Ag  Ag17  1  0.583965  0.581966  0.581985  1
  Ag  Ag18  1  0.583596  0.252231  0.582257  1
  Ag  Ag19  1  0.583580  0.582273  0.252228  1
  Ir  Ir20  1  0.142281  0.142968  0.573951  1
  Ir  Ir21  1  0.575633  0.141573  0.141603  1
  Ir  Ir22  1  0.142242  0.574047  0.142970  1
  Ir  Ir23  1  0.140916  0.141723  0.141746  1
