# generated using pymatgen
data_CuBi3(Ir2O7)2
_symmetry_space_group_name_H-M   'P 1'
_cell_length_a   7.19273010
_cell_length_b   7.19273139
_cell_length_c   7.19273015
_cell_angle_alpha   61.60238111
_cell_angle_beta   61.60237490
_cell_angle_gamma   61.60238247
_symmetry_Int_Tables_number   1
_chemical_formula_structural   CuBi3(Ir2O7)2
_chemical_formula_sum   'Cu1 Bi3 Ir4 O14'
_cell_volume   272.58528806
_cell_formula_units_Z   1
loop_
 _symmetry_equiv_pos_site_id
 _symmetry_equiv_pos_as_xyz
  1  'x, y, z'
loop_
 _atom_site_type_symbol
 _atom_site_label
 _atom_site_symmetry_multiplicity
 _atom_site_fract_x
 _atom_site_fract_y
 _atom_site_fract_z
 _atom_site_occupancy
  Cu  Cu0  1  0.125000  0.125000  0.125000  1
  Bi  Bi1  1  0.625000  0.125000  0.125000  1
  Bi  Bi2  1  0.125000  0.625000  0.125000  1
  Bi  Bi3  1  0.125000  0.125000  0.625000  1
  Ir  Ir4  1  0.125000  0.625000  0.625000  1
  Ir  Ir5  1  0.625000  0.125000  0.625000  1
  Ir  Ir6  1  0.625000  0.625000  0.125000  1
  Ir  Ir7  1  0.625000  0.625000  0.625000  1
  O  O8  1  0.709511  0.709511  0.292903  1
  O  O9  1  0.299528  0.299528  0.696532  1
  O  O10  1  0.709511  0.292903  0.709511  1
  O  O11  1  0.299528  0.696532  0.299528  1
  O  O12  1  0.292903  0.709511  0.709511  1
  O  O13  1  0.696532  0.299528  0.299528  1
  O  O14  1  0.540489  0.540489  0.957097  1
  O  O15  1  0.950472  0.950472  0.553468  1
  O  O16  1  0.540489  0.957097  0.540489  1
  O  O17  1  0.950472  0.553468  0.950472  1
  O  O18  1  0.957097  0.540489  0.540489  1
  O  O19  1  0.553468  0.950472  0.950472  1
  O  O20  1  0.234711  0.234711  0.234711  1
  O  O21  1  0.015289  0.015289  0.015289  1
