# generated using pymatgen
data_Ho8In2NiRu
_symmetry_space_group_name_H-M   'P 1'
_cell_length_a   9.56949986
_cell_length_b   9.58077290
_cell_length_c   9.56949938
_cell_angle_alpha   59.96101848
_cell_angle_beta   60.17506695
_cell_angle_gamma   59.96102141
_symmetry_Int_Tables_number   1
_chemical_formula_structural   Ho8In2NiRu
_chemical_formula_sum   'Ho16 In4 Ni2 Ru2'
_cell_volume   620.83830449
_cell_formula_units_Z   2
loop_
 _symmetry_equiv_pos_site_id
 _symmetry_equiv_pos_as_xyz
  1  'x, y, z'
loop_
 _atom_site_type_symbol
 _atom_site_label
 _atom_site_symmetry_multiplicity
 _atom_site_fract_x
 _atom_site_fract_y
 _atom_site_fract_z
 _atom_site_occupancy
  Ho  Ho0  1  0.190346  0.188666  0.813988  1
  Ho  Ho1  1  0.599275  0.598586  0.203551  1
  Ho  Ho2  1  0.438267  0.061733  0.438267  1
  Ho  Ho3  1  0.440625  0.439004  0.059143  1
  Ho  Ho4  1  0.808523  0.191477  0.808523  1
  Ho  Ho5  1  0.187200  0.812800  0.187200  1
  Ho  Ho6  1  0.440625  0.061228  0.059143  1
  Ho  Ho7  1  0.190346  0.807001  0.813988  1
  Ho  Ho8  1  0.060365  0.439635  0.060365  1
  Ho  Ho9  1  0.813988  0.807001  0.190346  1
  Ho  Ho10  1  0.203551  0.598586  0.599275  1
  Ho  Ho11  1  0.059143  0.439004  0.440625  1
  Ho  Ho12  1  0.059143  0.061228  0.440625  1
  Ho  Ho13  1  0.813988  0.188666  0.190346  1
  Ho  Ho14  1  0.597420  0.204474  0.597420  1
  Ho  Ho15  1  0.597420  0.600684  0.597420  1
  In  In16  1  0.833634  0.832047  0.833634  1
  In  In17  1  0.833011  0.831860  0.503270  1
  In  In18  1  0.503270  0.831860  0.833011  1
  In  In19  1  0.833634  0.500684  0.833634  1
  Ni  Ni20  1  0.390095  0.826500  0.390095  1
  Ni  Ni21  1  0.390095  0.393309  0.390095  1
  Ru  Ru22  1  0.824064  0.391983  0.391970  1
  Ru  Ru23  1  0.391970  0.391983  0.824064  1
