# generated using pymatgen
data_SrTb7(Si4W3)4
_symmetry_space_group_name_H-M   'P 1'
_cell_length_a   6.80973611
_cell_length_b   6.97688062
_cell_length_c   12.98493921
_cell_angle_alpha   89.81163834
_cell_angle_beta   89.99516454
_cell_angle_gamma   89.77204349
_symmetry_Int_Tables_number   1
_chemical_formula_structural   SrTb7(Si4W3)4
_chemical_formula_sum   'Sr1 Tb7 Si16 W12'
_cell_volume   616.91553873
_cell_formula_units_Z   1
loop_
 _symmetry_equiv_pos_site_id
 _symmetry_equiv_pos_as_xyz
  1  'x, y, z'
loop_
 _atom_site_type_symbol
 _atom_site_label
 _atom_site_symmetry_multiplicity
 _atom_site_fract_x
 _atom_site_fract_y
 _atom_site_fract_z
 _atom_site_occupancy
  Sr  Sr0  1  0.998320  0.835462  0.590136  1
  Tb  Tb1  1  0.497344  0.667752  0.594211  1
  Tb  Tb2  1  0.996984  0.831399  0.906336  1
  Tb  Tb3  1  0.503557  0.331745  0.093247  1
  Tb  Tb4  1  0.004041  0.166040  0.406137  1
  Tb  Tb5  1  0.504228  0.333054  0.405560  1
  Tb  Tb6  1  0.004790  0.167131  0.093524  1
  Tb  Tb7  1  0.496997  0.668317  0.906953  1
  Si  Si8  1  0.657742  0.956767  0.450912  1
  Si  Si9  1  0.161253  0.544695  0.046228  1
  Si  Si10  1  0.337256  0.042447  0.954272  1
  Si  Si11  1  0.838937  0.454218  0.546827  1
  Si  Si12  1  0.344310  0.045503  0.546882  1
  Si  Si13  1  0.838658  0.456070  0.954548  1
  Si  Si14  1  0.662338  0.957081  0.046528  1
  Si  Si15  1  0.160341  0.541096  0.450746  1
  Si  Si16  1  0.464683  0.371806  0.751273  1
  Si  Si17  1  0.963542  0.132753  0.752173  1
  Si  Si18  1  0.534020  0.630172  0.249232  1
  Si  Si19  1  0.034873  0.867291  0.250272  1
  Si  Si20  1  0.695922  0.871815  0.750305  1
  Si  Si21  1  0.196609  0.631443  0.750778  1
  Si  Si22  1  0.303813  0.129945  0.249567  1
  Si  Si23  1  0.804319  0.365925  0.249097  1
  W  W24  1  0.664370  0.169392  0.626782  1
  W  W25  1  0.171163  0.339590  0.876311  1
  W  W26  1  0.332300  0.835354  0.126274  1
  W  W27  1  0.827716  0.658572  0.371850  1
  W  W28  1  0.333305  0.835927  0.373109  1
  W  W29  1  0.829313  0.661075  0.125237  1
  W  W30  1  0.665635  0.165522  0.874702  1
  W  W31  1  0.169994  0.336046  0.627658  1
  W  W32  1  0.835825  0.493514  0.752156  1
  W  W33  1  0.334726  0.004709  0.752780  1
  W  W34  1  0.164066  0.502361  0.249027  1
  W  W35  1  0.666716  0.998010  0.248366  1
