# generated using pymatgen
data_TbY7Ta5Ti7Si16
_symmetry_space_group_name_H-M   'P 1'
_cell_length_a   7.06120523
_cell_length_b   7.05298457
_cell_length_c   12.99662873
_cell_angle_alpha   90.01895122
_cell_angle_beta   90.05725403
_cell_angle_gamma   89.96228035
_symmetry_Int_Tables_number   1
_chemical_formula_structural   TbY7Ta5Ti7Si16
_chemical_formula_sum   'Tb1 Y7 Ta5 Ti7 Si16'
_cell_volume   647.26503403
_cell_formula_units_Z   1
loop_
 _symmetry_equiv_pos_site_id
 _symmetry_equiv_pos_as_xyz
  1  'x, y, z'
loop_
 _atom_site_type_symbol
 _atom_site_label
 _atom_site_symmetry_multiplicity
 _atom_site_fract_x
 _atom_site_fract_y
 _atom_site_fract_z
 _atom_site_occupancy
  Tb  Tb0  1  0.997684  0.660195  0.033088  1
  Y  Y1  1  0.340546  0.002254  0.466743  1
  Y  Y2  1  0.497780  0.840162  0.717172  1
  Y  Y3  1  0.502369  0.159699  0.216955  1
  Y  Y4  1  0.840145  0.497544  0.283047  1
  Y  Y5  1  0.160155  0.502804  0.782905  1
  Y  Y6  1  0.659073  0.997161  0.966902  1
  Y  Y7  1  0.002017  0.340391  0.533047  1
  Ta  Ta8  1  0.326176  0.326053  0.999748  1
  Ta  Ta9  1  0.172596  0.827312  0.250093  1
  Ta  Ta10  1  0.827726  0.172668  0.750298  1
  Ta  Ta11  1  0.673135  0.673041  0.499832  1
  Ta  Ta12  1  0.153656  0.009054  0.875805  1
  Ti  Ti13  1  0.490970  0.653377  0.125482  1
  Ti  Ti14  1  0.508850  0.346599  0.626118  1
  Ti  Ti15  1  0.653742  0.490577  0.873961  1
  Ti  Ti16  1  0.346925  0.509070  0.374358  1
  Ti  Ti17  1  0.846735  0.990876  0.375929  1
  Ti  Ti18  1  0.008818  0.152826  0.124173  1
  Ti  Ti19  1  0.991105  0.846360  0.624198  1
  Si  Si20  1  0.202700  0.130210  0.684106  1
  Si  Si21  1  0.371071  0.702025  0.934579  1
  Si  Si22  1  0.629572  0.297918  0.434850  1
  Si  Si23  1  0.701681  0.370330  0.065435  1
  Si  Si24  1  0.298047  0.629314  0.565113  1
  Si  Si25  1  0.797878  0.870689  0.185158  1
  Si  Si26  1  0.129670  0.201952  0.315112  1
  Si  Si27  1  0.868384  0.797052  0.815254  1
  Si  Si28  1  0.293030  0.953265  0.065286  1
  Si  Si29  1  0.546309  0.791745  0.314226  1
  Si  Si30  1  0.454718  0.209086  0.813805  1
  Si  Si31  1  0.792248  0.545946  0.685527  1
  Si  Si32  1  0.208119  0.453549  0.185885  1
  Si  Si33  1  0.708048  0.046493  0.564256  1
  Si  Si34  1  0.952030  0.294058  0.935865  1
  Si  Si35  1  0.046293  0.708345  0.435695  1
