# generated using pymatgen
data_Ce11Ho(SiOs)8
_symmetry_space_group_name_H-M   'P 1'
_cell_length_a   5.54715822
_cell_length_b   7.89604432
_cell_length_c   13.36635200
_cell_angle_alpha   90.00000000
_cell_angle_beta   90.00000000
_cell_angle_gamma   89.96738258
_symmetry_Int_Tables_number   1
_chemical_formula_structural   Ce11Ho(SiOs)8
_chemical_formula_sum   'Ce11 Ho1 Si8 Os8'
_cell_volume   585.45423867
_cell_formula_units_Z   1
loop_
 _symmetry_equiv_pos_site_id
 _symmetry_equiv_pos_as_xyz
  1  'x, y, z'
loop_
 _atom_site_type_symbol
 _atom_site_label
 _atom_site_symmetry_multiplicity
 _atom_site_fract_x
 _atom_site_fract_y
 _atom_site_fract_z
 _atom_site_occupancy
  Ce  Ce0  1  0.868844  0.749905  0.250000  1
  Ce  Ce1  1  0.131489  0.250823  0.250000  1
  Ce  Ce2  1  0.865706  0.750211  0.750000  1
  Ce  Ce3  1  0.651569  0.399482  0.599737  1
  Ce  Ce4  1  0.348702  0.602388  0.100604  1
  Ce  Ce5  1  0.652014  0.100341  0.399847  1
  Ce  Ce6  1  0.350138  0.897420  0.899518  1
  Ce  Ce7  1  0.348702  0.602388  0.399396  1
  Ce  Ce8  1  0.651569  0.399482  0.900263  1
  Ce  Ce9  1  0.350138  0.897420  0.600482  1
  Ce  Ce10  1  0.652014  0.100341  0.100153  1
  Ho  Ho11  1  0.132481  0.250688  0.750000  1
  Si  Si12  1  0.109660  0.249674  0.501529  1
  Si  Si13  1  0.890289  0.749809  0.999771  1
  Si  Si14  1  0.890289  0.749809  0.500229  1
  Si  Si15  1  0.109660  0.249674  0.998471  1
  Si  Si16  1  0.643848  0.106265  0.750000  1
  Si  Si17  1  0.359768  0.899643  0.250000  1
  Si  Si18  1  0.639071  0.399821  0.250000  1
  Si  Si19  1  0.356764  0.595267  0.750000  1
  Os  Os20  1  0.853148  0.027383  0.591032  1
  Os  Os21  1  0.145989  0.973133  0.090757  1
  Os  Os22  1  0.854911  0.472030  0.408343  1
  Os  Os23  1  0.144595  0.527028  0.909113  1
  Os  Os24  1  0.145989  0.973133  0.409243  1
  Os  Os25  1  0.853148  0.027383  0.908968  1
  Os  Os26  1  0.144595  0.527028  0.590887  1
  Os  Os27  1  0.854911  0.472030  0.091657  1
