# generated using pymatgen
data_NdTmPa2(Al3Ir)6
_symmetry_space_group_name_H-M   'P 1'
_cell_length_a   7.60607629
_cell_length_b   7.61068243
_cell_length_c   9.38754100
_cell_angle_alpha   90.00000000
_cell_angle_beta   90.00000000
_cell_angle_gamma   119.65736087
_symmetry_Int_Tables_number   1
_chemical_formula_structural   NdTmPa2(Al3Ir)6
_chemical_formula_sum   'Nd1 Tm1 Pa2 Al18 Ir6'
_cell_volume   472.23252570
_cell_formula_units_Z   1
loop_
 _symmetry_equiv_pos_site_id
 _symmetry_equiv_pos_as_xyz
  1  'x, y, z'
loop_
 _atom_site_type_symbol
 _atom_site_label
 _atom_site_symmetry_multiplicity
 _atom_site_fract_x
 _atom_site_fract_y
 _atom_site_fract_z
 _atom_site_occupancy
  Nd  Nd0  1  0.669266  0.993438  0.250000  1
  Tm  Tm1  1  0.329203  0.006625  0.750000  1
  Pa  Pa2  1  0.998288  0.671120  0.250000  1
  Pa  Pa3  1  0.001774  0.328431  0.750000  1
  Al  Al4  1  0.133010  0.127479  0.250000  1
  Al  Al5  1  0.870117  0.872530  0.750000  1
  Al  Al6  1  0.002524  0.333535  0.075811  1
  Al  Al7  1  0.000218  0.669037  0.921697  1
  Al  Al8  1  0.000218  0.669037  0.578303  1
  Al  Al9  1  0.336338  0.003196  0.428329  1
  Al  Al10  1  0.002524  0.333535  0.424189  1
  Al  Al11  1  0.660600  0.996411  0.577310  1
  Al  Al12  1  0.660600  0.996411  0.922690  1
  Al  Al13  1  0.336338  0.003196  0.071671  1
  Al  Al14  1  0.335219  0.333040  0.554827  1
  Al  Al15  1  0.665178  0.665166  0.449376  1
  Al  Al16  1  0.665178  0.665166  0.050624  1
  Al  Al17  1  0.335219  0.333040  0.945173  1
  Al  Al18  1  0.338926  0.545242  0.250000  1
  Al  Al19  1  0.658208  0.451438  0.750000  1
  Al  Al20  1  0.549260  0.342857  0.250000  1
  Al  Al21  1  0.450047  0.658636  0.750000  1
  Ir  Ir22  1  0.675897  0.330073  0.998438  1
  Ir  Ir23  1  0.323673  0.669880  0.999414  1
  Ir  Ir24  1  0.323673  0.669880  0.500586  1
  Ir  Ir25  1  0.675897  0.330073  0.501562  1
  Ir  Ir26  1  0.001303  0.000763  0.998481  1
  Ir  Ir27  1  0.001303  0.000763  0.501519  1
