# generated using pymatgen
data_Yb2HoGa9Pd2
_symmetry_space_group_name_H-M   'P 1'
_cell_length_a   8.12054625
_cell_length_b   8.12054629
_cell_length_c   8.12054544
_cell_angle_alpha   148.91861156
_cell_angle_beta   108.29653488
_cell_angle_gamma   80.19067686
_symmetry_Int_Tables_number   1
_chemical_formula_structural   Yb2HoGa9Pd2
_chemical_formula_sum   'Yb2 Ho1 Ga9 Pd2'
_cell_volume   257.12210849
_cell_formula_units_Z   1
loop_
 _symmetry_equiv_pos_site_id
 _symmetry_equiv_pos_as_xyz
  1  'x, y, z'
loop_
 _atom_site_type_symbol
 _atom_site_label
 _atom_site_symmetry_multiplicity
 _atom_site_fract_x
 _atom_site_fract_y
 _atom_site_fract_z
 _atom_site_occupancy
  Yb  Yb0  1  0.499876  0.499876  0.000000  1
  Yb  Yb1  1  0.201088  0.201088  0.000000  1
  Ho  Ho2  1  0.797651  0.797651  0.000000  1
  Ga  Ga3  1  0.642650  0.361857  0.280793  1
  Ga  Ga4  1  0.358569  0.639664  0.718905  1
  Ga  Ga5  1  0.081064  0.361857  0.719207  1
  Ga  Ga6  1  0.920759  0.639664  0.281095  1
  Ga  Ga7  1  0.521831  0.155950  0.365882  1
  Ga  Ga8  1  0.478261  0.842725  0.635536  1
  Ga  Ga9  1  0.790068  0.155950  0.634118  1
  Ga  Ga10  1  0.207189  0.842725  0.364464  1
  Ga  Ga11  1  0.000002  0.500002  0.500000  1
  Pd  Pd12  1  0.180622  0.000496  0.180126  1
  Pd  Pd13  1  0.820370  0.000496  0.819874  1
