# generated using pymatgen
data_SrSiAu3
_symmetry_space_group_name_H-M   'P 1'
_cell_length_a   6.46118500
_cell_length_b   6.46118500
_cell_length_c   5.29935100
_cell_angle_alpha   90.00000000
_cell_angle_beta   90.00000000
_cell_angle_gamma   90.00000000
_symmetry_Int_Tables_number   1
_chemical_formula_structural   SrSiAu3
_chemical_formula_sum   'Sr2 Si2 Au6'
_cell_volume   221.23153776
_cell_formula_units_Z   2
loop_
 _symmetry_equiv_pos_site_id
 _symmetry_equiv_pos_as_xyz
  1  'x, y, z'
loop_
 _atom_site_type_symbol
 _atom_site_label
 _atom_site_symmetry_multiplicity
 _atom_site_fract_x
 _atom_site_fract_y
 _atom_site_fract_z
 _atom_site_occupancy
  Sr  Sr0  1  0.500000  0.500000  0.000000  1
  Sr  Sr1  1  0.000000  0.000000  0.000000  1
  Si  Si2  1  0.500000  0.000000  0.702888  1
  Si  Si3  1  0.000000  0.500000  0.297112  1
  Au  Au4  1  0.250000  0.250000  0.500000  1
  Au  Au5  1  0.250000  0.750000  0.500000  1
  Au  Au6  1  0.750000  0.250000  0.500000  1
  Au  Au7  1  0.750000  0.750000  0.500000  1
  Au  Au8  1  0.500000  0.000000  0.156756  1
  Au  Au9  1  0.000000  0.500000  0.843244  1
