# generated using pymatgen
data_Pr3Sn3RuPt2
_symmetry_space_group_name_H-M   'P 1'
_cell_length_a   7.64458000
_cell_length_b   7.64457995
_cell_length_c   4.16385600
_cell_angle_alpha   90.00000000
_cell_angle_beta   90.00000000
_cell_angle_gamma   119.99999157
_symmetry_Int_Tables_number   1
_chemical_formula_structural   Pr3Sn3RuPt2
_chemical_formula_sum   'Pr3 Sn3 Ru1 Pt2'
_cell_volume   210.73352279
_cell_formula_units_Z   1
loop_
 _symmetry_equiv_pos_site_id
 _symmetry_equiv_pos_as_xyz
  1  'x, y, z'
loop_
 _atom_site_type_symbol
 _atom_site_label
 _atom_site_symmetry_multiplicity
 _atom_site_fract_x
 _atom_site_fract_y
 _atom_site_fract_z
 _atom_site_occupancy
  Pr  Pr0  1  0.591240  0.591240  0.000000  1
  Pr  Pr1  1  0.408760  0.000000  0.000000  1
  Pr  Pr2  1  0.000000  0.408760  0.000000  1
  Sn  Sn3  1  0.000000  0.752362  0.500000  1
  Sn  Sn4  1  0.247638  0.247638  0.500000  1
  Sn  Sn5  1  0.752362  0.000000  0.500000  1
  Ru  Ru6  1  0.000000  0.000000  0.000000  1
  Pt  Pt7  1  0.666667  0.333333  0.500000  1
  Pt  Pt8  1  0.333333  0.666667  0.500000  1
