# generated using pymatgen
data_Ho3Tm13InAg3Rh4
_symmetry_space_group_name_H-M   'P 1'
_cell_length_a   9.48272914
_cell_length_b   9.47791463
_cell_length_c   9.47043195
_cell_angle_alpha   59.64930903
_cell_angle_beta   59.62112655
_cell_angle_gamma   59.65258625
_symmetry_Int_Tables_number   1
_chemical_formula_structural   Ho3Tm13InAg3Rh4
_chemical_formula_sum   'Ho3 Tm13 In1 Ag3 Rh4'
_cell_volume   596.95774168
_cell_formula_units_Z   1
loop_
 _symmetry_equiv_pos_site_id
 _symmetry_equiv_pos_as_xyz
  1  'x, y, z'
loop_
 _atom_site_type_symbol
 _atom_site_label
 _atom_site_symmetry_multiplicity
 _atom_site_fract_x
 _atom_site_fract_y
 _atom_site_fract_z
 _atom_site_occupancy
  Ho  Ho0  1  0.062710  0.062984  0.438758  1
  Ho  Ho1  1  0.435750  0.063065  0.437481  1
  Ho  Ho2  1  0.061012  0.435595  0.068599  1
  Tm  Tm3  1  0.052568  0.647136  0.649690  1
  Tm  Tm4  1  0.435539  0.435711  0.066789  1
  Tm  Tm5  1  0.647104  0.052570  0.650078  1
  Tm  Tm6  1  0.188977  0.813514  0.187632  1
  Tm  Tm7  1  0.190052  0.189914  0.811564  1
  Tm  Tm8  1  0.812496  0.812665  0.187672  1
  Tm  Tm9  1  0.435979  0.060691  0.067882  1
  Tm  Tm10  1  0.813563  0.188662  0.187508  1
  Tm  Tm11  1  0.062989  0.436547  0.437846  1
  Tm  Tm12  1  0.809899  0.189956  0.812441  1
  Tm  Tm13  1  0.189908  0.809837  0.812787  1
  Tm  Tm14  1  0.647991  0.648160  0.052869  1
  Tm  Tm15  1  0.649093  0.648289  0.649002  1
  In  In16  1  0.421209  0.421063  0.737788  1
  Ag  Ag17  1  0.417650  0.418307  0.414585  1
  Ag  Ag18  1  0.748802  0.417848  0.415591  1
  Ag  Ag19  1  0.417915  0.749066  0.414591  1
  Rh  Rh20  1  0.856491  0.855805  0.429564  1
  Rh  Rh21  1  0.857249  0.857772  0.856611  1
  Rh  Rh22  1  0.428944  0.856066  0.856610  1
  Rh  Rh23  1  0.856112  0.428779  0.856062  1
