# generated using pymatgen
data_Y4Al18Ni5Ru
_symmetry_space_group_name_H-M   'P 1'
_cell_length_a   7.43322294
_cell_length_b   7.43322168
_cell_length_c   9.25256400
_cell_angle_alpha   90.05092721
_cell_angle_beta   90.05093491
_cell_angle_gamma   119.65092702
_symmetry_Int_Tables_number   1
_chemical_formula_structural   Y4Al18Ni5Ru
_chemical_formula_sum   'Y4 Al18 Ni5 Ru1'
_cell_volume   444.28658375
_cell_formula_units_Z   1
loop_
 _symmetry_equiv_pos_site_id
 _symmetry_equiv_pos_as_xyz
  1  'x, y, z'
loop_
 _atom_site_type_symbol
 _atom_site_label
 _atom_site_symmetry_multiplicity
 _atom_site_fract_x
 _atom_site_fract_y
 _atom_site_fract_z
 _atom_site_occupancy
  Y  Y0  1  0.993533  0.669497  0.250046  1
  Y  Y1  1  0.006719  0.330445  0.749906  1
  Y  Y2  1  0.669555  0.993281  0.250094  1
  Y  Y3  1  0.330503  0.006467  0.749954  1
  Al  Al4  1  0.124073  0.124783  0.250188  1
  Al  Al5  1  0.875217  0.875927  0.749812  1
  Al  Al6  1  0.001515  0.334040  0.072669  1
  Al  Al7  1  0.003524  0.665865  0.928138  1
  Al  Al8  1  0.002238  0.667114  0.572791  1
  Al  Al9  1  0.332886  0.997762  0.427209  1
  Al  Al10  1  0.998396  0.334835  0.427266  1
  Al  Al11  1  0.665165  0.001604  0.572734  1
  Al  Al12  1  0.665960  0.998485  0.927331  1
  Al  Al13  1  0.334135  0.996476  0.071862  1
  Al  Al14  1  0.331480  0.332767  0.550205  1
  Al  Al15  1  0.667233  0.668520  0.449795  1
  Al  Al16  1  0.668428  0.667720  0.047981  1
  Al  Al17  1  0.332280  0.331572  0.952019  1
  Al  Al18  1  0.338340  0.552239  0.250150  1
  Al  Al19  1  0.660612  0.451228  0.748670  1
  Al  Al20  1  0.548772  0.339388  0.251330  1
  Al  Al21  1  0.447761  0.661660  0.749850  1
  Ni  Ni22  1  0.329811  0.670189  0.000000  1
  Ni  Ni23  1  0.328144  0.671856  0.500000  1
  Ni  Ni24  1  0.671072  0.328928  0.500000  1
  Ni  Ni25  1  0.001057  0.998943  0.000000  1
  Ni  Ni26  1  0.999267  0.000733  0.500000  1
  Ru  Ru27  1  0.672322  0.327678  0.000000  1
