# generated using pymatgen
data_Lu4Ga4Co3Ru
_symmetry_space_group_name_H-M   'P 1'
_cell_length_a   4.35719800
_cell_length_b   6.88675135
_cell_length_c   6.98640502
_cell_angle_alpha   89.98748481
_cell_angle_beta   90.00000000
_cell_angle_gamma   90.00000000
_symmetry_Int_Tables_number   1
_chemical_formula_structural   Lu4Ga4Co3Ru
_chemical_formula_sum   'Lu4 Ga4 Co3 Ru1'
_cell_volume   209.64062569
_cell_formula_units_Z   1
loop_
 _symmetry_equiv_pos_site_id
 _symmetry_equiv_pos_as_xyz
  1  'x, y, z'
loop_
 _atom_site_type_symbol
 _atom_site_label
 _atom_site_symmetry_multiplicity
 _atom_site_fract_x
 _atom_site_fract_y
 _atom_site_fract_z
 _atom_site_occupancy
  Lu  Lu0  1  0.250000  0.978574  0.304598  1
  Lu  Lu1  1  0.250000  0.483818  0.199054  1
  Lu  Lu2  1  0.750000  0.013677  0.698488  1
  Lu  Lu3  1  0.750000  0.512195  0.802053  1
  Ga  Ga4  1  0.250000  0.306691  0.592950  1
  Ga  Ga5  1  0.250000  0.794084  0.895863  1
  Ga  Ga6  1  0.750000  0.700078  0.396446  1
  Ga  Ga7  1  0.750000  0.196800  0.116509  1
  Co  Co8  1  0.250000  0.663214  0.560285  1
  Co  Co9  1  0.750000  0.838875  0.063092  1
  Co  Co10  1  0.750000  0.346382  0.438302  1
  Ru  Ru11  1  0.250000  0.165611  0.932362  1
