# generated using pymatgen
data_Li6InSn5Pt12
_symmetry_space_group_name_H-M   'P 1'
_cell_length_a   4.11671700
_cell_length_b   7.50615100
_cell_length_c   12.32630500
_cell_angle_alpha   90.00000000
_cell_angle_beta   90.00130954
_cell_angle_gamma   90.00000000
_symmetry_Int_Tables_number   1
_chemical_formula_structural   Li6InSn5Pt12
_chemical_formula_sum   'Li6 In1 Sn5 Pt12'
_cell_volume   380.89144579
_cell_formula_units_Z   1
loop_
 _symmetry_equiv_pos_site_id
 _symmetry_equiv_pos_as_xyz
  1  'x, y, z'
loop_
 _atom_site_type_symbol
 _atom_site_label
 _atom_site_symmetry_multiplicity
 _atom_site_fract_x
 _atom_site_fract_y
 _atom_site_fract_z
 _atom_site_occupancy
  Li  Li0  1  0.000000  0.000000  0.000000  1
  Li  Li1  1  0.502555  0.499999  0.166292  1
  Li  Li2  1  0.002526  0.000000  0.333208  1
  Li  Li3  1  0.500001  0.499999  0.500000  1
  Li  Li4  1  0.997475  0.000000  0.666792  1
  Li  Li5  1  0.497443  0.499999  0.833708  1
  In  In6  1  0.000000  0.499999  0.000000  1
  Sn  Sn7  1  0.502296  0.000000  0.166770  1
  Sn  Sn8  1  0.002264  0.499999  0.333062  1
  Sn  Sn9  1  0.500001  0.000000  0.500000  1
  Sn  Sn10  1  0.997736  0.499999  0.666938  1
  Sn  Sn11  1  0.497703  0.000000  0.833230  1
  Pt  Pt12  1  0.500001  0.246205  0.000000  1
  Pt  Pt13  1  0.500001  0.753795  0.000000  1
  Pt  Pt14  1  0.001962  0.248512  0.167111  1
  Pt  Pt15  1  0.001962  0.751488  0.167111  1
  Pt  Pt16  1  0.501931  0.249869  0.333357  1
  Pt  Pt17  1  0.501931  0.750131  0.333357  1
  Pt  Pt18  1  0.000000  0.250196  0.500000  1
  Pt  Pt19  1  0.000000  0.749804  0.500000  1
  Pt  Pt20  1  0.498072  0.249869  0.666643  1
  Pt  Pt21  1  0.498072  0.750131  0.666643  1
  Pt  Pt22  1  0.998038  0.248512  0.832888  1
  Pt  Pt23  1  0.998038  0.751488  0.832888  1
