# generated using pymatgen
data_Eu3ErCu4(PH)4
_symmetry_space_group_name_H-M   'P 1'
_cell_length_a   3.90388700
_cell_length_b   3.91072804
_cell_length_c   15.30785806
_cell_angle_alpha   89.98668792
_cell_angle_beta   90.00000000
_cell_angle_gamma   90.00000000
_symmetry_Int_Tables_number   1
_chemical_formula_structural   Eu3ErCu4(PH)4
_chemical_formula_sum   'Eu3 Er1 Cu4 P4 H4'
_cell_volume   233.70568045
_cell_formula_units_Z   1
loop_
 _symmetry_equiv_pos_site_id
 _symmetry_equiv_pos_as_xyz
  1  'x, y, z'
loop_
 _atom_site_type_symbol
 _atom_site_label
 _atom_site_symmetry_multiplicity
 _atom_site_fract_x
 _atom_site_fract_y
 _atom_site_fract_z
 _atom_site_occupancy
  Eu  Eu0  1  0.250000  0.749640  0.412425  1
  Eu  Eu1  1  0.250000  0.749772  0.921425  1
  Eu  Eu2  1  0.750000  0.250719  0.584368  1
  Er  Er3  1  0.750000  0.249919  0.082153  1
  Cu  Cu4  1  0.250000  0.246806  0.241350  1
  Cu  Cu5  1  0.750000  0.752312  0.755032  1
  Cu  Cu6  1  0.250000  0.248820  0.754114  1
  Cu  Cu7  1  0.750000  0.752189  0.242626  1
  P  P8  1  0.250000  0.748788  0.150135  1
  P  P9  1  0.750000  0.250411  0.331918  1
  P  P10  1  0.750000  0.250847  0.844911  1
  P  P11  1  0.250000  0.749902  0.665923  1
  H  H12  1  0.750000  0.750158  0.499014  1
  H  H13  1  0.750000  0.749628  0.007787  1
  H  H14  1  0.250000  0.250270  0.499015  1
  H  H15  1  0.250000  0.249820  0.007804  1
