# generated using pymatgen
data_Tb10SnBi3Rh2
_symmetry_space_group_name_H-M   'P 1'
_cell_length_a   8.03479698
_cell_length_b   9.03215135
_cell_length_c   12.45572114
_cell_angle_alpha   90.03986807
_cell_angle_beta   90.02822331
_cell_angle_gamma   89.95107222
_symmetry_Int_Tables_number   1
_chemical_formula_structural   Tb10SnBi3Rh2
_chemical_formula_sum   'Tb20 Sn2 Bi6 Rh4'
_cell_volume   903.92973952
_cell_formula_units_Z   2
loop_
 _symmetry_equiv_pos_site_id
 _symmetry_equiv_pos_as_xyz
  1  'x, y, z'
loop_
 _atom_site_type_symbol
 _atom_site_label
 _atom_site_symmetry_multiplicity
 _atom_site_fract_x
 _atom_site_fract_y
 _atom_site_fract_z
 _atom_site_occupancy
  Tb  Tb0  1  0.839011  0.746013  0.793563  1
  Tb  Tb1  1  0.160989  0.253987  0.206437  1
  Tb  Tb2  1  0.345197  0.253159  0.707931  1
  Tb  Tb3  1  0.654803  0.746841  0.292069  1
  Tb  Tb4  1  0.378572  0.746221  0.696097  1
  Tb  Tb5  1  0.621428  0.253779  0.303903  1
  Tb  Tb6  1  0.870428  0.253262  0.805202  1
  Tb  Tb7  1  0.129572  0.746738  0.194798  1
  Tb  Tb8  1  0.953734  0.750578  0.501891  1
  Tb  Tb9  1  0.046266  0.249422  0.498109  1
  Tb  Tb10  1  0.454586  0.256847  0.997765  1
  Tb  Tb11  1  0.545414  0.743153  0.002235  1
  Tb  Tb12  1  0.679452  0.041109  0.565475  1
  Tb  Tb13  1  0.320548  0.958891  0.434525  1
  Tb  Tb14  1  0.178938  0.960812  0.934087  1
  Tb  Tb15  1  0.323217  0.539412  0.430498  1
  Tb  Tb16  1  0.821062  0.039188  0.065913  1
  Tb  Tb17  1  0.676783  0.460588  0.569502  1
  Tb  Tb18  1  0.816158  0.459355  0.064379  1
  Tb  Tb19  1  0.183842  0.540645  0.935621  1
  Sn  Sn20  1  0.570531  0.491966  0.827234  1
  Sn  Sn21  1  0.429469  0.508034  0.172766  1
  Bi  Bi22  1  0.071601  0.508057  0.672306  1
  Bi  Bi23  1  0.428897  0.992317  0.172128  1
  Bi  Bi24  1  0.928399  0.491943  0.327694  1
  Bi  Bi25  1  0.571103  0.007683  0.827872  1
  Bi  Bi26  1  0.929185  0.008098  0.325887  1
  Bi  Bi27  1  0.070815  0.991902  0.674113  1
  Rh  Rh28  1  0.571131  0.750503  0.510392  1
  Rh  Rh29  1  0.428869  0.249497  0.489608  1
  Rh  Rh30  1  0.069015  0.249511  0.989216  1
  Rh  Rh31  1  0.930985  0.750489  0.010784  1
