# generated using pymatgen
data_Er5OsRuO12
_symmetry_space_group_name_H-M   'P 1'
_cell_length_a   6.81630686
_cell_length_b   6.81630801
_cell_length_c   7.40575710
_cell_angle_alpha   73.96911558
_cell_angle_beta   73.96911150
_cell_angle_gamma   48.99024428
_symmetry_Int_Tables_number   1
_chemical_formula_structural   Er5OsRuO12
_chemical_formula_sum   'Er5 Os1 Ru1 O12'
_cell_volume   247.40244767
_cell_formula_units_Z   1
loop_
 _symmetry_equiv_pos_site_id
 _symmetry_equiv_pos_as_xyz
  1  'x, y, z'
loop_
 _atom_site_type_symbol
 _atom_site_label
 _atom_site_symmetry_multiplicity
 _atom_site_fract_x
 _atom_site_fract_y
 _atom_site_fract_z
 _atom_site_occupancy
  Er  Er0  1  0.707244  0.691015  0.641635  1
  Er  Er1  1  0.308985  0.292756  0.358365  1
  Er  Er2  1  0.690127  0.685758  0.171943  1
  Er  Er3  1  0.314242  0.309873  0.828057  1
  Er  Er4  1  0.005372  0.994628  0.500000  1
  Os  Os5  1  0.216118  0.783882  0.000000  1
  Ru  Ru6  1  0.771925  0.228075  0.000000  1
  O  O7  1  0.002161  0.001362  0.202451  1
  O  O8  1  0.998638  0.997839  0.797549  1
  O  O9  1  0.570654  0.087199  0.086436  1
  O  O10  1  0.413860  0.914647  0.912572  1
  O  O11  1  0.912801  0.429346  0.913564  1
  O  O12  1  0.085353  0.586140  0.087428  1
  O  O13  1  0.491115  0.507029  0.177800  1
  O  O14  1  0.492971  0.508885  0.822200  1
  O  O15  1  0.406769  0.895049  0.430649  1
  O  O16  1  0.599268  0.092554  0.574595  1
  O  O17  1  0.104951  0.593231  0.569351  1
  O  O18  1  0.907446  0.400732  0.425405  1
