# generated using pymatgen
data_Ho2Lu6Nb12Si15Ge
_symmetry_space_group_name_H-M   'P 1'
_cell_length_a   7.04182450
_cell_length_b   7.03546403
_cell_length_c   12.95117519
_cell_angle_alpha   90.00886007
_cell_angle_beta   89.95866955
_cell_angle_gamma   89.94101358
_symmetry_Int_Tables_number   1
_chemical_formula_structural   Ho2Lu6Nb12Si15Ge
_chemical_formula_sum   'Ho2 Lu6 Nb12 Si15 Ge1'
_cell_volume   641.63312051
_cell_formula_units_Z   1
loop_
 _symmetry_equiv_pos_site_id
 _symmetry_equiv_pos_as_xyz
  1  'x, y, z'
loop_
 _atom_site_type_symbol
 _atom_site_label
 _atom_site_symmetry_multiplicity
 _atom_site_fract_x
 _atom_site_fract_y
 _atom_site_fract_z
 _atom_site_occupancy
  Ho  Ho0  1  0.000615  0.344140  0.530776  1
  Ho  Ho1  1  0.997449  0.657487  0.032408  1
  Lu  Lu2  1  0.343690  0.000938  0.466666  1
  Lu  Lu3  1  0.499572  0.842047  0.718741  1
  Lu  Lu4  1  0.501781  0.157307  0.218073  1
  Lu  Lu5  1  0.842325  0.498255  0.281823  1
  Lu  Lu6  1  0.157793  0.502870  0.782487  1
  Lu  Lu7  1  0.657569  0.997698  0.968419  1
  Nb  Nb8  1  0.328090  0.327607  0.000222  1
  Nb  Nb9  1  0.172364  0.828025  0.250049  1
  Nb  Nb10  1  0.824933  0.172050  0.750494  1
  Nb  Nb11  1  0.671900  0.672298  0.500028  1
  Nb  Nb12  1  0.152458  0.004987  0.875577  1
  Nb  Nb13  1  0.494204  0.651636  0.124622  1
  Nb  Nb14  1  0.508458  0.350227  0.624340  1
  Nb  Nb15  1  0.651839  0.494003  0.875850  1
  Nb  Nb16  1  0.348393  0.506708  0.375237  1
  Nb  Nb17  1  0.847316  0.994691  0.374072  1
  Nb  Nb18  1  0.005802  0.151847  0.125645  1
  Nb  Nb19  1  0.991099  0.844652  0.624740  1
  Si  Si20  1  0.365826  0.704754  0.930977  1
  Si  Si21  1  0.633822  0.295786  0.430453  1
  Si  Si22  1  0.703515  0.363243  0.069165  1
  Si  Si23  1  0.296476  0.636667  0.568944  1
  Si  Si24  1  0.794793  0.865739  0.181772  1
  Si  Si25  1  0.135608  0.204035  0.318567  1
  Si  Si26  1  0.864670  0.796509  0.818876  1
  Si  Si27  1  0.296407  0.954111  0.064338  1
  Si  Si28  1  0.546798  0.795288  0.313765  1
  Si  Si29  1  0.455960  0.204358  0.815618  1
  Si  Si30  1  0.795318  0.546768  0.687013  1
  Si  Si31  1  0.205441  0.452572  0.186523  1
  Si  Si32  1  0.703371  0.046082  0.563966  1
  Si  Si33  1  0.953590  0.293950  0.935467  1
  Si  Si34  1  0.046754  0.706571  0.435073  1
  Ge  Ge35  1  0.203995  0.134090  0.679218  1
