# generated using pymatgen
data_Ac(MgSn)2
_symmetry_space_group_name_H-M   'P 1'
_cell_length_a   4.70948421
_cell_length_b   4.70948371
_cell_length_c   7.18272409
_cell_angle_alpha   109.13736830
_cell_angle_beta   109.13736563
_cell_angle_gamma   89.99999391
_symmetry_Int_Tables_number   1
_chemical_formula_structural   Ac(MgSn)2
_chemical_formula_sum   'Ac1 Mg2 Sn2'
_cell_volume   141.15113801
_cell_formula_units_Z   1
loop_
 _symmetry_equiv_pos_site_id
 _symmetry_equiv_pos_as_xyz
  1  'x, y, z'
loop_
 _atom_site_type_symbol
 _atom_site_label
 _atom_site_symmetry_multiplicity
 _atom_site_fract_x
 _atom_site_fract_y
 _atom_site_fract_z
 _atom_site_occupancy
  Ac  Ac0  1  0.000000  0.000000  0.000000  1
  Mg  Mg1  1  0.750001  0.250000  0.500001  1
  Mg  Mg2  1  0.250000  0.750001  0.500001  1
  Sn  Sn3  1  0.614799  0.614799  0.229596  1
  Sn  Sn4  1  0.385201  0.385201  0.770402  1
