# generated using pymatgen
data_Nd2ZnSi3
_symmetry_space_group_name_H-M   'P 1'
_cell_length_a   8.19671600
_cell_length_b   8.19671575
_cell_length_c   8.53083800
_cell_angle_alpha   90.00000000
_cell_angle_beta   90.00000000
_cell_angle_gamma   120.00000099
_symmetry_Int_Tables_number   1
_chemical_formula_structural   Nd2ZnSi3
_chemical_formula_sum   'Nd8 Zn4 Si12'
_cell_volume   496.36606784
_cell_formula_units_Z   4
loop_
 _symmetry_equiv_pos_site_id
 _symmetry_equiv_pos_as_xyz
  1  'x, y, z'
loop_
 _atom_site_type_symbol
 _atom_site_label
 _atom_site_symmetry_multiplicity
 _atom_site_fract_x
 _atom_site_fract_y
 _atom_site_fract_z
 _atom_site_occupancy
  Nd  Nd0  1  0.000000  0.000000  0.750000  1
  Nd  Nd1  1  0.000000  0.000000  0.250000  1
  Nd  Nd2  1  0.498685  0.501315  0.750000  1
  Nd  Nd3  1  0.498685  0.997371  0.750000  1
  Nd  Nd4  1  0.002629  0.501315  0.750000  1
  Nd  Nd5  1  0.501315  0.498685  0.250000  1
  Nd  Nd6  1  0.997371  0.498685  0.250000  1
  Nd  Nd7  1  0.501315  0.002629  0.250000  1
  Zn  Zn8  1  0.666667  0.333333  0.994990  1
  Zn  Zn9  1  0.666667  0.333333  0.505010  1
  Zn  Zn10  1  0.333333  0.666667  0.494990  1
  Zn  Zn11  1  0.333333  0.666667  0.005010  1
  Si  Si12  1  0.834121  0.165879  0.998865  1
  Si  Si13  1  0.834121  0.668242  0.998865  1
  Si  Si14  1  0.331758  0.165879  0.998865  1
  Si  Si15  1  0.834121  0.165879  0.501135  1
  Si  Si16  1  0.834121  0.668242  0.501135  1
  Si  Si17  1  0.331758  0.165879  0.501135  1
  Si  Si18  1  0.165879  0.834121  0.498865  1
  Si  Si19  1  0.668242  0.834121  0.498865  1
  Si  Si20  1  0.165879  0.331758  0.498865  1
  Si  Si21  1  0.165879  0.834121  0.001135  1
  Si  Si22  1  0.668242  0.834121  0.001135  1
  Si  Si23  1  0.165879  0.331758  0.001135  1
