# generated using pymatgen
data_Tb8Re(B8Os)3
_symmetry_space_group_name_H-M   'P 1'
_cell_length_a   3.68152300
_cell_length_b   9.19862442
_cell_length_c   11.57808833
_cell_angle_alpha   90.09895577
_cell_angle_beta   90.00000000
_cell_angle_gamma   90.00000000
_symmetry_Int_Tables_number   1
_chemical_formula_structural   Tb8Re(B8Os)3
_chemical_formula_sum   'Tb8 Re1 B24 Os3'
_cell_volume   392.09076714
_cell_formula_units_Z   1
loop_
 _symmetry_equiv_pos_site_id
 _symmetry_equiv_pos_as_xyz
  1  'x, y, z'
loop_
 _atom_site_type_symbol
 _atom_site_label
 _atom_site_symmetry_multiplicity
 _atom_site_fract_x
 _atom_site_fract_y
 _atom_site_fract_z
 _atom_site_occupancy
  Tb  Tb0  1  0.000000  0.323162  0.414849  1
  Tb  Tb1  1  0.000000  0.679216  0.588181  1
  Tb  Tb2  1  0.000000  0.823452  0.083812  1
  Tb  Tb3  1  0.000000  0.175622  0.913136  1
  Tb  Tb4  1  0.000000  0.943476  0.371842  1
  Tb  Tb5  1  0.000000  0.055617  0.627579  1
  Tb  Tb6  1  0.000000  0.443168  0.127858  1
  Tb  Tb7  1  0.000000  0.556286  0.872922  1
  Re  Re8  1  0.000000  0.862502  0.821593  1
  B  B9  1  0.500000  0.554131  0.432841  1
  B  B10  1  0.500000  0.445928  0.567419  1
  B  B11  1  0.500000  0.053936  0.067591  1
  B  B12  1  0.500000  0.946831  0.932803  1
  B  B13  1  0.500000  0.747797  0.419307  1
  B  B14  1  0.500000  0.252293  0.580553  1
  B  B15  1  0.500000  0.247583  0.080821  1
  B  B16  1  0.500000  0.752254  0.919179  1
  B  B17  1  0.500000  0.789984  0.266519  1
  B  B18  1  0.500000  0.209449  0.732764  1
  B  B19  1  0.500000  0.290490  0.233524  1
  B  B20  1  0.500000  0.708837  0.766504  1
  B  B21  1  0.500000  0.631847  0.185934  1
  B  B22  1  0.500000  0.367742  0.813658  1
  B  B23  1  0.500000  0.132493  0.314237  1
  B  B24  1  0.500000  0.867873  0.686093  1
  B  B25  1  0.500000  0.984684  0.212555  1
  B  B26  1  0.500000  0.016415  0.787388  1
  B  B27  1  0.500000  0.484343  0.287858  1
  B  B28  1  0.500000  0.515717  0.712626  1
  B  B29  1  0.500000  0.607698  0.030528  1
  B  B30  1  0.500000  0.390887  0.970184  1
  B  B31  1  0.500000  0.109136  0.469375  1
  B  B32  1  0.500000  0.891379  0.529548  1
  Os  Os33  1  0.000000  0.637346  0.321707  1
  Os  Os34  1  0.000000  0.362577  0.677804  1
  Os  Os35  1  0.000000  0.137848  0.178906  1
