# generated using pymatgen
data_Ca3Yb(DyHg2)4
_symmetry_space_group_name_H-M   'P 1'
_cell_length_a   7.51372701
_cell_length_b   7.51855500
_cell_length_c   7.45686400
_cell_angle_alpha   90.00000000
_cell_angle_beta   89.99666004
_cell_angle_gamma   90.00000000
_symmetry_Int_Tables_number   1
_chemical_formula_structural   Ca3Yb(DyHg2)4
_chemical_formula_sum   'Ca3 Yb1 Dy4 Hg8'
_cell_volume   421.25591792
_cell_formula_units_Z   1
loop_
 _symmetry_equiv_pos_site_id
 _symmetry_equiv_pos_as_xyz
  1  'x, y, z'
loop_
 _atom_site_type_symbol
 _atom_site_label
 _atom_site_symmetry_multiplicity
 _atom_site_fract_x
 _atom_site_fract_y
 _atom_site_fract_z
 _atom_site_occupancy
  Ca  Ca0  1  0.249528  0.750000  0.499880  1
  Ca  Ca1  1  0.750483  0.250000  0.500117  1
  Ca  Ca2  1  0.250477  0.750000  0.999881  1
  Yb  Yb3  1  0.749575  0.250000  0.000125  1
  Dy  Dy4  1  0.250778  0.250000  0.999999  1
  Dy  Dy5  1  0.749265  0.750000  0.000002  1
  Dy  Dy6  1  0.750728  0.750000  0.499988  1
  Dy  Dy7  1  0.249278  0.250000  0.500014  1
  Hg  Hg8  1  0.999354  0.499214  0.247821  1
  Hg  Hg9  1  0.999354  0.000788  0.247821  1
  Hg  Hg10  1  0.501017  0.001013  0.250589  1
  Hg  Hg11  1  0.501017  0.498987  0.250589  1
  Hg  Hg12  1  0.500619  0.499258  0.749413  1
  Hg  Hg13  1  0.500619  0.000744  0.749413  1
  Hg  Hg14  1  0.998952  0.001018  0.752174  1
  Hg  Hg15  1  0.998952  0.498982  0.752174  1
