# generated using pymatgen
data_Pr4Zr3Sc3Ga8
_symmetry_space_group_name_H-M   'P 1'
_cell_length_a   7.39254643
_cell_length_b   7.74038303
_cell_length_c   14.65543576
_cell_angle_alpha   89.99850166
_cell_angle_beta   89.92961571
_cell_angle_gamma   89.98953890
_symmetry_Int_Tables_number   1
_chemical_formula_structural   Pr4Zr3Sc3Ga8
_chemical_formula_sum   'Pr8 Zr6 Sc6 Ga16'
_cell_volume   838.60010819
_cell_formula_units_Z   2
loop_
 _symmetry_equiv_pos_site_id
 _symmetry_equiv_pos_as_xyz
  1  'x, y, z'
loop_
 _atom_site_type_symbol
 _atom_site_label
 _atom_site_symmetry_multiplicity
 _atom_site_fract_x
 _atom_site_fract_y
 _atom_site_fract_z
 _atom_site_occupancy
  Pr  Pr0  1  0.010150  0.172928  0.405053  1
  Pr  Pr1  1  0.510211  0.327071  0.405060  1
  Pr  Pr2  1  0.489778  0.673830  0.905277  1
  Pr  Pr3  1  0.489851  0.672751  0.594340  1
  Pr  Pr4  1  0.989881  0.827197  0.594347  1
  Pr  Pr5  1  0.989824  0.826133  0.905266  1
  Pr  Pr6  1  0.510844  0.326218  0.094307  1
  Pr  Pr7  1  0.010866  0.173785  0.094297  1
  Zr  Zr8  1  0.327580  0.175879  0.623809  1
  Zr  Zr9  1  0.671485  0.822780  0.375273  1
  Zr  Zr10  1  0.171520  0.677297  0.375263  1
  Zr  Zr11  1  0.828395  0.325157  0.876663  1
  Zr  Zr12  1  0.827555  0.324051  0.623807  1
  Zr  Zr13  1  0.328362  0.174823  0.876633  1
  Sc  Sc14  1  0.660836  0.999823  0.750242  1
  Sc  Sc15  1  0.838917  0.499369  0.249099  1
  Sc  Sc16  1  0.338854  0.000573  0.249100  1
  Sc  Sc17  1  0.171811  0.673174  0.124483  1
  Sc  Sc18  1  0.671838  0.826827  0.124509  1
  Sc  Sc19  1  0.160777  0.500277  0.750254  1
  Ga  Ga20  1  0.287923  0.883968  0.749814  1
  Ga  Ga21  1  0.468597  0.624629  0.252046  1
  Ga  Ga22  1  0.032007  0.126993  0.749996  1
  Ga  Ga23  1  0.531976  0.373023  0.749984  1
  Ga  Ga24  1  0.156085  0.458633  0.540499  1
  Ga  Ga25  1  0.968600  0.875355  0.252028  1
  Ga  Ga26  1  0.713339  0.117271  0.251237  1
  Ga  Ga27  1  0.843495  0.536802  0.040273  1
  Ga  Ga28  1  0.343494  0.963188  0.040280  1
  Ga  Ga29  1  0.155322  0.457476  0.957760  1
  Ga  Ga30  1  0.656085  0.041360  0.540507  1
  Ga  Ga31  1  0.343574  0.959272  0.459826  1
  Ga  Ga32  1  0.843555  0.540749  0.459837  1
  Ga  Ga33  1  0.787925  0.616095  0.749829  1
  Ga  Ga34  1  0.213337  0.382707  0.251247  1
  Ga  Ga35  1  0.655354  0.042539  0.957756  1
