# generated using pymatgen
data_La4NdU5O19
_symmetry_space_group_name_H-M   'P 1'
_cell_length_a   6.88459973
_cell_length_b   7.79420636
_cell_length_c   8.73737500
_cell_angle_alpha   101.29643411
_cell_angle_beta   97.70221494
_cell_angle_gamma   107.17680234
_symmetry_Int_Tables_number   1
_chemical_formula_structural   La4NdU5O19
_chemical_formula_sum   'La4 Nd1 U5 O19'
_cell_volume   429.94755123
_cell_formula_units_Z   1
loop_
 _symmetry_equiv_pos_site_id
 _symmetry_equiv_pos_as_xyz
  1  'x, y, z'
loop_
 _atom_site_type_symbol
 _atom_site_label
 _atom_site_symmetry_multiplicity
 _atom_site_fract_x
 _atom_site_fract_y
 _atom_site_fract_z
 _atom_site_occupancy
  La  La0  1  0.800469  0.099802  0.602765  1
  La  La1  1  0.387675  0.296110  0.798971  1
  La  La2  1  0.605918  0.702089  0.203237  1
  La  La3  1  0.999270  0.500201  0.998684  1
  Nd  Nd4  1  0.208648  0.914280  0.387106  1
  U  U5  1  0.779452  0.597800  0.600135  1
  U  U6  1  0.604626  0.203291  0.196436  1
  U  U7  1  0.999036  0.003713  0.998987  1
  U  U8  1  0.409704  0.809327  0.814616  1
  U  U9  1  0.199435  0.388511  0.390228  1
  O  O10  1  0.342853  0.056627  0.954032  1
  O  O11  1  0.426666  0.984825  0.650958  1
  O  O12  1  0.040377  0.213099  0.859505  1
  O  O13  1  0.726163  0.388180  0.733214  1
  O  O14  1  0.148746  0.182713  0.531143  1
  O  O15  1  0.358871  0.597508  0.951486  1
  O  O16  1  0.953114  0.267199  0.162178  1
  O  O17  1  0.904281  0.396241  0.464467  1
  O  O18  1  0.747753  0.859500  0.763187  1
  O  O19  1  0.546687  0.455539  0.363296  1
  O  O20  1  0.405179  0.555013  0.631464  1
  O  O21  1  0.255656  0.133796  0.235086  1
  O  O22  1  0.063363  0.715834  0.792224  1
  O  O23  1  0.644786  0.407833  0.059738  1
  O  O24  1  0.868898  0.799704  0.465671  1
  O  O25  1  0.246995  0.617749  0.278792  1
  O  O26  1  0.958098  0.789122  0.128182  1
  O  O27  1  0.570558  0.006225  0.345635  1
  O  O28  1  0.660641  0.945814  0.046816  1
