# generated using pymatgen
data_La8YThRu4
_symmetry_space_group_name_H-M   'P 1'
_cell_length_a   6.67789989
_cell_length_b   7.29210384
_cell_length_c   9.15003872
_cell_angle_alpha   94.57820761
_cell_angle_beta   111.40211011
_cell_angle_gamma   90.00000850
_symmetry_Int_Tables_number   1
_chemical_formula_structural   La8YThRu4
_chemical_formula_sum   'La8 Y1 Th1 Ru4'
_cell_volume   413.31695375
_cell_formula_units_Z   1
loop_
 _symmetry_equiv_pos_site_id
 _symmetry_equiv_pos_as_xyz
  1  'x, y, z'
loop_
 _atom_site_type_symbol
 _atom_site_label
 _atom_site_symmetry_multiplicity
 _atom_site_fract_x
 _atom_site_fract_y
 _atom_site_fract_z
 _atom_site_occupancy
  La  La0  1  0.987336  0.909346  0.183516  1
  La  La1  1  0.803820  0.590654  0.816484  1
  La  La2  1  0.015960  0.094060  0.817861  1
  La  La3  1  0.198100  0.405940  0.182139  1
  La  La4  1  0.639179  0.819962  0.425692  1
  La  La5  1  0.213486  0.680038  0.574308  1
  La  La6  1  0.363095  0.180734  0.576247  1
  La  La7  1  0.786847  0.319266  0.423753  1
  Y  Y8  1  0.570654  0.250000  0.000000  1
  Th  Th9  1  0.434621  0.750000  0.000000  1
  Ru  Ru10  1  0.805318  0.583174  0.209031  1
  Ru  Ru11  1  0.596288  0.916826  0.790969  1
  Ru  Ru12  1  0.186376  0.431774  0.787456  1
  Ru  Ru13  1  0.398920  0.068226  0.212544  1
