# generated using pymatgen
data_CaYb6PrBi6
_symmetry_space_group_name_H-M   'P 1'
_cell_length_a   8.42937203
_cell_length_b   8.41565153
_cell_length_c   8.36524408
_cell_angle_alpha   109.34367891
_cell_angle_beta   109.37058323
_cell_angle_gamma   109.61006298
_symmetry_Int_Tables_number   1
_chemical_formula_structural   CaYb6PrBi6
_chemical_formula_sum   'Ca1 Yb6 Pr1 Bi6'
_cell_volume   457.31501388
_cell_formula_units_Z   1
loop_
 _symmetry_equiv_pos_site_id
 _symmetry_equiv_pos_as_xyz
  1  'x, y, z'
loop_
 _atom_site_type_symbol
 _atom_site_label
 _atom_site_symmetry_multiplicity
 _atom_site_fract_x
 _atom_site_fract_y
 _atom_site_fract_z
 _atom_site_occupancy
  Ca  Ca0  1  0.147102  0.500242  0.000290  1
  Yb  Yb1  1  0.500240  0.000350  0.146590  1
  Yb  Yb2  1  0.646125  0.502490  0.002110  1
  Yb  Yb3  1  0.997454  0.643571  0.499519  1
  Yb  Yb4  1  0.856518  0.853852  0.856077  1
  Yb  Yb5  1  0.999844  0.146947  0.499735  1
  Yb  Yb6  1  0.352991  0.352504  0.353037  1
  Pr  Pr7  1  0.500627  0.000226  0.643265  1
  Bi  Bi8  1  0.627284  0.749858  0.376728  1
  Bi  Bi9  1  0.749598  0.376936  0.625966  1
  Bi  Bi10  1  0.251423  0.124546  0.874435  1
  Bi  Bi11  1  0.375238  0.626681  0.749444  1
  Bi  Bi12  1  0.122463  0.873534  0.249573  1
  Bi  Bi13  1  0.873091  0.248267  0.123230  1
