# generated using pymatgen
data_Y5Pt9
_symmetry_space_group_name_H-M   'P 1'
_cell_length_a   9.80952800
_cell_length_b   9.80952800
_cell_length_c   5.79129600
_cell_angle_alpha   90.00000000
_cell_angle_beta   90.00000000
_cell_angle_gamma   90.00000000
_symmetry_Int_Tables_number   1
_chemical_formula_structural   Y5Pt9
_chemical_formula_sum   'Y10 Pt18'
_cell_volume   557.27811117
_cell_formula_units_Z   2
loop_
 _symmetry_equiv_pos_site_id
 _symmetry_equiv_pos_as_xyz
  1  'x, y, z'
loop_
 _atom_site_type_symbol
 _atom_site_label
 _atom_site_symmetry_multiplicity
 _atom_site_fract_x
 _atom_site_fract_y
 _atom_site_fract_z
 _atom_site_occupancy
  Y  Y0  1  0.452066  0.809425  0.000000  1
  Y  Y1  1  0.547934  0.190575  0.000000  1
  Y  Y2  1  0.190575  0.547934  0.000000  1
  Y  Y3  1  0.809425  0.452066  0.000000  1
  Y  Y4  1  0.500000  0.500000  0.500000  1
  Y  Y5  1  0.309425  0.047934  0.500000  1
  Y  Y6  1  0.690575  0.952066  0.500000  1
  Y  Y7  1  0.952066  0.690575  0.500000  1
  Y  Y8  1  0.047934  0.309425  0.500000  1
  Y  Y9  1  0.000000  0.000000  0.000000  1
  Pt  Pt10  1  0.191324  0.808676  0.250807  1
  Pt  Pt11  1  0.808676  0.191324  0.749193  1
  Pt  Pt12  1  0.808676  0.191324  0.250807  1
  Pt  Pt13  1  0.191324  0.808676  0.749193  1
  Pt  Pt14  1  0.439146  0.781492  0.500000  1
  Pt  Pt15  1  0.560854  0.218508  0.500000  1
  Pt  Pt16  1  0.218508  0.560854  0.500000  1
  Pt  Pt17  1  0.781492  0.439146  0.500000  1
  Pt  Pt18  1  0.308676  0.308676  0.249193  1
  Pt  Pt19  1  0.691324  0.691324  0.750807  1
  Pt  Pt20  1  0.691324  0.691324  0.249193  1
  Pt  Pt21  1  0.308676  0.308676  0.750807  1
  Pt  Pt22  1  0.281492  0.060854  0.000000  1
  Pt  Pt23  1  0.718508  0.939146  0.000000  1
  Pt  Pt24  1  0.939146  0.718508  0.000000  1
  Pt  Pt25  1  0.060854  0.281492  0.000000  1
  Pt  Pt26  1  0.000000  0.000000  0.500000  1
  Pt  Pt27  1  0.500000  0.500000  0.000000  1
