# generated using pymatgen
data_Ho2ZnIr2
_symmetry_space_group_name_H-M   'P 1'
_cell_length_a   5.46178306
_cell_length_b   5.46178300
_cell_length_c   5.46178311
_cell_angle_alpha   135.30415404
_cell_angle_beta   115.14047328
_cell_angle_gamma   82.20150771
_symmetry_Int_Tables_number   1
_chemical_formula_structural   Ho2ZnIr2
_chemical_formula_sum   'Ho2 Zn1 Ir2'
_cell_volume   100.13919608
_cell_formula_units_Z   1
loop_
 _symmetry_equiv_pos_site_id
 _symmetry_equiv_pos_as_xyz
  1  'x, y, z'
loop_
 _atom_site_type_symbol
 _atom_site_label
 _atom_site_symmetry_multiplicity
 _atom_site_fract_x
 _atom_site_fract_y
 _atom_site_fract_z
 _atom_site_occupancy
  Ho  Ho0  1  0.703559  0.203558  0.500001  1
  Ho  Ho1  1  0.296441  0.796440  0.499999  1
  Zn  Zn2  1  0.000000  0.000000  0.000000  1
  Ir  Ir3  1  0.730099  0.499999  0.230099  1
  Ir  Ir4  1  0.269901  0.499999  0.769900  1
