# generated using pymatgen
data_Ba6CrFe3(OsO9)2
_symmetry_space_group_name_H-M   'P 1'
_cell_length_a   5.82816200
_cell_length_b   5.82815997
_cell_length_c   14.30117700
_cell_angle_alpha   90.00007763
_cell_angle_beta   89.99994246
_cell_angle_gamma   120.00000172
_symmetry_Int_Tables_number   1
_chemical_formula_structural   Ba6CrFe3(OsO9)2
_chemical_formula_sum   'Ba6 Cr1 Fe3 Os2 O18'
_cell_volume   420.69319225
_cell_formula_units_Z   1
loop_
 _symmetry_equiv_pos_site_id
 _symmetry_equiv_pos_as_xyz
  1  'x, y, z'
loop_
 _atom_site_type_symbol
 _atom_site_label
 _atom_site_symmetry_multiplicity
 _atom_site_fract_x
 _atom_site_fract_y
 _atom_site_fract_z
 _atom_site_occupancy
  Ba  Ba0  1  0.666666  0.333333  0.588370  1
  Ba  Ba1  1  0.333333  0.666668  0.405784  1
  Ba  Ba2  1  0.333334  0.666668  0.088988  1
  Ba  Ba3  1  0.666668  0.333334  0.906240  1
  Ba  Ba4  1  0.000000  0.000000  0.752491  1
  Ba  Ba5  1  0.000000  0.000000  0.253474  1
  Cr  Cr6  1  0.999999  0.999993  0.495981  1
  Fe  Fe7  1  0.000000  0.000001  0.993470  1
  Fe  Fe8  1  0.666666  0.333332  0.355454  1
  Fe  Fe9  1  0.333334  0.666666  0.853765  1
  Os  Os10  1  0.333334  0.666666  0.658268  1
  Os  Os11  1  0.666666  0.333334  0.159259  1
  O  O12  1  0.484672  0.969343  0.744101  1
  O  O13  1  0.484671  0.515328  0.744101  1
  O  O14  1  0.030658  0.515329  0.744101  1
  O  O15  1  0.514954  0.029909  0.244436  1
  O  O16  1  0.514954  0.485046  0.244436  1
  O  O17  1  0.970092  0.485046  0.244436  1
  O  O18  1  0.170308  0.340618  0.584294  1
  O  O19  1  0.170309  0.829692  0.584294  1
  O  O20  1  0.659382  0.829692  0.584293  1
  O  O21  1  0.835914  0.671828  0.419240  1
  O  O22  1  0.835914  0.164086  0.419239  1
  O  O23  1  0.328171  0.164086  0.419239  1
  O  O24  1  0.829034  0.658067  0.084527  1
  O  O25  1  0.829034  0.170967  0.084527  1
  O  O26  1  0.341933  0.170967  0.084527  1
  O  O27  1  0.164906  0.329812  0.919517  1
  O  O28  1  0.164906  0.835094  0.919517  1
  O  O29  1  0.670188  0.835094  0.919517  1
