# generated using pymatgen
data_Th3Ge2Ir3Au
_symmetry_space_group_name_H-M   'P 1'
_cell_length_a   7.34212269
_cell_length_b   7.34212263
_cell_length_c   3.97174000
_cell_angle_alpha   90.00000000
_cell_angle_beta   90.00000000
_cell_angle_gamma   117.47691980
_symmetry_Int_Tables_number   1
_chemical_formula_structural   Th3Ge2Ir3Au
_chemical_formula_sum   'Th3 Ge2 Ir3 Au1'
_cell_volume   189.95207057
_cell_formula_units_Z   1
loop_
 _symmetry_equiv_pos_site_id
 _symmetry_equiv_pos_as_xyz
  1  'x, y, z'
loop_
 _atom_site_type_symbol
 _atom_site_label
 _atom_site_symmetry_multiplicity
 _atom_site_fract_x
 _atom_site_fract_y
 _atom_site_fract_z
 _atom_site_occupancy
  Th  Th0  1  0.413261  0.413261  0.500000  1
  Th  Th1  1  0.595705  0.993064  0.500000  1
  Th  Th2  1  0.993064  0.595705  0.500000  1
  Ge  Ge3  1  0.248808  0.999101  0.000000  1
  Ge  Ge4  1  0.999101  0.248808  0.000000  1
  Ir  Ir5  1  0.658120  0.307894  0.000000  1
  Ir  Ir6  1  0.307894  0.658120  0.000000  1
  Ir  Ir7  1  0.037174  0.037174  0.500000  1
  Au  Au8  1  0.746872  0.746872  0.000000  1
