# generated using pymatgen
data_Hf8Ti8Nb4Si7Ge9
_symmetry_space_group_name_H-M   'P 1'
_cell_length_a   6.72713805
_cell_length_b   6.85610105
_cell_length_c   13.09380600
_cell_angle_alpha   90.00000000
_cell_angle_beta   90.00000000
_cell_angle_gamma   89.98592000
_symmetry_Int_Tables_number   1
_chemical_formula_structural   Hf8Ti8Nb4Si7Ge9
_chemical_formula_sum   'Hf8 Ti8 Nb4 Si7 Ge9'
_cell_volume   603.91169375
_cell_formula_units_Z   1
loop_
 _symmetry_equiv_pos_site_id
 _symmetry_equiv_pos_as_xyz
  1  'x, y, z'
loop_
 _atom_site_type_symbol
 _atom_site_label
 _atom_site_symmetry_multiplicity
 _atom_site_fract_x
 _atom_site_fract_y
 _atom_site_fract_z
 _atom_site_occupancy
  Hf  Hf0  1  0.492536  0.676141  0.598748  1
  Hf  Hf1  1  0.992286  0.824364  0.901607  1
  Hf  Hf2  1  0.504990  0.324378  0.097310  1
  Hf  Hf3  1  0.010722  0.173007  0.403661  1
  Hf  Hf4  1  0.504990  0.324378  0.402690  1
  Hf  Hf5  1  0.010722  0.173007  0.096339  1
  Hf  Hf6  1  0.492536  0.676141  0.901252  1
  Hf  Hf7  1  0.992286  0.824364  0.598393  1
  Ti  Ti8  1  0.657128  0.170136  0.626589  1
  Ti  Ti9  1  0.156901  0.329797  0.873398  1
  Ti  Ti10  1  0.342181  0.830375  0.126166  1
  Ti  Ti11  1  0.843335  0.672300  0.373891  1
  Ti  Ti12  1  0.342181  0.830375  0.373834  1
  Ti  Ti13  1  0.843335  0.672300  0.126109  1
  Ti  Ti14  1  0.657128  0.170136  0.873411  1
  Ti  Ti15  1  0.156901  0.329797  0.626602  1
  Nb  Nb16  1  0.828161  0.495990  0.750000  1
  Nb  Nb17  1  0.328408  0.003871  0.750000  1
  Nb  Nb18  1  0.174549  0.505167  0.250000  1
  Nb  Nb19  1  0.670917  0.992407  0.250000  1
  Si  Si20  1  0.452938  0.382028  0.750000  1
  Si  Si21  1  0.952785  0.118173  0.750000  1
  Si  Si22  1  0.545006  0.620553  0.250000  1
  Si  Si23  1  0.047342  0.882263  0.250000  1
  Si  Si24  1  0.697424  0.866151  0.750000  1
  Si  Si25  1  0.196978  0.633940  0.750000  1
  Si  Si26  1  0.303056  0.134344  0.250000  1
  Ge  Ge27  1  0.683628  0.960035  0.463111  1
  Ge  Ge28  1  0.182939  0.541074  0.036954  1
  Ge  Ge29  1  0.316400  0.040477  0.962238  1
  Ge  Ge30  1  0.816003  0.459295  0.537009  1
  Ge  Ge31  1  0.316400  0.040477  0.537762  1
  Ge  Ge32  1  0.816003  0.459295  0.962991  1
  Ge  Ge33  1  0.683628  0.960035  0.036889  1
  Ge  Ge34  1  0.182939  0.541074  0.463046  1
  Ge  Ge35  1  0.804335  0.362351  0.250000  1
