# generated using pymatgen
data_Tm16Tl3In(NiIr)2
_symmetry_space_group_name_H-M   'P 1'
_cell_length_a   9.50386342
_cell_length_b   9.50781911
_cell_length_c   9.50784226
_cell_angle_alpha   60.36077607
_cell_angle_beta   60.10105315
_cell_angle_gamma   60.09266870
_symmetry_Int_Tables_number   1
_chemical_formula_structural   Tm16Tl3In(NiIr)2
_chemical_formula_sum   'Tm16 Tl3 In1 Ni2 Ir2'
_cell_volume   610.03672218
_cell_formula_units_Z   1
loop_
 _symmetry_equiv_pos_site_id
 _symmetry_equiv_pos_as_xyz
  1  'x, y, z'
loop_
 _atom_site_type_symbol
 _atom_site_label
 _atom_site_symmetry_multiplicity
 _atom_site_fract_x
 _atom_site_fract_y
 _atom_site_fract_z
 _atom_site_occupancy
  Tm  Tm0  1  0.057755  0.058563  0.437124  1
  Tm  Tm1  1  0.648129  0.047907  0.652276  1
  Tm  Tm2  1  0.190857  0.808402  0.186730  1
  Tm  Tm3  1  0.439346  0.063629  0.435963  1
  Tm  Tm4  1  0.190814  0.187033  0.808241  1
  Tm  Tm5  1  0.650513  0.654576  0.654531  1
  Tm  Tm6  1  0.049835  0.650033  0.649998  1
  Tm  Tm7  1  0.438342  0.061067  0.061062  1
  Tm  Tm8  1  0.647711  0.652168  0.048081  1
  Tm  Tm9  1  0.188297  0.811758  0.811707  1
  Tm  Tm10  1  0.813099  0.187141  0.810826  1
  Tm  Tm11  1  0.808016  0.189454  0.189365  1
  Tm  Tm12  1  0.812960  0.810811  0.187419  1
  Tm  Tm13  1  0.062055  0.438871  0.438810  1
  Tm  Tm14  1  0.439391  0.435749  0.063613  1
  Tm  Tm15  1  0.057471  0.437643  0.058406  1
  Tl  Tl16  1  0.756556  0.414480  0.414669  1
  Tl  Tl17  1  0.415191  0.413797  0.757429  1
  Tl  Tl18  1  0.415163  0.757408  0.413900  1
  In  In19  1  0.417262  0.415951  0.415838  1
  Ni  Ni20  1  0.856686  0.856905  0.857994  1
  Ni  Ni21  1  0.424506  0.860443  0.859885  1
  Ir  Ir22  1  0.860134  0.860286  0.425879  1
  Ir  Ir23  1  0.859915  0.425926  0.860255  1
