# generated using pymatgen
data_Ho4GeRu6W
_symmetry_space_group_name_H-M   'P 1'
_cell_length_a   5.57300400
_cell_length_b   5.16226574
_cell_length_c   9.00473300
_cell_angle_alpha   90.00000000
_cell_angle_beta   90.00000000
_cell_angle_gamma   122.71098398
_symmetry_Int_Tables_number   1
_chemical_formula_structural   Ho4GeRu6W
_chemical_formula_sum   'Ho4 Ge1 Ru6 W1'
_cell_volume   217.97504478
_cell_formula_units_Z   1
loop_
 _symmetry_equiv_pos_site_id
 _symmetry_equiv_pos_as_xyz
  1  'x, y, z'
loop_
 _atom_site_type_symbol
 _atom_site_label
 _atom_site_symmetry_multiplicity
 _atom_site_fract_x
 _atom_site_fract_y
 _atom_site_fract_z
 _atom_site_occupancy
  Ho  Ho0  1  0.674794  0.349815  0.564717  1
  Ho  Ho1  1  0.332618  0.665120  0.431640  1
  Ho  Ho2  1  0.332618  0.665120  0.068360  1
  Ho  Ho3  1  0.674794  0.349815  0.935283  1
  Ge  Ge4  1  0.829593  0.658564  0.250000  1
  Ru  Ru5  1  0.011039  0.021802  0.498198  1
  Ru  Ru6  1  0.011039  0.021802  0.001802  1
  Ru  Ru7  1  0.174066  0.816678  0.750000  1
  Ru  Ru8  1  0.642280  0.816889  0.750000  1
  Ru  Ru9  1  0.824416  0.164224  0.250000  1
  Ru  Ru10  1  0.339336  0.163486  0.250000  1
  W  W11  1  0.153408  0.306686  0.750000  1
