# generated using pymatgen
data_SmDy(Sb5O13)2
_symmetry_space_group_name_H-M   'P 1'
_cell_length_a   7.43836463
_cell_length_b   7.38122925
_cell_length_c   10.31527738
_cell_angle_alpha   88.88605862
_cell_angle_beta   90.21556250
_cell_angle_gamma   90.12920681
_symmetry_Int_Tables_number   1
_chemical_formula_structural   SmDy(Sb5O13)2
_chemical_formula_sum   'Sm1 Dy1 Sb10 O26'
_cell_volume   566.24043087
_cell_formula_units_Z   1
loop_
 _symmetry_equiv_pos_site_id
 _symmetry_equiv_pos_as_xyz
  1  'x, y, z'
loop_
 _atom_site_type_symbol
 _atom_site_label
 _atom_site_symmetry_multiplicity
 _atom_site_fract_x
 _atom_site_fract_y
 _atom_site_fract_z
 _atom_site_occupancy
  Sm  Sm0  1  0.500000  0.500000  0.000000  1
  Dy  Dy1  1  0.000000  0.500000  0.000000  1
  Sb  Sb2  1  0.247076  0.730292  0.728656  1
  Sb  Sb3  1  0.752924  0.269708  0.271344  1
  Sb  Sb4  1  0.500000  0.000000  0.000000  1
  Sb  Sb5  1  0.750213  0.758157  0.748457  1
  Sb  Sb6  1  0.248965  0.748848  0.252675  1
  Sb  Sb7  1  0.500000  0.500000  0.500000  1
  Sb  Sb8  1  0.000000  0.500000  0.500000  1
  Sb  Sb9  1  0.751035  0.251152  0.747325  1
  Sb  Sb10  1  0.249787  0.241843  0.251543  1
  Sb  Sb11  1  0.000000  0.000000  0.000000  1
  O  O12  1  0.447631  0.689696  0.372109  1
  O  O13  1  0.756094  0.454703  0.130998  1
  O  O14  1  0.247109  0.493774  0.162149  1
  O  O15  1  0.453779  0.309574  0.366227  1
  O  O16  1  0.558337  0.212992  0.883699  1
  O  O17  1  0.942536  0.215553  0.885353  1
  O  O18  1  0.448398  0.205925  0.121703  1
  O  O19  1  0.750358  0.999714  0.072646  1
  O  O20  1  0.249642  0.000286  0.927354  1
  O  O21  1  0.750986  0.003625  0.683604  1
  O  O22  1  0.551602  0.794075  0.878297  1
  O  O23  1  0.947860  0.793184  0.879407  1
  O  O24  1  0.441663  0.787008  0.116301  1
  O  O25  1  0.051791  0.690261  0.372631  1
  O  O26  1  0.546221  0.690426  0.633773  1
  O  O27  1  0.955062  0.691479  0.633805  1
  O  O28  1  0.250130  0.518913  0.580491  1
  O  O29  1  0.752891  0.506226  0.837851  1
  O  O30  1  0.749870  0.481087  0.419509  1
  O  O31  1  0.044938  0.308521  0.366195  1
  O  O32  1  0.552369  0.310304  0.627891  1
  O  O33  1  0.948209  0.309739  0.627369  1
  O  O34  1  0.052140  0.206816  0.120593  1
  O  O35  1  0.249014  0.996375  0.316396  1
  O  O36  1  0.057464  0.784447  0.114647  1
  O  O37  1  0.243906  0.545297  0.869002  1
