# generated using pymatgen
data_Li2Ta(PPd)3
_symmetry_space_group_name_H-M   'P 1'
_cell_length_a   6.48358230
_cell_length_b   6.48358263
_cell_length_c   3.58043500
_cell_angle_alpha   90.00000000
_cell_angle_beta   90.00000000
_cell_angle_gamma   118.09618805
_symmetry_Int_Tables_number   1
_chemical_formula_structural   Li2Ta(PPd)3
_chemical_formula_sum   'Li2 Ta1 P3 Pd3'
_cell_volume   132.77378870
_cell_formula_units_Z   1
loop_
 _symmetry_equiv_pos_site_id
 _symmetry_equiv_pos_as_xyz
  1  'x, y, z'
loop_
 _atom_site_type_symbol
 _atom_site_label
 _atom_site_symmetry_multiplicity
 _atom_site_fract_x
 _atom_site_fract_y
 _atom_site_fract_z
 _atom_site_occupancy
  Li  Li0  1  0.592994  0.993525  0.000000  1
  Li  Li1  1  0.993525  0.592994  0.000000  1
  Ta  Ta2  1  0.399463  0.399463  0.000000  1
  P  P3  1  0.337543  0.646842  0.500000  1
  P  P4  1  0.646842  0.337543  0.500000  1
  P  P5  1  0.020720  0.020720  0.000000  1
  Pd  Pd6  1  0.264762  0.978719  0.500000  1
  Pd  Pd7  1  0.978719  0.264762  0.500000  1
  Pd  Pd8  1  0.765431  0.765431  0.500000  1
