# generated using pymatgen
data_Lu2TcOs2Ru
_symmetry_space_group_name_H-M   'P 1'
_cell_length_a   5.26053165
_cell_length_b   5.17223570
_cell_length_c   8.94626100
_cell_angle_alpha   90.00000000
_cell_angle_beta   90.00000000
_cell_angle_gamma   119.44628257
_symmetry_Int_Tables_number   1
_chemical_formula_structural   Lu2TcOs2Ru
_chemical_formula_sum   'Lu4 Tc2 Os4 Ru2'
_cell_volume   211.97097602
_cell_formula_units_Z   2
loop_
 _symmetry_equiv_pos_site_id
 _symmetry_equiv_pos_as_xyz
  1  'x, y, z'
loop_
 _atom_site_type_symbol
 _atom_site_label
 _atom_site_symmetry_multiplicity
 _atom_site_fract_x
 _atom_site_fract_y
 _atom_site_fract_z
 _atom_site_occupancy
  Lu  Lu0  1  0.332641  0.666321  0.432579  1
  Lu  Lu1  1  0.668774  0.334387  0.564434  1
  Lu  Lu2  1  0.668774  0.334387  0.935566  1
  Lu  Lu3  1  0.332641  0.666321  0.067421  1
  Tc  Tc4  1  0.169282  0.341909  0.750000  1
  Tc  Tc5  1  0.169282  0.827375  0.750000  1
  Os  Os6  1  0.339976  0.169987  0.250000  1
  Os  Os7  1  0.827147  0.656934  0.250000  1
  Os  Os8  1  0.656790  0.828396  0.750000  1
  Os  Os9  1  0.827147  0.170211  0.250000  1
  Ru  Ru10  1  0.003773  0.001886  0.001757  1
  Ru  Ru11  1  0.003773  0.001886  0.498243  1
