# generated using pymatgen
data_LiBe9Pd2
_symmetry_space_group_name_H-M   'P 1'
_cell_length_a   7.42463577
_cell_length_b   7.42463546
_cell_length_c   7.42463511
_cell_angle_alpha   33.59117956
_cell_angle_beta   33.59118176
_cell_angle_gamma   33.59117949
_symmetry_Int_Tables_number   1
_chemical_formula_structural   LiBe9Pd2
_chemical_formula_sum   'Li1 Be9 Pd2'
_cell_volume   111.59797282
_cell_formula_units_Z   1
loop_
 _symmetry_equiv_pos_site_id
 _symmetry_equiv_pos_as_xyz
  1  'x, y, z'
loop_
 _atom_site_type_symbol
 _atom_site_label
 _atom_site_symmetry_multiplicity
 _atom_site_fract_x
 _atom_site_fract_y
 _atom_site_fract_z
 _atom_site_occupancy
  Li  Li0  1  0.625387  0.625387  0.625387  1
  Be  Be1  1  0.063820  0.563075  0.563075  1
  Be  Be2  1  0.560813  0.061864  0.061864  1
  Be  Be3  1  0.563075  0.563075  0.063820  1
  Be  Be4  1  0.061864  0.061864  0.560813  1
  Be  Be5  1  0.812300  0.812300  0.812300  1
  Be  Be6  1  0.312908  0.312908  0.312908  1
  Be  Be7  1  0.563075  0.063820  0.563075  1
  Be  Be8  1  0.061864  0.560813  0.061864  1
  Be  Be9  1  0.124061  0.124061  0.124061  1
  Pd  Pd10  1  0.002039  0.002039  0.002039  1
  Pd  Pd11  1  0.498793  0.498793  0.498793  1
