# generated using pymatgen
data_Tb4Pr16Si15Ru
_symmetry_space_group_name_H-M   'P 1'
_cell_length_a   7.86536399
_cell_length_b   7.83911860
_cell_length_c   15.30852200
_cell_angle_alpha   90.22839089
_cell_angle_beta   89.84713316
_cell_angle_gamma   90.15995887
_symmetry_Int_Tables_number   1
_chemical_formula_structural   Tb4Pr16Si15Ru
_chemical_formula_sum   'Tb4 Pr16 Si15 Ru1'
_cell_volume   943.87101038
_cell_formula_units_Z   1
loop_
 _symmetry_equiv_pos_site_id
 _symmetry_equiv_pos_as_xyz
  1  'x, y, z'
loop_
 _atom_site_type_symbol
 _atom_site_label
 _atom_site_symmetry_multiplicity
 _atom_site_fract_x
 _atom_site_fract_y
 _atom_site_fract_z
 _atom_site_occupancy
  Tb  Tb0  1  0.306437  0.306774  0.999244  1
  Tb  Tb1  1  0.190839  0.808085  0.250351  1
  Tb  Tb2  1  0.822816  0.189851  0.749306  1
  Tb  Tb3  1  0.694064  0.690965  0.501544  1
  Pr  Pr4  1  0.375367  0.013838  0.448074  1
  Pr  Pr5  1  0.484701  0.881466  0.695706  1
  Pr  Pr6  1  0.513470  0.121361  0.196111  1
  Pr  Pr7  1  0.878580  0.485616  0.303013  1
  Pr  Pr8  1  0.124257  0.505016  0.800422  1
  Pr  Pr9  1  0.622811  0.987004  0.945589  1
  Pr  Pr10  1  0.008733  0.380392  0.554924  1
  Pr  Pr11  1  0.986044  0.622215  0.053555  1
  Pr  Pr12  1  0.132291  0.980632  0.873765  1
  Pr  Pr13  1  0.522356  0.627828  0.127572  1
  Pr  Pr14  1  0.468803  0.362672  0.631455  1
  Pr  Pr15  1  0.625736  0.520453  0.872712  1
  Pr  Pr16  1  0.375889  0.477933  0.371865  1
  Pr  Pr17  1  0.875182  0.025948  0.378175  1
  Pr  Pr18  1  0.976659  0.125041  0.122531  1
  Pr  Pr19  1  0.029967  0.883894  0.624910  1
  Si  Si20  1  0.328311  0.687816  0.956680  1
  Si  Si21  1  0.668936  0.311648  0.458645  1
  Si  Si22  1  0.689436  0.329492  0.043844  1
  Si  Si23  1  0.311219  0.671338  0.542060  1
  Si  Si24  1  0.813182  0.827543  0.209141  1
  Si  Si25  1  0.172994  0.189021  0.291924  1
  Si  Si26  1  0.828568  0.808666  0.793427  1
  Si  Si27  1  0.285956  0.921096  0.062085  1
  Si  Si28  1  0.580526  0.785102  0.313888  1
  Si  Si29  1  0.422806  0.210852  0.815375  1
  Si  Si30  1  0.776795  0.584425  0.686607  1
  Si  Si31  1  0.213369  0.421262  0.186652  1
  Si  Si32  1  0.708204  0.074500  0.561686  1
  Si  Si33  1  0.919548  0.285364  0.937907  1
  Si  Si34  1  0.081128  0.717850  0.437246  1
  Ru  Ru35  1  0.184021  0.177040  0.702005  1
