# generated using pymatgen
data_Ta4Mn5CrGa2
_symmetry_space_group_name_H-M   'P 1'
_cell_length_a   4.85052905
_cell_length_b   4.85053013
_cell_length_c   8.08321000
_cell_angle_alpha   90.00000000
_cell_angle_beta   90.00000000
_cell_angle_gamma   118.91842146
_symmetry_Int_Tables_number   1
_chemical_formula_structural   Ta4Mn5CrGa2
_chemical_formula_sum   'Ta4 Mn5 Cr1 Ga2'
_cell_volume   166.46526305
_cell_formula_units_Z   1
loop_
 _symmetry_equiv_pos_site_id
 _symmetry_equiv_pos_as_xyz
  1  'x, y, z'
loop_
 _atom_site_type_symbol
 _atom_site_label
 _atom_site_symmetry_multiplicity
 _atom_site_fract_x
 _atom_site_fract_y
 _atom_site_fract_z
 _atom_site_occupancy
  Ta  Ta0  1  0.333749  0.666251  0.434947  1
  Ta  Ta1  1  0.666248  0.333752  0.933258  1
  Ta  Ta2  1  0.666248  0.333752  0.566742  1
  Ta  Ta3  1  0.333749  0.666251  0.065053  1
  Mn  Mn4  1  0.171325  0.347211  0.750000  1
  Mn  Mn5  1  0.175606  0.824394  0.750000  1
  Mn  Mn6  1  0.346470  0.170796  0.250000  1
  Mn  Mn7  1  0.829204  0.653530  0.250000  1
  Mn  Mn8  1  0.652789  0.828675  0.750000  1
  Cr  Cr9  1  0.822067  0.177933  0.250000  1
  Ga  Ga10  1  0.001273  0.998727  0.999002  1
  Ga  Ga11  1  0.001273  0.998727  0.500998  1
