# generated using pymatgen
data_CaHo2(SiIr2)3
_symmetry_space_group_name_H-M   'P 1'
_cell_length_a   5.57148400
_cell_length_b   5.57148391
_cell_length_c   15.13852100
_cell_angle_alpha   90.00000000
_cell_angle_beta   90.00000000
_cell_angle_gamma   120.00001241
_symmetry_Int_Tables_number   1
_chemical_formula_structural   CaHo2(SiIr2)3
_chemical_formula_sum   'Ca2 Ho4 Si6 Ir12'
_cell_volume   406.96381268
_cell_formula_units_Z   2
loop_
 _symmetry_equiv_pos_site_id
 _symmetry_equiv_pos_as_xyz
  1  'x, y, z'
loop_
 _atom_site_type_symbol
 _atom_site_label
 _atom_site_symmetry_multiplicity
 _atom_site_fract_x
 _atom_site_fract_y
 _atom_site_fract_z
 _atom_site_occupancy
  Ca  Ca0  1  0.333333  0.666667  0.750000  1
  Ca  Ca1  1  0.666667  0.333333  0.250000  1
  Ho  Ho2  1  0.333333  0.666667  0.542254  1
  Ho  Ho3  1  0.666667  0.333333  0.457746  1
  Ho  Ho4  1  0.666667  0.333333  0.042254  1
  Ho  Ho5  1  0.333333  0.666667  0.957746  1
  Si  Si6  1  0.000000  0.000000  0.250000  1
  Si  Si7  1  0.000000  0.000000  0.750000  1
  Si  Si8  1  0.333333  0.666667  0.250000  1
  Si  Si9  1  0.666667  0.333333  0.750000  1
  Si  Si10  1  0.000000  0.000000  0.000000  1
  Si  Si11  1  0.000000  0.000000  0.500000  1
  Ir  Ir12  1  0.167797  0.335595  0.128872  1
  Ir  Ir13  1  0.832203  0.664405  0.871128  1
  Ir  Ir14  1  0.664405  0.832203  0.128872  1
  Ir  Ir15  1  0.832203  0.664405  0.628872  1
  Ir  Ir16  1  0.335595  0.167797  0.871128  1
  Ir  Ir17  1  0.167797  0.335595  0.371128  1
  Ir  Ir18  1  0.167797  0.832203  0.128872  1
  Ir  Ir19  1  0.335595  0.167797  0.628872  1
  Ir  Ir20  1  0.832203  0.167797  0.871128  1
  Ir  Ir21  1  0.664405  0.832203  0.371128  1
  Ir  Ir22  1  0.832203  0.167797  0.628872  1
  Ir  Ir23  1  0.167797  0.832203  0.371128  1
