# generated using pymatgen
data_PrNd3(Sn5Pt3)2
_symmetry_space_group_name_H-M   'P 1'
_cell_length_a   13.66998200
_cell_length_b   13.66998172
_cell_length_c   7.52441100
_cell_angle_alpha   90.25558144
_cell_angle_beta   89.74441856
_cell_angle_gamma   160.90768856
_symmetry_Int_Tables_number   1
_chemical_formula_structural   PrNd3(Sn5Pt3)2
_chemical_formula_sum   'Pr1 Nd3 Sn10 Pt6'
_cell_volume   459.90979687
_cell_formula_units_Z   1
loop_
 _symmetry_equiv_pos_site_id
 _symmetry_equiv_pos_as_xyz
  1  'x, y, z'
loop_
 _atom_site_type_symbol
 _atom_site_label
 _atom_site_symmetry_multiplicity
 _atom_site_fract_x
 _atom_site_fract_y
 _atom_site_fract_z
 _atom_site_occupancy
  Pr  Pr0  1  0.522928  0.477072  0.262404  1
  Nd  Nd1  1  0.173555  0.826445  0.747054  1
  Nd  Nd2  1  0.826894  0.173106  0.247193  1
  Nd  Nd3  1  0.476654  0.523346  0.762009  1
  Sn  Sn4  1  0.879396  0.120604  0.765270  1
  Sn  Sn5  1  0.120619  0.879381  0.266023  1
  Sn  Sn6  1  0.702657  0.297343  0.450530  1
  Sn  Sn7  1  0.297318  0.702682  0.950002  1
  Sn  Sn8  1  0.599594  0.400406  0.892738  1
  Sn  Sn9  1  0.400486  0.599514  0.394875  1
  Sn  Sn10  1  0.951784  0.048216  0.100796  1
  Sn  Sn11  1  0.047980  0.952020  0.603023  1
  Sn  Sn12  1  0.289627  0.710373  0.520997  1
  Sn  Sn13  1  0.710196  0.289804  0.020893  1
  Pt  Pt14  1  0.051482  0.948518  0.977375  1
  Pt  Pt15  1  0.948951  0.051049  0.479216  1
  Pt  Pt16  1  0.776119  0.223881  0.726280  1
  Pt  Pt17  1  0.223963  0.776037  0.226565  1
  Pt  Pt18  1  0.396030  0.603970  0.025563  1
  Pt  Pt19  1  0.603768  0.396232  0.525192  1
