# generated using pymatgen
data_Ba2P2IrPd
_symmetry_space_group_name_H-M   'P 1'
_cell_length_a   6.59559200
_cell_length_b   6.61106341
_cell_length_c   6.60426434
_cell_angle_alpha   90.17121093
_cell_angle_beta   90.00000000
_cell_angle_gamma   90.00000000
_symmetry_Int_Tables_number   1
_chemical_formula_structural   Ba2P2IrPd
_chemical_formula_sum   'Ba4 P4 Ir2 Pd2'
_cell_volume   287.97024388
_cell_formula_units_Z   2
loop_
 _symmetry_equiv_pos_site_id
 _symmetry_equiv_pos_as_xyz
  1  'x, y, z'
loop_
 _atom_site_type_symbol
 _atom_site_label
 _atom_site_symmetry_multiplicity
 _atom_site_fract_x
 _atom_site_fract_y
 _atom_site_fract_z
 _atom_site_occupancy
  Ba  Ba0  1  0.618474  0.385148  0.878251  1
  Ba  Ba1  1  0.381008  0.877304  0.617827  1
  Ba  Ba2  1  0.118474  0.114852  0.121749  1
  Ba  Ba3  1  0.881008  0.622696  0.382173  1
  P  P4  1  0.159779  0.331552  0.646968  1
  P  P5  1  0.659779  0.168448  0.353032  1
  P  P6  1  0.340270  0.652570  0.169466  1
  P  P7  1  0.840270  0.847430  0.830534  1
  Ir  Ir8  1  0.403378  0.401610  0.404693  1
  Ir  Ir9  1  0.903378  0.098390  0.595307  1
  Pd  Pd10  1  0.597091  0.906757  0.099630  1
  Pd  Pd11  1  0.097091  0.593243  0.900370  1
