# generated using pymatgen
data_GaMoF6
_symmetry_space_group_name_H-M   'P 1'
_cell_length_a   5.54632588
_cell_length_b   5.54632847
_cell_length_c   5.54632200
_cell_angle_alpha   56.06100632
_cell_angle_beta   56.06095431
_cell_angle_gamma   56.06099475
_symmetry_Int_Tables_number   1
_chemical_formula_structural   GaMoF6
_chemical_formula_sum   'Ga1 Mo1 F6'
_cell_volume   109.63644248
_cell_formula_units_Z   1
loop_
 _symmetry_equiv_pos_site_id
 _symmetry_equiv_pos_as_xyz
  1  'x, y, z'
loop_
 _atom_site_type_symbol
 _atom_site_label
 _atom_site_symmetry_multiplicity
 _atom_site_fract_x
 _atom_site_fract_y
 _atom_site_fract_z
 _atom_site_occupancy
  Ga  Ga0  1  0.000000  0.000000  0.000000  1
  Mo  Mo1  1  0.500000  0.500000  0.500000  1
  F  F2  1  0.889342  0.637002  0.235402  1
  F  F3  1  0.110658  0.362998  0.764598  1
  F  F4  1  0.764599  0.110657  0.362999  1
  F  F5  1  0.235401  0.889343  0.637001  1
  F  F6  1  0.637001  0.235401  0.889343  1
  F  F7  1  0.362999  0.764599  0.110657  1
