# generated using pymatgen
data_Pr9NdOs3Ru
_symmetry_space_group_name_H-M   'P 1'
_cell_length_a   8.91018294
_cell_length_b   8.91608381
_cell_length_c   7.50544387
_cell_angle_alpha   83.61167653
_cell_angle_beta   83.65559771
_cell_angle_gamma   44.12908960
_symmetry_Int_Tables_number   1
_chemical_formula_structural   Pr9NdOs3Ru
_chemical_formula_sum   'Pr9 Nd1 Os3 Ru1'
_cell_volume   412.18109650
_cell_formula_units_Z   1
loop_
 _symmetry_equiv_pos_site_id
 _symmetry_equiv_pos_as_xyz
  1  'x, y, z'
loop_
 _atom_site_type_symbol
 _atom_site_label
 _atom_site_symmetry_multiplicity
 _atom_site_fract_x
 _atom_site_fract_y
 _atom_site_fract_z
 _atom_site_occupancy
  Pr  Pr0  1  0.020854  0.796057  0.914624  1
  Pr  Pr1  1  0.204714  0.978885  0.584896  1
  Pr  Pr2  1  0.980018  0.204816  0.084680  1
  Pr  Pr3  1  0.795771  0.021255  0.413737  1
  Pr  Pr4  1  0.359844  0.206679  0.815329  1
  Pr  Pr5  1  0.792879  0.641701  0.684876  1
  Pr  Pr6  1  0.640905  0.791621  0.185793  1
  Pr  Pr7  1  0.205265  0.360060  0.315831  1
  Pr  Pr8  1  0.574430  0.426006  0.748986  1
  Nd  Nd9  1  0.425837  0.574562  0.250455  1
  Os  Os10  1  0.176022  0.603504  0.574605  1
  Os  Os11  1  0.397731  0.822100  0.926396  1
  Os  Os12  1  0.822630  0.397616  0.424565  1
  Ru  Ru13  1  0.603102  0.175138  0.075227  1
