# generated using pymatgen
data_Y20Ir3Pt8Rh
_symmetry_space_group_name_H-M   'P 1'
_cell_length_a   11.11992300
_cell_length_b   11.11992300
_cell_length_c   6.35231400
_cell_angle_alpha   90.00000000
_cell_angle_beta   90.00000000
_cell_angle_gamma   90.00000000
_symmetry_Int_Tables_number   1
_chemical_formula_structural   Y20Ir3Pt8Rh
_chemical_formula_sum   'Y20 Ir3 Pt8 Rh1'
_cell_volume   785.48069811
_cell_formula_units_Z   1
loop_
 _symmetry_equiv_pos_site_id
 _symmetry_equiv_pos_as_xyz
  1  'x, y, z'
loop_
 _atom_site_type_symbol
 _atom_site_label
 _atom_site_symmetry_multiplicity
 _atom_site_fract_x
 _atom_site_fract_y
 _atom_site_fract_z
 _atom_site_occupancy
  Y  Y0  1  0.294317  0.087972  0.376013  1
  Y  Y1  1  0.294183  0.911867  0.873460  1
  Y  Y2  1  0.705817  0.088133  0.873460  1
  Y  Y3  1  0.705683  0.912028  0.376013  1
  Y  Y4  1  0.588133  0.794183  0.873460  1
  Y  Y5  1  0.587972  0.205683  0.376013  1
  Y  Y6  1  0.412028  0.794317  0.376013  1
  Y  Y7  1  0.411867  0.205817  0.873460  1
  Y  Y8  1  0.205330  0.412156  0.625353  1
  Y  Y9  1  0.205232  0.587998  0.125462  1
  Y  Y10  1  0.794768  0.412002  0.125462  1
  Y  Y11  1  0.794670  0.587844  0.625353  1
  Y  Y12  1  0.912002  0.705232  0.125462  1
  Y  Y13  1  0.912156  0.294670  0.625353  1
  Y  Y14  1  0.087844  0.705330  0.625353  1
  Y  Y15  1  0.087998  0.294768  0.125462  1
  Y  Y16  1  0.000000  0.000000  0.499988  1
  Y  Y17  1  0.000000  0.000000  0.000110  1
  Y  Y18  1  0.500000  0.500000  0.000110  1
  Y  Y19  1  0.500000  0.500000  0.499988  1
  Ir  Ir20  1  0.500000  0.000000  0.622182  1
  Ir  Ir21  1  0.000000  0.500000  0.878201  1
  Ir  Ir22  1  0.000000  0.500000  0.378157  1
  Pt  Pt23  1  0.845551  0.153656  0.249732  1
  Pt  Pt24  1  0.845862  0.846143  0.749816  1
  Pt  Pt25  1  0.154138  0.153857  0.749816  1
  Pt  Pt26  1  0.154449  0.846344  0.249732  1
  Pt  Pt27  1  0.653857  0.345862  0.749816  1
  Pt  Pt28  1  0.653656  0.654449  0.249732  1
  Pt  Pt29  1  0.346344  0.345551  0.249732  1
  Pt  Pt30  1  0.346143  0.654138  0.749816  1
  Rh  Rh31  1  0.500000  0.000000  0.121919  1
