# generated using pymatgen
data_Nb3Cu2SnN
_symmetry_space_group_name_H-M   'P 1'
_cell_length_a   8.36343500
_cell_length_b   8.36343578
_cell_length_c   8.36343500
_cell_angle_alpha   120.00000087
_cell_angle_beta   90.00000000
_cell_angle_gamma   120.00000087
_symmetry_Int_Tables_number   1
_chemical_formula_structural   Nb3Cu2SnN
_chemical_formula_sum   'Nb12 Cu8 Sn4 N4'
_cell_volume   413.65577249
_cell_formula_units_Z   4
loop_
 _symmetry_equiv_pos_site_id
 _symmetry_equiv_pos_as_xyz
  1  'x, y, z'
loop_
 _atom_site_type_symbol
 _atom_site_label
 _atom_site_symmetry_multiplicity
 _atom_site_fract_x
 _atom_site_fract_y
 _atom_site_fract_z
 _atom_site_occupancy
  Nb  Nb0  1  0.304242  0.750001  0.195758  1
  Nb  Nb1  1  0.945759  0.391516  0.195758  1
  Nb  Nb2  1  0.945759  0.750001  0.195758  1
  Nb  Nb3  1  0.695759  0.891516  0.445758  1
  Nb  Nb4  1  0.695759  0.250001  0.445758  1
  Nb  Nb5  1  0.054243  0.250001  0.445759  1
  Nb  Nb6  1  0.304242  0.108484  0.554243  1
  Nb  Nb7  1  0.304242  0.750001  0.554243  1
  Nb  Nb8  1  0.945759  0.750001  0.554243  1
  Nb  Nb9  1  0.695759  0.250001  0.804243  1
  Nb  Nb10  1  0.054242  0.608484  0.804243  1
  Nb  Nb11  1  0.054242  0.250001  0.804243  1
  Cu  Cu12  1  0.709477  0.918952  0.128430  1
  Cu  Cu13  1  0.290523  0.081047  0.209477  1
  Cu  Cu14  1  0.290523  0.418953  0.209477  1
  Cu  Cu15  1  0.628430  0.418953  0.209477  1
  Cu  Cu16  1  0.709477  0.581047  0.790523  1
  Cu  Cu17  1  0.709477  0.918952  0.790523  1
  Cu  Cu18  1  0.371570  0.581047  0.790523  1
  Cu  Cu19  1  0.290523  0.081047  0.871570  1
  Sn  Sn20  1  0.000000  0.000000  0.000000  1
  Sn  Sn21  1  0.500000  0.000000  0.000000  1
  Sn  Sn22  1  0.500000  0.500000  0.000000  1
  Sn  Sn23  1  0.500000  0.500000  0.500000  1
  N  N24  1  0.000000  0.500000  0.000000  1
  N  N25  1  0.000000  0.000000  0.500000  1
  N  N26  1  0.500000  0.000000  0.500000  1
  N  N27  1  0.000000  0.500000  0.500000  1
