# generated using pymatgen
data_Ho3P6Ir8Ru
_symmetry_space_group_name_H-M   'P 1'
_cell_length_a   3.97042100
_cell_length_b   11.18896900
_cell_length_c   12.72061900
_cell_angle_alpha   90.00000000
_cell_angle_beta   90.00000000
_cell_angle_gamma   90.00000000
_symmetry_Int_Tables_number   1
_chemical_formula_structural   Ho3P6Ir8Ru
_chemical_formula_sum   'Ho6 P12 Ir16 Ru2'
_cell_volume   565.11244945
_cell_formula_units_Z   2
loop_
 _symmetry_equiv_pos_site_id
 _symmetry_equiv_pos_as_xyz
  1  'x, y, z'
loop_
 _atom_site_type_symbol
 _atom_site_label
 _atom_site_symmetry_multiplicity
 _atom_site_fract_x
 _atom_site_fract_y
 _atom_site_fract_z
 _atom_site_occupancy
  Ho  Ho0  1  0.000000  0.500000  0.521891  1
  Ho  Ho1  1  0.500000  0.000000  0.478109  1
  Ho  Ho2  1  0.500000  0.818123  0.205834  1
  Ho  Ho3  1  0.500000  0.181877  0.205834  1
  Ho  Ho4  1  0.000000  0.681877  0.794166  1
  Ho  Ho5  1  0.000000  0.318123  0.794166  1
  P  P6  1  0.500000  0.316085  0.618658  1
  P  P7  1  0.500000  0.683915  0.618658  1
  P  P8  1  0.000000  0.183915  0.381342  1
  P  P9  1  0.000000  0.816085  0.381342  1
  P  P10  1  0.500000  0.500000  0.877731  1
  P  P11  1  0.000000  0.000000  0.122269  1
  P  P12  1  0.500000  0.843966  0.888971  1
  P  P13  1  0.500000  0.156034  0.888971  1
  P  P14  1  0.000000  0.656034  0.111029  1
  P  P15  1  0.000000  0.343966  0.111029  1
  P  P16  1  0.500000  0.500000  0.352738  1
  P  P17  1  0.000000  0.000000  0.647262  1
  Ir  Ir18  1  0.000000  0.500000  0.991854  1
  Ir  Ir19  1  0.500000  0.000000  0.008146  1
  Ir  Ir20  1  0.500000  0.297451  0.431164  1
  Ir  Ir21  1  0.500000  0.702549  0.431164  1
  Ir  Ir22  1  0.000000  0.202549  0.568836  1
  Ir  Ir23  1  0.000000  0.797451  0.568836  1
  Ir  Ir24  1  0.500000  0.871642  0.711591  1
  Ir  Ir25  1  0.500000  0.128358  0.711591  1
  Ir  Ir26  1  0.000000  0.628358  0.288409  1
  Ir  Ir27  1  0.000000  0.371642  0.288409  1
  Ir  Ir28  1  0.500000  0.332227  0.984635  1
  Ir  Ir29  1  0.500000  0.667773  0.984635  1
  Ir  Ir30  1  0.000000  0.167773  0.015365  1
  Ir  Ir31  1  0.000000  0.832227  0.015365  1
  Ir  Ir32  1  0.500000  0.500000  0.700464  1
  Ir  Ir33  1  0.000000  0.000000  0.299536  1
  Ru  Ru34  1  0.500000  0.500000  0.168361  1
  Ru  Ru35  1  0.000000  0.000000  0.831639  1
