# generated using pymatgen
data_Ho16MgNi4Ag3
_symmetry_space_group_name_H-M   'P 1'
_cell_length_a   9.41714314
_cell_length_b   9.44616697
_cell_length_c   9.44616700
_cell_angle_alpha   60.00000341
_cell_angle_beta   59.89799851
_cell_angle_gamma   59.89799617
_symmetry_Int_Tables_number   1
_chemical_formula_structural   Ho16MgNi4Ag3
_chemical_formula_sum   'Ho16 Mg1 Ni4 Ag3'
_cell_volume   593.25870140
_cell_formula_units_Z   1
loop_
 _symmetry_equiv_pos_site_id
 _symmetry_equiv_pos_as_xyz
  1  'x, y, z'
loop_
 _atom_site_type_symbol
 _atom_site_label
 _atom_site_symmetry_multiplicity
 _atom_site_fract_x
 _atom_site_fract_y
 _atom_site_fract_z
 _atom_site_occupancy
  Ho  Ho0  1  0.348857  0.347283  0.347283  1
  Ho  Ho1  1  0.348857  0.347283  0.956577  1
  Ho  Ho2  1  0.348857  0.956577  0.347283  1
  Ho  Ho3  1  0.946246  0.351251  0.351251  1
  Ho  Ho4  1  0.808253  0.190264  0.190264  1
  Ho  Ho5  1  0.187051  0.811969  0.811969  1
  Ho  Ho6  1  0.187051  0.811969  0.189012  1
  Ho  Ho7  1  0.808253  0.190264  0.811219  1
  Ho  Ho8  1  0.187051  0.189012  0.811969  1
  Ho  Ho9  1  0.808253  0.811219  0.190264  1
  Ho  Ho10  1  0.933299  0.565197  0.565197  1
  Ho  Ho11  1  0.564070  0.935773  0.935773  1
  Ho  Ho12  1  0.564070  0.935773  0.564386  1
  Ho  Ho13  1  0.933299  0.565197  0.936307  1
  Ho  Ho14  1  0.564070  0.564386  0.935773  1
  Ho  Ho15  1  0.933299  0.936307  0.565197  1
  Mg  Mg16  1  0.285581  0.571472  0.571472  1
  Ni  Ni17  1  0.140251  0.143968  0.143968  1
  Ni  Ni18  1  0.140251  0.143968  0.571814  1
  Ni  Ni19  1  0.140251  0.571814  0.143968  1
  Ni  Ni20  1  0.572036  0.142655  0.142655  1
  Ag  Ag21  1  0.583597  0.583222  0.583222  1
  Ag  Ag22  1  0.583597  0.583222  0.249960  1
  Ag  Ag23  1  0.583597  0.249960  0.583222  1
