# generated using pymatgen
data_Dy4HoCo18TcP12
_symmetry_space_group_name_H-M   'P 1'
_cell_length_a   11.96845161
_cell_length_b   11.96845054
_cell_length_c   3.68365000
_cell_angle_alpha   90.00000000
_cell_angle_beta   90.00000000
_cell_angle_gamma   119.68242006
_symmetry_Int_Tables_number   1
_chemical_formula_structural   Dy4HoCo18TcP12
_chemical_formula_sum   'Dy4 Ho1 Co18 Tc1 P12'
_cell_volume   458.42238662
_cell_formula_units_Z   1
loop_
 _symmetry_equiv_pos_site_id
 _symmetry_equiv_pos_as_xyz
  1  'x, y, z'
loop_
 _atom_site_type_symbol
 _atom_site_label
 _atom_site_symmetry_multiplicity
 _atom_site_fract_x
 _atom_site_fract_y
 _atom_site_fract_z
 _atom_site_occupancy
  Dy  Dy0  1  0.665306  0.333737  0.000000  1
  Dy  Dy1  1  0.333737  0.665306  0.000000  1
  Dy  Dy2  1  0.812406  0.000078  0.500000  1
  Dy  Dy3  1  0.000078  0.812406  0.500000  1
  Ho  Ho4  1  0.184776  0.184776  0.500000  1
  Co  Co5  1  0.447339  0.999322  0.000000  1
  Co  Co6  1  0.999322  0.447339  0.000000  1
  Co  Co7  1  0.821943  0.200317  0.000000  1
  Co  Co8  1  0.803913  0.625046  0.000000  1
  Co  Co9  1  0.377251  0.177080  0.000000  1
  Co  Co10  1  0.200317  0.821943  0.000000  1
  Co  Co11  1  0.625046  0.803913  0.000000  1
  Co  Co12  1  0.177080  0.377251  0.000000  1
  Co  Co13  1  0.641126  0.124380  0.500000  1
  Co  Co14  1  0.873204  0.515031  0.500000  1
  Co  Co15  1  0.481786  0.356827  0.500000  1
  Co  Co16  1  0.124380  0.641126  0.500000  1
  Co  Co17  1  0.515031  0.873204  0.500000  1
  Co  Co18  1  0.356827  0.481786  0.500000  1
  Co  Co19  1  0.718800  0.718800  0.500000  1
  Co  Co20  1  0.285527  0.999941  0.500000  1
  Co  Co21  1  0.999941  0.285527  0.500000  1
  Co  Co22  1  0.002169  0.002169  0.000000  1
  Tc  Tc23  1  0.554383  0.554383  0.000000  1
  P  P24  1  0.362812  0.362812  0.000000  1
  P  P25  1  0.632279  0.000909  0.000000  1
  P  P26  1  0.000909  0.632279  0.000000  1
  P  P27  1  0.833093  0.313299  0.500000  1
  P  P28  1  0.686306  0.521127  0.500000  1
  P  P29  1  0.479664  0.165171  0.500000  1
  P  P30  1  0.313299  0.833093  0.500000  1
  P  P31  1  0.521127  0.686306  0.500000  1
  P  P32  1  0.165171  0.479664  0.500000  1
  P  P33  1  0.822543  0.822543  0.000000  1
  P  P34  1  0.181017  0.000095  0.000000  1
  P  P35  1  0.000095  0.181017  0.000000  1
