# generated using pymatgen
data_Nb8AuS20
_symmetry_space_group_name_H-M   'P 1'
_cell_length_a   10.45700681
_cell_length_b   10.45700674
_cell_length_c   19.01512971
_cell_angle_alpha   76.45839845
_cell_angle_beta   76.45839874
_cell_angle_gamma   18.62216205
_symmetry_Int_Tables_number   1
_chemical_formula_structural   Nb8AuS20
_chemical_formula_sum   'Nb8 Au1 S20'
_cell_volume   645.00787914
_cell_formula_units_Z   1
loop_
 _symmetry_equiv_pos_site_id
 _symmetry_equiv_pos_as_xyz
  1  'x, y, z'
loop_
 _atom_site_type_symbol
 _atom_site_label
 _atom_site_symmetry_multiplicity
 _atom_site_fract_x
 _atom_site_fract_y
 _atom_site_fract_z
 _atom_site_occupancy
  Nb  Nb0  1  0.083318  0.083318  0.098472  1
  Nb  Nb1  1  0.916682  0.916682  0.901528  1
  Nb  Nb2  1  0.329649  0.329649  0.809179  1
  Nb  Nb3  1  0.670351  0.670351  0.190821  1
  Nb  Nb4  1  0.268065  0.268065  0.282331  1
  Nb  Nb5  1  0.731935  0.731935  0.717669  1
  Nb  Nb6  1  0.161245  0.161245  0.553571  1
  Nb  Nb7  1  0.838755  0.838755  0.446429  1
  Au  Au8  1  0.500000  0.500000  0.000000  1
  S  S9  1  0.431875  0.431875  0.402484  1
  S  S10  1  0.568125  0.568125  0.597516  1
  S  S11  1  0.396637  0.396637  0.512403  1
  S  S12  1  0.603363  0.603363  0.487597  1
  S  S13  1  0.151357  0.151357  0.690542  1
  S  S14  1  0.848643  0.848643  0.309458  1
  S  S15  1  0.383784  0.383784  0.000957  1
  S  S16  1  0.616216  0.616216  0.999043  1
  S  S17  1  0.206662  0.206662  0.817495  1
  S  S18  1  0.793338  0.793338  0.182505  1
  S  S19  1  0.253279  0.253279  0.430092  1
  S  S20  1  0.746721  0.746721  0.569908  1
  S  S21  1  0.323624  0.323624  0.678487  1
  S  S22  1  0.676376  0.676376  0.321513  1
  S  S23  1  0.491166  0.491166  0.128827  1
  S  S24  1  0.508834  0.508834  0.871173  1
  S  S25  1  0.203162  0.203162  0.093187  1
  S  S26  1  0.796838  0.796838  0.906813  1
  S  S27  1  0.080623  0.080623  0.229213  1
  S  S28  1  0.919377  0.919377  0.770787  1
