# generated using pymatgen
data_CaDy6YLu2(In2Pt)4
_symmetry_space_group_name_H-M   'P 1'
_cell_length_a   3.63092900
_cell_length_b   8.14302419
_cell_length_c   18.19655900
_cell_angle_alpha   89.88576051
_cell_angle_beta   90.00000000
_cell_angle_gamma   90.00000000
_symmetry_Int_Tables_number   1
_chemical_formula_structural   CaDy6YLu2(In2Pt)4
_chemical_formula_sum   'Ca1 Dy6 Y1 Lu2 In8 Pt4'
_cell_volume   538.01190792
_cell_formula_units_Z   1
loop_
 _symmetry_equiv_pos_site_id
 _symmetry_equiv_pos_as_xyz
  1  'x, y, z'
loop_
 _atom_site_type_symbol
 _atom_site_label
 _atom_site_symmetry_multiplicity
 _atom_site_fract_x
 _atom_site_fract_y
 _atom_site_fract_z
 _atom_site_occupancy
  Ca  Ca0  1  0.000000  0.000000  0.000000  1
  Dy  Dy1  1  0.000000  0.382674  0.914488  1
  Dy  Dy2  1  0.000000  0.617326  0.085512  1
  Dy  Dy3  1  0.000000  0.242720  0.220944  1
  Dy  Dy4  1  0.000000  0.757280  0.779056  1
  Dy  Dy5  1  0.000000  0.257718  0.718944  1
  Dy  Dy6  1  0.000000  0.742282  0.281056  1
  Y  Y7  1  0.000000  0.500000  0.500000  1
  Lu  Lu8  1  0.000000  0.116114  0.414038  1
  Lu  Lu9  1  0.000000  0.883886  0.585962  1
  In  In10  1  0.500000  0.420176  0.352172  1
  In  In11  1  0.500000  0.579824  0.647828  1
  In  In12  1  0.500000  0.076040  0.849649  1
  In  In13  1  0.500000  0.923960  0.150351  1
  In  In14  1  0.500000  0.292903  0.067506  1
  In  In15  1  0.500000  0.707097  0.932494  1
  In  In16  1  0.500000  0.203618  0.564573  1
  In  In17  1  0.500000  0.796382  0.435427  1
  Pt  Pt18  1  0.500000  0.026120  0.305948  1
  Pt  Pt19  1  0.500000  0.973880  0.694052  1
  Pt  Pt20  1  0.500000  0.475608  0.802724  1
  Pt  Pt21  1  0.500000  0.524392  0.197276  1
