# generated using pymatgen
data_La3Pr2NdRuBr10
_symmetry_space_group_name_H-M   'P 1'
_cell_length_a   7.81306977
_cell_length_b   9.75173876
_cell_length_c   9.55160540
_cell_angle_alpha   108.17156539
_cell_angle_beta   95.84115902
_cell_angle_gamma   107.26860039
_symmetry_Int_Tables_number   1
_chemical_formula_structural   La3Pr2NdRuBr10
_chemical_formula_sum   'La3 Pr2 Nd1 Ru1 Br10'
_cell_volume   644.95738665
_cell_formula_units_Z   1
loop_
 _symmetry_equiv_pos_site_id
 _symmetry_equiv_pos_as_xyz
  1  'x, y, z'
loop_
 _atom_site_type_symbol
 _atom_site_label
 _atom_site_symmetry_multiplicity
 _atom_site_fract_x
 _atom_site_fract_y
 _atom_site_fract_z
 _atom_site_occupancy
  La  La0  1  0.127582  0.051965  0.769424  1
  La  La1  1  0.626396  0.850782  0.805971  1
  La  La2  1  0.872720  0.949072  0.230398  1
  Pr  Pr3  1  0.369373  0.144657  0.189444  1
  Pr  Pr4  1  0.971984  0.307269  0.101020  1
  Nd  Nd5  1  0.028962  0.695161  0.901678  1
  Ru  Ru6  1  0.999241  0.999262  0.999090  1
  Br  Br7  1  0.203148  0.746329  0.652422  1
  Br  Br8  1  0.651001  0.540919  0.729072  1
  Br  Br9  1  0.245325  0.081528  0.451474  1
  Br  Br10  1  0.791967  0.253075  0.347816  1
  Br  Br11  1  0.550486  0.172105  0.921956  1
  Br  Br12  1  0.757564  0.919958  0.545977  1
  Br  Br13  1  0.910416  0.629917  0.166029  1
  Br  Br14  1  0.354269  0.456549  0.273583  1
  Br  Br15  1  0.091644  0.373093  0.835109  1
  Br  Br16  1  0.447921  0.828359  0.079536  1
