# generated using pymatgen
data_Ca9Yb(GeBi2)2
_symmetry_space_group_name_H-M   'P 1'
_cell_length_a   8.15614943
_cell_length_b   9.60821769
_cell_length_c   12.97534599
_cell_angle_alpha   89.91148191
_cell_angle_beta   89.95121543
_cell_angle_gamma   89.95324539
_symmetry_Int_Tables_number   1
_chemical_formula_structural   Ca9Yb(GeBi2)2
_chemical_formula_sum   'Ca18 Yb2 Ge4 Bi8'
_cell_volume   1016.82481302
_cell_formula_units_Z   2
loop_
 _symmetry_equiv_pos_site_id
 _symmetry_equiv_pos_as_xyz
  1  'x, y, z'
loop_
 _atom_site_type_symbol
 _atom_site_label
 _atom_site_symmetry_multiplicity
 _atom_site_fract_x
 _atom_site_fract_y
 _atom_site_fract_z
 _atom_site_occupancy
  Ca  Ca0  1  0.827274  0.527895  0.076355  1
  Ca  Ca1  1  0.830283  0.249378  0.784359  1
  Ca  Ca2  1  0.055192  0.751894  0.500901  1
  Ca  Ca3  1  0.356164  0.249220  0.694366  1
  Ca  Ca4  1  0.172721  0.028054  0.923553  1
  Ca  Ca5  1  0.555564  0.249506  0.999096  1
  Ca  Ca6  1  0.856494  0.751162  0.805505  1
  Ca  Ca7  1  0.329866  0.750483  0.715421  1
  Ca  Ca8  1  0.326770  0.473105  0.423916  1
  Ca  Ca9  1  0.670134  0.249517  0.284579  1
  Ca  Ca10  1  0.444436  0.750494  0.000904  1
  Ca  Ca11  1  0.673230  0.526895  0.576084  1
  Ca  Ca12  1  0.944808  0.248106  0.499099  1
  Ca  Ca13  1  0.143506  0.248838  0.194495  1
  Ca  Ca14  1  0.169717  0.750622  0.215641  1
  Ca  Ca15  1  0.172726  0.472105  0.923645  1
  Ca  Ca16  1  0.827279  0.971946  0.076447  1
  Ca  Ca17  1  0.643836  0.750780  0.305634  1
  Yb  Yb18  1  0.670335  0.972367  0.574687  1
  Yb  Yb19  1  0.329665  0.027633  0.425313  1
  Ge  Ge20  1  0.441881  0.751914  0.492873  1
  Ge  Ge21  1  0.558119  0.248086  0.507127  1
  Ge  Ge22  1  0.058504  0.750221  0.992921  1
  Ge  Ge23  1  0.941496  0.249779  0.007079  1
  Bi  Bi24  1  0.056924  0.008041  0.668527  1
  Bi  Bi25  1  0.943076  0.991959  0.331473  1
  Bi  Bi26  1  0.056660  0.492647  0.668136  1
  Bi  Bi27  1  0.556441  0.992441  0.830503  1
  Bi  Bi28  1  0.443559  0.007559  0.169497  1
  Bi  Bi29  1  0.443671  0.492188  0.169024  1
  Bi  Bi30  1  0.556329  0.507812  0.830976  1
  Bi  Bi31  1  0.943340  0.507353  0.331864  1
