# generated using pymatgen
data_Be2Nb6GeP
_symmetry_space_group_name_H-M   'P 1'
_cell_length_a   6.64508926
_cell_length_b   6.65049643
_cell_length_c   3.43673700
_cell_angle_alpha   90.00000000
_cell_angle_beta   90.00000000
_cell_angle_gamma   90.32590444
_symmetry_Int_Tables_number   1
_chemical_formula_structural   Be2Nb6GeP
_chemical_formula_sum   'Be2 Nb6 Ge1 P1'
_cell_volume   151.87775072
_cell_formula_units_Z   1
loop_
 _symmetry_equiv_pos_site_id
 _symmetry_equiv_pos_as_xyz
  1  'x, y, z'
loop_
 _atom_site_type_symbol
 _atom_site_label
 _atom_site_symmetry_multiplicity
 _atom_site_fract_x
 _atom_site_fract_y
 _atom_site_fract_z
 _atom_site_occupancy
  Be  Be0  1  0.617376  0.879136  0.000000  1
  Be  Be1  1  0.123331  0.624479  0.000000  1
  Nb  Nb2  1  0.997313  0.992854  0.000000  1
  Nb  Nb3  1  0.495079  0.505197  0.000000  1
  Nb  Nb4  1  0.669267  0.166451  0.500000  1
  Nb  Nb5  1  0.188125  0.322844  0.500000  1
  Nb  Nb6  1  0.820783  0.690741  0.500000  1
  Nb  Nb7  1  0.324172  0.821590  0.500000  1
  Ge  Ge8  1  0.882048  0.385956  0.000000  1
  P  P9  1  0.382505  0.110749  0.000000  1
