# generated using pymatgen
data_Sm2Si2P4Pd21
_symmetry_space_group_name_H-M   'P 1'
_cell_length_a   8.66997597
_cell_length_b   8.67155979
_cell_length_c   8.67155926
_cell_angle_alpha   59.98791277
_cell_angle_beta   60.00604093
_cell_angle_gamma   60.00603723
_symmetry_Int_Tables_number   1
_chemical_formula_structural   Sm2Si2P4Pd21
_chemical_formula_sum   'Sm2 Si2 P4 Pd21'
_cell_volume   460.99610566
_cell_formula_units_Z   1
loop_
 _symmetry_equiv_pos_site_id
 _symmetry_equiv_pos_as_xyz
  1  'x, y, z'
loop_
 _atom_site_type_symbol
 _atom_site_label
 _atom_site_symmetry_multiplicity
 _atom_site_fract_x
 _atom_site_fract_y
 _atom_site_fract_z
 _atom_site_occupancy
  Sm  Sm0  1  0.250000  0.250000  0.250000  1
  Sm  Sm1  1  0.750000  0.750000  0.750000  1
  Si  Si2  1  0.738834  0.261166  0.261166  1
  Si  Si3  1  0.261166  0.738834  0.738834  1
  P  P4  1  0.261774  0.738226  0.261774  1
  P  P5  1  0.738226  0.261774  0.738226  1
  P  P6  1  0.261774  0.261774  0.738226  1
  P  P7  1  0.738226  0.738226  0.261774  1
  Pd  Pd8  1  0.000000  0.000000  0.000000  1
  Pd  Pd9  1  0.384524  0.386209  0.386209  1
  Pd  Pd10  1  0.615476  0.613791  0.613791  1
  Pd  Pd11  1  0.386209  0.384524  0.843059  1
  Pd  Pd12  1  0.386209  0.843059  0.384524  1
  Pd  Pd13  1  0.613791  0.615476  0.156941  1
  Pd  Pd14  1  0.613791  0.156941  0.615476  1
  Pd  Pd15  1  0.843059  0.386209  0.386209  1
  Pd  Pd16  1  0.156941  0.613791  0.613791  1
  Pd  Pd17  1  0.342992  0.000000  0.000000  1
  Pd  Pd18  1  0.657008  0.000000  0.000000  1
  Pd  Pd19  1  0.000000  0.342992  0.657008  1
  Pd  Pd20  1  0.000000  0.657008  0.342992  1
  Pd  Pd21  1  0.002220  0.345236  0.997780  1
  Pd  Pd22  1  0.654764  0.997780  0.345236  1
  Pd  Pd23  1  0.997780  0.654764  0.002220  1
  Pd  Pd24  1  0.345236  0.002220  0.654764  1
  Pd  Pd25  1  0.002220  0.997780  0.345236  1
  Pd  Pd26  1  0.997780  0.002220  0.654764  1
  Pd  Pd27  1  0.654764  0.345236  0.997780  1
  Pd  Pd28  1  0.345236  0.654764  0.002220  1
