# generated using pymatgen
data_TaNb2Si3Ru2W
_symmetry_space_group_name_H-M   'P 1'
_cell_length_a   7.53009806
_cell_length_b   7.53009802
_cell_length_c   7.53009880
_cell_angle_alpha   126.79375245
_cell_angle_beta   124.01396063
_cell_angle_gamma   80.88995037
_symmetry_Int_Tables_number   1
_chemical_formula_structural   TaNb2Si3Ru2W
_chemical_formula_sum   'Ta2 Nb4 Si6 Ru4 W2'
_cell_volume   273.18998475
_cell_formula_units_Z   2
loop_
 _symmetry_equiv_pos_site_id
 _symmetry_equiv_pos_as_xyz
  1  'x, y, z'
loop_
 _atom_site_type_symbol
 _atom_site_label
 _atom_site_symmetry_multiplicity
 _atom_site_fract_x
 _atom_site_fract_y
 _atom_site_fract_z
 _atom_site_occupancy
  Ta  Ta0  1  0.558012  0.093350  0.035338  1
  Ta  Ta1  1  0.441988  0.477325  0.535338  1
  Nb  Nb2  1  0.960159  0.490161  0.030001  1
  Nb  Nb3  1  0.039841  0.069842  0.530001  1
  Nb  Nb4  1  0.752364  0.921514  0.669151  1
  Nb  Nb5  1  0.247636  0.916787  0.169151  1
  Si  Si6  1  0.779774  0.553714  0.273941  1
  Si  Si7  1  0.220226  0.494167  0.773941  1
  Si  Si8  1  0.334378  0.817638  0.491779  1
  Si  Si9  1  0.665622  0.157399  0.483259  1
  Si  Si10  1  0.825859  0.817638  0.983259  1
  Si  Si11  1  0.174141  0.157399  0.991779  1
  Ru  Ru12  1  0.163019  0.746253  0.654838  1
  Ru  Ru13  1  0.836981  0.491820  0.583234  1
  Ru  Ru14  1  0.591415  0.746253  0.083234  1
  Ru  Ru15  1  0.408585  0.491820  0.154838  1
  W  W16  1  0.500000  0.249559  0.749559  1
  W  W17  1  0.000000  0.249559  0.249559  1
