# generated using pymatgen
data_Pr10AgSn5BiBr
_symmetry_space_group_name_H-M   'P 1'
_cell_length_a   9.67744442
_cell_length_b   9.67744406
_cell_length_c   6.81160616
_cell_angle_alpha   90.03320080
_cell_angle_beta   90.03320115
_cell_angle_gamma   120.16487756
_symmetry_Int_Tables_number   1
_chemical_formula_structural   Pr10AgSn5BiBr
_chemical_formula_sum   'Pr10 Ag1 Sn5 Bi1 Br1'
_cell_volume   551.54033620
_cell_formula_units_Z   1
loop_
 _symmetry_equiv_pos_site_id
 _symmetry_equiv_pos_as_xyz
  1  'x, y, z'
loop_
 _atom_site_type_symbol
 _atom_site_label
 _atom_site_symmetry_multiplicity
 _atom_site_fract_x
 _atom_site_fract_y
 _atom_site_fract_z
 _atom_site_occupancy
  Pr  Pr0  1  0.268714  0.999928  0.750312  1
  Pr  Pr1  1  0.733158  0.004305  0.249925  1
  Pr  Pr2  1  0.999928  0.268714  0.750312  1
  Pr  Pr3  1  0.004305  0.733158  0.249925  1
  Pr  Pr4  1  0.732506  0.732506  0.750683  1
  Pr  Pr5  1  0.265439  0.265439  0.248499  1
  Pr  Pr6  1  0.330705  0.667191  0.500808  1
  Pr  Pr7  1  0.667191  0.330705  0.500808  1
  Pr  Pr8  1  0.667362  0.330481  0.998923  1
  Pr  Pr9  1  0.330481  0.667362  0.998923  1
  Ag  Ag10  1  0.000585  0.000585  0.500829  1
  Sn  Sn11  1  0.617534  0.999394  0.747712  1
  Sn  Sn12  1  0.382904  0.000094  0.252055  1
  Sn  Sn13  1  0.999394  0.617534  0.747712  1
  Sn  Sn14  1  0.000094  0.382904  0.252055  1
  Sn  Sn15  1  0.382230  0.382230  0.748051  1
  Bi  Bi16  1  0.618312  0.618312  0.252385  1
  Br  Br17  1  0.999157  0.999157  0.000081  1
