# generated using pymatgen
data_TbY2As4Pd7
_symmetry_space_group_name_H-M   'P 1'
_cell_length_a   8.13258002
_cell_length_b   8.13258046
_cell_length_c   9.65572763
_cell_angle_alpha   55.66200134
_cell_angle_beta   55.66199997
_cell_angle_gamma   29.46353205
_symmetry_Int_Tables_number   1
_chemical_formula_structural   TbY2As4Pd7
_chemical_formula_sum   'Tb1 Y2 As4 Pd7'
_cell_volume   255.15573677
_cell_formula_units_Z   1
loop_
 _symmetry_equiv_pos_site_id
 _symmetry_equiv_pos_as_xyz
  1  'x, y, z'
loop_
 _atom_site_type_symbol
 _atom_site_label
 _atom_site_symmetry_multiplicity
 _atom_site_fract_x
 _atom_site_fract_y
 _atom_site_fract_z
 _atom_site_occupancy
  Tb  Tb0  1  0.500000  0.500000  0.500000  1
  Y  Y1  1  0.822242  0.822242  0.172542  1
  Y  Y2  1  0.177758  0.177758  0.827458  1
  As  As3  1  0.394108  0.394108  0.322761  1
  As  As4  1  0.605892  0.605892  0.677239  1
  As  As5  1  0.840596  0.840596  0.751842  1
  As  As6  1  0.159404  0.159404  0.248158  1
  Pd  Pd7  1  0.667688  0.667688  0.072402  1
  Pd  Pd8  1  0.012178  0.012178  0.206113  1
  Pd  Pd9  1  0.987822  0.987822  0.793887  1
  Pd  Pd10  1  0.500000  0.500000  0.000000  1
  Pd  Pd11  1  0.194449  0.194449  0.473636  1
  Pd  Pd12  1  0.805551  0.805551  0.526364  1
  Pd  Pd13  1  0.332312  0.332312  0.927598  1
