# generated using pymatgen
data_YHo2ZrAl17SiIr6
_symmetry_space_group_name_H-M   'P 1'
_cell_length_a   7.53189221
_cell_length_b   7.52442166
_cell_length_c   9.36566200
_cell_angle_alpha   90.00000000
_cell_angle_beta   90.00000000
_cell_angle_gamma   119.71090723
_symmetry_Int_Tables_number   1
_chemical_formula_structural   YHo2ZrAl17SiIr6
_chemical_formula_sum   'Y1 Ho2 Zr1 Al17 Si1 Ir6'
_cell_volume   461.00338649
_cell_formula_units_Z   1
loop_
 _symmetry_equiv_pos_site_id
 _symmetry_equiv_pos_as_xyz
  1  'x, y, z'
loop_
 _atom_site_type_symbol
 _atom_site_label
 _atom_site_symmetry_multiplicity
 _atom_site_fract_x
 _atom_site_fract_y
 _atom_site_fract_z
 _atom_site_occupancy
  Y  Y0  1  0.006981  0.323752  0.750000  1
  Ho  Ho1  1  0.670495  0.995454  0.250000  1
  Ho  Ho2  1  0.325836  0.007570  0.750000  1
  Zr  Zr3  1  0.994773  0.669814  0.250000  1
  Al  Al4  1  0.124196  0.121509  0.250000  1
  Al  Al5  1  0.000435  0.337038  0.078229  1
  Al  Al6  1  0.000042  0.663979  0.928678  1
  Al  Al7  1  0.000042  0.663979  0.571322  1
  Al  Al8  1  0.331653  0.998246  0.421897  1
  Al  Al9  1  0.000435  0.337038  0.421771  1
  Al  Al10  1  0.662757  0.998673  0.575846  1
  Al  Al11  1  0.662757  0.998673  0.924154  1
  Al  Al12  1  0.331653  0.998246  0.078103  1
  Al  Al13  1  0.336620  0.336504  0.551739  1
  Al  Al14  1  0.669584  0.667447  0.439021  1
  Al  Al15  1  0.669584  0.667447  0.060979  1
  Al  Al16  1  0.336620  0.336504  0.948261  1
  Al  Al17  1  0.334949  0.548775  0.250000  1
  Al  Al18  1  0.665188  0.453026  0.750000  1
  Al  Al19  1  0.552713  0.341881  0.250000  1
  Al  Al20  1  0.450786  0.663210  0.750000  1
  Si  Si21  1  0.868194  0.866034  0.750000  1
  Ir  Ir22  1  0.673199  0.329448  0.000214  1
  Ir  Ir23  1  0.330016  0.674010  0.000800  1
  Ir  Ir24  1  0.330016  0.674010  0.499200  1
  Ir  Ir25  1  0.673199  0.329448  0.499786  1
  Ir  Ir26  1  0.998638  0.999144  0.993754  1
  Ir  Ir27  1  0.998638  0.999144  0.506246  1
