# generated using pymatgen
data_Pr4HgRh
_symmetry_space_group_name_H-M   'P 1'
_cell_length_a   10.01457134
_cell_length_b   10.01457108
_cell_length_c   10.01457100
_cell_angle_alpha   59.99999697
_cell_angle_beta   59.99999783
_cell_angle_gamma   60.00000151
_symmetry_Int_Tables_number   1
_chemical_formula_structural   Pr4HgRh
_chemical_formula_sum   'Pr16 Hg4 Rh4'
_cell_volume   710.20227344
_cell_formula_units_Z   4
loop_
 _symmetry_equiv_pos_site_id
 _symmetry_equiv_pos_as_xyz
  1  'x, y, z'
loop_
 _atom_site_type_symbol
 _atom_site_label
 _atom_site_symmetry_multiplicity
 _atom_site_fract_x
 _atom_site_fract_y
 _atom_site_fract_z
 _atom_site_occupancy
  Pr  Pr0  1  0.350062  0.350062  0.350062  1
  Pr  Pr1  1  0.350062  0.350062  0.949812  1
  Pr  Pr2  1  0.350062  0.949812  0.350062  1
  Pr  Pr3  1  0.949812  0.350062  0.350062  1
  Pr  Pr4  1  0.809132  0.190868  0.190868  1
  Pr  Pr5  1  0.190868  0.809133  0.809132  1
  Pr  Pr6  1  0.190868  0.809132  0.190867  1
  Pr  Pr7  1  0.809132  0.190868  0.809132  1
  Pr  Pr8  1  0.190868  0.190868  0.809132  1
  Pr  Pr9  1  0.809133  0.809133  0.190867  1
  Pr  Pr10  1  0.937853  0.562147  0.562147  1
  Pr  Pr11  1  0.562147  0.937853  0.937853  1
  Pr  Pr12  1  0.562147  0.937853  0.562147  1
  Pr  Pr13  1  0.937853  0.562147  0.937853  1
  Pr  Pr14  1  0.562147  0.562147  0.937853  1
  Pr  Pr15  1  0.937853  0.937853  0.562147  1
  Hg  Hg16  1  0.583611  0.583611  0.583611  1
  Hg  Hg17  1  0.583611  0.583611  0.249168  1
  Hg  Hg18  1  0.583611  0.249168  0.583611  1
  Hg  Hg19  1  0.249168  0.583611  0.583611  1
  Rh  Rh20  1  0.142186  0.142186  0.142186  1
  Rh  Rh21  1  0.142186  0.142186  0.573442  1
  Rh  Rh22  1  0.142186  0.573442  0.142186  1
  Rh  Rh23  1  0.573442  0.142186  0.142186  1
