# generated using pymatgen
data_Tm16Tl6ReAu
_symmetry_space_group_name_H-M   'P 1'
_cell_length_a   10.35791000
_cell_length_b   10.35791070
_cell_length_c   6.90031000
_cell_angle_alpha   90.00000000
_cell_angle_beta   90.00000000
_cell_angle_gamma   119.99999776
_symmetry_Int_Tables_number   1
_chemical_formula_structural   Tm16Tl6ReAu
_chemical_formula_sum   'Tm16 Tl6 Re1 Au1'
_cell_volume   641.12622105
_cell_formula_units_Z   1
loop_
 _symmetry_equiv_pos_site_id
 _symmetry_equiv_pos_as_xyz
  1  'x, y, z'
loop_
 _atom_site_type_symbol
 _atom_site_label
 _atom_site_symmetry_multiplicity
 _atom_site_fract_x
 _atom_site_fract_y
 _atom_site_fract_z
 _atom_site_occupancy
  Tm  Tm0  1  0.533878  0.067758  0.515088  1
  Tm  Tm1  1  0.932242  0.466122  0.515088  1
  Tm  Tm2  1  0.533878  0.466122  0.515088  1
  Tm  Tm3  1  0.477133  0.954265  0.022380  1
  Tm  Tm4  1  0.045735  0.522867  0.022380  1
  Tm  Tm5  1  0.477133  0.522867  0.022380  1
  Tm  Tm6  1  0.173819  0.347638  0.724554  1
  Tm  Tm7  1  0.652362  0.826181  0.724554  1
  Tm  Tm8  1  0.173819  0.826181  0.724554  1
  Tm  Tm9  1  0.825473  0.650946  0.224885  1
  Tm  Tm10  1  0.349054  0.174527  0.224885  1
  Tm  Tm11  1  0.825473  0.174527  0.224885  1
  Tm  Tm12  1  0.666667  0.333333  0.881013  1
  Tm  Tm13  1  0.333333  0.666667  0.382075  1
  Tm  Tm14  1  0.000000  0.000000  0.503120  1
  Tm  Tm15  1  0.000000  0.000000  0.997683  1
  Tl  Tl16  1  0.838022  0.676046  0.759886  1
  Tl  Tl17  1  0.323954  0.161978  0.759886  1
  Tl  Tl18  1  0.838022  0.161978  0.759886  1
  Tl  Tl19  1  0.164761  0.329522  0.259804  1
  Tl  Tl20  1  0.670478  0.835239  0.259804  1
  Tl  Tl21  1  0.164761  0.835239  0.259804  1
  Re  Re22  1  0.666667  0.333333  0.279935  1
  Au  Au23  1  0.333333  0.666667  0.794387  1
