# generated using pymatgen
data_Ho5AlSnBi
_symmetry_space_group_name_H-M   'P 1'
_cell_length_a   8.92179330
_cell_length_b   8.88885478
_cell_length_c   6.53016900
_cell_angle_alpha   90.00000000
_cell_angle_beta   90.00000000
_cell_angle_gamma   119.87794933
_symmetry_Int_Tables_number   1
_chemical_formula_structural   Ho5AlSnBi
_chemical_formula_sum   'Ho10 Al2 Sn2 Bi2'
_cell_volume   449.04082918
_cell_formula_units_Z   2
loop_
 _symmetry_equiv_pos_site_id
 _symmetry_equiv_pos_as_xyz
  1  'x, y, z'
loop_
 _atom_site_type_symbol
 _atom_site_label
 _atom_site_symmetry_multiplicity
 _atom_site_fract_x
 _atom_site_fract_y
 _atom_site_fract_z
 _atom_site_occupancy
  Ho  Ho0  1  0.994248  0.754579  0.750000  1
  Ho  Ho1  1  0.994248  0.239669  0.250000  1
  Ho  Ho2  1  0.770403  0.762195  0.250000  1
  Ho  Ho3  1  0.770403  0.008208  0.750000  1
  Ho  Ho4  1  0.230155  0.244565  0.750000  1
  Ho  Ho5  1  0.230155  0.985589  0.250000  1
  Ho  Ho6  1  0.320684  0.660343  0.500000  1
  Ho  Ho7  1  0.685421  0.342711  0.000000  1
  Ho  Ho8  1  0.685421  0.342711  0.500000  1
  Ho  Ho9  1  0.320684  0.660343  0.000000  1
  Al  Al10  1  0.001396  0.600241  0.250000  1
  Al  Al11  1  0.001396  0.401155  0.750000  1
  Sn  Sn12  1  0.603872  0.607921  0.750000  1
  Sn  Sn13  1  0.603872  0.995951  0.250000  1
  Bi  Bi14  1  0.393820  0.005466  0.750000  1
  Bi  Bi15  1  0.393820  0.388354  0.250000  1
