# generated using pymatgen
data_Ca10ReGeN10
_symmetry_space_group_name_H-M   'P 1'
_cell_length_a   6.88886626
_cell_length_b   6.88886529
_cell_length_c   8.89336888
_cell_angle_alpha   80.40654367
_cell_angle_beta   80.40654583
_cell_angle_gamma   59.85527532
_symmetry_Int_Tables_number   1
_chemical_formula_structural   Ca10ReGeN10
_chemical_formula_sum   'Ca10 Re1 Ge1 N10'
_cell_volume   358.15843603
_cell_formula_units_Z   1
loop_
 _symmetry_equiv_pos_site_id
 _symmetry_equiv_pos_as_xyz
  1  'x, y, z'
loop_
 _atom_site_type_symbol
 _atom_site_label
 _atom_site_symmetry_multiplicity
 _atom_site_fract_x
 _atom_site_fract_y
 _atom_site_fract_z
 _atom_site_occupancy
  Ca  Ca0  1  0.878810  0.351249  0.831166  1
  Ca  Ca1  1  0.873787  0.873787  0.823017  1
  Ca  Ca2  1  0.738771  0.738771  0.538203  1
  Ca  Ca3  1  0.746242  0.248508  0.516983  1
  Ca  Ca4  1  0.630313  0.139555  0.144380  1
  Ca  Ca5  1  0.351249  0.878810  0.831166  1
  Ca  Ca6  1  0.248508  0.746242  0.516983  1
  Ca  Ca7  1  0.243125  0.243125  0.505861  1
  Ca  Ca8  1  0.142980  0.142980  0.154464  1
  Ca  Ca9  1  0.139555  0.630313  0.144380  1
  Re  Re10  1  0.632047  0.632047  0.228118  1
  Ge  Ge11  1  0.369517  0.369517  0.770923  1
  N  N12  1  0.906970  0.473082  0.314842  1
  N  N13  1  0.996198  0.996198  0.018628  1
  N  N14  1  0.676084  0.676084  0.020939  1
  N  N15  1  0.536502  0.536502  0.692197  1
  N  N16  1  0.473082  0.906970  0.314842  1
  N  N17  1  0.540204  0.080643  0.675225  1
  N  N18  1  0.474129  0.474129  0.294836  1
  N  N19  1  0.322218  0.322218  0.984811  1
  N  N20  1  0.061352  0.061352  0.648618  1
  N  N21  1  0.080643  0.540204  0.675225  1
