# generated using pymatgen
data_Lu4Tc3PtF28
_symmetry_space_group_name_H-M   'P 1'
_cell_length_a   5.47147820
_cell_length_b   8.76069423
_cell_length_c   11.85370214
_cell_angle_alpha   62.65095457
_cell_angle_beta   90.02401867
_cell_angle_gamma   90.02859464
_symmetry_Int_Tables_number   1
_chemical_formula_structural   Lu4Tc3PtF28
_chemical_formula_sum   'Lu4 Tc3 Pt1 F28'
_cell_volume   504.68429797
_cell_formula_units_Z   1
loop_
 _symmetry_equiv_pos_site_id
 _symmetry_equiv_pos_as_xyz
  1  'x, y, z'
loop_
 _atom_site_type_symbol
 _atom_site_label
 _atom_site_symmetry_multiplicity
 _atom_site_fract_x
 _atom_site_fract_y
 _atom_site_fract_z
 _atom_site_occupancy
  Lu  Lu0  1  0.259828  0.817012  0.263015  1
  Lu  Lu1  1  0.741082  0.184710  0.735986  1
  Lu  Lu2  1  0.759345  0.184013  0.236103  1
  Lu  Lu3  1  0.239703  0.817212  0.762574  1
  Tc  Tc4  1  0.758801  0.726432  0.042629  1
  Tc  Tc5  1  0.241354  0.274211  0.956802  1
  Tc  Tc6  1  0.258684  0.273973  0.457029  1
  Pt  Pt7  1  0.740149  0.727677  0.542367  1
  F  F8  1  0.940059  0.704926  0.413156  1
  F  F9  1  0.056599  0.291016  0.586606  1
  F  F10  1  0.443751  0.291466  0.086440  1
  F  F11  1  0.556016  0.708791  0.913369  1
  F  F12  1  0.467583  0.729487  0.138537  1
  F  F13  1  0.532605  0.270430  0.861371  1
  F  F14  1  0.967195  0.270469  0.361328  1
  F  F15  1  0.035629  0.726736  0.637429  1
  F  F16  1  0.956785  0.744635  0.175217  1
  F  F17  1  0.043845  0.255294  0.824658  1
  F  F18  1  0.456732  0.255395  0.324774  1
  F  F19  1  0.545885  0.742814  0.677090  1
  F  F20  1  0.771762  0.475178  0.141714  1
  F  F21  1  0.228300  0.525342  0.857986  1
  F  F22  1  0.271057  0.525334  0.358159  1
  F  F23  1  0.728806  0.475631  0.642609  1
  F  F24  1  0.939683  0.277453  0.047239  1
  F  F25  1  0.060362  0.722953  0.952221  1
  F  F26  1  0.437223  0.720845  0.454210  1
  F  F27  1  0.560327  0.277281  0.547382  1
  F  F28  1  0.740013  0.979548  0.447611  1
  F  F29  1  0.260239  0.023337  0.554339  1
  F  F30  1  0.239681  0.023420  0.054245  1
  F  F31  1  0.760448  0.976955  0.945542  1
  F  F32  1  0.584951  0.969681  0.231981  1
  F  F33  1  0.415633  0.030042  0.768225  1
  F  F34  1  0.084593  0.030182  0.268161  1
  F  F35  1  0.915296  0.970120  0.731898  1
