# generated using pymatgen
data_Nd3Ho17AlBi11
_symmetry_space_group_name_H-M   'P 1'
_cell_length_a   8.21185718
_cell_length_b   9.47444300
_cell_length_c   12.00349700
_cell_angle_alpha   90.00000000
_cell_angle_beta   90.28301038
_cell_angle_gamma   90.00000000
_symmetry_Int_Tables_number   1
_chemical_formula_structural   Nd3Ho17AlBi11
_chemical_formula_sum   'Nd3 Ho17 Al1 Bi11'
_cell_volume   933.89395649
_cell_formula_units_Z   1
loop_
 _symmetry_equiv_pos_site_id
 _symmetry_equiv_pos_as_xyz
  1  'x, y, z'
loop_
 _atom_site_type_symbol
 _atom_site_label
 _atom_site_symmetry_multiplicity
 _atom_site_fract_x
 _atom_site_fract_y
 _atom_site_fract_z
 _atom_site_occupancy
  Nd  Nd0  1  0.314865  0.250000  0.220848  1
  Nd  Nd1  1  0.812866  0.250000  0.279698  1
  Nd  Nd2  1  0.188389  0.750000  0.722827  1
  Ho  Ho3  1  0.354228  0.750000  0.206922  1
  Ho  Ho4  1  0.850995  0.750000  0.284319  1
  Ho  Ho5  1  0.649974  0.250000  0.783616  1
  Ho  Ho6  1  0.150302  0.250000  0.717785  1
  Ho  Ho7  1  0.685147  0.569094  0.055418  1
  Ho  Ho8  1  0.192945  0.935940  0.439429  1
  Ho  Ho9  1  0.307741  0.052436  0.941108  1
  Ho  Ho10  1  0.807143  0.436592  0.560417  1
  Ho  Ho11  1  0.307741  0.447564  0.941108  1
  Ho  Ho12  1  0.807143  0.063408  0.560417  1
  Ho  Ho13  1  0.685147  0.930906  0.055418  1
  Ho  Ho14  1  0.192945  0.564060  0.439429  1
  Ho  Ho15  1  0.476035  0.250000  0.488680  1
  Ho  Ho16  1  0.977806  0.250000  0.010408  1
  Ho  Ho17  1  0.525598  0.750000  0.512190  1
  Ho  Ho18  1  0.033663  0.750000  0.988614  1
  Ho  Ho19  1  0.678367  0.750000  0.786555  1
  Al  Al20  1  0.409389  0.750000  0.960079  1
  Bi  Bi21  1  0.905757  0.750000  0.541066  1
  Bi  Bi22  1  0.594235  0.250000  0.038099  1
  Bi  Bi23  1  0.093669  0.250000  0.462145  1
  Bi  Bi24  1  0.563460  0.991199  0.327386  1
  Bi  Bi25  1  0.062466  0.507948  0.173752  1
  Bi  Bi26  1  0.439470  0.494100  0.674848  1
  Bi  Bi27  1  0.933561  0.005454  0.825714  1
  Bi  Bi28  1  0.439470  0.005900  0.674848  1
  Bi  Bi29  1  0.933561  0.494546  0.825714  1
  Bi  Bi30  1  0.563460  0.508801  0.327386  1
  Bi  Bi31  1  0.062466  0.992052  0.173752  1
