# generated using pymatgen
data_Er3Zn3CuIrPd
_symmetry_space_group_name_H-M   'P 1'
_cell_length_a   7.28399200
_cell_length_b   7.28399240
_cell_length_c   3.70316500
_cell_angle_alpha   90.00000000
_cell_angle_beta   90.00000000
_cell_angle_gamma   120.00000726
_symmetry_Int_Tables_number   1
_chemical_formula_structural   Er3Zn3CuIrPd
_chemical_formula_sum   'Er3 Zn3 Cu1 Ir1 Pd1'
_cell_volume   170.15417408
_cell_formula_units_Z   1
loop_
 _symmetry_equiv_pos_site_id
 _symmetry_equiv_pos_as_xyz
  1  'x, y, z'
loop_
 _atom_site_type_symbol
 _atom_site_label
 _atom_site_symmetry_multiplicity
 _atom_site_fract_x
 _atom_site_fract_y
 _atom_site_fract_z
 _atom_site_occupancy
  Er  Er0  1  0.589499  0.990728  0.000000  1
  Er  Er1  1  0.009272  0.598771  0.000000  1
  Er  Er2  1  0.401229  0.410501  0.000000  1
  Zn  Zn3  1  0.248532  0.998640  0.500000  1
  Zn  Zn4  1  0.001360  0.249892  0.500000  1
  Zn  Zn5  1  0.750108  0.751468  0.500000  1
  Cu  Cu6  1  0.000000  0.000000  0.000000  1
  Ir  Ir7  1  0.333333  0.666667  0.500000  1
  Pd  Pd8  1  0.666667  0.333333  0.500000  1
