# generated using pymatgen
data_TiMnAlSiOs4
_symmetry_space_group_name_H-M   'P 1'
_cell_length_a   4.26031700
_cell_length_b   4.26058174
_cell_length_c   7.36276999
_cell_angle_alpha   73.19110295
_cell_angle_beta   90.00002572
_cell_angle_gamma   119.99799108
_symmetry_Int_Tables_number   1
_chemical_formula_structural   TiMnAlSiOs4
_chemical_formula_sum   'Ti1 Mn1 Al1 Si1 Os4'
_cell_volume   109.09911461
_cell_formula_units_Z   1
loop_
 _symmetry_equiv_pos_site_id
 _symmetry_equiv_pos_as_xyz
  1  'x, y, z'
loop_
 _atom_site_type_symbol
 _atom_site_label
 _atom_site_symmetry_multiplicity
 _atom_site_fract_x
 _atom_site_fract_y
 _atom_site_fract_z
 _atom_site_occupancy
  Ti  Ti0  1  0.375674  0.751347  0.872878  1
  Mn  Mn1  1  0.873399  0.746793  0.379669  1
  Al  Al2  1  0.124756  0.249511  0.625792  1
  Si  Si3  1  0.626025  0.252053  0.121899  1
  Os  Os4  1  0.995893  0.991784  0.012330  1
  Os  Os5  1  0.750190  0.500376  0.749534  1
  Os  Os6  1  0.504541  0.009081  0.486359  1
  Os  Os7  1  0.249528  0.499055  0.251538  1
