# generated using pymatgen
data_Ba6Sr2Fe4O15
_symmetry_space_group_name_H-M   'P 1'
_cell_length_a   12.04451113
_cell_length_b   12.04451073
_cell_length_c   7.11152602
_cell_angle_alpha   89.87250134
_cell_angle_beta   89.87250090
_cell_angle_gamma   119.58312220
_symmetry_Int_Tables_number   1
_chemical_formula_structural   Ba6Sr2Fe4O15
_chemical_formula_sum   'Ba12 Sr4 Fe8 O30'
_cell_volume   897.17383624
_cell_formula_units_Z   2
loop_
 _symmetry_equiv_pos_site_id
 _symmetry_equiv_pos_as_xyz
  1  'x, y, z'
loop_
 _atom_site_type_symbol
 _atom_site_label
 _atom_site_symmetry_multiplicity
 _atom_site_fract_x
 _atom_site_fract_y
 _atom_site_fract_z
 _atom_site_occupancy
  Ba  Ba0  1  0.999863  0.002478  0.490370  1
  Ba  Ba1  1  0.002478  0.999863  0.990370  1
  Ba  Ba2  1  0.823481  0.656776  0.825810  1
  Ba  Ba3  1  0.350974  0.178021  0.831405  1
  Ba  Ba4  1  0.820741  0.169442  0.832179  1
  Ba  Ba5  1  0.178021  0.350974  0.331405  1
  Ba  Ba6  1  0.656776  0.823481  0.325810  1
  Ba  Ba7  1  0.169442  0.820741  0.332179  1
  Ba  Ba8  1  0.333549  0.660885  0.013827  1
  Ba  Ba9  1  0.660885  0.333549  0.513827  1
  Ba  Ba10  1  0.518890  0.039709  0.174754  1
  Ba  Ba11  1  0.039709  0.518890  0.674754  1
  Sr  Sr12  1  0.958100  0.478455  0.171281  1
  Sr  Sr13  1  0.520296  0.479658  0.169336  1
  Sr  Sr14  1  0.478455  0.958100  0.671281  1
  Sr  Sr15  1  0.479658  0.520296  0.669336  1
  Fe  Fe16  1  0.666186  0.336302  0.986023  1
  Fe  Fe17  1  0.336302  0.666186  0.486023  1
  Fe  Fe18  1  0.177679  0.820258  0.829623  1
  Fe  Fe19  1  0.181914  0.357786  0.833984  1
  Fe  Fe20  1  0.640821  0.817426  0.822866  1
  Fe  Fe21  1  0.820258  0.177679  0.329623  1
  Fe  Fe22  1  0.817426  0.640821  0.322866  1
  Fe  Fe23  1  0.357786  0.181914  0.333984  1
  O  O24  1  0.940159  0.319917  0.458961  1
  O  O25  1  0.674645  0.605586  0.470359  1
  O  O26  1  0.391819  0.074728  0.485436  1
  O  O27  1  0.932997  0.610346  0.453955  1
  O  O28  1  0.682523  0.072182  0.487405  1
  O  O29  1  0.392698  0.327099  0.472829  1
  O  O30  1  0.072182  0.682523  0.987405  1
  O  O31  1  0.327099  0.392698  0.972829  1
  O  O32  1  0.610346  0.932997  0.953955  1
  O  O33  1  0.074728  0.391819  0.985436  1
  O  O34  1  0.319917  0.940159  0.958961  1
  O  O35  1  0.605586  0.674645  0.970359  1
  O  O36  1  0.099699  0.194909  0.726670  1
  O  O37  1  0.805626  0.892896  0.721543  1
  O  O38  1  0.084902  0.888165  0.713478  1
  O  O39  1  0.892896  0.805626  0.221543  1
  O  O40  1  0.194909  0.099699  0.226670  1
  O  O41  1  0.888165  0.084902  0.213478  1
  O  O42  1  0.751158  0.257417  0.163340  1
  O  O43  1  0.745856  0.495305  0.155843  1
  O  O44  1  0.504950  0.258319  0.161704  1
  O  O45  1  0.257417  0.751158  0.663340  1
  O  O46  1  0.258319  0.504950  0.661704  1
  O  O47  1  0.495305  0.745856  0.655843  1
  O  O48  1  0.411772  0.590685  0.339668  1
  O  O49  1  0.409149  0.816065  0.342106  1
  O  O50  1  0.185923  0.592807  0.341345  1
  O  O51  1  0.590685  0.411772  0.839668  1
  O  O52  1  0.592807  0.185923  0.841345  1
  O  O53  1  0.816065  0.409149  0.842106  1
