# generated using pymatgen
data_K2PtO2
_symmetry_space_group_name_H-M   'P 1'
_cell_length_a   4.11216191
_cell_length_b   4.11216182
_cell_length_c   7.16222444
_cell_angle_alpha   106.68280412
_cell_angle_beta   106.68280544
_cell_angle_gamma   90.00001133
_symmetry_Int_Tables_number   1
_chemical_formula_structural   K2PtO2
_chemical_formula_sum   'K2 Pt1 O2'
_cell_volume   110.68222395
_cell_formula_units_Z   1
loop_
 _symmetry_equiv_pos_site_id
 _symmetry_equiv_pos_as_xyz
  1  'x, y, z'
loop_
 _atom_site_type_symbol
 _atom_site_label
 _atom_site_symmetry_multiplicity
 _atom_site_fract_x
 _atom_site_fract_y
 _atom_site_fract_z
 _atom_site_occupancy
  K  K0  1  0.649442  0.649442  0.298885  1
  K  K1  1  0.350557  0.350558  0.701115  1
  Pt  Pt2  1  0.000000  0.000000  0.000000  1
  O  O3  1  0.142816  0.142815  0.285629  1
  O  O4  1  0.857186  0.857184  0.714370  1
