# generated using pymatgen
data_Ac8DyPd6
_symmetry_space_group_name_H-M   'P 1'
_cell_length_a   8.10937751
_cell_length_b   8.10937799
_cell_length_c   8.10937652
_cell_angle_alpha   72.45100397
_cell_angle_beta   72.45100139
_cell_angle_gamma   72.45100807
_symmetry_Int_Tables_number   1
_chemical_formula_structural   Ac8DyPd6
_chemical_formula_sum   'Ac8 Dy1 Pd6'
_cell_volume   471.61569081
_cell_formula_units_Z   1
loop_
 _symmetry_equiv_pos_site_id
 _symmetry_equiv_pos_as_xyz
  1  'x, y, z'
loop_
 _atom_site_type_symbol
 _atom_site_label
 _atom_site_symmetry_multiplicity
 _atom_site_fract_x
 _atom_site_fract_y
 _atom_site_fract_z
 _atom_site_occupancy
  Ac  Ac0  1  0.702510  0.702510  0.702510  1
  Ac  Ac1  1  0.297490  0.297490  0.297490  1
  Ac  Ac2  1  0.879993  0.174013  0.666113  1
  Ac  Ac3  1  0.666113  0.879993  0.174013  1
  Ac  Ac4  1  0.174013  0.666113  0.879993  1
  Ac  Ac5  1  0.120007  0.825987  0.333887  1
  Ac  Ac6  1  0.333887  0.120007  0.825987  1
  Ac  Ac7  1  0.825987  0.333887  0.120007  1
  Dy  Dy8  1  0.500000  0.500000  0.500000  1
  Pd  Pd9  1  0.896400  0.537606  0.355893  1
  Pd  Pd10  1  0.355893  0.896400  0.537606  1
  Pd  Pd11  1  0.537606  0.355893  0.896400  1
  Pd  Pd12  1  0.103600  0.462394  0.644107  1
  Pd  Pd13  1  0.644107  0.103600  0.462394  1
  Pd  Pd14  1  0.462394  0.644107  0.103600  1
