# generated using pymatgen
data_LaDy6CoBr12
_symmetry_space_group_name_H-M   'P 1'
_cell_length_a   9.23483633
_cell_length_b   9.23483654
_cell_length_c   9.23483700
_cell_angle_alpha   106.24321965
_cell_angle_beta   106.24322004
_cell_angle_gamma   106.24321540
_symmetry_Int_Tables_number   1
_chemical_formula_structural   LaDy6CoBr12
_chemical_formula_sum   'La1 Dy6 Co1 Br12'
_cell_volume   668.97228521
_cell_formula_units_Z   1
loop_
 _symmetry_equiv_pos_site_id
 _symmetry_equiv_pos_as_xyz
  1  'x, y, z'
loop_
 _atom_site_type_symbol
 _atom_site_label
 _atom_site_symmetry_multiplicity
 _atom_site_fract_x
 _atom_site_fract_y
 _atom_site_fract_z
 _atom_site_occupancy
  La  La0  1  0.500000  0.500000  0.500000  1
  Dy  Dy1  1  0.296659  0.093328  0.014911  1
  Dy  Dy2  1  0.093328  0.014911  0.296659  1
  Dy  Dy3  1  0.014911  0.296659  0.093328  1
  Dy  Dy4  1  0.703341  0.906672  0.985089  1
  Dy  Dy5  1  0.906672  0.985089  0.703341  1
  Dy  Dy6  1  0.985089  0.703341  0.906672  1
  Co  Co7  1  0.000000  0.000000  0.000000  1
  Br  Br8  1  0.220606  0.073825  0.674825  1
  Br  Br9  1  0.073825  0.674825  0.220606  1
  Br  Br10  1  0.674825  0.220606  0.073825  1
  Br  Br11  1  0.779394  0.926175  0.325175  1
  Br  Br12  1  0.926175  0.325175  0.779394  1
  Br  Br13  1  0.325175  0.779394  0.926175  1
  Br  Br14  1  0.371567  0.450764  0.150504  1
  Br  Br15  1  0.450764  0.150504  0.371567  1
  Br  Br16  1  0.150504  0.371567  0.450764  1
  Br  Br17  1  0.628433  0.549236  0.849496  1
  Br  Br18  1  0.549236  0.849496  0.628433  1
  Br  Br19  1  0.849496  0.628433  0.549236  1
