# generated using pymatgen
data_Ta4V4Si3As
_symmetry_space_group_name_H-M   'P 1'
_cell_length_a   3.43768000
_cell_length_b   6.56588359
_cell_length_c   7.89473035
_cell_angle_alpha   89.80530054
_cell_angle_beta   90.00000000
_cell_angle_gamma   90.00000000
_symmetry_Int_Tables_number   1
_chemical_formula_structural   Ta4V4Si3As
_chemical_formula_sum   'Ta4 V4 Si3 As1'
_cell_volume   178.19414070
_cell_formula_units_Z   1
loop_
 _symmetry_equiv_pos_site_id
 _symmetry_equiv_pos_as_xyz
  1  'x, y, z'
loop_
 _atom_site_type_symbol
 _atom_site_label
 _atom_site_symmetry_multiplicity
 _atom_site_fract_x
 _atom_site_fract_y
 _atom_site_fract_z
 _atom_site_occupancy
  Ta  Ta0  1  0.250000  0.541830  0.167375  1
  Ta  Ta1  1  0.750000  0.463137  0.838334  1
  Ta  Ta2  1  0.750000  0.948266  0.666299  1
  Ta  Ta3  1  0.250000  0.040389  0.328042  1
  V  V4  1  0.250000  0.634670  0.560025  1
  V  V5  1  0.750000  0.369429  0.437440  1
  V  V6  1  0.750000  0.870844  0.059537  1
  V  V7  1  0.250000  0.130535  0.942395  1
  Si  Si8  1  0.250000  0.756592  0.862432  1
  Si  Si9  1  0.750000  0.245391  0.138363  1
  Si  Si10  1  0.750000  0.743598  0.359642  1
  As  As11  1  0.250000  0.255318  0.640118  1
