# generated using pymatgen
data_Dy4InNi
_symmetry_space_group_name_H-M   'P 1'
_cell_length_a   9.55510554
_cell_length_b   9.55510583
_cell_length_c   9.55510500
_cell_angle_alpha   59.99999942
_cell_angle_beta   59.99999841
_cell_angle_gamma   59.99999595
_symmetry_Int_Tables_number   1
_chemical_formula_structural   Dy4InNi
_chemical_formula_sum   'Dy16 In4 Ni4'
_cell_volume   616.86685476
_cell_formula_units_Z   4
loop_
 _symmetry_equiv_pos_site_id
 _symmetry_equiv_pos_as_xyz
  1  'x, y, z'
loop_
 _atom_site_type_symbol
 _atom_site_label
 _atom_site_symmetry_multiplicity
 _atom_site_fract_x
 _atom_site_fract_y
 _atom_site_fract_z
 _atom_site_occupancy
  Dy  Dy0  1  0.597895  0.597895  0.597895  1
  Dy  Dy1  1  0.597895  0.597895  0.206317  1
  Dy  Dy2  1  0.597895  0.206317  0.597895  1
  Dy  Dy3  1  0.206317  0.597895  0.597895  1
  Dy  Dy4  1  0.061584  0.438416  0.438416  1
  Dy  Dy5  1  0.438416  0.061584  0.061584  1
  Dy  Dy6  1  0.438416  0.061584  0.438416  1
  Dy  Dy7  1  0.061584  0.438416  0.061584  1
  Dy  Dy8  1  0.438416  0.438416  0.061584  1
  Dy  Dy9  1  0.061584  0.061584  0.438416  1
  Dy  Dy10  1  0.186669  0.813331  0.813331  1
  Dy  Dy11  1  0.813331  0.186669  0.186669  1
  Dy  Dy12  1  0.813331  0.186669  0.813331  1
  Dy  Dy13  1  0.186669  0.813331  0.186669  1
  Dy  Dy14  1  0.813331  0.813331  0.186669  1
  Dy  Dy15  1  0.186669  0.186669  0.813331  1
  In  In16  1  0.832108  0.832108  0.832108  1
  In  In17  1  0.832108  0.832108  0.503677  1
  In  In18  1  0.832108  0.503677  0.832108  1
  In  In19  1  0.503677  0.832108  0.832108  1
  Ni  Ni20  1  0.392404  0.392404  0.392404  1
  Ni  Ni21  1  0.392404  0.392404  0.822787  1
  Ni  Ni22  1  0.392404  0.822787  0.392404  1
  Ni  Ni23  1  0.822787  0.392404  0.392404  1
