# generated using pymatgen
data_Cs2LiScBi2
_symmetry_space_group_name_H-M   'P 1'
_cell_length_a   10.31781440
_cell_length_b   10.31781427
_cell_length_c   10.31781320
_cell_angle_alpha   138.01855654
_cell_angle_beta   138.01461331
_cell_angle_gamma   60.87759557
_symmetry_Int_Tables_number   1
_chemical_formula_structural   Cs2LiScBi2
_chemical_formula_sum   'Cs4 Li2 Sc2 Bi4'
_cell_volume   486.12409439
_cell_formula_units_Z   2
loop_
 _symmetry_equiv_pos_site_id
 _symmetry_equiv_pos_as_xyz
  1  'x, y, z'
loop_
 _atom_site_type_symbol
 _atom_site_label
 _atom_site_symmetry_multiplicity
 _atom_site_fract_x
 _atom_site_fract_y
 _atom_site_fract_z
 _atom_site_occupancy
  Cs  Cs0  1  0.104777  0.826143  0.278634  1
  Cs  Cs1  1  0.895223  0.173857  0.721366  1
  Cs  Cs2  1  0.452490  0.673857  0.778634  1
  Cs  Cs3  1  0.547510  0.326143  0.221366  1
  Li  Li4  1  0.500000  0.250000  0.750000  1
  Li  Li5  1  0.500000  0.750000  0.250000  1
  Sc  Sc6  1  0.000000  0.250000  0.250000  1
  Sc  Sc7  1  0.000000  0.750000  0.750000  1
  Bi  Bi8  1  0.677190  0.915160  0.762030  1
  Bi  Bi9  1  0.153130  0.415160  0.737970  1
  Bi  Bi10  1  0.846870  0.584840  0.262030  1
  Bi  Bi11  1  0.322810  0.084840  0.237970  1
