# generated using pymatgen
data_PaFe4(ReTc3)2
_symmetry_space_group_name_H-M   'P 1'
_cell_length_a   4.72451058
_cell_length_b   6.75070544
_cell_length_c   6.75070542
_cell_angle_alpha   96.75911415
_cell_angle_beta   110.48287082
_cell_angle_gamma   69.51713778
_symmetry_Int_Tables_number   1
_chemical_formula_structural   PaFe4(ReTc3)2
_chemical_formula_sum   'Pa1 Fe4 Re2 Tc6'
_cell_volume   188.93877204
_cell_formula_units_Z   1
loop_
 _symmetry_equiv_pos_site_id
 _symmetry_equiv_pos_as_xyz
  1  'x, y, z'
loop_
 _atom_site_type_symbol
 _atom_site_label
 _atom_site_symmetry_multiplicity
 _atom_site_fract_x
 _atom_site_fract_y
 _atom_site_fract_z
 _atom_site_occupancy
  Pa  Pa0  1  0.000000  0.000000  0.000000  1
  Fe  Fe1  1  0.500000  0.000000  0.500000  1
  Fe  Fe2  1  0.000000  0.000000  0.500000  1
  Fe  Fe3  1  0.500000  0.500000  0.000000  1
  Fe  Fe4  1  0.000000  0.500000  0.000000  1
  Re  Re5  1  0.000000  0.357199  0.357199  1
  Re  Re6  1  0.000000  0.642801  0.642801  1
  Tc  Tc7  1  0.713706  0.786294  0.213706  1
  Tc  Tc8  1  0.286294  0.213706  0.786294  1
  Tc  Tc9  1  0.500000  0.784011  0.784011  1
  Tc  Tc10  1  0.500000  0.215989  0.215989  1
  Tc  Tc11  1  0.644222  0.355778  0.644222  1
  Tc  Tc12  1  0.355778  0.644222  0.355778  1
