# generated using pymatgen
data_Sm3Y17Pb16
_symmetry_space_group_name_H-M   'P 1'
_cell_length_a   8.23657633
_cell_length_b   8.34776345
_cell_length_c   15.72462334
_cell_angle_alpha   90.03575089
_cell_angle_beta   89.96932254
_cell_angle_gamma   89.87361821
_symmetry_Int_Tables_number   1
_chemical_formula_structural   Sm3Y17Pb16
_chemical_formula_sum   'Sm3 Y17 Pb16'
_cell_volume   1081.17478701
_cell_formula_units_Z   1
loop_
 _symmetry_equiv_pos_site_id
 _symmetry_equiv_pos_as_xyz
  1  'x, y, z'
loop_
 _atom_site_type_symbol
 _atom_site_label
 _atom_site_symmetry_multiplicity
 _atom_site_fract_x
 _atom_site_fract_y
 _atom_site_fract_z
 _atom_site_occupancy
  Sm  Sm0  1  0.031917  0.177404  0.099514  1
  Sm  Sm1  1  0.467857  0.676956  0.900710  1
  Sm  Sm2  1  0.967324  0.823321  0.599297  1
  Y  Y3  1  0.623234  0.159324  0.620443  1
  Y  Y4  1  0.124016  0.340846  0.879251  1
  Y  Y5  1  0.376170  0.841180  0.120973  1
  Y  Y6  1  0.876465  0.658955  0.379556  1
  Y  Y7  1  0.376403  0.841199  0.379449  1
  Y  Y8  1  0.875964  0.658706  0.120751  1
  Y  Y9  1  0.623997  0.158719  0.879155  1
  Y  Y10  1  0.123321  0.341083  0.620588  1
  Y  Y11  1  0.465238  0.675608  0.600651  1
  Y  Y12  1  0.965608  0.823898  0.899192  1
  Y  Y13  1  0.533938  0.323797  0.100420  1
  Y  Y14  1  0.034316  0.176689  0.399445  1
  Y  Y15  1  0.533723  0.323701  0.400213  1
  Y  Y16  1  0.791444  0.496184  0.749689  1
  Y  Y17  1  0.291586  0.003872  0.749962  1
  Y  Y18  1  0.208966  0.503610  0.250411  1
  Y  Y19  1  0.708576  0.996095  0.250338  1
  Pb  Pb20  1  0.717642  0.968430  0.456229  1
  Pb  Pb21  1  0.218068  0.533337  0.043581  1
  Pb  Pb22  1  0.281829  0.032863  0.956591  1
  Pb  Pb23  1  0.780319  0.465958  0.542566  1
  Pb  Pb24  1  0.283272  0.035193  0.542162  1
  Pb  Pb25  1  0.783557  0.464174  0.957940  1
  Pb  Pb26  1  0.716389  0.964356  0.042127  1
  Pb  Pb27  1  0.218412  0.533804  0.457578  1
  Pb  Pb28  1  0.428250  0.373329  0.750113  1
  Pb  Pb29  1  0.928331  0.126954  0.749779  1
  Pb  Pb30  1  0.571891  0.625996  0.250189  1
  Pb  Pb31  1  0.071898  0.873490  0.249930  1
  Pb  Pb32  1  0.655138  0.848780  0.749135  1
  Pb  Pb33  1  0.155160  0.651156  0.750614  1
  Pb  Pb34  1  0.345880  0.151997  0.250375  1
  Pb  Pb35  1  0.843901  0.349038  0.251082  1
