# generated using pymatgen
data_Hf3ScTi2(Si2Mo)2
_symmetry_space_group_name_H-M   'P 1'
_cell_length_a   3.57340500
_cell_length_b   6.90449632
_cell_length_c   8.28158753
_cell_angle_alpha   90.48054283
_cell_angle_beta   90.00000000
_cell_angle_gamma   90.00000000
_symmetry_Int_Tables_number   1
_chemical_formula_structural   Hf3ScTi2(Si2Mo)2
_chemical_formula_sum   'Hf3 Sc1 Ti2 Si4 Mo2'
_cell_volume   204.32079256
_cell_formula_units_Z   1
loop_
 _symmetry_equiv_pos_site_id
 _symmetry_equiv_pos_as_xyz
  1  'x, y, z'
loop_
 _atom_site_type_symbol
 _atom_site_label
 _atom_site_symmetry_multiplicity
 _atom_site_fract_x
 _atom_site_fract_y
 _atom_site_fract_z
 _atom_site_occupancy
  Hf  Hf0  1  0.750000  0.946214  0.668209  1
  Hf  Hf1  1  0.250000  0.544302  0.163245  1
  Hf  Hf2  1  0.750000  0.449423  0.835385  1
  Sc  Sc3  1  0.250000  0.043394  0.335776  1
  Ti  Ti4  1  0.750000  0.378444  0.442052  1
  Ti  Ti5  1  0.750000  0.877146  0.057944  1
  Si  Si6  1  0.250000  0.250463  0.638612  1
  Si  Si7  1  0.750000  0.746088  0.361113  1
  Si  Si8  1  0.250000  0.752247  0.862487  1
  Si  Si9  1  0.750000  0.248198  0.137414  1
  Mo  Mo10  1  0.250000  0.629906  0.558503  1
  Mo  Mo11  1  0.250000  0.134175  0.939260  1
