# generated using pymatgen
data_ErTm3Mn2(Co2Si5)2
_symmetry_space_group_name_H-M   'P 1'
_cell_length_a   5.38456287
_cell_length_b   7.97523498
_cell_length_c   7.97369789
_cell_angle_alpha   72.50136976
_cell_angle_beta   70.26652231
_cell_angle_gamma   70.27048292
_symmetry_Int_Tables_number   1
_chemical_formula_structural   ErTm3Mn2(Co2Si5)2
_chemical_formula_sum   'Er1 Tm3 Mn2 Co4 Si10'
_cell_volume   296.57435366
_cell_formula_units_Z   1
loop_
 _symmetry_equiv_pos_site_id
 _symmetry_equiv_pos_as_xyz
  1  'x, y, z'
loop_
 _atom_site_type_symbol
 _atom_site_label
 _atom_site_symmetry_multiplicity
 _atom_site_fract_x
 _atom_site_fract_y
 _atom_site_fract_z
 _atom_site_occupancy
  Er  Er0  1  0.137405  0.594273  0.130916  1
  Tm  Tm1  1  0.362790  0.868847  0.405574  1
  Tm  Tm2  1  0.637649  0.130441  0.594261  1
  Tm  Tm3  1  0.862517  0.405786  0.869181  1
  Mn  Mn4  1  0.749848  0.000729  0.999826  1
  Mn  Mn5  1  0.249598  0.000729  0.999826  1
  Co  Co6  1  0.141535  0.263131  0.453799  1
  Co  Co7  1  0.858683  0.736239  0.546396  1
  Co  Co8  1  0.641469  0.453209  0.263852  1
  Co  Co9  1  0.358622  0.546519  0.736238  1
  Si  Si10  1  0.749885  0.499728  0.500433  1
  Si  Si11  1  0.249954  0.499728  0.500433  1
  Si  Si12  1  0.533919  0.215822  0.216082  1
  Si  Si13  1  0.965965  0.783986  0.783816  1
  Si  Si14  1  0.466233  0.783986  0.783816  1
  Si  Si15  1  0.034177  0.215822  0.216082  1
  Si  Si16  1  0.097948  0.073288  0.730815  1
  Si  Si17  1  0.901846  0.927049  0.269259  1
  Si  Si18  1  0.597905  0.731169  0.073021  1
  Si  Si19  1  0.402053  0.269522  0.926373  1
