# generated using pymatgen
data_Pa2SiRu3
_symmetry_space_group_name_H-M   'P 1'
_cell_length_a   5.00380601
_cell_length_b   5.00380521
_cell_length_c   5.00380540
_cell_angle_alpha   68.54283960
_cell_angle_beta   68.54283091
_cell_angle_gamma   68.54282649
_symmetry_Int_Tables_number   1
_chemical_formula_structural   Pa2SiRu3
_chemical_formula_sum   'Pa2 Si1 Ru3'
_cell_volume   104.55597988
_cell_formula_units_Z   1
loop_
 _symmetry_equiv_pos_site_id
 _symmetry_equiv_pos_as_xyz
  1  'x, y, z'
loop_
 _atom_site_type_symbol
 _atom_site_label
 _atom_site_symmetry_multiplicity
 _atom_site_fract_x
 _atom_site_fract_y
 _atom_site_fract_z
 _atom_site_occupancy
  Pa  Pa0  1  0.372675  0.372675  0.372675  1
  Pa  Pa1  1  0.627325  0.627325  0.627325  1
  Si  Si2  1  0.000000  0.000000  0.000000  1
  Ru  Ru3  1  0.500000  0.000000  0.000000  1
  Ru  Ru4  1  0.000000  0.500000  0.000000  1
  Ru  Ru5  1  0.000000  0.000000  0.500001  1
