# generated using pymatgen
data_Ho4Al24Pt7Au2
_symmetry_space_group_name_H-M   'P 1'
_cell_length_a   7.56427542
_cell_length_b   7.57842167
_cell_length_c   13.15466035
_cell_angle_alpha   84.53734921
_cell_angle_beta   79.00214662
_cell_angle_gamma   59.93029183
_symmetry_Int_Tables_number   1
_chemical_formula_structural   Ho4Al24Pt7Au2
_chemical_formula_sum   'Ho4 Al24 Pt7 Au2'
_cell_volume   640.62012071
_cell_formula_units_Z   1
loop_
 _symmetry_equiv_pos_site_id
 _symmetry_equiv_pos_as_xyz
  1  'x, y, z'
loop_
 _atom_site_type_symbol
 _atom_site_label
 _atom_site_symmetry_multiplicity
 _atom_site_fract_x
 _atom_site_fract_y
 _atom_site_fract_z
 _atom_site_occupancy
  Ho  Ho0  1  0.393016  0.169216  0.808772  1
  Ho  Ho1  1  0.606984  0.830784  0.191228  1
  Ho  Ho2  1  0.733438  0.499153  0.809484  1
  Ho  Ho3  1  0.266562  0.500847  0.190516  1
  Al  Al4  1  0.682949  0.834311  0.944877  1
  Al  Al5  1  0.317051  0.165689  0.055123  1
  Al  Al6  1  0.145818  0.839233  0.562357  1
  Al  Al7  1  0.854182  0.160767  0.437643  1
  Al  Al8  1  0.488127  0.159570  0.559535  1
  Al  Al9  1  0.511873  0.840430  0.440465  1
  Al  Al10  1  0.223153  0.160665  0.325399  1
  Al  Al11  1  0.776847  0.839335  0.674601  1
  Al  Al12  1  0.439835  0.506772  0.674633  1
  Al  Al13  1  0.560165  0.493228  0.325367  1
  Al  Al14  1  0.108940  0.155129  0.673259  1
  Al  Al15  1  0.891060  0.844871  0.326741  1
  Al  Al16  1  0.353306  0.498697  0.944718  1
  Al  Al17  1  0.646694  0.501303  0.055282  1
  Al  Al18  1  0.015626  0.167683  0.953267  1
  Al  Al19  1  0.984374  0.832317  0.046733  1
  Al  Al20  1  0.195477  0.499156  0.437628  1
  Al  Al21  1  0.804523  0.500844  0.562372  1
  Al  Al22  1  0.732610  0.164497  0.183151  1
  Al  Al23  1  0.267390  0.835503  0.816849  1
  Al  Al24  1  0.060359  0.633668  0.817804  1
  Al  Al25  1  0.939641  0.366332  0.182196  1
  Al  Al26  1  0.853973  0.042731  0.816382  1
  Al  Al27  1  0.146027  0.957269  0.183618  1
  Pt  Pt28  1  0.656936  0.171588  0.999816  1
  Pt  Pt29  1  0.343064  0.828412  0.000184  1
  Pt  Pt30  1  0.537384  0.166517  0.361931  1
  Pt  Pt31  1  0.462616  0.833483  0.638069  1
  Pt  Pt32  1  0.779497  0.175526  0.636685  1
  Pt  Pt33  1  0.220503  0.824474  0.363315  1
  Pt  Pt34  1  0.000000  0.500000  0.000000  1
  Au  Au35  1  0.119917  0.491008  0.638168  1
  Au  Au36  1  0.880083  0.508992  0.361832  1
