# generated using pymatgen
data_Nb2HC
_symmetry_space_group_name_H-M   'P 1'
_cell_length_a   5.42805722
_cell_length_b   5.42805705
_cell_length_c   5.42805642
_cell_angle_alpha   33.64751609
_cell_angle_beta   33.64751681
_cell_angle_gamma   33.64750967
_symmetry_Int_Tables_number   1
_chemical_formula_structural   Nb2HC
_chemical_formula_sum   'Nb2 H1 C1'
_cell_volume   43.74101143
_cell_formula_units_Z   1
loop_
 _symmetry_equiv_pos_site_id
 _symmetry_equiv_pos_as_xyz
  1  'x, y, z'
loop_
 _atom_site_type_symbol
 _atom_site_label
 _atom_site_symmetry_multiplicity
 _atom_site_fract_x
 _atom_site_fract_y
 _atom_site_fract_z
 _atom_site_occupancy
  Nb  Nb0  1  0.247619  0.247619  0.247619  1
  Nb  Nb1  1  0.752381  0.752381  0.752381  1
  H  H2  1  0.000000  0.000000  0.000000  1
  C  C3  1  0.500000  0.500000  0.500000  1
