# generated using pymatgen
data_Co21TcSnB6
_symmetry_space_group_name_H-M   'P 1'
_cell_length_a   7.42399725
_cell_length_b   7.42399731
_cell_length_c   7.42399700
_cell_angle_alpha   59.99999691
_cell_angle_beta   59.99999666
_cell_angle_gamma   59.99999288
_symmetry_Int_Tables_number   1
_chemical_formula_structural   Co21TcSnB6
_chemical_formula_sum   'Co21 Tc1 Sn1 B6'
_cell_volume   289.33325532
_cell_formula_units_Z   1
loop_
 _symmetry_equiv_pos_site_id
 _symmetry_equiv_pos_as_xyz
  1  'x, y, z'
loop_
 _atom_site_type_symbol
 _atom_site_label
 _atom_site_symmetry_multiplicity
 _atom_site_fract_x
 _atom_site_fract_y
 _atom_site_fract_z
 _atom_site_occupancy
  Co  Co0  1  0.000000  0.000000  0.000000  1
  Co  Co1  1  0.612125  0.612125  0.163625  1
  Co  Co2  1  0.612125  0.163625  0.612125  1
  Co  Co3  1  0.163625  0.612125  0.612125  1
  Co  Co4  1  0.612125  0.612125  0.612125  1
  Co  Co5  1  0.379352  0.379352  0.861943  1
  Co  Co6  1  0.379352  0.861943  0.379352  1
  Co  Co7  1  0.861943  0.379352  0.379352  1
  Co  Co8  1  0.379352  0.379352  0.379352  1
  Co  Co9  1  0.002544  0.002544  0.334305  1
  Co  Co10  1  0.660606  0.002544  0.334305  1
  Co  Co11  1  0.002544  0.660606  0.334305  1
  Co  Co12  1  0.660606  0.334305  0.002544  1
  Co  Co13  1  0.002544  0.334305  0.002544  1
  Co  Co14  1  0.002544  0.334305  0.660606  1
  Co  Co15  1  0.334305  0.660606  0.002544  1
  Co  Co16  1  0.334305  0.002544  0.660606  1
  Co  Co17  1  0.334305  0.002544  0.002544  1
  Co  Co18  1  0.002544  0.002544  0.660606  1
  Co  Co19  1  0.002544  0.660606  0.002544  1
  Co  Co20  1  0.660606  0.002544  0.002544  1
  Tc  Tc21  1  0.250000  0.250000  0.250000  1
  Sn  Sn22  1  0.750000  0.750000  0.750000  1
  B  B23  1  0.725316  0.725316  0.274684  1
  B  B24  1  0.274684  0.725316  0.274684  1
  B  B25  1  0.725316  0.274684  0.274684  1
  B  B26  1  0.274684  0.274684  0.725316  1
  B  B27  1  0.725316  0.274684  0.725316  1
  B  B28  1  0.274684  0.725316  0.725316  1
