# generated using pymatgen
data_Ce2Mn4Ni8P7
_symmetry_space_group_name_H-M   'P 1'
_cell_length_a   9.17503085
_cell_length_b   9.20058950
_cell_length_c   3.71382900
_cell_angle_alpha   90.00000000
_cell_angle_beta   90.00000000
_cell_angle_gamma   120.13433514
_symmetry_Int_Tables_number   1
_chemical_formula_structural   Ce2Mn4Ni8P7
_chemical_formula_sum   'Ce2 Mn4 Ni8 P7'
_cell_volume   271.13541423
_cell_formula_units_Z   1
loop_
 _symmetry_equiv_pos_site_id
 _symmetry_equiv_pos_as_xyz
  1  'x, y, z'
loop_
 _atom_site_type_symbol
 _atom_site_label
 _atom_site_symmetry_multiplicity
 _atom_site_fract_x
 _atom_site_fract_y
 _atom_site_fract_z
 _atom_site_occupancy
  Ce  Ce0  1  0.665588  0.331577  0.000000  1
  Ce  Ce1  1  0.333749  0.666898  0.500000  1
  Mn  Mn2  1  0.121321  0.847080  0.500000  1
  Mn  Mn3  1  0.214193  0.096403  0.000000  1
  Mn  Mn4  1  0.902425  0.116761  0.000000  1
  Mn  Mn5  1  0.885685  0.784599  0.000000  1
  Ni  Ni6  1  0.433360  0.063778  0.500000  1
  Ni  Ni7  1  0.939805  0.373240  0.500000  1
  Ni  Ni8  1  0.630299  0.568904  0.500000  1
  Ni  Ni9  1  0.152900  0.277861  0.500000  1
  Ni  Ni10  1  0.723451  0.876182  0.500000  1
  Ni  Ni11  1  0.383833  0.432735  0.000000  1
  Ni  Ni12  1  0.565354  0.949953  0.000000  1
  Ni  Ni13  1  0.048482  0.614620  0.000000  1
  P  P14  1  0.109600  0.400552  0.000000  1
  P  P15  1  0.599254  0.708508  0.000000  1
  P  P16  1  0.288034  0.887217  0.000000  1
  P  P17  1  0.001424  0.000685  0.500000  1
  P  P18  1  0.405205  0.297754  0.500000  1
  P  P19  1  0.704086  0.109615  0.500000  1
  P  P20  1  0.891951  0.595077  0.500000  1
