# generated using pymatgen
data_TbSmNCl3
_symmetry_space_group_name_H-M   'P 1'
_cell_length_a   8.50479086
_cell_length_b   8.50479101
_cell_length_c   10.86970000
_cell_angle_alpha   59.82712636
_cell_angle_beta   59.82712577
_cell_angle_gamma   26.57508840
_symmetry_Int_Tables_number   1
_chemical_formula_structural   TbSmNCl3
_chemical_formula_sum   'Tb2 Sm2 N2 Cl6'
_cell_volume   301.19718006
_cell_formula_units_Z   2
loop_
 _symmetry_equiv_pos_site_id
 _symmetry_equiv_pos_as_xyz
  1  'x, y, z'
loop_
 _atom_site_type_symbol
 _atom_site_label
 _atom_site_symmetry_multiplicity
 _atom_site_fract_x
 _atom_site_fract_y
 _atom_site_fract_z
 _atom_site_occupancy
  Tb  Tb0  1  0.583596  0.583596  0.044898  1
  Tb  Tb1  1  0.416404  0.416404  0.955102  1
  Sm  Sm2  1  0.862489  0.862489  0.292217  1
  Sm  Sm3  1  0.137511  0.137511  0.707783  1
  N  N4  1  0.425389  0.425389  0.154554  1
  N  N5  1  0.574611  0.574611  0.845446  1
  Cl  Cl6  1  0.048376  0.048376  0.245695  1
  Cl  Cl7  1  0.951624  0.951624  0.754305  1
  Cl  Cl8  1  0.665143  0.665143  0.486761  1
  Cl  Cl9  1  0.334857  0.334857  0.513239  1
  Cl  Cl10  1  0.782563  0.782563  0.110120  1
  Cl  Cl11  1  0.217437  0.217437  0.889880  1
