# generated using pymatgen
data_Hf4Si4W
_symmetry_space_group_name_H-M   'P 1'
_cell_length_a   6.94049600
_cell_length_b   6.94049600
_cell_length_c   12.72507600
_cell_angle_alpha   90.00000000
_cell_angle_beta   90.00000000
_cell_angle_gamma   90.00000000
_symmetry_Int_Tables_number   1
_chemical_formula_structural   Hf4Si4W
_chemical_formula_sum   'Hf16 Si16 W4'
_cell_volume   612.97307910
_cell_formula_units_Z   4
loop_
 _symmetry_equiv_pos_site_id
 _symmetry_equiv_pos_as_xyz
  1  'x, y, z'
loop_
 _atom_site_type_symbol
 _atom_site_label
 _atom_site_symmetry_multiplicity
 _atom_site_fract_x
 _atom_site_fract_y
 _atom_site_fract_z
 _atom_site_occupancy
  Hf  Hf0  1  0.496942  0.154641  0.530416  1
  Hf  Hf1  1  0.503058  0.845359  0.030416  1
  Hf  Hf2  1  0.654641  0.003058  0.280416  1
  Hf  Hf3  1  0.345359  0.996942  0.780416  1
  Hf  Hf4  1  0.845359  0.503058  0.969584  1
  Hf  Hf5  1  0.154641  0.496942  0.469584  1
  Hf  Hf6  1  0.003058  0.654641  0.719584  1
  Hf  Hf7  1  0.996942  0.345359  0.219584  1
  Hf  Hf8  1  0.497900  0.355130  0.124733  1
  Hf  Hf9  1  0.502100  0.644870  0.624733  1
  Hf  Hf10  1  0.855130  0.002100  0.874733  1
  Hf  Hf11  1  0.144870  0.997900  0.374733  1
  Hf  Hf12  1  0.644870  0.502100  0.375267  1
  Hf  Hf13  1  0.355130  0.497900  0.875267  1
  Hf  Hf14  1  0.002100  0.855130  0.125267  1
  Hf  Hf15  1  0.997900  0.144870  0.625267  1
  Si  Si16  1  0.797249  0.146523  0.071663  1
  Si  Si17  1  0.202751  0.853477  0.571663  1
  Si  Si18  1  0.646523  0.702751  0.821663  1
  Si  Si19  1  0.353477  0.297249  0.321663  1
  Si  Si20  1  0.853477  0.202751  0.428337  1
  Si  Si21  1  0.146523  0.797249  0.928337  1
  Si  Si22  1  0.702751  0.646523  0.178337  1
  Si  Si23  1  0.297249  0.353477  0.678337  1
  Si  Si24  1  0.546059  0.197355  0.933268  1
  Si  Si25  1  0.453941  0.802645  0.433268  1
  Si  Si26  1  0.697355  0.953941  0.683268  1
  Si  Si27  1  0.302645  0.046059  0.183268  1
  Si  Si28  1  0.802645  0.453941  0.566732  1
  Si  Si29  1  0.197355  0.546059  0.066732  1
  Si  Si30  1  0.953941  0.697355  0.316732  1
  Si  Si31  1  0.046059  0.302645  0.816732  1
  W  W32  1  0.672712  0.327288  0.750000  1
  W  W33  1  0.327288  0.672712  0.250000  1
  W  W34  1  0.827288  0.827288  0.500000  1
  W  W35  1  0.172712  0.172712  0.000000  1
