# generated using pymatgen
data_Sm2Dy3Sn4
_symmetry_space_group_name_H-M   'P 1'
_cell_length_a   8.09961300
_cell_length_b   8.25273000
_cell_length_c   15.58279800
_cell_angle_alpha   90.00000000
_cell_angle_beta   90.00000000
_cell_angle_gamma   90.00000000
_symmetry_Int_Tables_number   1
_chemical_formula_structural   Sm2Dy3Sn4
_chemical_formula_sum   'Sm8 Dy12 Sn16'
_cell_volume   1041.61529032
_cell_formula_units_Z   4
loop_
 _symmetry_equiv_pos_site_id
 _symmetry_equiv_pos_as_xyz
  1  'x, y, z'
loop_
 _atom_site_type_symbol
 _atom_site_label
 _atom_site_symmetry_multiplicity
 _atom_site_fract_x
 _atom_site_fract_y
 _atom_site_fract_z
 _atom_site_occupancy
  Sm  Sm0  1  0.518437  0.320799  0.902359  1
  Sm  Sm1  1  0.018437  0.179201  0.597641  1
  Sm  Sm2  1  0.481563  0.679201  0.402359  1
  Sm  Sm3  1  0.981563  0.820799  0.097641  1
  Sm  Sm4  1  0.481563  0.679201  0.097641  1
  Sm  Sm5  1  0.981563  0.820799  0.402359  1
  Sm  Sm6  1  0.518437  0.320799  0.597641  1
  Sm  Sm7  1  0.018437  0.179201  0.902359  1
  Dy  Dy8  1  0.365952  0.835848  0.877847  1
  Dy  Dy9  1  0.865952  0.664152  0.622153  1
  Dy  Dy10  1  0.634048  0.164152  0.377847  1
  Dy  Dy11  1  0.134048  0.335848  0.122153  1
  Dy  Dy12  1  0.634048  0.164152  0.122153  1
  Dy  Dy13  1  0.134048  0.335848  0.377847  1
  Dy  Dy14  1  0.365952  0.835848  0.622153  1
  Dy  Dy15  1  0.865952  0.664152  0.877847  1
  Dy  Dy16  1  0.198269  0.502840  0.750000  1
  Dy  Dy17  1  0.698269  0.997160  0.750000  1
  Dy  Dy18  1  0.801731  0.497160  0.250000  1
  Dy  Dy19  1  0.301731  0.002840  0.250000  1
  Sn  Sn20  1  0.296348  0.037462  0.041866  1
  Sn  Sn21  1  0.796348  0.462538  0.458134  1
  Sn  Sn22  1  0.703652  0.962538  0.541866  1
  Sn  Sn23  1  0.203652  0.537462  0.958134  1
  Sn  Sn24  1  0.703652  0.962538  0.958134  1
  Sn  Sn25  1  0.203652  0.537462  0.541866  1
  Sn  Sn26  1  0.296348  0.037462  0.458134  1
  Sn  Sn27  1  0.796348  0.462538  0.041866  1
  Sn  Sn28  1  0.564662  0.620947  0.750000  1
  Sn  Sn29  1  0.064662  0.879053  0.750000  1
  Sn  Sn30  1  0.435338  0.379053  0.250000  1
  Sn  Sn31  1  0.935338  0.120947  0.250000  1
  Sn  Sn32  1  0.326722  0.143985  0.750000  1
  Sn  Sn33  1  0.826722  0.356015  0.750000  1
  Sn  Sn34  1  0.673278  0.856015  0.250000  1
  Sn  Sn35  1  0.173278  0.643985  0.250000  1
