# generated using pymatgen
data_TbEr11Ga2TcNi3
_symmetry_space_group_name_H-M   'P 1'
_cell_length_a   8.26680510
_cell_length_b   8.26827268
_cell_length_c   8.26827272
_cell_angle_alpha   112.87959644
_cell_angle_beta   109.80164094
_cell_angle_gamma   105.81592566
_symmetry_Int_Tables_number   1
_chemical_formula_structural   TbEr11Ga2TcNi3
_chemical_formula_sum   'Tb1 Er11 Ga2 Tc1 Ni3'
_cell_volume   433.36679817
_cell_formula_units_Z   1
loop_
 _symmetry_equiv_pos_site_id
 _symmetry_equiv_pos_as_xyz
  1  'x, y, z'
loop_
 _atom_site_type_symbol
 _atom_site_label
 _atom_site_symmetry_multiplicity
 _atom_site_fract_x
 _atom_site_fract_y
 _atom_site_fract_z
 _atom_site_occupancy
  Tb  Tb0  1  0.054426  0.748638  0.305789  1
  Er  Er1  1  0.962805  0.268055  0.694750  1
  Er  Er2  1  0.557082  0.251596  0.305486  1
  Er  Er3  1  0.426943  0.732018  0.694925  1
  Er  Er4  1  0.674272  0.862781  0.192799  1
  Er  Er5  1  0.330499  0.518056  0.192790  1
  Er  Er6  1  0.330499  0.137708  0.812443  1
  Er  Er7  1  0.674272  0.481473  0.811492  1
  Er  Er8  1  0.175365  0.221872  0.396788  1
  Er  Er9  1  0.814077  0.217941  0.032376  1
  Er  Er10  1  0.175365  0.778578  0.953494  1
  Er  Er11  1  0.814077  0.781701  0.596134  1
  Ga  Ga12  1  0.981903  0.499457  0.482446  1
  Ga  Ga13  1  0.506300  0.000293  0.506008  1
  Tc  Tc14  1  0.673024  0.499739  0.173286  1
  Ni  Ni15  1  0.346133  0.500016  0.846116  1
  Ni  Ni16  1  0.882783  0.881514  0.001267  1
  Ni  Ni17  1  0.120175  0.118567  0.001608  1
