# generated using pymatgen
data_Pr4CdHg(IrO7)2
_symmetry_space_group_name_H-M   'P 1'
_cell_length_a   6.50732179
_cell_length_b   6.88084024
_cell_length_c   7.72909400
_cell_angle_alpha   90.00000000
_cell_angle_beta   90.00000000
_cell_angle_gamma   113.69645595
_symmetry_Int_Tables_number   1
_chemical_formula_structural   Pr4CdHg(IrO7)2
_chemical_formula_sum   'Pr4 Cd1 Hg1 Ir2 O14'
_cell_volume   316.89808226
_cell_formula_units_Z   1
loop_
 _symmetry_equiv_pos_site_id
 _symmetry_equiv_pos_as_xyz
  1  'x, y, z'
loop_
 _atom_site_type_symbol
 _atom_site_label
 _atom_site_symmetry_multiplicity
 _atom_site_fract_x
 _atom_site_fract_y
 _atom_site_fract_z
 _atom_site_occupancy
  Pr  Pr0  1  0.998674  0.999244  0.994640  1
  Pr  Pr1  1  0.998674  0.999244  0.505360  1
  Pr  Pr2  1  0.932791  0.475991  0.750000  1
  Pr  Pr3  1  0.064845  0.524577  0.250000  1
  Cd  Cd4  1  0.479969  0.955816  0.750000  1
  Hg  Hg5  1  0.520867  0.038019  0.250000  1
  Ir  Ir6  1  0.499185  0.498713  0.999825  1
  Ir  Ir7  1  0.499185  0.498713  0.500175  1
  O  O8  1  0.583060  0.544149  0.750000  1
  O  O9  1  0.420976  0.459645  0.250000  1
  O  O10  1  0.840192  0.103967  0.750000  1
  O  O11  1  0.171930  0.905235  0.250000  1
  O  O12  1  0.123294  0.853805  0.750000  1
  O  O13  1  0.867661  0.142551  0.250000  1
  O  O14  1  0.443112  0.207405  0.973188  1
  O  O15  1  0.557919  0.793053  0.494056  1
  O  O16  1  0.170175  0.415386  0.969723  1
  O  O17  1  0.828144  0.584322  0.465669  1
  O  O18  1  0.443112  0.207405  0.526812  1
  O  O19  1  0.557919  0.793053  0.005944  1
  O  O20  1  0.828144  0.584322  0.034331  1
  O  O21  1  0.170175  0.415386  0.530277  1
