# generated using pymatgen
data_Li3La4MgSn4
_symmetry_space_group_name_H-M   'P 1'
_cell_length_a   7.85712792
_cell_length_b   4.84729600
_cell_length_c   8.51019141
_cell_angle_alpha   90.00000000
_cell_angle_beta   89.56411938
_cell_angle_gamma   90.00000000
_symmetry_Int_Tables_number   1
_chemical_formula_structural   Li3La4MgSn4
_chemical_formula_sum   'Li3 La4 Mg1 Sn4'
_cell_volume   324.10827938
_cell_formula_units_Z   1
loop_
 _symmetry_equiv_pos_site_id
 _symmetry_equiv_pos_as_xyz
  1  'x, y, z'
loop_
 _atom_site_type_symbol
 _atom_site_label
 _atom_site_symmetry_multiplicity
 _atom_site_fract_x
 _atom_site_fract_y
 _atom_site_fract_z
 _atom_site_occupancy
  Li  Li0  1  0.829504  0.749999  0.075097  1
  Li  Li1  1  0.330375  0.749999  0.427294  1
  Li  Li2  1  0.669153  0.249999  0.575701  1
  La  La3  1  0.507878  0.249999  0.218206  1
  La  La4  1  0.999956  0.249999  0.288662  1
  La  La5  1  0.987720  0.749999  0.706461  1
  La  La6  1  0.497792  0.749999  0.784025  1
  Mg  Mg7  1  0.174668  0.249999  0.922242  1
  Sn  Sn8  1  0.233029  0.749999  0.101128  1
  Sn  Sn9  1  0.723952  0.749999  0.404897  1
  Sn  Sn10  1  0.272797  0.249999  0.590991  1
  Sn  Sn11  1  0.773176  0.249999  0.905296  1
