# generated using pymatgen
data_Ho3HfZr2(SnRh)6
_symmetry_space_group_name_H-M   'P 1'
_cell_length_a   7.50288201
_cell_length_b   7.48648140
_cell_length_c   7.50259900
_cell_angle_alpha   90.00000000
_cell_angle_beta   90.00000000
_cell_angle_gamma   120.07746106
_symmetry_Int_Tables_number   1
_chemical_formula_structural   Ho3HfZr2(SnRh)6
_chemical_formula_sum   'Ho3 Hf1 Zr2 Sn6 Rh6'
_cell_volume   364.67728747
_cell_formula_units_Z   1
loop_
 _symmetry_equiv_pos_site_id
 _symmetry_equiv_pos_as_xyz
  1  'x, y, z'
loop_
 _atom_site_type_symbol
 _atom_site_label
 _atom_site_symmetry_multiplicity
 _atom_site_fract_x
 _atom_site_fract_y
 _atom_site_fract_z
 _atom_site_occupancy
  Ho  Ho0  1  0.999937  0.405465  0.750000  1
  Ho  Ho1  1  0.594410  0.594553  0.750000  1
  Ho  Ho2  1  0.406205  0.999949  0.750000  1
  Hf  Hf3  1  0.394483  0.000607  0.250000  1
  Zr  Zr4  1  0.999665  0.394161  0.250000  1
  Zr  Zr5  1  0.606108  0.605204  0.250000  1
  Sn  Sn6  1  0.266368  0.266606  0.494387  1
  Sn  Sn7  1  0.000448  0.733788  0.494461  1
  Sn  Sn8  1  0.000448  0.733788  0.005539  1
  Sn  Sn9  1  0.733702  0.999717  0.493325  1
  Sn  Sn10  1  0.733702  0.999717  0.006675  1
  Sn  Sn11  1  0.266368  0.266606  0.005613  1
  Rh  Rh12  1  0.333690  0.669349  0.464414  1
  Rh  Rh13  1  0.664308  0.330588  0.466238  1
  Rh  Rh14  1  0.333690  0.669349  0.035586  1
  Rh  Rh15  1  0.000050  0.999995  0.750000  1
  Rh  Rh16  1  0.002110  0.999971  0.250000  1
  Rh  Rh17  1  0.664308  0.330588  0.033762  1
