# generated using pymatgen
data_Nd8Tm2(IrRh)3
_symmetry_space_group_name_H-M   'P 1'
_cell_length_a   11.14930859
_cell_length_b   11.14835500
_cell_length_c   6.54147234
_cell_angle_alpha   90.00000000
_cell_angle_beta   90.03720413
_cell_angle_gamma   90.00000000
_symmetry_Int_Tables_number   1
_chemical_formula_structural   Nd8Tm2(IrRh)3
_chemical_formula_sum   'Nd16 Tm4 Ir6 Rh6'
_cell_volume   813.08161973
_cell_formula_units_Z   2
loop_
 _symmetry_equiv_pos_site_id
 _symmetry_equiv_pos_as_xyz
  1  'x, y, z'
loop_
 _atom_site_type_symbol
 _atom_site_label
 _atom_site_symmetry_multiplicity
 _atom_site_fract_x
 _atom_site_fract_y
 _atom_site_fract_z
 _atom_site_occupancy
  Nd  Nd0  1  0.287746  0.087663  0.382434  1
  Nd  Nd1  1  0.287746  0.912337  0.882434  1
  Nd  Nd2  1  0.711174  0.088555  0.882465  1
  Nd  Nd3  1  0.711174  0.911445  0.382465  1
  Nd  Nd4  1  0.586168  0.787023  0.883302  1
  Nd  Nd5  1  0.586168  0.212977  0.383302  1
  Nd  Nd6  1  0.412077  0.787405  0.382897  1
  Nd  Nd7  1  0.412077  0.212595  0.882897  1
  Nd  Nd8  1  0.212720  0.412168  0.616788  1
  Nd  Nd9  1  0.212720  0.587832  0.116788  1
  Nd  Nd10  1  0.787086  0.413768  0.117064  1
  Nd  Nd11  1  0.787086  0.586232  0.617064  1
  Nd  Nd12  1  0.912719  0.711791  0.117895  1
  Nd  Nd13  1  0.912719  0.288209  0.617895  1
  Nd  Nd14  1  0.088996  0.711513  0.617318  1
  Nd  Nd15  1  0.088996  0.288487  0.117318  1
  Tm  Tm16  1  0.000704  0.999821  0.500004  1
  Tm  Tm17  1  0.000704  0.000179  0.000004  1
  Tm  Tm18  1  0.500060  0.499828  0.000024  1
  Tm  Tm19  1  0.500060  0.500172  0.500024  1
  Ir  Ir20  1  0.147240  0.148007  0.749832  1
  Ir  Ir21  1  0.147240  0.851993  0.249832  1
  Ir  Ir22  1  0.648920  0.351281  0.750008  1
  Ir  Ir23  1  0.648920  0.648719  0.250008  1
  Ir  Ir24  1  0.351656  0.351505  0.250063  1
  Ir  Ir25  1  0.351656  0.648495  0.750063  1
  Rh  Rh26  1  0.852154  0.146924  0.250105  1
  Rh  Rh27  1  0.852154  0.853076  0.750105  1
  Rh  Rh28  1  0.501242  0.000125  0.118839  1
  Rh  Rh29  1  0.501242  0.999875  0.618839  1
  Rh  Rh30  1  0.999337  0.500468  0.880963  1
  Rh  Rh31  1  0.999337  0.499532  0.380963  1
