# generated using pymatgen
data_Dy2Tm5Lu(Si3Rh)4
_symmetry_space_group_name_H-M   'P 1'
_cell_length_a   8.14281700
_cell_length_b   8.14432941
_cell_length_c   7.81760300
_cell_angle_alpha   90.00000000
_cell_angle_beta   90.00000000
_cell_angle_gamma   119.99385317
_symmetry_Int_Tables_number   1
_chemical_formula_structural   Dy2Tm5Lu(Si3Rh)4
_chemical_formula_sum   'Dy2 Tm5 Lu1 Si12 Rh4'
_cell_volume   449.01530679
_cell_formula_units_Z   1
loop_
 _symmetry_equiv_pos_site_id
 _symmetry_equiv_pos_as_xyz
  1  'x, y, z'
loop_
 _atom_site_type_symbol
 _atom_site_label
 _atom_site_symmetry_multiplicity
 _atom_site_fract_x
 _atom_site_fract_y
 _atom_site_fract_z
 _atom_site_occupancy
  Dy  Dy0  1  0.999879  0.999757  0.250000  1
  Dy  Dy1  1  0.000148  0.000296  0.750000  1
  Tm  Tm2  1  0.491232  0.508871  0.250000  1
  Tm  Tm3  1  0.491163  0.982324  0.250000  1
  Tm  Tm4  1  0.017640  0.508871  0.250000  1
  Tm  Tm5  1  0.508875  0.490895  0.750000  1
  Tm  Tm6  1  0.982019  0.490895  0.750000  1
  Lu  Lu7  1  0.508769  0.017539  0.750000  1
  Si  Si8  1  0.832546  0.167202  0.501323  1
  Si  Si9  1  0.832674  0.665349  0.500778  1
  Si  Si10  1  0.334656  0.167202  0.501323  1
  Si  Si11  1  0.832546  0.167202  0.998677  1
  Si  Si12  1  0.832674  0.665349  0.999222  1
  Si  Si13  1  0.334656  0.167202  0.998677  1
  Si  Si14  1  0.167393  0.832722  0.000536  1
  Si  Si15  1  0.665330  0.832722  0.000536  1
  Si  Si16  1  0.167468  0.334935  0.000602  1
  Si  Si17  1  0.167393  0.832722  0.499464  1
  Si  Si18  1  0.665330  0.832722  0.499464  1
  Si  Si19  1  0.167468  0.334935  0.499398  1
  Rh  Rh20  1  0.666500  0.332998  0.466183  1
  Rh  Rh21  1  0.666500  0.332998  0.033817  1
  Rh  Rh22  1  0.333572  0.667145  0.964531  1
  Rh  Rh23  1  0.333572  0.667145  0.535469  1
