# generated using pymatgen
data_Y3Ho2ErBi2Os
_symmetry_space_group_name_H-M   'P 1'
_cell_length_a   8.31079300
_cell_length_b   8.29762634
_cell_length_c   4.25674400
_cell_angle_alpha   90.00000000
_cell_angle_beta   90.00000000
_cell_angle_gamma   120.05250876
_symmetry_Int_Tables_number   1
_chemical_formula_structural   Y3Ho2ErBi2Os
_chemical_formula_sum   'Y3 Ho2 Er1 Bi2 Os1'
_cell_volume   254.08233332
_cell_formula_units_Z   1
loop_
 _symmetry_equiv_pos_site_id
 _symmetry_equiv_pos_as_xyz
  1  'x, y, z'
loop_
 _atom_site_type_symbol
 _atom_site_label
 _atom_site_symmetry_multiplicity
 _atom_site_fract_x
 _atom_site_fract_y
 _atom_site_fract_z
 _atom_site_occupancy
  Y  Y0  1  0.610074  0.000000  0.000000  1
  Y  Y1  1  0.000107  0.612342  0.000000  1
  Y  Y2  1  0.387765  0.387658  0.000000  1
  Ho  Ho3  1  0.999642  0.231325  0.500000  1
  Ho  Ho4  1  0.768317  0.768675  0.500000  1
  Er  Er5  1  0.231792  0.000000  0.500000  1
  Bi  Bi6  1  0.333276  0.667234  0.500000  1
  Bi  Bi7  1  0.666041  0.332766  0.500000  1
  Os  Os8  1  0.002986  0.000000  0.000000  1
