# generated using pymatgen
data_MgScMnIr3
_symmetry_space_group_name_H-M   'P 1'
_cell_length_a   5.29570600
_cell_length_b   5.29570520
_cell_length_c   7.99923500
_cell_angle_alpha   90.00000000
_cell_angle_beta   90.00000000
_cell_angle_gamma   120.00000501
_symmetry_Int_Tables_number   1
_chemical_formula_structural   MgScMnIr3
_chemical_formula_sum   'Mg2 Sc2 Mn2 Ir6'
_cell_volume   194.27939060
_cell_formula_units_Z   2
loop_
 _symmetry_equiv_pos_site_id
 _symmetry_equiv_pos_as_xyz
  1  'x, y, z'
loop_
 _atom_site_type_symbol
 _atom_site_label
 _atom_site_symmetry_multiplicity
 _atom_site_fract_x
 _atom_site_fract_y
 _atom_site_fract_z
 _atom_site_occupancy
  Mg  Mg0  1  0.666667  0.333333  0.936962  1
  Mg  Mg1  1  0.333333  0.666667  0.436962  1
  Sc  Sc2  1  0.333333  0.666667  0.071202  1
  Sc  Sc3  1  0.666667  0.333333  0.571202  1
  Mn  Mn4  1  0.000000  0.000000  0.996378  1
  Mn  Mn5  1  0.000000  0.000000  0.496378  1
  Ir  Ir6  1  0.829436  0.658872  0.248487  1
  Ir  Ir7  1  0.170564  0.829436  0.748487  1
  Ir  Ir8  1  0.658872  0.829436  0.748487  1
  Ir  Ir9  1  0.341128  0.170564  0.248487  1
  Ir  Ir10  1  0.829436  0.170564  0.248487  1
  Ir  Ir11  1  0.170564  0.341128  0.748487  1
