# generated using pymatgen
data_CeHo4(MnB3)2
_symmetry_space_group_name_H-M   'P 1'
_cell_length_a   5.43038434
_cell_length_b   5.43038447
_cell_length_c   8.03673307
_cell_angle_alpha   70.25418890
_cell_angle_beta   70.25418967
_cell_angle_gamma   59.99999053
_symmetry_Int_Tables_number   1
_chemical_formula_structural   CeHo4(MnB3)2
_chemical_formula_sum   'Ce1 Ho4 Mn2 B6'
_cell_volume   188.98224117
_cell_formula_units_Z   1
loop_
 _symmetry_equiv_pos_site_id
 _symmetry_equiv_pos_as_xyz
  1  'x, y, z'
loop_
 _atom_site_type_symbol
 _atom_site_label
 _atom_site_symmetry_multiplicity
 _atom_site_fract_x
 _atom_site_fract_y
 _atom_site_fract_z
 _atom_site_occupancy
  Ce  Ce0  1  0.000000  0.000000  0.000000  1
  Ho  Ho1  1  0.252028  0.252028  0.243916  1
  Ho  Ho2  1  0.747972  0.747972  0.756084  1
  Ho  Ho3  1  0.415239  0.415239  0.754285  1
  Ho  Ho4  1  0.584761  0.584761  0.245715  1
  Mn  Mn5  1  0.109663  0.109663  0.671010  1
  Mn  Mn6  1  0.890337  0.890337  0.328990  1
  B  B7  1  0.166511  0.833489  0.500000  1
  B  B8  1  0.833489  0.500000  0.500000  1
  B  B9  1  0.500000  0.166511  0.500000  1
  B  B10  1  0.166511  0.500000  0.500000  1
  B  B11  1  0.500000  0.833489  0.500000  1
  B  B12  1  0.833489  0.166511  0.500000  1
