# generated using pymatgen
data_Y3Tm7(LuRu2)2
_symmetry_space_group_name_H-M   'P 1'
_cell_length_a   6.22934180
_cell_length_b   7.32907701
_cell_length_c   8.98423176
_cell_angle_alpha   90.00124179
_cell_angle_beta   90.04727461
_cell_angle_gamma   89.88296844
_symmetry_Int_Tables_number   1
_chemical_formula_structural   Y3Tm7(LuRu2)2
_chemical_formula_sum   'Y3 Tm7 Lu2 Ru4'
_cell_volume   410.17703295
_cell_formula_units_Z   1
loop_
 _symmetry_equiv_pos_site_id
 _symmetry_equiv_pos_as_xyz
  1  'x, y, z'
loop_
 _atom_site_type_symbol
 _atom_site_label
 _atom_site_symmetry_multiplicity
 _atom_site_fract_x
 _atom_site_fract_y
 _atom_site_fract_z
 _atom_site_occupancy
  Y  Y0  1  0.871406  0.539914  0.250038  1
  Y  Y1  1  0.629423  0.040313  0.249976  1
  Y  Y2  1  0.129576  0.460154  0.749986  1
  Tm  Tm3  1  0.334953  0.676718  0.063440  1
  Tm  Tm4  1  0.166352  0.174276  0.436896  1
  Tm  Tm5  1  0.664541  0.323682  0.564266  1
  Tm  Tm6  1  0.833125  0.825060  0.935648  1
  Tm  Tm7  1  0.664640  0.323559  0.935741  1
  Tm  Tm8  1  0.833002  0.824922  0.564338  1
  Tm  Tm9  1  0.369132  0.958816  0.750005  1
  Lu  Lu10  1  0.335008  0.676612  0.436596  1
  Lu  Lu11  1  0.166299  0.174168  0.063067  1
  Ru  Ru12  1  0.044619  0.885058  0.250013  1
  Ru  Ru13  1  0.455209  0.384899  0.249985  1
  Ru  Ru14  1  0.960512  0.113973  0.750130  1
  Ru  Ru15  1  0.542203  0.617876  0.749876  1
