# generated using pymatgen
data_CdBi2Rh4PbO14
_symmetry_space_group_name_H-M   'P 1'
_cell_length_a   7.33984141
_cell_length_b   7.33984134
_cell_length_c   7.15014813
_cell_angle_alpha   59.66544187
_cell_angle_beta   59.66544231
_cell_angle_gamma   60.64666068
_symmetry_Int_Tables_number   1
_chemical_formula_structural   CdBi2Rh4PbO14
_chemical_formula_sum   'Cd1 Bi2 Rh4 Pb1 O14'
_cell_volume   272.27901509
_cell_formula_units_Z   1
loop_
 _symmetry_equiv_pos_site_id
 _symmetry_equiv_pos_as_xyz
  1  'x, y, z'
loop_
 _atom_site_type_symbol
 _atom_site_label
 _atom_site_symmetry_multiplicity
 _atom_site_fract_x
 _atom_site_fract_y
 _atom_site_fract_z
 _atom_site_occupancy
  Cd  Cd0  1  0.125000  0.125000  0.625000  1
  Bi  Bi1  1  0.125000  0.625000  0.125000  1
  Bi  Bi2  1  0.625000  0.125000  0.125000  1
  Rh  Rh3  1  0.625000  0.625000  0.625000  1
  Rh  Rh4  1  0.625000  0.625000  0.125000  1
  Rh  Rh5  1  0.125000  0.625000  0.625000  1
  Rh  Rh6  1  0.625000  0.125000  0.625000  1
  Pb  Pb7  1  0.125000  0.125000  0.125000  1
  O  O8  1  0.253831  0.253831  0.246788  1
  O  O9  1  0.293960  0.707185  0.288751  1
  O  O10  1  0.958662  0.958662  0.537338  1
  O  O11  1  0.545096  0.957131  0.539169  1
  O  O12  1  0.709277  0.709277  0.289091  1
  O  O13  1  0.957131  0.545096  0.539169  1
  O  O14  1  0.704904  0.292869  0.710831  1
  O  O15  1  0.291338  0.291338  0.712662  1
  O  O16  1  0.707185  0.293960  0.288751  1
  O  O17  1  0.292869  0.704904  0.710831  1
  O  O18  1  0.956040  0.542815  0.961249  1
  O  O19  1  0.540723  0.540723  0.960909  1
  O  O20  1  0.996169  0.996169  0.003212  1
  O  O21  1  0.542815  0.956040  0.961249  1
