# generated using pymatgen
data_LiZr5(ZnRh2)6
_symmetry_space_group_name_H-M   'P 1'
_cell_length_a   4.46692100
_cell_length_b   6.25915000
_cell_length_c   13.31154401
_cell_angle_alpha   90.00000000
_cell_angle_beta   89.99510100
_cell_angle_gamma   90.00000000
_symmetry_Int_Tables_number   1
_chemical_formula_structural   LiZr5(ZnRh2)6
_chemical_formula_sum   'Li1 Zr5 Zn6 Rh12'
_cell_volume   372.17916958
_cell_formula_units_Z   1
loop_
 _symmetry_equiv_pos_site_id
 _symmetry_equiv_pos_as_xyz
  1  'x, y, z'
loop_
 _atom_site_type_symbol
 _atom_site_label
 _atom_site_symmetry_multiplicity
 _atom_site_fract_x
 _atom_site_fract_y
 _atom_site_fract_z
 _atom_site_occupancy
  Li  Li0  1  0.000000  0.500001  0.000000  1
  Zr  Zr1  1  0.499871  0.000000  0.159883  1
  Zr  Zr2  1  0.999902  0.500001  0.330377  1
  Zr  Zr3  1  0.500000  0.000000  0.500000  1
  Zr  Zr4  1  0.000098  0.500001  0.669623  1
  Zr  Zr5  1  0.500129  0.000000  0.840117  1
  Zn  Zn6  1  0.000000  0.000000  0.000000  1
  Zn  Zn7  1  0.499902  0.500001  0.164229  1
  Zn  Zn8  1  0.999943  0.000000  0.327194  1
  Zn  Zn9  1  0.500000  0.500001  0.500000  1
  Zn  Zn10  1  0.000057  0.000000  0.672806  1
  Zn  Zn11  1  0.500098  0.500001  0.835772  1
  Rh  Rh12  1  0.500000  0.263310  0.000000  1
  Rh  Rh13  1  0.500000  0.736690  0.000000  1
  Rh  Rh14  1  0.999864  0.255747  0.162515  1
  Rh  Rh15  1  0.999864  0.744252  0.162515  1
  Rh  Rh16  1  0.499906  0.249514  0.332023  1
  Rh  Rh17  1  0.499906  0.750485  0.332023  1
  Rh  Rh18  1  0.000000  0.247713  0.500000  1
  Rh  Rh19  1  0.000000  0.752287  0.500000  1
  Rh  Rh20  1  0.500094  0.249514  0.667977  1
  Rh  Rh21  1  0.500094  0.750485  0.667977  1
  Rh  Rh22  1  0.000136  0.255747  0.837485  1
  Rh  Rh23  1  0.000136  0.744252  0.837485  1
