# generated using pymatgen
data_Ho12InNi5
_symmetry_space_group_name_H-M   'P 1'
_cell_length_a   8.26072560
_cell_length_b   8.26072612
_cell_length_c   8.26072593
_cell_angle_alpha   111.53784600
_cell_angle_beta   109.94322868
_cell_angle_gamma   106.96547497
_symmetry_Int_Tables_number   1
_chemical_formula_structural   Ho12InNi5
_chemical_formula_sum   'Ho12 In1 Ni5'
_cell_volume   433.23603393
_cell_formula_units_Z   1
loop_
 _symmetry_equiv_pos_site_id
 _symmetry_equiv_pos_as_xyz
  1  'x, y, z'
loop_
 _atom_site_type_symbol
 _atom_site_label
 _atom_site_symmetry_multiplicity
 _atom_site_fract_x
 _atom_site_fract_y
 _atom_site_fract_z
 _atom_site_occupancy
  Ho  Ho0  1  0.402641  0.211515  0.191127  1
  Ho  Ho1  1  0.597359  0.788485  0.808873  1
  Ho  Ho2  1  0.020389  0.211515  0.808873  1
  Ho  Ho3  1  0.979611  0.788485  0.191127  1
  Ho  Ho4  1  0.184324  0.295175  0.479499  1
  Ho  Ho5  1  0.815676  0.704825  0.520501  1
  Ho  Ho6  1  0.184324  0.704825  0.889150  1
  Ho  Ho7  1  0.815676  0.295175  0.110850  1
  Ho  Ho8  1  0.320076  0.624696  0.304620  1
  Ho  Ho9  1  0.679924  0.375304  0.695380  1
  Ho  Ho10  1  0.320076  0.015455  0.695380  1
  Ho  Ho11  1  0.679924  0.984545  0.304620  1
  In  In12  1  0.500000  0.500000  0.000000  1
  Ni  Ni13  1  0.366884  0.000000  0.366884  1
  Ni  Ni14  1  0.633116  0.000000  0.633116  1
  Ni  Ni15  1  0.123101  0.623101  0.500000  1
  Ni  Ni16  1  0.876899  0.376899  0.500000  1
  Ni  Ni17  1  0.000000  0.000000  0.000000  1
