# generated using pymatgen
data_Lu8Bi4IrRh
_symmetry_space_group_name_H-M   'P 1'
_cell_length_a   8.67546745
_cell_length_b   8.67535899
_cell_length_c   8.67546635
_cell_angle_alpha   96.41667125
_cell_angle_beta   96.41680896
_cell_angle_gamma   140.94055633
_symmetry_Int_Tables_number   1
_chemical_formula_structural   Lu8Bi4IrRh
_chemical_formula_sum   'Lu8 Bi4 Ir1 Rh1'
_cell_volume   387.76157520
_cell_formula_units_Z   1
loop_
 _symmetry_equiv_pos_site_id
 _symmetry_equiv_pos_as_xyz
  1  'x, y, z'
loop_
 _atom_site_type_symbol
 _atom_site_label
 _atom_site_symmetry_multiplicity
 _atom_site_fract_x
 _atom_site_fract_y
 _atom_site_fract_z
 _atom_site_occupancy
  Lu  Lu0  1  0.697444  0.581666  0.277682  1
  Lu  Lu1  1  0.303949  0.419722  0.722313  1
  Lu  Lu2  1  0.581647  0.303949  0.884228  1
  Lu  Lu3  1  0.080279  0.196051  0.277699  1
  Lu  Lu4  1  0.802591  0.080278  0.884226  1
  Lu  Lu5  1  0.419749  0.697434  0.115771  1
  Lu  Lu6  1  0.918337  0.802566  0.722314  1
  Lu  Lu7  1  0.196016  0.918334  0.115779  1
  Bi  Bi8  1  0.141181  0.641195  0.782373  1
  Bi  Bi9  1  0.358812  0.141193  0.500021  1
  Bi  Bi10  1  0.858827  0.358807  0.217617  1
  Bi  Bi11  1  0.641176  0.858805  0.499985  1
  Ir  Ir12  1  0.750069  0.750000  0.000069  1
  Rh  Rh13  1  0.249923  0.250000  0.999923  1
