# generated using pymatgen
data_Pr9DyC4I15
_symmetry_space_group_name_H-M   'P 1'
_cell_length_a   9.82763479
_cell_length_b   10.71117479
_cell_length_c   11.83848282
_cell_angle_alpha   93.77201207
_cell_angle_beta   114.18479873
_cell_angle_gamma   109.43120256
_symmetry_Int_Tables_number   1
_chemical_formula_structural   Pr9DyC4I15
_chemical_formula_sum   'Pr9 Dy1 C4 I15'
_cell_volume   1042.05794057
_cell_formula_units_Z   1
loop_
 _symmetry_equiv_pos_site_id
 _symmetry_equiv_pos_as_xyz
  1  'x, y, z'
loop_
 _atom_site_type_symbol
 _atom_site_label
 _atom_site_symmetry_multiplicity
 _atom_site_fract_x
 _atom_site_fract_y
 _atom_site_fract_z
 _atom_site_occupancy
  Pr  Pr0  1  0.343723  0.745518  0.163608  1
  Pr  Pr1  1  0.776514  0.883380  0.257043  1
  Pr  Pr2  1  0.528182  0.183754  0.102063  1
  Pr  Pr3  1  0.223538  0.115693  0.743407  1
  Pr  Pr4  1  0.403730  0.458935  0.658233  1
  Pr  Pr5  1  0.472614  0.815219  0.899149  1
  Pr  Pr6  1  0.704586  0.567522  0.044238  1
  Pr  Pr7  1  0.295329  0.432637  0.955631  1
  Pr  Pr8  1  0.656659  0.255185  0.834071  1
  Dy  Dy9  1  0.594006  0.544993  0.335151  1
  C  C10  1  0.482806  0.301171  0.938594  1
  C  C11  1  0.518030  0.697461  0.062628  1
  C  C12  1  0.453610  0.363320  0.835641  1
  C  C13  1  0.546514  0.635462  0.165998  1
  I  I14  1  0.205226  0.905725  0.937118  1
  I  I15  1  0.103913  0.187408  0.468903  1
  I  I16  1  0.151892  0.555945  0.703520  1
  I  I17  1  0.406189  0.969149  0.648113  1
  I  I18  1  0.714783  0.735340  0.821919  1
  I  I19  1  0.296600  0.273750  0.185839  1
  I  I20  1  0.839434  0.447261  0.301022  1
  I  I21  1  0.884309  0.800094  0.525795  1
  I  I22  1  0.368010  0.627539  0.411182  1
  I  I23  1  0.053448  0.832712  0.220381  1
  I  I24  1  0.795202  0.095659  0.063173  1
  I  I25  1  0.640671  0.372608  0.584053  1
  I  I26  1  0.947513  0.166878  0.780455  1
  I  I27  1  0.593219  0.029802  0.352584  1
  I  I28  1  0.999750  0.499884  0.000489  1
