# generated using pymatgen
data_Dy2Ho2AgPt
_symmetry_space_group_name_H-M   'P 1'
_cell_length_a   9.58129098
_cell_length_b   9.58129207
_cell_length_c   9.58156600
_cell_angle_alpha   59.99905426
_cell_angle_beta   59.99905049
_cell_angle_gamma   60.00189426
_symmetry_Int_Tables_number   1
_chemical_formula_structural   Dy2Ho2AgPt
_chemical_formula_sum   'Dy8 Ho8 Ag4 Pt4'
_cell_volume   621.97023673
_cell_formula_units_Z   4
loop_
 _symmetry_equiv_pos_site_id
 _symmetry_equiv_pos_as_xyz
  1  'x, y, z'
loop_
 _atom_site_type_symbol
 _atom_site_label
 _atom_site_symmetry_multiplicity
 _atom_site_fract_x
 _atom_site_fract_y
 _atom_site_fract_z
 _atom_site_occupancy
  Dy  Dy0  1  0.189253  0.189253  0.810747  1
  Dy  Dy1  1  0.810747  0.810747  0.189253  1
  Dy  Dy2  1  0.934878  0.565122  0.565122  1
  Dy  Dy3  1  0.565122  0.934878  0.934878  1
  Dy  Dy4  1  0.565122  0.934878  0.565122  1
  Dy  Dy5  1  0.934878  0.565121  0.934878  1
  Dy  Dy6  1  0.565047  0.565047  0.934953  1
  Dy  Dy7  1  0.934953  0.934953  0.565046  1
  Ho  Ho8  1  0.355074  0.355074  0.354695  1
  Ho  Ho9  1  0.355074  0.355074  0.935156  1
  Ho  Ho10  1  0.354695  0.935156  0.355074  1
  Ho  Ho11  1  0.935156  0.354695  0.355074  1
  Ho  Ho12  1  0.810902  0.189098  0.189098  1
  Ho  Ho13  1  0.189098  0.810902  0.810902  1
  Ho  Ho14  1  0.189098  0.810902  0.189098  1
  Ho  Ho15  1  0.810902  0.189098  0.810902  1
  Ag  Ag16  1  0.582107  0.582107  0.582137  1
  Ag  Ag17  1  0.582107  0.582107  0.253650  1
  Ag  Ag18  1  0.582137  0.253650  0.582107  1
  Ag  Ag19  1  0.253650  0.582137  0.582107  1
  Pt  Pt20  1  0.143956  0.143956  0.144798  1
  Pt  Pt21  1  0.143956  0.143956  0.567294  1
  Pt  Pt22  1  0.144798  0.567294  0.143956  1
  Pt  Pt23  1  0.567294  0.144798  0.143956  1
