# generated using pymatgen
data_Sc22FeTc3Ir4
_symmetry_space_group_name_H-M   'P 1'
_cell_length_a   9.47318400
_cell_length_b   9.46685304
_cell_length_c   9.46685312
_cell_angle_alpha   60.04425469
_cell_angle_beta   59.97787185
_cell_angle_gamma   59.97787911
_symmetry_Int_Tables_number   1
_chemical_formula_structural   Sc22FeTc3Ir4
_chemical_formula_sum   'Sc22 Fe1 Tc3 Ir4'
_cell_volume   600.33253301
_cell_formula_units_Z   1
loop_
 _symmetry_equiv_pos_site_id
 _symmetry_equiv_pos_as_xyz
  1  'x, y, z'
loop_
 _atom_site_type_symbol
 _atom_site_label
 _atom_site_symmetry_multiplicity
 _atom_site_fract_x
 _atom_site_fract_y
 _atom_site_fract_z
 _atom_site_occupancy
  Sc  Sc0  1  0.802041  0.802041  0.197959  1
  Sc  Sc1  1  0.197959  0.802041  0.197959  1
  Sc  Sc2  1  0.802213  0.197787  0.197787  1
  Sc  Sc3  1  0.197959  0.197959  0.802041  1
  Sc  Sc4  1  0.802041  0.197959  0.802041  1
  Sc  Sc5  1  0.197787  0.802213  0.802213  1
  Sc  Sc6  1  0.614387  0.615268  0.155957  1
  Sc  Sc7  1  0.614387  0.155957  0.615268  1
  Sc  Sc8  1  0.155957  0.614387  0.614387  1
  Sc  Sc9  1  0.615268  0.614387  0.614387  1
  Sc  Sc10  1  0.385613  0.384732  0.844043  1
  Sc  Sc11  1  0.385613  0.844043  0.384732  1
  Sc  Sc12  1  0.844043  0.385613  0.385613  1
  Sc  Sc13  1  0.384732  0.385613  0.385613  1
  Sc  Sc14  1  0.843017  0.842789  0.471176  1
  Sc  Sc15  1  0.843017  0.471176  0.842789  1
  Sc  Sc16  1  0.471176  0.843017  0.843017  1
  Sc  Sc17  1  0.842789  0.843017  0.843017  1
  Sc  Sc18  1  0.156983  0.157211  0.528824  1
  Sc  Sc19  1  0.156983  0.528824  0.157211  1
  Sc  Sc20  1  0.528824  0.156983  0.156983  1
  Sc  Sc21  1  0.157211  0.156983  0.156983  1
  Fe  Fe22  1  0.500000  0.500000  0.500000  1
  Tc  Tc23  1  0.000000  0.000000  0.000000  1
  Tc  Tc24  1  0.000000  0.500000  0.500000  1
  Tc  Tc25  1  0.500000  0.000000  0.000000  1
  Ir  Ir26  1  0.000000  0.000000  0.500000  1
  Ir  Ir27  1  0.500000  0.000000  0.500000  1
  Ir  Ir28  1  0.500000  0.500000  0.000000  1
  Ir  Ir29  1  0.000000  0.500000  0.000000  1
