# generated using pymatgen
data_Ce7LuTa11Si16Mo
_symmetry_space_group_name_H-M   'P 1'
_cell_length_a   6.92413237
_cell_length_b   7.09477460
_cell_length_c   13.37037764
_cell_angle_alpha   89.87041724
_cell_angle_beta   89.90582234
_cell_angle_gamma   89.88661896
_symmetry_Int_Tables_number   1
_chemical_formula_structural   Ce7LuTa11Si16Mo
_chemical_formula_sum   'Ce7 Lu1 Ta11 Si16 Mo1'
_cell_volume   656.81807218
_cell_formula_units_Z   1
loop_
 _symmetry_equiv_pos_site_id
 _symmetry_equiv_pos_as_xyz
  1  'x, y, z'
loop_
 _atom_site_type_symbol
 _atom_site_label
 _atom_site_symmetry_multiplicity
 _atom_site_fract_x
 _atom_site_fract_y
 _atom_site_fract_z
 _atom_site_occupancy
  Ce  Ce0  1  0.504392  0.332442  0.093362  1
  Ce  Ce1  1  0.001900  0.168529  0.406041  1
  Ce  Ce2  1  0.497858  0.667916  0.594030  1
  Ce  Ce3  1  0.997185  0.829988  0.905055  1
  Ce  Ce4  1  0.497399  0.667568  0.906401  1
  Ce  Ce5  1  0.998372  0.831952  0.594338  1
  Ce  Ce6  1  0.503111  0.331551  0.405628  1
  Lu  Lu7  1  0.001325  0.170562  0.095926  1
  Ta  Ta8  1  0.837032  0.328190  0.625052  1
  Ta  Ta9  1  0.335850  0.172967  0.874249  1
  Ta  Ta10  1  0.163725  0.674252  0.124934  1
  Ta  Ta11  1  0.663617  0.830629  0.374922  1
  Ta  Ta12  1  0.164466  0.672661  0.375523  1
  Ta  Ta13  1  0.663030  0.827290  0.124836  1
  Ta  Ta14  1  0.836395  0.325894  0.874365  1
  Ta  Ta15  1  0.662566  0.005660  0.750295  1
  Ta  Ta16  1  0.162279  0.492865  0.749738  1
  Ta  Ta17  1  0.337051  0.995503  0.249633  1
  Ta  Ta18  1  0.836864  0.506996  0.250328  1
  Si  Si19  1  0.657457  0.041448  0.544466  1
  Si  Si20  1  0.159574  0.457575  0.958262  1
  Si  Si21  1  0.334090  0.963334  0.043460  1
  Si  Si22  1  0.839236  0.541994  0.456933  1
  Si  Si23  1  0.339344  0.960659  0.458217  1
  Si  Si24  1  0.842232  0.536853  0.043385  1
  Si  Si25  1  0.661798  0.039623  0.957546  1
  Si  Si26  1  0.162281  0.455259  0.544387  1
  Si  Si27  1  0.538039  0.372802  0.748140  1
  Si  Si28  1  0.042309  0.124499  0.748963  1
  Si  Si29  1  0.460174  0.625379  0.250133  1
  Si  Si30  1  0.960368  0.876018  0.249217  1
  Si  Si31  1  0.797335  0.623289  0.750104  1
  Si  Si32  1  0.298239  0.877468  0.749836  1
  Si  Si33  1  0.201573  0.374412  0.248453  1
  Si  Si34  1  0.704374  0.125759  0.248050  1
  Mo  Mo35  1  0.337163  0.170213  0.625789  1
