# generated using pymatgen
data_Er20Bi8RuPt3
_symmetry_space_group_name_H-M   'P 1'
_cell_length_a   7.98375950
_cell_length_b   9.00011200
_cell_length_c   12.34307989
_cell_angle_alpha   90.00000000
_cell_angle_beta   89.90912247
_cell_angle_gamma   90.00000000
_symmetry_Int_Tables_number   1
_chemical_formula_structural   Er20Bi8RuPt3
_chemical_formula_sum   'Er20 Bi8 Ru1 Pt3'
_cell_volume   886.90755388
_cell_formula_units_Z   1
loop_
 _symmetry_equiv_pos_site_id
 _symmetry_equiv_pos_as_xyz
  1  'x, y, z'
loop_
 _atom_site_type_symbol
 _atom_site_label
 _atom_site_symmetry_multiplicity
 _atom_site_fract_x
 _atom_site_fract_y
 _atom_site_fract_z
 _atom_site_occupancy
  Er  Er0  1  0.659494  0.750000  0.705300  1
  Er  Er1  1  0.337231  0.250000  0.290811  1
  Er  Er2  1  0.165397  0.250000  0.788657  1
  Er  Er3  1  0.832340  0.750000  0.213886  1
  Er  Er4  1  0.126290  0.750000  0.805906  1
  Er  Er5  1  0.872883  0.250000  0.195542  1
  Er  Er6  1  0.625872  0.250000  0.696241  1
  Er  Er7  1  0.377252  0.750000  0.306303  1
  Er  Er8  1  0.552106  0.750000  0.999606  1
  Er  Er9  1  0.449596  0.250000  0.998975  1
  Er  Er10  1  0.052330  0.250000  0.500278  1
  Er  Er11  1  0.946998  0.750000  0.499376  1
  Er  Er12  1  0.823338  0.454234  0.932703  1
  Er  Er13  1  0.177363  0.545149  0.068442  1
  Er  Er14  1  0.325016  0.549436  0.565053  1
  Er  Er15  1  0.177363  0.954851  0.068442  1
  Er  Er16  1  0.675377  0.459688  0.434065  1
  Er  Er17  1  0.823338  0.045766  0.932703  1
  Er  Er18  1  0.675377  0.040312  0.434065  1
  Er  Er19  1  0.325016  0.950564  0.565053  1
  Bi  Bi20  1  0.933571  0.009538  0.672912  1
  Bi  Bi21  1  0.066927  0.991072  0.327098  1
  Bi  Bi22  1  0.432051  0.989584  0.827539  1
  Bi  Bi23  1  0.066927  0.508928  0.327098  1
  Bi  Bi24  1  0.567571  0.010818  0.171288  1
  Bi  Bi25  1  0.933571  0.490462  0.672912  1
  Bi  Bi26  1  0.567571  0.489182  0.171288  1
  Bi  Bi27  1  0.432051  0.510416  0.827539  1
  Ru  Ru28  1  0.576808  0.750000  0.487114  1
  Pt  Pt29  1  0.924744  0.750000  0.991605  1
  Pt  Pt30  1  0.076117  0.250000  0.010457  1
  Pt  Pt31  1  0.422110  0.250000  0.511745  1
