# generated using pymatgen
data_Hf6In4CBr18
_symmetry_space_group_name_H-M   'P 1'
_cell_length_a   10.37446075
_cell_length_b   10.53876511
_cell_length_c   10.61731686
_cell_angle_alpha   118.39215115
_cell_angle_beta   100.08547327
_cell_angle_gamma   103.84219140
_symmetry_Int_Tables_number   1
_chemical_formula_structural   Hf6In4CBr18
_chemical_formula_sum   'Hf6 In4 C1 Br18'
_cell_volume   933.11576770
_cell_formula_units_Z   1
loop_
 _symmetry_equiv_pos_site_id
 _symmetry_equiv_pos_as_xyz
  1  'x, y, z'
loop_
 _atom_site_type_symbol
 _atom_site_label
 _atom_site_symmetry_multiplicity
 _atom_site_fract_x
 _atom_site_fract_y
 _atom_site_fract_z
 _atom_site_occupancy
  Hf  Hf0  1  0.355562  0.446474  0.778706  1
  Hf  Hf1  1  0.367683  0.622596  0.128794  1
  Hf  Hf2  1  0.640007  0.729356  0.043134  1
  Hf  Hf3  1  0.644438  0.553526  0.221294  1
  Hf  Hf4  1  0.359993  0.270644  0.956866  1
  Hf  Hf5  1  0.632317  0.377404  0.871206  1
  In  In6  1  0.181087  0.723498  0.560408  1
  In  In7  1  0.850908  0.963919  0.774783  1
  In  In8  1  0.149092  0.036081  0.225217  1
  In  In9  1  0.818913  0.276502  0.439592  1
  C  C10  1  0.500000  0.500000  0.000000  1
  Br  Br11  1  0.818847  0.422016  0.108507  1
  Br  Br12  1  0.515323  0.703250  0.406019  1
  Br  Br13  1  0.178461  0.981876  0.900403  1
  Br  Br14  1  0.181153  0.577984  0.891493  1
  Br  Br15  1  0.827368  0.830173  0.308565  1
  Br  Br16  1  0.504090  0.296878  0.207676  1
  Br  Br17  1  0.794778  0.224440  0.710989  1
  Br  Br18  1  0.172632  0.169827  0.691435  1
  Br  Br19  1  0.508608  0.907195  0.195730  1
  Br  Br20  1  0.815012  0.625455  0.902894  1
  Br  Br21  1  0.205222  0.775560  0.289011  1
  Br  Br22  1  0.167439  0.378926  0.500582  1
  Br  Br23  1  0.495910  0.703122  0.792324  1
  Br  Br24  1  0.821539  0.018124  0.099597  1
  Br  Br25  1  0.484677  0.296750  0.593981  1
  Br  Br26  1  0.184988  0.374545  0.097106  1
  Br  Br27  1  0.832561  0.621074  0.499418  1
  Br  Br28  1  0.491392  0.092805  0.804270  1
