# generated using pymatgen
data_Ho2Si14(IrRh)3
_symmetry_space_group_name_H-M   'P 1'
_cell_length_a   8.03609748
_cell_length_b   8.03609756
_cell_length_c   8.03514746
_cell_angle_alpha   56.67262441
_cell_angle_beta   56.67262845
_cell_angle_gamma   56.66727860
_symmetry_Int_Tables_number   1
_chemical_formula_structural   Ho2Si14(IrRh)3
_chemical_formula_sum   'Ho2 Si14 Ir3 Rh3'
_cell_volume   338.70731598
_cell_formula_units_Z   1
loop_
 _symmetry_equiv_pos_site_id
 _symmetry_equiv_pos_as_xyz
  1  'x, y, z'
loop_
 _atom_site_type_symbol
 _atom_site_label
 _atom_site_symmetry_multiplicity
 _atom_site_fract_x
 _atom_site_fract_y
 _atom_site_fract_z
 _atom_site_occupancy
  Ho  Ho0  1  0.000386  0.999587  0.000092  1
  Ho  Ho1  1  0.500413  0.499614  0.499908  1
  Si  Si2  1  0.751174  0.748826  0.750000  1
  Si  Si3  1  0.251209  0.248791  0.250000  1
  Si  Si4  1  0.850497  0.064173  0.673624  1
  Si  Si5  1  0.672015  0.851200  0.063940  1
  Si  Si6  1  0.064849  0.672675  0.849857  1
  Si  Si7  1  0.648800  0.827985  0.436060  1
  Si  Si8  1  0.435827  0.649503  0.826376  1
  Si  Si9  1  0.827325  0.435151  0.650143  1
  Si  Si10  1  0.172352  0.563538  0.351225  1
  Si  Si11  1  0.564124  0.350615  0.171455  1
  Si  Si12  1  0.349845  0.173009  0.564483  1
  Si  Si13  1  0.936462  0.327648  0.148775  1
  Si  Si14  1  0.326991  0.150155  0.935517  1
  Si  Si15  1  0.149385  0.935876  0.328545  1
  Ir  Ir16  1  0.928779  0.571221  0.250000  1
  Ir  Ir17  1  0.428805  0.749884  0.071028  1
  Ir  Ir18  1  0.750116  0.071195  0.428972  1
  Rh  Rh19  1  0.070207  0.429793  0.750000  1
  Rh  Rh20  1  0.250093  0.929655  0.570507  1
  Rh  Rh21  1  0.570345  0.249907  0.929493  1
