# generated using pymatgen
data_Pr4B4I5
_symmetry_space_group_name_H-M   'P 1'
_cell_length_a   10.00395301
_cell_length_b   10.00395283
_cell_length_c   10.26581537
_cell_angle_alpha   74.39637038
_cell_angle_beta   74.39637126
_cell_angle_gamma   25.13180893
_symmetry_Int_Tables_number   1
_chemical_formula_structural   Pr4B4I5
_chemical_formula_sum   'Pr4 B4 I5'
_cell_volume   419.44009728
_cell_formula_units_Z   1
loop_
 _symmetry_equiv_pos_site_id
 _symmetry_equiv_pos_as_xyz
  1  'x, y, z'
loop_
 _atom_site_type_symbol
 _atom_site_label
 _atom_site_symmetry_multiplicity
 _atom_site_fract_x
 _atom_site_fract_y
 _atom_site_fract_z
 _atom_site_occupancy
  Pr  Pr0  1  0.505858  0.505858  0.751672  1
  Pr  Pr1  1  0.495712  0.495712  0.247812  1
  Pr  Pr2  1  0.132727  0.132727  0.934936  1
  Pr  Pr3  1  0.868399  0.868399  0.063713  1
  B  B4  1  0.316057  0.684978  0.999904  1
  B  B5  1  0.684978  0.316057  0.999904  1
  B  B6  1  0.999256  0.999256  0.092286  1
  B  B7  1  0.001837  0.001837  0.907439  1
  I  I8  1  0.677292  0.677292  0.686125  1
  I  I9  1  0.324412  0.324412  0.313419  1
  I  I10  1  0.330710  0.330710  0.849541  1
  I  I11  1  0.671673  0.671673  0.146374  1
  I  I12  1  0.005390  0.005390  0.497077  1
