# generated using pymatgen
data_TmLu9Si5Bi
_symmetry_space_group_name_H-M   'P 1'
_cell_length_a   8.34544100
_cell_length_b   8.37601848
_cell_length_c   6.19576600
_cell_angle_alpha   90.00000000
_cell_angle_beta   90.00000000
_cell_angle_gamma   119.87931642
_symmetry_Int_Tables_number   1
_chemical_formula_structural   TmLu9Si5Bi
_chemical_formula_sum   'Tm1 Lu9 Si5 Bi1'
_cell_volume   375.52548308
_cell_formula_units_Z   1
loop_
 _symmetry_equiv_pos_site_id
 _symmetry_equiv_pos_as_xyz
  1  'x, y, z'
loop_
 _atom_site_type_symbol
 _atom_site_label
 _atom_site_symmetry_multiplicity
 _atom_site_fract_x
 _atom_site_fract_y
 _atom_site_fract_z
 _atom_site_occupancy
  Tm  Tm0  1  0.769048  0.000000  0.750000  1
  Lu  Lu1  1  0.677170  0.346512  0.004935  1
  Lu  Lu2  1  0.330657  0.653488  0.495065  1
  Lu  Lu3  1  0.330657  0.653488  0.004935  1
  Lu  Lu4  1  0.677170  0.346512  0.495065  1
  Lu  Lu5  1  0.756130  0.757241  0.250000  1
  Lu  Lu6  1  0.998888  0.242759  0.250000  1
  Lu  Lu7  1  0.984106  0.745570  0.750000  1
  Lu  Lu8  1  0.238536  0.254430  0.750000  1
  Lu  Lu9  1  0.238631  0.000000  0.250000  1
  Si  Si10  1  0.393774  0.390947  0.250000  1
  Si  Si11  1  0.002826  0.609053  0.250000  1
  Si  Si12  1  0.998949  0.395645  0.750000  1
  Si  Si13  1  0.603304  0.604355  0.750000  1
  Si  Si14  1  0.606906  0.000000  0.250000  1
  Bi  Bi15  1  0.393247  0.000000  0.750000  1
