# generated using pymatgen
data_HoTm3Lu4(B6Ru)4
_symmetry_space_group_name_H-M   'P 1'
_cell_length_a   3.60590400
_cell_length_b   9.04494801
_cell_length_c   11.41686701
_cell_angle_alpha   90.00514633
_cell_angle_beta   90.00000000
_cell_angle_gamma   90.00000000
_symmetry_Int_Tables_number   1
_chemical_formula_structural   HoTm3Lu4(B6Ru)4
_chemical_formula_sum   'Ho1 Tm3 Lu4 B24 Ru4'
_cell_volume   372.36356164
_cell_formula_units_Z   1
loop_
 _symmetry_equiv_pos_site_id
 _symmetry_equiv_pos_as_xyz
  1  'x, y, z'
loop_
 _atom_site_type_symbol
 _atom_site_label
 _atom_site_symmetry_multiplicity
 _atom_site_fract_x
 _atom_site_fract_y
 _atom_site_fract_z
 _atom_site_occupancy
  Ho  Ho0  1  0.000000  0.321553  0.414123  1
  Tm  Tm1  1  0.000000  0.678644  0.585838  1
  Tm  Tm2  1  0.000000  0.821407  0.085777  1
  Tm  Tm3  1  0.000000  0.178599  0.914203  1
  Lu  Lu4  1  0.000000  0.943649  0.372586  1
  Lu  Lu5  1  0.000000  0.056097  0.627508  1
  Lu  Lu6  1  0.000000  0.443833  0.127286  1
  Lu  Lu7  1  0.000000  0.556247  0.872650  1
  B  B8  1  0.500000  0.554384  0.433492  1
  B  B9  1  0.500000  0.446134  0.566806  1
  B  B10  1  0.500000  0.053967  0.066411  1
  B  B11  1  0.500000  0.945984  0.933540  1
  B  B12  1  0.500000  0.749475  0.420091  1
  B  B13  1  0.500000  0.250481  0.580351  1
  B  B14  1  0.500000  0.249379  0.079851  1
  B  B15  1  0.500000  0.750631  0.920073  1
  B  B16  1  0.500000  0.792014  0.265494  1
  B  B17  1  0.500000  0.207994  0.734579  1
  B  B18  1  0.500000  0.291805  0.234121  1
  B  B19  1  0.500000  0.708041  0.765546  1
  B  B20  1  0.500000  0.631069  0.184060  1
  B  B21  1  0.500000  0.369019  0.815920  1
  B  B22  1  0.500000  0.130666  0.315641  1
  B  B23  1  0.500000  0.868965  0.684148  1
  B  B24  1  0.500000  0.982055  0.213054  1
  B  B25  1  0.500000  0.017825  0.786911  1
  B  B26  1  0.500000  0.482552  0.286657  1
  B  B27  1  0.500000  0.517908  0.713203  1
  B  B28  1  0.500000  0.605231  0.028934  1
  B  B29  1  0.500000  0.394805  0.971033  1
  B  B30  1  0.500000  0.104582  0.471217  1
  B  B31  1  0.500000  0.894834  0.528941  1
  Ru  Ru32  1  0.000000  0.638397  0.320496  1
  Ru  Ru33  1  0.000000  0.361928  0.679608  1
  Ru  Ru34  1  0.000000  0.137925  0.179206  1
  Ru  Ru35  1  0.000000  0.861920  0.820645  1
