# generated using pymatgen
data_Y5Th3(Pt2Pb)4
_symmetry_space_group_name_H-M   'P 1'
_cell_length_a   8.08499527
_cell_length_b   8.08499483
_cell_length_c   7.26267800
_cell_angle_alpha   90.00000000
_cell_angle_beta   90.00000000
_cell_angle_gamma   90.14016460
_symmetry_Int_Tables_number   1
_chemical_formula_structural   Y5Th3(Pt2Pb)4
_chemical_formula_sum   'Y5 Th3 Pt8 Pb4'
_cell_volume   474.73910537
_cell_formula_units_Z   1
loop_
 _symmetry_equiv_pos_site_id
 _symmetry_equiv_pos_as_xyz
  1  'x, y, z'
loop_
 _atom_site_type_symbol
 _atom_site_label
 _atom_site_symmetry_multiplicity
 _atom_site_fract_x
 _atom_site_fract_y
 _atom_site_fract_z
 _atom_site_occupancy
  Y  Y0  1  0.338258  0.341925  0.500000  1
  Y  Y1  1  0.658075  0.661742  0.500000  1
  Y  Y2  1  0.173779  0.826221  0.500000  1
  Y  Y3  1  0.840025  0.159975  0.000000  1
  Y  Y4  1  0.161297  0.838703  0.000000  1
  Th  Th5  1  0.675025  0.674075  0.000000  1
  Th  Th6  1  0.827304  0.172696  0.500000  1
  Th  Th7  1  0.325925  0.324975  0.000000  1
  Pt  Pt8  1  0.871022  0.872463  0.736618  1
  Pt  Pt9  1  0.127537  0.128978  0.736618  1
  Pt  Pt10  1  0.629244  0.370756  0.762628  1
  Pt  Pt11  1  0.629244  0.370756  0.237372  1
  Pt  Pt12  1  0.373891  0.626109  0.235307  1
  Pt  Pt13  1  0.127537  0.128978  0.263382  1
  Pt  Pt14  1  0.871022  0.872463  0.263382  1
  Pt  Pt15  1  0.373891  0.626109  0.764693  1
  Pb  Pb16  1  0.494901  0.996439  0.745391  1
  Pb  Pb17  1  0.494901  0.996439  0.254609  1
  Pb  Pb18  1  0.003561  0.505099  0.745391  1
  Pb  Pb19  1  0.003561  0.505099  0.254609  1
