# generated using pymatgen
data_Pr4Pd(RhPb2)5
_symmetry_space_group_name_H-M   'P 1'
_cell_length_a   14.03847388
_cell_length_b   14.03847303
_cell_length_c   7.55714300
_cell_angle_alpha   90.14963841
_cell_angle_beta   89.85036159
_cell_angle_gamma   160.98362805
_symmetry_Int_Tables_number   1
_chemical_formula_structural   Pr4Pd(RhPb2)5
_chemical_formula_sum   'Pr4 Pd1 Rh5 Pb10'
_cell_volume   485.28631315
_cell_formula_units_Z   1
loop_
 _symmetry_equiv_pos_site_id
 _symmetry_equiv_pos_as_xyz
  1  'x, y, z'
loop_
 _atom_site_type_symbol
 _atom_site_label
 _atom_site_symmetry_multiplicity
 _atom_site_fract_x
 _atom_site_fract_y
 _atom_site_fract_z
 _atom_site_occupancy
  Pr  Pr0  1  0.174636  0.825364  0.755122  1
  Pr  Pr1  1  0.826229  0.173771  0.254109  1
  Pr  Pr2  1  0.473513  0.526487  0.741523  1
  Pr  Pr3  1  0.524432  0.475568  0.234895  1
  Pd  Pd4  1  0.050043  0.949957  0.520450  1
  Rh  Rh5  1  0.950216  0.049784  0.018153  1
  Rh  Rh6  1  0.776298  0.223702  0.761848  1
  Rh  Rh7  1  0.223647  0.776353  0.261031  1
  Rh  Rh8  1  0.395290  0.604710  0.482171  1
  Rh  Rh9  1  0.604467  0.395533  0.987389  1
  Pb  Pb10  1  0.878873  0.121127  0.735948  1
  Pb  Pb11  1  0.121803  0.878197  0.230592  1
  Pb  Pb12  1  0.704683  0.295317  0.045720  1
  Pb  Pb13  1  0.296223  0.703777  0.546159  1
  Pb  Pb14  1  0.597473  0.402527  0.619660  1
  Pb  Pb15  1  0.403364  0.596636  0.113449  1
  Pb  Pb16  1  0.950320  0.049680  0.399274  1
  Pb  Pb17  1  0.047777  0.952223  0.904799  1
  Pb  Pb18  1  0.290471  0.709529  0.971879  1
  Pb  Pb19  1  0.710240  0.289760  0.471826  1
