# generated using pymatgen
data_Tb2Ho3Fe3(Co4P3)4
_symmetry_space_group_name_H-M   'P 1'
_cell_length_a   11.99983500
_cell_length_b   11.99983666
_cell_length_c   3.67593500
_cell_angle_alpha   90.00000000
_cell_angle_beta   90.00000000
_cell_angle_gamma   120.00000370
_symmetry_Int_Tables_number   1
_chemical_formula_structural   Tb2Ho3Fe3(Co4P3)4
_chemical_formula_sum   'Tb2 Ho3 Fe3 Co16 P12'
_cell_volume   458.40468522
_cell_formula_units_Z   1
loop_
 _symmetry_equiv_pos_site_id
 _symmetry_equiv_pos_as_xyz
  1  'x, y, z'
loop_
 _atom_site_type_symbol
 _atom_site_label
 _atom_site_symmetry_multiplicity
 _atom_site_fract_x
 _atom_site_fract_y
 _atom_site_fract_z
 _atom_site_occupancy
  Tb  Tb0  1  0.666667  0.333333  0.000000  1
  Tb  Tb1  1  0.333333  0.666667  0.000000  1
  Ho  Ho2  1  0.812606  0.812606  0.500000  1
  Ho  Ho3  1  0.187394  0.000000  0.500000  1
  Ho  Ho4  1  0.000000  0.187394  0.500000  1
  Fe  Fe5  1  0.446628  0.446628  0.000000  1
  Fe  Fe6  1  0.553372  0.000000  0.000000  1
  Fe  Fe7  1  0.000000  0.553372  0.000000  1
  Co  Co8  1  0.874316  0.357198  0.500000  1
  Co  Co9  1  0.642802  0.517119  0.500000  1
  Co  Co10  1  0.482881  0.125684  0.500000  1
  Co  Co11  1  0.357198  0.874316  0.500000  1
  Co  Co12  1  0.517119  0.642802  0.500000  1
  Co  Co13  1  0.125684  0.482881  0.500000  1
  Co  Co14  1  0.800204  0.177536  0.000000  1
  Co  Co15  1  0.822464  0.622667  0.000000  1
  Co  Co16  1  0.377333  0.199796  0.000000  1
  Co  Co17  1  0.177536  0.800204  0.000000  1
  Co  Co18  1  0.622667  0.822464  0.000000  1
  Co  Co19  1  0.199796  0.377333  0.000000  1
  Co  Co20  1  0.283456  0.283456  0.500000  1
  Co  Co21  1  0.716544  0.000000  0.500000  1
  Co  Co22  1  0.000000  0.716544  0.500000  1
  Co  Co23  1  0.000000  0.000000  0.000000  1
  P  P24  1  0.684630  0.164244  0.500000  1
  P  P25  1  0.835756  0.520386  0.500000  1
  P  P26  1  0.479614  0.315370  0.500000  1
  P  P27  1  0.164244  0.684630  0.500000  1
  P  P28  1  0.520386  0.835756  0.500000  1
  P  P29  1  0.315370  0.479614  0.500000  1
  P  P30  1  0.180578  0.180578  0.000000  1
  P  P31  1  0.819422  0.000000  0.000000  1
  P  P32  1  0.000000  0.819422  0.000000  1
  P  P33  1  0.631788  0.631788  0.000000  1
  P  P34  1  0.368212  0.000000  0.000000  1
  P  P35  1  0.000000  0.368212  0.000000  1
