# generated using pymatgen
data_Pr8Lu12Si15Ge
_symmetry_space_group_name_H-M   'P 1'
_cell_length_a   7.43167244
_cell_length_b   7.72209526
_cell_length_c   14.64075982
_cell_angle_alpha   90.01131735
_cell_angle_beta   89.86707690
_cell_angle_gamma   90.03908248
_symmetry_Int_Tables_number   1
_chemical_formula_structural   Pr8Lu12Si15Ge
_chemical_formula_sum   'Pr8 Lu12 Si15 Ge1'
_cell_volume   840.20266044
_cell_formula_units_Z   1
loop_
 _symmetry_equiv_pos_site_id
 _symmetry_equiv_pos_as_xyz
  1  'x, y, z'
loop_
 _atom_site_type_symbol
 _atom_site_label
 _atom_site_symmetry_multiplicity
 _atom_site_fract_x
 _atom_site_fract_y
 _atom_site_fract_z
 _atom_site_occupancy
  Pr  Pr0  1  0.012592  0.173198  0.400943  1
  Pr  Pr1  1  0.513640  0.325318  0.400829  1
  Pr  Pr2  1  0.486757  0.674117  0.901453  1
  Pr  Pr3  1  0.488854  0.675044  0.598806  1
  Pr  Pr4  1  0.986224  0.826981  0.598547  1
  Pr  Pr5  1  0.986353  0.826092  0.901413  1
  Pr  Pr6  1  0.513431  0.326030  0.098638  1
  Pr  Pr7  1  0.013734  0.174120  0.098611  1
  Lu  Lu8  1  0.330347  0.173964  0.624449  1
  Lu  Lu9  1  0.670679  0.824511  0.375993  1
  Lu  Lu10  1  0.661795  0.995100  0.750092  1
  Lu  Lu11  1  0.170242  0.676482  0.376063  1
  Lu  Lu12  1  0.828288  0.323990  0.876278  1
  Lu  Lu13  1  0.827647  0.324335  0.623535  1
  Lu  Lu14  1  0.838341  0.495294  0.250107  1
  Lu  Lu15  1  0.338558  0.004687  0.249991  1
  Lu  Lu16  1  0.328512  0.175707  0.876275  1
  Lu  Lu17  1  0.171649  0.675982  0.123734  1
  Lu  Lu18  1  0.671414  0.823917  0.123682  1
  Lu  Lu19  1  0.161622  0.504902  0.751241  1
  Si  Si20  1  0.284942  0.878405  0.750149  1
  Si  Si21  1  0.465055  0.621253  0.249904  1
  Si  Si22  1  0.034679  0.121503  0.749924  1
  Si  Si23  1  0.534495  0.379194  0.750105  1
  Si  Si24  1  0.965395  0.879371  0.249802  1
  Si  Si25  1  0.714684  0.121244  0.249841  1
  Si  Si26  1  0.847764  0.534747  0.039261  1
  Si  Si27  1  0.348003  0.965211  0.039375  1
  Si  Si28  1  0.152123  0.465213  0.960709  1
  Si  Si29  1  0.652745  0.035268  0.539248  1
  Si  Si30  1  0.347099  0.965056  0.460601  1
  Si  Si31  1  0.842480  0.536030  0.459653  1
  Si  Si32  1  0.785443  0.621119  0.749972  1
  Si  Si33  1  0.214872  0.378534  0.250033  1
  Si  Si34  1  0.651974  0.034982  0.960738  1
  Ge  Ge35  1  0.157564  0.463100  0.540004  1
