# generated using pymatgen
data_ErTh3(InPd2)2
_symmetry_space_group_name_H-M   'P 1'
_cell_length_a   7.88334736
_cell_length_b   7.88334736
_cell_length_c   3.81787600
_cell_angle_alpha   90.00000000
_cell_angle_beta   90.00000000
_cell_angle_gamma   89.55158084
_symmetry_Int_Tables_number   1
_chemical_formula_structural   ErTh3(InPd2)2
_chemical_formula_sum   'Er1 Th3 In2 Pd4'
_cell_volume   237.26290531
_cell_formula_units_Z   1
loop_
 _symmetry_equiv_pos_site_id
 _symmetry_equiv_pos_as_xyz
  1  'x, y, z'
loop_
 _atom_site_type_symbol
 _atom_site_label
 _atom_site_symmetry_multiplicity
 _atom_site_fract_x
 _atom_site_fract_y
 _atom_site_fract_z
 _atom_site_occupancy
  Er  Er0  1  0.674500  0.174500  0.500000  1
  Th  Th1  1  0.328873  0.828873  0.500000  1
  Th  Th2  1  0.824093  0.672589  0.500000  1
  Th  Th3  1  0.172589  0.324093  0.500000  1
  In  In4  1  0.995236  0.002243  0.000000  1
  In  In5  1  0.502243  0.495236  0.000000  1
  Pd  Pd6  1  0.372449  0.128722  0.000000  1
  Pd  Pd7  1  0.871872  0.371872  0.000000  1
  Pd  Pd8  1  0.129425  0.629425  0.000000  1
  Pd  Pd9  1  0.628722  0.872449  0.000000  1
