# generated using pymatgen
data_Tb2Dy2CrMo5O24
_symmetry_space_group_name_H-M   'P 1'
_cell_length_a   7.42320134
_cell_length_b   7.42320046
_cell_length_c   10.68185300
_cell_angle_alpha   89.74946335
_cell_angle_beta   89.74946694
_cell_angle_gamma   90.36128816
_symmetry_Int_Tables_number   1
_chemical_formula_structural   Tb2Dy2CrMo5O24
_chemical_formula_sum   'Tb2 Dy2 Cr1 Mo5 O24'
_cell_volume   588.58885594
_cell_formula_units_Z   1
loop_
 _symmetry_equiv_pos_site_id
 _symmetry_equiv_pos_as_xyz
  1  'x, y, z'
loop_
 _atom_site_type_symbol
 _atom_site_label
 _atom_site_symmetry_multiplicity
 _atom_site_fract_x
 _atom_site_fract_y
 _atom_site_fract_z
 _atom_site_occupancy
  Tb  Tb0  1  0.682839  0.809761  0.263496  1
  Tb  Tb1  1  0.309761  0.182839  0.263496  1
  Dy  Dy2  1  0.186542  0.686542  0.734024  1
  Dy  Dy3  1  0.813376  0.313376  0.739974  1
  Cr  Cr4  1  0.207936  0.707936  0.356587  1
  Mo  Mo5  1  0.792067  0.292067  0.356260  1
  Mo  Mo6  1  0.708221  0.793561  0.644178  1
  Mo  Mo7  1  0.293561  0.208221  0.644178  1
  Mo  Mo8  1  0.002638  0.996712  0.999585  1
  Mo  Mo9  1  0.496712  0.502638  0.999585  1
  O  O10  1  0.004856  0.224203  0.295463  1
  O  O11  1  0.009143  0.768622  0.301754  1
  O  O12  1  0.223515  0.993098  0.701402  1
  O  O13  1  0.493098  0.723515  0.701402  1
  O  O14  1  0.774854  0.006381  0.705271  1
  O  O15  1  0.506381  0.274854  0.705271  1
  O  O16  1  0.268622  0.509143  0.301754  1
  O  O17  1  0.724203  0.504856  0.295463  1
  O  O18  1  0.195270  0.041278  0.094659  1
  O  O19  1  0.814334  0.951166  0.100619  1
  O  O20  1  0.044780  0.807538  0.900506  1
  O  O21  1  0.307538  0.544780  0.900506  1
  O  O22  1  0.956047  0.189577  0.903782  1
  O  O23  1  0.689577  0.456047  0.903782  1
  O  O24  1  0.451166  0.314334  0.100619  1
  O  O25  1  0.541278  0.695270  0.094659  1
  O  O26  1  0.623695  0.123695  0.309286  1
  O  O27  1  0.366012  0.866012  0.310587  1
  O  O28  1  0.125353  0.375250  0.690597  1
  O  O29  1  0.875250  0.625353  0.690597  1
  O  O30  1  0.198319  0.698319  0.511951  1
  O  O31  1  0.803971  0.303971  0.522411  1
  O  O32  1  0.700353  0.808734  0.478146  1
  O  O33  1  0.308734  0.200353  0.478146  1
