# generated using pymatgen
data_Er2Al2PdRu
_symmetry_space_group_name_H-M   'P 1'
_cell_length_a   4.23803300
_cell_length_b   6.89166600
_cell_length_c   7.93076800
_cell_angle_alpha   90.00000000
_cell_angle_beta   90.00000000
_cell_angle_gamma   90.00000000
_symmetry_Int_Tables_number   1
_chemical_formula_structural   Er2Al2PdRu
_chemical_formula_sum   'Er4 Al4 Pd2 Ru2'
_cell_volume   231.63479697
_cell_formula_units_Z   2
loop_
 _symmetry_equiv_pos_site_id
 _symmetry_equiv_pos_as_xyz
  1  'x, y, z'
loop_
 _atom_site_type_symbol
 _atom_site_label
 _atom_site_symmetry_multiplicity
 _atom_site_fract_x
 _atom_site_fract_y
 _atom_site_fract_z
 _atom_site_occupancy
  Er  Er0  1  0.250000  0.034466  0.323789  1
  Er  Er1  1  0.250000  0.534466  0.176211  1
  Er  Er2  1  0.750000  0.972819  0.684610  1
  Er  Er3  1  0.750000  0.472819  0.815390  1
  Al  Al4  1  0.250000  0.139292  0.936241  1
  Al  Al5  1  0.250000  0.639292  0.563759  1
  Al  Al6  1  0.750000  0.855731  0.056593  1
  Al  Al7  1  0.750000  0.355731  0.443407  1
  Pd  Pd8  1  0.750000  0.731101  0.377303  1
  Pd  Pd9  1  0.750000  0.231101  0.122697  1
  Ru  Ru10  1  0.250000  0.266590  0.618713  1
  Ru  Ru11  1  0.250000  0.766590  0.881287  1
