# generated using pymatgen
data_Tm2Pa(SnIr)3
_symmetry_space_group_name_H-M   'P 1'
_cell_length_a   7.41902213
_cell_length_b   7.53139541
_cell_length_c   3.95816800
_cell_angle_alpha   90.00000000
_cell_angle_beta   90.00000000
_cell_angle_gamma   120.50234099
_symmetry_Int_Tables_number   1
_chemical_formula_structural   Tm2Pa(SnIr)3
_chemical_formula_sum   'Tm2 Pa1 Sn3 Ir3'
_cell_volume   190.55760027
_cell_formula_units_Z   1
loop_
 _symmetry_equiv_pos_site_id
 _symmetry_equiv_pos_as_xyz
  1  'x, y, z'
loop_
 _atom_site_type_symbol
 _atom_site_label
 _atom_site_symmetry_multiplicity
 _atom_site_fract_x
 _atom_site_fract_y
 _atom_site_fract_z
 _atom_site_occupancy
  Tm  Tm0  1  0.595994  0.596812  0.500000  1
  Tm  Tm1  1  0.404006  0.000818  0.500000  1
  Pa  Pa2  1  0.000000  0.413110  0.500000  1
  Sn  Sn3  1  0.000000  0.754680  0.000000  1
  Sn  Sn4  1  0.270849  0.257473  0.000000  1
  Sn  Sn5  1  0.729151  0.986624  0.000000  1
  Ir  Ir6  1  0.309384  0.644244  0.000000  1
  Ir  Ir7  1  0.690616  0.334859  0.000000  1
  Ir  Ir8  1  0.000000  0.011379  0.500000  1
