# generated using pymatgen
data_Dy19Ho(Ir2Ru)4
_symmetry_space_group_name_H-M   'P 1'
_cell_length_a   10.82230800
_cell_length_b   10.82230800
_cell_length_c   6.42387400
_cell_angle_alpha   90.00000000
_cell_angle_beta   90.00000000
_cell_angle_gamma   90.00000000
_symmetry_Int_Tables_number   1
_chemical_formula_structural   Dy19Ho(Ir2Ru)4
_chemical_formula_sum   'Dy19 Ho1 Ir8 Ru4'
_cell_volume   752.37922185
_cell_formula_units_Z   1
loop_
 _symmetry_equiv_pos_site_id
 _symmetry_equiv_pos_as_xyz
  1  'x, y, z'
loop_
 _atom_site_type_symbol
 _atom_site_label
 _atom_site_symmetry_multiplicity
 _atom_site_fract_x
 _atom_site_fract_y
 _atom_site_fract_z
 _atom_site_occupancy
  Dy  Dy0  1  0.293354  0.086925  0.378640  1
  Dy  Dy1  1  0.293413  0.913052  0.878573  1
  Dy  Dy2  1  0.706587  0.086948  0.878573  1
  Dy  Dy3  1  0.706646  0.913075  0.378640  1
  Dy  Dy4  1  0.586912  0.793489  0.878703  1
  Dy  Dy5  1  0.586918  0.206490  0.378713  1
  Dy  Dy6  1  0.413082  0.793510  0.378713  1
  Dy  Dy7  1  0.413088  0.206511  0.878703  1
  Dy  Dy8  1  0.206490  0.413082  0.621287  1
  Dy  Dy9  1  0.206511  0.586912  0.121297  1
  Dy  Dy10  1  0.793489  0.413088  0.121297  1
  Dy  Dy11  1  0.793510  0.586918  0.621287  1
  Dy  Dy12  1  0.913052  0.706587  0.121427  1
  Dy  Dy13  1  0.913075  0.293354  0.621360  1
  Dy  Dy14  1  0.086925  0.706646  0.621360  1
  Dy  Dy15  1  0.086948  0.293413  0.121427  1
  Dy  Dy16  1  0.000000  0.000000  0.000000  1
  Dy  Dy17  1  0.500000  0.500000  0.000000  1
  Dy  Dy18  1  0.500000  0.500000  0.500000  1
  Ho  Ho19  1  0.000000  0.000000  0.500000  1
  Ir  Ir20  1  0.847728  0.152292  0.250272  1
  Ir  Ir21  1  0.847708  0.847728  0.749728  1
  Ir  Ir22  1  0.152292  0.152272  0.749728  1
  Ir  Ir23  1  0.152272  0.847708  0.250272  1
  Ir  Ir24  1  0.652383  0.347594  0.750000  1
  Ir  Ir25  1  0.652406  0.652383  0.250000  1
  Ir  Ir26  1  0.347594  0.347617  0.250000  1
  Ir  Ir27  1  0.347617  0.652406  0.750000  1
  Ru  Ru28  1  0.500000  0.000000  0.123545  1
  Ru  Ru29  1  0.500000  0.000000  0.623471  1
  Ru  Ru30  1  0.000000  0.500000  0.876455  1
  Ru  Ru31  1  0.000000  0.500000  0.376529  1
