# generated using pymatgen
data_Cd5Hg2Pd9
_symmetry_space_group_name_H-M   'P 1'
_cell_length_a   7.15249233
_cell_length_b   7.15249162
_cell_length_c   7.15249176
_cell_angle_alpha   106.39258121
_cell_angle_beta   106.39258395
_cell_angle_gamma   115.82127688
_symmetry_Int_Tables_number   1
_chemical_formula_structural   Cd5Hg2Pd9
_chemical_formula_sum   'Cd5 Hg2 Pd9'
_cell_volume   279.05315953
_cell_formula_units_Z   1
loop_
 _symmetry_equiv_pos_site_id
 _symmetry_equiv_pos_as_xyz
  1  'x, y, z'
loop_
 _atom_site_type_symbol
 _atom_site_label
 _atom_site_symmetry_multiplicity
 _atom_site_fract_x
 _atom_site_fract_y
 _atom_site_fract_z
 _atom_site_occupancy
  Cd  Cd0  1  0.500000  0.500000  0.000000  1
  Cd  Cd1  1  0.240468  0.240468  0.480938  1
  Cd  Cd2  1  0.759532  0.759532  0.519062  1
  Cd  Cd3  1  0.240468  0.759532  0.000000  1
  Cd  Cd4  1  0.759532  0.240468  0.000000  1
  Hg  Hg5  1  0.500000  0.000000  0.500000  1
  Hg  Hg6  1  0.000000  0.500000  0.500000  1
  Pd  Pd7  1  0.504754  0.256692  0.248061  1
  Pd  Pd8  1  0.495246  0.743308  0.751939  1
  Pd  Pd9  1  0.008630  0.256692  0.751939  1
  Pd  Pd10  1  0.256692  0.008630  0.751939  1
  Pd  Pd11  1  0.991370  0.743308  0.248061  1
  Pd  Pd12  1  0.743308  0.991370  0.248061  1
  Pd  Pd13  1  0.256692  0.504754  0.248061  1
  Pd  Pd14  1  0.743308  0.495246  0.751939  1
  Pd  Pd15  1  0.000000  0.000000  0.000000  1
