# generated using pymatgen
data_Li4TbPaS6
_symmetry_space_group_name_H-M   'P 1'
_cell_length_a   6.71086979
_cell_length_b   6.71087382
_cell_length_c   6.50831722
_cell_angle_alpha   99.93392338
_cell_angle_beta   99.93438259
_cell_angle_gamma   119.95408681
_symmetry_Int_Tables_number   1
_chemical_formula_structural   Li4TbPaS6
_chemical_formula_sum   'Li4 Tb1 Pa1 S6'
_cell_volume   238.38279338
_cell_formula_units_Z   1
loop_
 _symmetry_equiv_pos_site_id
 _symmetry_equiv_pos_as_xyz
  1  'x, y, z'
loop_
 _atom_site_type_symbol
 _atom_site_label
 _atom_site_symmetry_multiplicity
 _atom_site_fract_x
 _atom_site_fract_y
 _atom_site_fract_z
 _atom_site_occupancy
  Li  Li0  1  0.500615  0.499384  0.000001  1
  Li  Li1  1  0.002050  0.997961  0.500001  1
  Li  Li2  1  0.663458  0.336540  0.500000  1
  Li  Li3  1  0.338434  0.661568  0.500003  1
  Tb  Tb4  1  0.832587  0.167413  0.999999  1
  Pa  Pa5  1  0.166365  0.833626  0.999996  1
  S  S6  1  0.926598  0.591860  0.245540  1
  S  S7  1  0.573020  0.919621  0.249658  1
  S  S8  1  0.245726  0.237372  0.252169  1
  S  S9  1  0.762628  0.754277  0.747831  1
  S  S10  1  0.080380  0.426982  0.750343  1
  S  S11  1  0.408139  0.073403  0.754459  1
