# generated using pymatgen
data_Dy3YCo4(Ni4P3)4
_symmetry_space_group_name_H-M   'P 1'
_cell_length_a   3.70493500
_cell_length_b   10.33619406
_cell_length_c   11.82781940
_cell_angle_alpha   89.75790824
_cell_angle_beta   90.00000000
_cell_angle_gamma   90.00000000
_symmetry_Int_Tables_number   1
_chemical_formula_structural   Dy3YCo4(Ni4P3)4
_chemical_formula_sum   'Dy3 Y1 Co4 Ni16 P12'
_cell_volume   452.94143902
_cell_formula_units_Z   1
loop_
 _symmetry_equiv_pos_site_id
 _symmetry_equiv_pos_as_xyz
  1  'x, y, z'
loop_
 _atom_site_type_symbol
 _atom_site_label
 _atom_site_symmetry_multiplicity
 _atom_site_fract_x
 _atom_site_fract_y
 _atom_site_fract_z
 _atom_site_occupancy
  Dy  Dy0  1  0.250000  0.918299  0.202960  1
  Dy  Dy1  1  0.750000  0.418311  0.297206  1
  Dy  Dy2  1  0.750000  0.081616  0.797036  1
  Y  Y3  1  0.250000  0.581879  0.702863  1
  Co  Co4  1  0.250000  0.468406  0.932201  1
  Co  Co5  1  0.250000  0.031527  0.432076  1
  Co  Co6  1  0.750000  0.531347  0.068222  1
  Co  Co7  1  0.750000  0.968713  0.567830  1
  Ni  Ni8  1  0.250000  0.712449  0.991782  1
  Ni  Ni9  1  0.250000  0.787604  0.491629  1
  Ni  Ni10  1  0.750000  0.287336  0.008168  1
  Ni  Ni11  1  0.750000  0.212568  0.507870  1
  Ni  Ni12  1  0.250000  0.404039  0.488014  1
  Ni  Ni13  1  0.250000  0.095829  0.988346  1
  Ni  Ni14  1  0.750000  0.595789  0.511566  1
  Ni  Ni15  1  0.750000  0.904226  0.011852  1
  Ni  Ni16  1  0.250000  0.223272  0.178293  1
  Ni  Ni17  1  0.250000  0.276388  0.678187  1
  Ni  Ni18  1  0.750000  0.776939  0.822007  1
  Ni  Ni19  1  0.750000  0.723595  0.321815  1
  Ni  Ni20  1  0.250000  0.882075  0.699669  1
  Ni  Ni21  1  0.250000  0.617966  0.199584  1
  Ni  Ni22  1  0.750000  0.117989  0.300128  1
  Ni  Ni23  1  0.750000  0.381838  0.800490  1
  P  P24  1  0.250000  0.420865  0.112200  1
  P  P25  1  0.250000  0.078874  0.611965  1
  P  P26  1  0.750000  0.579149  0.888237  1
  P  P27  1  0.750000  0.921151  0.387991  1
  P  P28  1  0.250000  0.271244  0.870069  1
  P  P29  1  0.250000  0.228720  0.370047  1
  P  P30  1  0.750000  0.728700  0.129953  1
  P  P31  1  0.750000  0.771504  0.629790  1
  P  P32  1  0.250000  0.601902  0.393207  1
  P  P33  1  0.250000  0.898105  0.893262  1
  P  P34  1  0.750000  0.397913  0.606700  1
  P  P35  1  0.750000  0.101871  0.106787  1
