# generated using pymatgen
data_Y7RhI12
_symmetry_space_group_name_H-M   'P 1'
_cell_length_a   9.81800842
_cell_length_b   9.81800826
_cell_length_c   9.81800859
_cell_angle_alpha   107.02062383
_cell_angle_beta   107.02062113
_cell_angle_gamma   107.02062144
_symmetry_Int_Tables_number   1
_chemical_formula_structural   Y7RhI12
_chemical_formula_sum   'Y7 Rh1 I12'
_cell_volume   787.71895675
_cell_formula_units_Z   1
loop_
 _symmetry_equiv_pos_site_id
 _symmetry_equiv_pos_as_xyz
  1  'x, y, z'
loop_
 _atom_site_type_symbol
 _atom_site_label
 _atom_site_symmetry_multiplicity
 _atom_site_fract_x
 _atom_site_fract_y
 _atom_site_fract_z
 _atom_site_occupancy
  Y  Y0  1  0.500000  0.500000  0.500000  1
  Y  Y1  1  0.904927  0.976178  0.703806  1
  Y  Y2  1  0.976178  0.703806  0.904927  1
  Y  Y3  1  0.703806  0.904927  0.976178  1
  Y  Y4  1  0.095073  0.023822  0.296194  1
  Y  Y5  1  0.023822  0.296194  0.095073  1
  Y  Y6  1  0.296194  0.095073  0.023822  1
  Rh  Rh7  1  0.000000  0.000000  0.000000  1
  I  I8  1  0.535468  0.837308  0.612565  1
  I  I9  1  0.837308  0.612565  0.535468  1
  I  I10  1  0.612565  0.535468  0.837308  1
  I  I11  1  0.464532  0.162692  0.387435  1
  I  I12  1  0.162692  0.387435  0.464532  1
  I  I13  1  0.387435  0.464532  0.162692  1
  I  I14  1  0.675964  0.223957  0.070618  1
  I  I15  1  0.223957  0.070618  0.675964  1
  I  I16  1  0.070618  0.675964  0.223957  1
  I  I17  1  0.324036  0.776043  0.929382  1
  I  I18  1  0.776043  0.929382  0.324036  1
  I  I19  1  0.929382  0.324036  0.776043  1
