# generated using pymatgen
data_Li4MgSc3(CoH6)4
_symmetry_space_group_name_H-M   'P 1'
_cell_length_a   6.38342500
_cell_length_b   6.38342500
_cell_length_c   6.38342500
_cell_angle_alpha   90.00000000
_cell_angle_beta   90.00000000
_cell_angle_gamma   90.00000000
_symmetry_Int_Tables_number   1
_chemical_formula_structural   Li4MgSc3(CoH6)4
_chemical_formula_sum   'Li4 Mg1 Sc3 Co4 H24'
_cell_volume   260.11253427
_cell_formula_units_Z   1
loop_
 _symmetry_equiv_pos_site_id
 _symmetry_equiv_pos_as_xyz
  1  'x, y, z'
loop_
 _atom_site_type_symbol
 _atom_site_label
 _atom_site_symmetry_multiplicity
 _atom_site_fract_x
 _atom_site_fract_y
 _atom_site_fract_z
 _atom_site_occupancy
  Li  Li0  1  0.000000  0.000000  0.500000  1
  Li  Li1  1  0.000000  0.500000  0.000000  1
  Li  Li2  1  0.500000  0.000000  0.000000  1
  Li  Li3  1  0.000000  0.000000  0.000000  1
  Mg  Mg4  1  0.500000  0.500000  0.500000  1
  Sc  Sc5  1  0.000000  0.500000  0.500000  1
  Sc  Sc6  1  0.500000  0.000000  0.500000  1
  Sc  Sc7  1  0.500000  0.500000  0.000000  1
  Co  Co8  1  0.258289  0.741711  0.741711  1
  Co  Co9  1  0.741711  0.258289  0.741711  1
  Co  Co10  1  0.741711  0.741711  0.258289  1
  Co  Co11  1  0.258289  0.258289  0.258289  1
  H  H12  1  0.751811  0.751811  0.502661  1
  H  H13  1  0.248189  0.248189  0.502661  1
  H  H14  1  0.013771  0.744781  0.744781  1
  H  H15  1  0.255219  0.986229  0.744781  1
  H  H16  1  0.744781  0.013771  0.744781  1
  H  H17  1  0.986229  0.255219  0.744781  1
  H  H18  1  0.751811  0.502661  0.751811  1
  H  H19  1  0.502661  0.751811  0.751811  1
  H  H20  1  0.497339  0.248189  0.751811  1
  H  H21  1  0.248189  0.497339  0.751811  1
  H  H22  1  0.255219  0.744781  0.986229  1
  H  H23  1  0.744781  0.255219  0.986229  1
  H  H24  1  0.744781  0.744781  0.013771  1
  H  H25  1  0.255219  0.255219  0.013771  1
  H  H26  1  0.248189  0.502661  0.248189  1
  H  H27  1  0.497339  0.751811  0.248189  1
  H  H28  1  0.502661  0.248189  0.248189  1
  H  H29  1  0.751811  0.497339  0.248189  1
  H  H30  1  0.986229  0.744781  0.255219  1
  H  H31  1  0.744781  0.986229  0.255219  1
  H  H32  1  0.255219  0.013771  0.255219  1
  H  H33  1  0.013771  0.255219  0.255219  1
  H  H34  1  0.248189  0.751811  0.497339  1
  H  H35  1  0.751811  0.248189  0.497339  1
