# generated using pymatgen
data_Pr8Tm12Si15Hg
_symmetry_space_group_name_H-M   'P 1'
_cell_length_a   7.48826036
_cell_length_b   7.77445510
_cell_length_c   14.80591093
_cell_angle_alpha   89.95946061
_cell_angle_beta   89.57089366
_cell_angle_gamma   90.19395599
_symmetry_Int_Tables_number   1
_chemical_formula_structural   Pr8Tm12Si15Hg
_chemical_formula_sum   'Pr8 Tm12 Si15 Hg1'
_cell_volume   861.92850438
_cell_formula_units_Z   1
loop_
 _symmetry_equiv_pos_site_id
 _symmetry_equiv_pos_as_xyz
  1  'x, y, z'
loop_
 _atom_site_type_symbol
 _atom_site_label
 _atom_site_symmetry_multiplicity
 _atom_site_fract_x
 _atom_site_fract_y
 _atom_site_fract_z
 _atom_site_occupancy
  Pr  Pr0  1  0.011056  0.171831  0.397613  1
  Pr  Pr1  1  0.515111  0.322006  0.397656  1
  Pr  Pr2  1  0.484224  0.676901  0.902360  1
  Pr  Pr3  1  0.492598  0.682761  0.601124  1
  Pr  Pr4  1  0.985595  0.830868  0.599503  1
  Pr  Pr5  1  0.983882  0.823995  0.902900  1
  Pr  Pr6  1  0.515013  0.322593  0.098128  1
  Pr  Pr7  1  0.015830  0.177234  0.099135  1
  Tm  Tm8  1  0.337605  0.169814  0.627280  1
  Tm  Tm9  1  0.667536  0.823732  0.374742  1
  Tm  Tm10  1  0.664546  0.992687  0.751958  1
  Tm  Tm11  1  0.169477  0.677733  0.372931  1
  Tm  Tm12  1  0.826485  0.321742  0.877804  1
  Tm  Tm13  1  0.823854  0.325789  0.623834  1
  Tm  Tm14  1  0.837552  0.493852  0.250227  1
  Tm  Tm15  1  0.338321  0.004864  0.248581  1
  Tm  Tm16  1  0.326169  0.175792  0.877408  1
  Tm  Tm17  1  0.171997  0.677044  0.123303  1
  Tm  Tm18  1  0.672881  0.822868  0.122839  1
  Tm  Tm19  1  0.162421  0.506149  0.753581  1
  Si  Si20  1  0.281768  0.877954  0.751749  1
  Si  Si21  1  0.464780  0.617749  0.248067  1
  Si  Si22  1  0.035426  0.121494  0.751720  1
  Si  Si23  1  0.535605  0.383588  0.752133  1
  Si  Si24  1  0.964248  0.882194  0.248498  1
  Si  Si25  1  0.715575  0.121919  0.247679  1
  Si  Si26  1  0.849301  0.534075  0.038742  1
  Si  Si27  1  0.349021  0.965809  0.039406  1
  Si  Si28  1  0.149947  0.465054  0.962020  1
  Si  Si29  1  0.653633  0.037073  0.537119  1
  Si  Si30  1  0.345012  0.964178  0.460436  1
  Si  Si31  1  0.837324  0.537903  0.458382  1
  Si  Si32  1  0.785068  0.621619  0.752412  1
  Si  Si33  1  0.216762  0.376785  0.248519  1
  Si  Si34  1  0.649919  0.033495  0.960991  1
  Hg  Hg35  1  0.164456  0.458852  0.539224  1
