# generated using pymatgen
data_Er6Al21Si3Os8
_symmetry_space_group_name_H-M   'P 1'
_cell_length_a   8.70322100
_cell_length_b   8.70322120
_cell_length_c   9.62314500
_cell_angle_alpha   90.00000000
_cell_angle_beta   90.00000000
_cell_angle_gamma   119.99999544
_symmetry_Int_Tables_number   1
_chemical_formula_structural   Er6Al21Si3Os8
_chemical_formula_sum   'Er6 Al21 Si3 Os8'
_cell_volume   631.25919136
_cell_formula_units_Z   1
loop_
 _symmetry_equiv_pos_site_id
 _symmetry_equiv_pos_as_xyz
  1  'x, y, z'
loop_
 _atom_site_type_symbol
 _atom_site_label
 _atom_site_symmetry_multiplicity
 _atom_site_fract_x
 _atom_site_fract_y
 _atom_site_fract_z
 _atom_site_occupancy
  Er  Er0  1  0.195819  0.391638  0.247641  1
  Er  Er1  1  0.803481  0.606962  0.752493  1
  Er  Er2  1  0.608362  0.804181  0.247641  1
  Er  Er3  1  0.393038  0.196519  0.752493  1
  Er  Er4  1  0.195819  0.804181  0.247641  1
  Er  Er5  1  0.803481  0.196519  0.752493  1
  Al  Al6  1  0.333333  0.666667  0.475668  1
  Al  Al7  1  0.164180  0.328361  0.574707  1
  Al  Al8  1  0.835145  0.670289  0.423200  1
  Al  Al9  1  0.671639  0.835820  0.574707  1
  Al  Al10  1  0.834954  0.669908  0.076894  1
  Al  Al11  1  0.329711  0.164855  0.423200  1
  Al  Al12  1  0.165378  0.330756  0.922526  1
  Al  Al13  1  0.164180  0.835820  0.574707  1
  Al  Al14  1  0.330092  0.165046  0.076894  1
  Al  Al15  1  0.835145  0.164855  0.423200  1
  Al  Al16  1  0.669244  0.834622  0.922526  1
  Al  Al17  1  0.834954  0.165046  0.076894  1
  Al  Al18  1  0.165378  0.834622  0.922526  1
  Al  Al19  1  0.563304  0.126608  0.248844  1
  Al  Al20  1  0.437007  0.874013  0.748780  1
  Al  Al21  1  0.873392  0.436696  0.248844  1
  Al  Al22  1  0.125987  0.562993  0.748780  1
  Al  Al23  1  0.563304  0.436696  0.248844  1
  Al  Al24  1  0.437007  0.562993  0.748780  1
  Al  Al25  1  0.000000  0.000000  0.249043  1
  Al  Al26  1  0.000000  0.000000  0.749604  1
  Si  Si27  1  0.333333  0.666667  0.039906  1
  Si  Si28  1  0.666667  0.333333  0.961530  1
  Si  Si29  1  0.666667  0.333333  0.539378  1
  Os  Os30  1  0.499900  0.999800  0.998867  1
  Os  Os31  1  0.000200  0.500100  0.998867  1
  Os  Os32  1  0.504344  0.008687  0.501530  1
  Os  Os33  1  0.499900  0.500100  0.998867  1
  Os  Os34  1  0.991313  0.495656  0.501530  1
  Os  Os35  1  0.504344  0.495656  0.501530  1
  Os  Os36  1  0.000000  0.000000  0.999117  1
  Os  Os37  1  0.000000  0.000000  0.499312  1
