# generated using pymatgen
data_Pr2Co10As7Ru2
_symmetry_space_group_name_H-M   'P 1'
_cell_length_a   3.85549700
_cell_length_b   9.45321987
_cell_length_c   9.45893085
_cell_angle_alpha   120.28117583
_cell_angle_beta   90.00000000
_cell_angle_gamma   90.00000000
_symmetry_Int_Tables_number   1
_chemical_formula_structural   Pr2Co10As7Ru2
_chemical_formula_sum   'Pr2 Co10 As7 Ru2'
_cell_volume   297.71130893
_cell_formula_units_Z   1
loop_
 _symmetry_equiv_pos_site_id
 _symmetry_equiv_pos_as_xyz
  1  'x, y, z'
loop_
 _atom_site_type_symbol
 _atom_site_label
 _atom_site_symmetry_multiplicity
 _atom_site_fract_x
 _atom_site_fract_y
 _atom_site_fract_z
 _atom_site_occupancy
  Pr  Pr0  1  0.000000  0.668106  0.335693  1
  Pr  Pr1  1  0.500000  0.335366  0.666993  1
  Co  Co2  1  0.000000  0.570118  0.942357  1
  Co  Co3  1  0.000000  0.369351  0.427708  1
  Co  Co4  1  0.000000  0.057192  0.627330  1
  Co  Co5  1  0.500000  0.101928  0.881485  1
  Co  Co6  1  0.000000  0.874977  0.153636  1
  Co  Co7  1  0.000000  0.277584  0.123256  1
  Co  Co8  1  0.000000  0.848892  0.723326  1
  Co  Co9  1  0.500000  0.947111  0.379817  1
  Co  Co10  1  0.500000  0.428208  0.050222  1
  Co  Co11  1  0.500000  0.619869  0.567484  1
  As  As12  1  0.000000  0.001343  0.999874  1
  As  As13  1  0.500000  0.704439  0.110785  1
  As  As14  1  0.500000  0.403827  0.293146  1
  As  As15  1  0.500000  0.893041  0.600773  1
  As  As16  1  0.000000  0.594082  0.701128  1
  As  As17  1  0.000000  0.107734  0.407586  1
  As  As18  1  0.000000  0.296588  0.890416  1
  Ru  Ru19  1  0.500000  0.785462  0.902526  1
  Ru  Ru20  1  0.500000  0.114780  0.214461  1
