# generated using pymatgen
data_Dy3YHo4(B6Ru)4
_symmetry_space_group_name_H-M   'P 1'
_cell_length_a   3.65290000
_cell_length_b   9.12908900
_cell_length_c   11.50232400
_cell_angle_alpha   89.99761203
_cell_angle_beta   90.00000000
_cell_angle_gamma   90.00000000
_symmetry_Int_Tables_number   1
_chemical_formula_structural   Dy3YHo4(B6Ru)4
_chemical_formula_sum   'Dy3 Y1 Ho4 B24 Ru4'
_cell_volume   383.57546566
_cell_formula_units_Z   1
loop_
 _symmetry_equiv_pos_site_id
 _symmetry_equiv_pos_as_xyz
  1  'x, y, z'
loop_
 _atom_site_type_symbol
 _atom_site_label
 _atom_site_symmetry_multiplicity
 _atom_site_fract_x
 _atom_site_fract_y
 _atom_site_fract_z
 _atom_site_occupancy
  Dy  Dy0  1  0.000000  0.677268  0.585993  1
  Dy  Dy1  1  0.000000  0.822756  0.085987  1
  Dy  Dy2  1  0.000000  0.177259  0.914016  1
  Y  Y3  1  0.000000  0.322559  0.414040  1
  Ho  Ho4  1  0.000000  0.943780  0.372258  1
  Ho  Ho5  1  0.000000  0.056132  0.627775  1
  Ho  Ho6  1  0.000000  0.443826  0.127692  1
  Ho  Ho7  1  0.000000  0.556174  0.872271  1
  B  B8  1  0.500000  0.554430  0.432908  1
  B  B9  1  0.500000  0.445845  0.567237  1
  B  B10  1  0.500000  0.054253  0.067092  1
  B  B11  1  0.500000  0.945739  0.932879  1
  B  B12  1  0.500000  0.748144  0.419701  1
  B  B13  1  0.500000  0.251847  0.580472  1
  B  B14  1  0.500000  0.248115  0.080268  1
  B  B15  1  0.500000  0.751900  0.919692  1
  B  B16  1  0.500000  0.791237  0.266311  1
  B  B17  1  0.500000  0.208770  0.733695  1
  B  B18  1  0.500000  0.291186  0.233532  1
  B  B19  1  0.500000  0.708799  0.766339  1
  B  B20  1  0.500000  0.631911  0.185080  1
  B  B21  1  0.500000  0.368128  0.814908  1
  B  B22  1  0.500000  0.131734  0.314786  1
  B  B23  1  0.500000  0.868118  0.685112  1
  B  B24  1  0.500000  0.983682  0.212966  1
  B  B25  1  0.500000  0.016271  0.787032  1
  B  B26  1  0.500000  0.483853  0.286918  1
  B  B27  1  0.500000  0.516309  0.713007  1
  B  B28  1  0.500000  0.608145  0.029814  1
  B  B29  1  0.500000  0.391868  0.970177  1
  B  B30  1  0.500000  0.107986  0.470221  1
  B  B31  1  0.500000  0.891878  0.529822  1
  Ru  Ru32  1  0.000000  0.638193  0.320970  1
  Ru  Ru33  1  0.000000  0.361972  0.679129  1
  Ru  Ru34  1  0.000000  0.137973  0.178880  1
  Ru  Ru35  1  0.000000  0.861962  0.821019  1
