# generated using pymatgen
data_Pa2BiF12
_symmetry_space_group_name_H-M   'P 1'
_cell_length_a   8.43153648
_cell_length_b   8.43153681
_cell_length_c   8.50869402
_cell_angle_alpha   62.94106402
_cell_angle_beta   62.94106174
_cell_angle_gamma   80.26776258
_symmetry_Int_Tables_number   1
_chemical_formula_structural   Pa2BiF12
_chemical_formula_sum   'Pa4 Bi2 F24'
_cell_volume   479.16591079
_cell_formula_units_Z   2
loop_
 _symmetry_equiv_pos_site_id
 _symmetry_equiv_pos_as_xyz
  1  'x, y, z'
loop_
 _atom_site_type_symbol
 _atom_site_label
 _atom_site_symmetry_multiplicity
 _atom_site_fract_x
 _atom_site_fract_y
 _atom_site_fract_z
 _atom_site_occupancy
  Pa  Pa0  1  0.635504  0.777349  0.169419  1
  Pa  Pa1  1  0.777349  0.635504  0.669419  1
  Pa  Pa2  1  0.364496  0.222651  0.830581  1
  Pa  Pa3  1  0.222651  0.364496  0.330581  1
  Bi  Bi4  1  0.786660  0.213340  0.250000  1
  Bi  Bi5  1  0.213340  0.786660  0.750000  1
  F  F6  1  0.743277  0.681629  0.396332  1
  F  F7  1  0.589779  0.191327  0.579252  1
  F  F8  1  0.731836  0.505087  0.220728  1
  F  F9  1  0.318371  0.256723  0.103668  1
  F  F10  1  0.074665  0.172351  0.037601  1
  F  F11  1  0.191327  0.589779  0.079252  1
  F  F12  1  0.410221  0.808673  0.420748  1
  F  F13  1  0.394072  0.605928  0.250000  1
  F  F14  1  0.605928  0.394072  0.750000  1
  F  F15  1  0.505087  0.731836  0.720728  1
  F  F16  1  0.827649  0.925335  0.462399  1
  F  F17  1  0.172351  0.074665  0.537601  1
  F  F18  1  0.268164  0.494913  0.779272  1
  F  F19  1  0.256723  0.318371  0.603668  1
  F  F20  1  0.719715  0.025548  0.148428  1
  F  F21  1  0.000000  0.500000  0.500000  1
  F  F22  1  0.974452  0.280285  0.351572  1
  F  F23  1  0.808673  0.410221  0.920748  1
  F  F24  1  0.494913  0.268164  0.279272  1
  F  F25  1  0.925335  0.827649  0.962399  1
  F  F26  1  0.280285  0.974452  0.851572  1
  F  F27  1  0.681629  0.743277  0.896332  1
  F  F28  1  0.025548  0.719715  0.648428  1
  F  F29  1  0.500000  0.000000  0.000000  1
