# generated using pymatgen
data_Dy8InHgRu2
_symmetry_space_group_name_H-M   'P 1'
_cell_length_a   9.59677110
_cell_length_b   9.59677106
_cell_length_c   9.63243000
_cell_angle_alpha   59.87701547
_cell_angle_beta   59.87701560
_cell_angle_gamma   59.79852274
_symmetry_Int_Tables_number   1
_chemical_formula_structural   Dy8InHgRu2
_chemical_formula_sum   'Dy16 In2 Hg2 Ru4'
_cell_volume   625.16999251
_cell_formula_units_Z   2
loop_
 _symmetry_equiv_pos_site_id
 _symmetry_equiv_pos_as_xyz
  1  'x, y, z'
loop_
 _atom_site_type_symbol
 _atom_site_label
 _atom_site_symmetry_multiplicity
 _atom_site_fract_x
 _atom_site_fract_y
 _atom_site_fract_z
 _atom_site_occupancy
  Dy  Dy0  1  0.599217  0.599217  0.597958  1
  Dy  Dy1  1  0.599217  0.599217  0.203608  1
  Dy  Dy2  1  0.599310  0.205521  0.597584  1
  Dy  Dy3  1  0.205521  0.599310  0.597584  1
  Dy  Dy4  1  0.059377  0.440653  0.440558  1
  Dy  Dy5  1  0.440653  0.059377  0.059412  1
  Dy  Dy6  1  0.440653  0.059377  0.440558  1
  Dy  Dy7  1  0.059377  0.440653  0.059412  1
  Dy  Dy8  1  0.439682  0.439682  0.060318  1
  Dy  Dy9  1  0.058547  0.058547  0.441453  1
  Dy  Dy10  1  0.191825  0.810595  0.809606  1
  Dy  Dy11  1  0.810595  0.191825  0.187974  1
  Dy  Dy12  1  0.810595  0.191825  0.809606  1
  Dy  Dy13  1  0.191825  0.810595  0.187974  1
  Dy  Dy14  1  0.810679  0.810679  0.189321  1
  Dy  Dy15  1  0.190975  0.190975  0.809025  1
  In  In16  1  0.830224  0.830224  0.832397  1
  In  In17  1  0.830224  0.830224  0.507157  1
  Hg  Hg18  1  0.833647  0.497029  0.834662  1
  Hg  Hg19  1  0.497029  0.833647  0.834662  1
  Ru  Ru20  1  0.389854  0.389854  0.388753  1
  Ru  Ru21  1  0.389854  0.389854  0.831540  1
  Ru  Ru22  1  0.391078  0.830044  0.389440  1
  Ru  Ru23  1  0.830044  0.391078  0.389440  1
