# generated using pymatgen
data_Yb10IrPd3
_symmetry_space_group_name_H-M   'P 1'
_cell_length_a   8.69562060
_cell_length_b   8.68808020
_cell_length_c   7.55096787
_cell_angle_alpha   83.01396982
_cell_angle_beta   83.24027841
_cell_angle_gamma   43.96826334
_symmetry_Int_Tables_number   1
_chemical_formula_structural   Yb10IrPd3
_chemical_formula_sum   'Yb10 Ir1 Pd3'
_cell_volume   392.73190675
_cell_formula_units_Z   1
loop_
 _symmetry_equiv_pos_site_id
 _symmetry_equiv_pos_as_xyz
  1  'x, y, z'
loop_
 _atom_site_type_symbol
 _atom_site_label
 _atom_site_symmetry_multiplicity
 _atom_site_fract_x
 _atom_site_fract_y
 _atom_site_fract_z
 _atom_site_occupancy
  Yb  Yb0  1  0.024508  0.792625  0.915131  1
  Yb  Yb1  1  0.202717  0.970263  0.579625  1
  Yb  Yb2  1  0.975780  0.204727  0.079702  1
  Yb  Yb3  1  0.801662  0.015638  0.422599  1
  Yb  Yb4  1  0.361442  0.208704  0.813925  1
  Yb  Yb5  1  0.806858  0.634431  0.679242  1
  Yb  Yb6  1  0.633384  0.800497  0.180025  1
  Yb  Yb7  1  0.201623  0.368728  0.325282  1
  Yb  Yb8  1  0.571401  0.425520  0.745549  1
  Yb  Yb9  1  0.418241  0.576570  0.257738  1
  Ir  Ir10  1  0.179787  0.601598  0.582151  1
  Pd  Pd11  1  0.402550  0.819241  0.920138  1
  Pd  Pd12  1  0.819724  0.402499  0.418113  1
  Pd  Pd13  1  0.600321  0.178960  0.080782  1
