# generated using pymatgen
data_Fe2Sb4Br3ClO6
_symmetry_space_group_name_H-M   'P 1'
_cell_length_a   8.45198043
_cell_length_b   9.18378649
_cell_length_c   10.41907672
_cell_angle_alpha   66.65224707
_cell_angle_beta   83.15160938
_cell_angle_gamma   91.84881031
_symmetry_Int_Tables_number   1
_chemical_formula_structural   Fe2Sb4Br3ClO6
_chemical_formula_sum   'Fe4 Sb8 Br6 Cl2 O12'
_cell_volume   734.41029612
_cell_formula_units_Z   2
loop_
 _symmetry_equiv_pos_site_id
 _symmetry_equiv_pos_as_xyz
  1  'x, y, z'
loop_
 _atom_site_type_symbol
 _atom_site_label
 _atom_site_symmetry_multiplicity
 _atom_site_fract_x
 _atom_site_fract_y
 _atom_site_fract_z
 _atom_site_occupancy
  Fe  Fe0  1  0.516509  0.612852  0.095606  1
  Fe  Fe1  1  0.488609  0.887409  0.403199  1
  Fe  Fe2  1  0.516542  0.112828  0.595596  1
  Fe  Fe3  1  0.488539  0.387384  0.903180  1
  Sb  Sb4  1  0.686353  0.029939  0.934347  1
  Sb  Sb5  1  0.686339  0.529965  0.434343  1
  Sb  Sb6  1  0.315324  0.970108  0.064786  1
  Sb  Sb7  1  0.315290  0.470153  0.564760  1
  Sb  Sb8  1  0.697376  0.787232  0.733691  1
  Sb  Sb9  1  0.697388  0.287237  0.233684  1
  Sb  Sb10  1  0.304218  0.210356  0.266239  1
  Sb  Sb11  1  0.304193  0.710385  0.766227  1
  Br  Br12  1  0.222646  0.067821  0.717659  1
  Br  Br13  1  0.222621  0.567832  0.217626  1
  Br  Br14  1  0.857170  0.225792  0.469254  1
  Br  Br15  1  0.857175  0.725768  0.969244  1
  Br  Br16  1  0.142903  0.771869  0.531489  1
  Br  Br17  1  0.142947  0.271839  0.031495  1
  Cl  Cl18  1  0.761670  0.937911  0.284910  1
  Cl  Cl19  1  0.761603  0.437950  0.784875  1
  O  O20  1  0.484399  0.648919  0.434948  1
  O  O21  1  0.484413  0.148902  0.934972  1
  O  O22  1  0.519052  0.351326  0.564248  1
  O  O23  1  0.519090  0.851301  0.064272  1
  O  O24  1  0.367354  0.011011  0.234447  1
  O  O25  1  0.367318  0.511033  0.734425  1
  O  O26  1  0.634918  0.987869  0.765211  1
  O  O27  1  0.634919  0.487872  0.265207  1
  O  O28  1  0.509957  0.152212  0.382640  1
  O  O29  1  0.509931  0.652218  0.882645  1
  O  O30  1  0.491608  0.847359  0.617389  1
  O  O31  1  0.491621  0.347345  0.117379  1
