# generated using pymatgen
data_Nd5Tl2Ru
_symmetry_space_group_name_H-M   'P 1'
_cell_length_a   7.99532400
_cell_length_b   9.46653500
_cell_length_c   12.77257600
_cell_angle_alpha   90.00000000
_cell_angle_beta   90.00000000
_cell_angle_gamma   90.00000000
_symmetry_Int_Tables_number   1
_chemical_formula_structural   Nd5Tl2Ru
_chemical_formula_sum   'Nd20 Tl8 Ru4'
_cell_volume   966.73091726
_cell_formula_units_Z   4
loop_
 _symmetry_equiv_pos_site_id
 _symmetry_equiv_pos_as_xyz
  1  'x, y, z'
loop_
 _atom_site_type_symbol
 _atom_site_label
 _atom_site_symmetry_multiplicity
 _atom_site_fract_x
 _atom_site_fract_y
 _atom_site_fract_z
 _atom_site_occupancy
  Nd  Nd0  1  0.850498  0.750000  0.781592  1
  Nd  Nd1  1  0.149502  0.250000  0.218408  1
  Nd  Nd2  1  0.350498  0.250000  0.718408  1
  Nd  Nd3  1  0.649502  0.750000  0.281592  1
  Nd  Nd4  1  0.386391  0.750000  0.692912  1
  Nd  Nd5  1  0.613609  0.250000  0.307088  1
  Nd  Nd6  1  0.886391  0.250000  0.807088  1
  Nd  Nd7  1  0.113609  0.750000  0.192912  1
  Nd  Nd8  1  0.942051  0.750000  0.500501  1
  Nd  Nd9  1  0.057949  0.250000  0.499499  1
  Nd  Nd10  1  0.442051  0.250000  0.999499  1
  Nd  Nd11  1  0.557949  0.750000  0.000501  1
  Nd  Nd12  1  0.675918  0.036583  0.575779  1
  Nd  Nd13  1  0.324082  0.963417  0.424221  1
  Nd  Nd14  1  0.175918  0.963417  0.924221  1
  Nd  Nd15  1  0.324082  0.536583  0.424221  1
  Nd  Nd16  1  0.824082  0.036583  0.075779  1
  Nd  Nd17  1  0.675918  0.463417  0.575779  1
  Nd  Nd18  1  0.824082  0.463417  0.075779  1
  Nd  Nd19  1  0.175918  0.536583  0.924221  1
  Tl  Tl20  1  0.583111  0.491738  0.834200  1
  Tl  Tl21  1  0.416889  0.508262  0.165800  1
  Tl  Tl22  1  0.083111  0.508262  0.665800  1
  Tl  Tl23  1  0.416889  0.991738  0.165800  1
  Tl  Tl24  1  0.916889  0.491738  0.334200  1
  Tl  Tl25  1  0.583111  0.008262  0.834200  1
  Tl  Tl26  1  0.916889  0.008262  0.334200  1
  Tl  Tl27  1  0.083111  0.991738  0.665800  1
  Ru  Ru28  1  0.576626  0.750000  0.505126  1
  Ru  Ru29  1  0.423374  0.250000  0.494874  1
  Ru  Ru30  1  0.076626  0.250000  0.994874  1
  Ru  Ru31  1  0.923374  0.750000  0.005126  1
