# generated using pymatgen
data_Ta9ZnGa3Ni
_symmetry_space_group_name_H-M   'P 1'
_cell_length_a   5.08066931
_cell_length_b   9.86498050
_cell_length_c   9.86498072
_cell_angle_alpha   86.24075013
_cell_angle_beta   75.22445871
_cell_angle_gamma   75.22444210
_symmetry_Int_Tables_number   1
_chemical_formula_structural   Ta9ZnGa3Ni
_chemical_formula_sum   'Ta18 Zn2 Ga6 Ni2'
_cell_volume   462.28039648
_cell_formula_units_Z   2
loop_
 _symmetry_equiv_pos_site_id
 _symmetry_equiv_pos_as_xyz
  1  'x, y, z'
loop_
 _atom_site_type_symbol
 _atom_site_label
 _atom_site_symmetry_multiplicity
 _atom_site_fract_x
 _atom_site_fract_y
 _atom_site_fract_z
 _atom_site_occupancy
  Ta  Ta0  1  0.750000  0.496286  0.503714  1
  Ta  Ta1  1  0.250000  0.503714  0.496286  1
  Ta  Ta2  1  0.793616  0.774496  0.643211  1
  Ta  Ta3  1  0.206384  0.225504  0.356789  1
  Ta  Ta4  1  0.706384  0.356789  0.225504  1
  Ta  Ta5  1  0.293616  0.643211  0.774496  1
  Ta  Ta6  1  0.564374  0.643481  0.225681  1
  Ta  Ta7  1  0.435626  0.356519  0.774319  1
  Ta  Ta8  1  0.064374  0.225681  0.643481  1
  Ta  Ta9  1  0.935626  0.774319  0.356519  1
  Ta  Ta10  1  0.581442  0.074701  0.755869  1
  Ta  Ta11  1  0.418558  0.925299  0.244131  1
  Ta  Ta12  1  0.918558  0.244131  0.925299  1
  Ta  Ta13  1  0.081442  0.755869  0.074701  1
  Ta  Ta14  1  0.660365  0.755502  0.925409  1
  Ta  Ta15  1  0.339635  0.244498  0.074591  1
  Ta  Ta16  1  0.160365  0.925409  0.755502  1
  Ta  Ta17  1  0.839635  0.074591  0.244498  1
  Zn  Zn18  1  0.250000  0.999399  0.000601  1
  Zn  Zn19  1  0.750000  0.000601  0.999399  1
  Ga  Ga20  1  0.000000  0.000000  0.500000  1
  Ga  Ga21  1  0.500000  0.500000  0.000000  1
  Ga  Ga22  1  0.120216  0.499815  0.240553  1
  Ga  Ga23  1  0.879784  0.500185  0.759447  1
  Ga  Ga24  1  0.379784  0.759447  0.500185  1
  Ga  Ga25  1  0.620216  0.240553  0.499815  1
  Ni  Ni26  1  0.500000  0.000000  0.500000  1
  Ni  Ni27  1  0.000000  0.500000  0.000000  1
