# generated using pymatgen
data_DyErB6Ru
_symmetry_space_group_name_H-M   'P 1'
_cell_length_a   3.64374000
_cell_length_b   9.11512100
_cell_length_c   11.48989100
_cell_angle_alpha   90.00000000
_cell_angle_beta   90.00000000
_cell_angle_gamma   90.00000000
_symmetry_Int_Tables_number   1
_chemical_formula_structural   DyErB6Ru
_chemical_formula_sum   'Dy4 Er4 B24 Ru4'
_cell_volume   381.61525487
_cell_formula_units_Z   4
loop_
 _symmetry_equiv_pos_site_id
 _symmetry_equiv_pos_as_xyz
  1  'x, y, z'
loop_
 _atom_site_type_symbol
 _atom_site_label
 _atom_site_symmetry_multiplicity
 _atom_site_fract_x
 _atom_site_fract_y
 _atom_site_fract_z
 _atom_site_occupancy
  Dy  Dy0  1  0.000000  0.322666  0.414086  1
  Dy  Dy1  1  0.000000  0.677334  0.585914  1
  Dy  Dy2  1  0.000000  0.822666  0.085914  1
  Dy  Dy3  1  0.000000  0.177334  0.914086  1
  Er  Er4  1  0.000000  0.944189  0.372315  1
  Er  Er5  1  0.000000  0.055811  0.627685  1
  Er  Er6  1  0.000000  0.444189  0.127685  1
  Er  Er7  1  0.000000  0.555811  0.872315  1
  B  B8  1  0.500000  0.554502  0.432950  1
  B  B9  1  0.500000  0.445498  0.567050  1
  B  B10  1  0.500000  0.054502  0.067050  1
  B  B11  1  0.500000  0.945498  0.932950  1
  B  B12  1  0.500000  0.748798  0.419645  1
  B  B13  1  0.500000  0.251202  0.580355  1
  B  B14  1  0.500000  0.248798  0.080355  1
  B  B15  1  0.500000  0.751202  0.919645  1
  B  B16  1  0.500000  0.791953  0.266179  1
  B  B17  1  0.500000  0.208047  0.733821  1
  B  B18  1  0.500000  0.291953  0.233821  1
  B  B19  1  0.500000  0.708047  0.766179  1
  B  B20  1  0.500000  0.632069  0.185011  1
  B  B21  1  0.500000  0.367931  0.814989  1
  B  B22  1  0.500000  0.132069  0.314989  1
  B  B23  1  0.500000  0.867931  0.685011  1
  B  B24  1  0.500000  0.983911  0.213075  1
  B  B25  1  0.500000  0.016089  0.786925  1
  B  B26  1  0.500000  0.483911  0.286925  1
  B  B27  1  0.500000  0.516089  0.713075  1
  B  B28  1  0.500000  0.607018  0.029496  1
  B  B29  1  0.500000  0.392982  0.970504  1
  B  B30  1  0.500000  0.107018  0.470504  1
  B  B31  1  0.500000  0.892982  0.529496  1
  Ru  Ru32  1  0.000000  0.638417  0.320805  1
  Ru  Ru33  1  0.000000  0.361583  0.679195  1
  Ru  Ru34  1  0.000000  0.138417  0.179195  1
  Ru  Ru35  1  0.000000  0.861583  0.820805  1
