# generated using pymatgen
data_Rb2Fe(TeO4)3
_symmetry_space_group_name_H-M   'P 1'
_cell_length_a   7.21996198
_cell_length_b   7.21995135
_cell_length_c   7.23063415
_cell_angle_alpha   60.75271056
_cell_angle_beta   60.75208122
_cell_angle_gamma   60.75199392
_symmetry_Int_Tables_number   1
_chemical_formula_structural   Rb2Fe(TeO4)3
_chemical_formula_sum   'Rb2 Fe1 Te3 O12'
_cell_volume   271.04406754
_cell_formula_units_Z   1
loop_
 _symmetry_equiv_pos_site_id
 _symmetry_equiv_pos_as_xyz
  1  'x, y, z'
loop_
 _atom_site_type_symbol
 _atom_site_label
 _atom_site_symmetry_multiplicity
 _atom_site_fract_x
 _atom_site_fract_y
 _atom_site_fract_z
 _atom_site_occupancy
  Rb  Rb0  1  0.859813  0.880010  0.369444  1
  Rb  Rb1  1  0.120007  0.140185  0.630542  1
  Fe  Fe2  1  0.496120  0.503878  0.000004  1
  Te  Te3  1  0.996623  0.503655  0.000276  1
  Te  Te4  1  0.496349  0.003377  0.999715  1
  Te  Te5  1  0.496611  0.503388  0.500001  1
  O  O6  1  0.171124  0.177971  0.070482  1
  O  O7  1  0.568352  0.572520  0.673786  1
  O  O8  1  0.171269  0.572454  0.071955  1
  O  O9  1  0.568863  0.178027  0.675277  1
  O  O10  1  0.566074  0.178902  0.069485  1
  O  O11  1  0.171520  0.574840  0.675672  1
  O  O12  1  0.822028  0.828875  0.929517  1
  O  O13  1  0.427481  0.431646  0.326225  1
  O  O14  1  0.821089  0.433922  0.930516  1
  O  O15  1  0.425159  0.828479  0.324325  1
  O  O16  1  0.427542  0.828732  0.928050  1
  O  O17  1  0.821977  0.431136  0.324727  1
