# generated using pymatgen
data_YTm15(InRu)4
_symmetry_space_group_name_H-M   'P 1'
_cell_length_a   9.53197231
_cell_length_b   9.53201121
_cell_length_c   9.54773200
_cell_angle_alpha   59.94530975
_cell_angle_beta   59.94532723
_cell_angle_gamma   59.70078146
_symmetry_Int_Tables_number   1
_chemical_formula_structural   YTm15(InRu)4
_chemical_formula_sum   'Y1 Tm15 In4 Ru4'
_cell_volume   611.50919274
_cell_formula_units_Z   1
loop_
 _symmetry_equiv_pos_site_id
 _symmetry_equiv_pos_as_xyz
  1  'x, y, z'
loop_
 _atom_site_type_symbol
 _atom_site_label
 _atom_site_symmetry_multiplicity
 _atom_site_fract_x
 _atom_site_fract_y
 _atom_site_fract_z
 _atom_site_occupancy
  Y  Y0  1  0.060557  0.060561  0.439441  1
  Tm  Tm1  1  0.444072  0.057959  0.442550  1
  Tm  Tm2  1  0.057954  0.444083  0.055415  1
  Tm  Tm3  1  0.043067  0.652582  0.652175  1
  Tm  Tm4  1  0.441455  0.441461  0.058542  1
  Tm  Tm5  1  0.652579  0.043056  0.652182  1
  Tm  Tm6  1  0.191384  0.809743  0.190949  1
  Tm  Tm7  1  0.191785  0.191789  0.808213  1
  Tm  Tm8  1  0.808562  0.808571  0.191434  1
  Tm  Tm9  1  0.444073  0.057960  0.055420  1
  Tm  Tm10  1  0.809738  0.191388  0.190947  1
  Tm  Tm11  1  0.057954  0.444083  0.442547  1
  Tm  Tm12  1  0.809738  0.191388  0.807926  1
  Tm  Tm13  1  0.191385  0.809743  0.807924  1
  Tm  Tm14  1  0.650472  0.650487  0.045044  1
  Tm  Tm15  1  0.650473  0.650486  0.653998  1
  In  In16  1  0.417410  0.417352  0.415794  1
  In  In17  1  0.747998  0.418364  0.416819  1
  In  In18  1  0.418343  0.747974  0.416841  1
  In  In19  1  0.417411  0.417352  0.749442  1
  Ru  Ru20  1  0.857705  0.857706  0.419375  1
  Ru  Ru21  1  0.857705  0.857707  0.865215  1
  Ru  Ru22  1  0.419032  0.859160  0.860904  1
  Ru  Ru23  1  0.859152  0.419049  0.860899  1
