# generated using pymatgen
data_Tb7Yb12YSn16
_symmetry_space_group_name_H-M   'P 1'
_cell_length_a   7.86252503
_cell_length_b   8.43658302
_cell_length_c   16.09852306
_cell_angle_alpha   90.00569261
_cell_angle_beta   90.00829970
_cell_angle_gamma   90.00613739
_symmetry_Int_Tables_number   1
_chemical_formula_structural   Tb7Yb12YSn16
_chemical_formula_sum   'Tb7 Yb12 Y1 Sn16'
_cell_volume   1067.86081560
_cell_formula_units_Z   1
loop_
 _symmetry_equiv_pos_site_id
 _symmetry_equiv_pos_as_xyz
  1  'x, y, z'
loop_
 _atom_site_type_symbol
 _atom_site_label
 _atom_site_symmetry_multiplicity
 _atom_site_fract_x
 _atom_site_fract_y
 _atom_site_fract_z
 _atom_site_occupancy
  Tb  Tb0  1  0.169736  0.332773  0.877883  1
  Tb  Tb1  1  0.330288  0.832783  0.122093  1
  Tb  Tb2  1  0.830291  0.667215  0.377931  1
  Tb  Tb3  1  0.330295  0.832740  0.377915  1
  Tb  Tb4  1  0.830311  0.667224  0.122093  1
  Tb  Tb5  1  0.669650  0.167253  0.877857  1
  Tb  Tb6  1  0.169660  0.332712  0.622127  1
  Yb  Yb7  1  0.501966  0.687308  0.593258  1
  Yb  Yb8  1  0.001895  0.812725  0.906733  1
  Yb  Yb9  1  0.498087  0.312719  0.093266  1
  Yb  Yb10  1  0.998077  0.187267  0.406733  1
  Yb  Yb11  1  0.498096  0.312705  0.406745  1
  Yb  Yb12  1  0.998095  0.187273  0.093270  1
  Yb  Yb13  1  0.501919  0.687270  0.906729  1
  Yb  Yb14  1  0.001892  0.812703  0.593275  1
  Yb  Yb15  1  0.832131  0.511353  0.749986  1
  Yb  Yb16  1  0.332132  0.988625  0.749999  1
  Yb  Yb17  1  0.167864  0.488629  0.249994  1
  Yb  Yb18  1  0.667868  0.011383  0.250008  1
  Y  Y19  1  0.669794  0.167161  0.622092  1
  Sn  Sn20  1  0.672018  0.964974  0.459713  1
  Sn  Sn21  1  0.172021  0.535124  0.040387  1
  Sn  Sn22  1  0.327959  0.035136  0.959623  1
  Sn  Sn23  1  0.827849  0.464917  0.540390  1
  Sn  Sn24  1  0.328159  0.035179  0.540396  1
  Sn  Sn25  1  0.827997  0.464882  0.959608  1
  Sn  Sn26  1  0.672020  0.964879  0.040380  1
  Sn  Sn27  1  0.171994  0.535088  0.459625  1
  Sn  Sn28  1  0.467219  0.377050  0.750038  1
  Sn  Sn29  1  0.967094  0.122914  0.749914  1
  Sn  Sn30  1  0.532828  0.622901  0.250000  1
  Sn  Sn31  1  0.032823  0.877122  0.249989  1
  Sn  Sn32  1  0.712207  0.872292  0.749976  1
  Sn  Sn33  1  0.212254  0.627704  0.749980  1
  Sn  Sn34  1  0.287758  0.127717  0.249998  1
  Sn  Sn35  1  0.787751  0.372298  0.249996  1
