# generated using pymatgen
data_Y2Er4TcOs
_symmetry_space_group_name_H-M   'P 1'
_cell_length_a   6.28880600
_cell_length_b   7.42757800
_cell_length_c   9.00474700
_cell_angle_alpha   90.00000000
_cell_angle_beta   90.00000000
_cell_angle_gamma   90.00000000
_symmetry_Int_Tables_number   1
_chemical_formula_structural   Y2Er4TcOs
_chemical_formula_sum   'Y4 Er8 Tc2 Os2'
_cell_volume   420.61710903
_cell_formula_units_Z   2
loop_
 _symmetry_equiv_pos_site_id
 _symmetry_equiv_pos_as_xyz
  1  'x, y, z'
loop_
 _atom_site_type_symbol
 _atom_site_label
 _atom_site_symmetry_multiplicity
 _atom_site_fract_x
 _atom_site_fract_y
 _atom_site_fract_z
 _atom_site_occupancy
  Y  Y0  1  0.876608  0.539012  0.250000  1
  Y  Y1  1  0.623392  0.039012  0.250000  1
  Y  Y2  1  0.128709  0.459873  0.750000  1
  Y  Y3  1  0.371291  0.959873  0.750000  1
  Er  Er4  1  0.337622  0.674580  0.062431  1
  Er  Er5  1  0.162378  0.174580  0.437569  1
  Er  Er6  1  0.664183  0.325078  0.563169  1
  Er  Er7  1  0.835817  0.825078  0.936831  1
  Er  Er8  1  0.664183  0.325078  0.936831  1
  Er  Er9  1  0.835817  0.825078  0.563169  1
  Er  Er10  1  0.337622  0.674580  0.437569  1
  Er  Er11  1  0.162378  0.174580  0.062431  1
  Tc  Tc12  1  0.041480  0.884414  0.250000  1
  Tc  Tc13  1  0.458520  0.384414  0.250000  1
  Os  Os14  1  0.956925  0.117386  0.750000  1
  Os  Os15  1  0.543075  0.617386  0.750000  1
