# generated using pymatgen
data_Cs2Zr(AsO4)2
_symmetry_space_group_name_H-M   'P 1'
_cell_length_a   5.56426600
_cell_length_b   5.56425932
_cell_length_c   10.05128900
_cell_angle_alpha   90.00003825
_cell_angle_beta   89.99998400
_cell_angle_gamma   120.00004999
_symmetry_Int_Tables_number   1
_chemical_formula_structural   Cs2Zr(AsO4)2
_chemical_formula_sum   'Cs2 Zr1 As2 O8'
_cell_volume   269.50536722
_cell_formula_units_Z   1
loop_
 _symmetry_equiv_pos_site_id
 _symmetry_equiv_pos_as_xyz
  1  'x, y, z'
loop_
 _atom_site_type_symbol
 _atom_site_label
 _atom_site_symmetry_multiplicity
 _atom_site_fract_x
 _atom_site_fract_y
 _atom_site_fract_z
 _atom_site_occupancy
  Cs  Cs0  1  0.666666  0.333333  0.350244  1
  Cs  Cs1  1  0.333335  0.666670  0.649756  1
  Zr  Zr2  1  0.000000  0.000001  0.999999  1
  As  As3  1  0.333331  0.666664  0.176424  1
  As  As4  1  0.666666  0.333333  0.823576  1
  O  O5  1  0.260837  0.343537  0.120865  1
  O  O6  1  0.082698  0.739162  0.120865  1
  O  O7  1  0.656463  0.917301  0.120865  1
  O  O8  1  0.333332  0.666666  0.345250  1
  O  O9  1  0.666668  0.333334  0.654749  1
  O  O10  1  0.343536  0.082699  0.879135  1
  O  O11  1  0.917302  0.260837  0.879134  1
  O  O12  1  0.739163  0.656464  0.879135  1
