# generated using pymatgen
data_Eu2ZnRh2
_symmetry_space_group_name_H-M   'P 1'
_cell_length_a   5.81095879
_cell_length_b   5.81095928
_cell_length_c   7.87341058
_cell_angle_alpha   77.50515678
_cell_angle_beta   77.50515930
_cell_angle_gamma   58.09015627
_symmetry_Int_Tables_number   1
_chemical_formula_structural   Eu2ZnRh2
_chemical_formula_sum   'Eu4 Zn2 Rh4'
_cell_volume   218.66622963
_cell_formula_units_Z   2
loop_
 _symmetry_equiv_pos_site_id
 _symmetry_equiv_pos_as_xyz
  1  'x, y, z'
loop_
 _atom_site_type_symbol
 _atom_site_label
 _atom_site_symmetry_multiplicity
 _atom_site_fract_x
 _atom_site_fract_y
 _atom_site_fract_z
 _atom_site_occupancy
  Eu  Eu0  1  0.790408  0.505279  0.351938  1
  Eu  Eu1  1  0.494721  0.209592  0.148062  1
  Eu  Eu2  1  0.209592  0.494721  0.648062  1
  Eu  Eu3  1  0.505279  0.790408  0.851938  1
  Zn  Zn4  1  0.123319  0.876681  0.250000  1
  Zn  Zn5  1  0.876681  0.123319  0.750000  1
  Rh  Rh6  1  0.007516  0.726925  0.009615  1
  Rh  Rh7  1  0.273075  0.992484  0.490385  1
  Rh  Rh8  1  0.992484  0.273075  0.990385  1
  Rh  Rh9  1  0.726925  0.007516  0.509615  1
