# generated using pymatgen
data_CsRb3PbS4
_symmetry_space_group_name_H-M   'P 1'
_cell_length_a   8.67609200
_cell_length_b   10.38937800
_cell_length_c   15.69924500
_cell_angle_alpha   90.00000000
_cell_angle_beta   90.00000000
_cell_angle_gamma   90.00000000
_symmetry_Int_Tables_number   1
_chemical_formula_structural   CsRb3PbS4
_chemical_formula_sum   'Cs4 Rb12 Pb4 S16'
_cell_volume   1415.11737471
_cell_formula_units_Z   4
loop_
 _symmetry_equiv_pos_site_id
 _symmetry_equiv_pos_as_xyz
  1  'x, y, z'
loop_
 _atom_site_type_symbol
 _atom_site_label
 _atom_site_symmetry_multiplicity
 _atom_site_fract_x
 _atom_site_fract_y
 _atom_site_fract_z
 _atom_site_occupancy
  Cs  Cs0  1  0.000000  0.000000  0.000000  1
  Cs  Cs1  1  0.500000  0.000000  0.500000  1
  Cs  Cs2  1  0.000000  0.500000  0.000000  1
  Cs  Cs3  1  0.500000  0.500000  0.500000  1
  Rb  Rb4  1  0.977929  0.750000  0.429749  1
  Rb  Rb5  1  0.477929  0.250000  0.070251  1
  Rb  Rb6  1  0.022071  0.250000  0.570251  1
  Rb  Rb7  1  0.522071  0.750000  0.929749  1
  Rb  Rb8  1  0.836883  0.054275  0.273811  1
  Rb  Rb9  1  0.336883  0.945725  0.226189  1
  Rb  Rb10  1  0.163117  0.554275  0.726189  1
  Rb  Rb11  1  0.663117  0.445725  0.773811  1
  Rb  Rb12  1  0.163117  0.945725  0.726189  1
  Rb  Rb13  1  0.663117  0.054275  0.773811  1
  Rb  Rb14  1  0.836883  0.445725  0.273811  1
  Rb  Rb15  1  0.336883  0.554275  0.226189  1
  Pb  Pb16  1  0.764503  0.750000  0.669966  1
  Pb  Pb17  1  0.235497  0.250000  0.330034  1
  Pb  Pb18  1  0.735497  0.750000  0.169966  1
  Pb  Pb19  1  0.264503  0.250000  0.830034  1
  S  S20  1  0.972642  0.250000  0.820518  1
  S  S21  1  0.527358  0.250000  0.320518  1
  S  S22  1  0.472642  0.750000  0.679482  1
  S  S23  1  0.027358  0.750000  0.179482  1
  S  S24  1  0.641579  0.552037  0.094484  1
  S  S25  1  0.141579  0.447963  0.405516  1
  S  S26  1  0.358421  0.052037  0.905516  1
  S  S27  1  0.858421  0.947963  0.594484  1
  S  S28  1  0.358421  0.447963  0.905516  1
  S  S29  1  0.858421  0.552037  0.594484  1
  S  S30  1  0.641579  0.947963  0.094484  1
  S  S31  1  0.141579  0.052037  0.405516  1
  S  S32  1  0.626635  0.750000  0.320554  1
  S  S33  1  0.126635  0.250000  0.179446  1
  S  S34  1  0.373365  0.250000  0.679446  1
  S  S35  1  0.873365  0.750000  0.820554  1
