# generated using pymatgen
data_Tm7Mg(Si3Pt)4
_symmetry_space_group_name_H-M   'P 1'
_cell_length_a   8.17122700
_cell_length_b   8.10306405
_cell_length_c   7.75133300
_cell_angle_alpha   90.00000000
_cell_angle_beta   90.00000000
_cell_angle_gamma   120.27865485
_symmetry_Int_Tables_number   1
_chemical_formula_structural   Tm7Mg(Si3Pt)4
_chemical_formula_sum   'Tm7 Mg1 Si12 Pt4'
_cell_volume   443.21785983
_cell_formula_units_Z   1
loop_
 _symmetry_equiv_pos_site_id
 _symmetry_equiv_pos_as_xyz
  1  'x, y, z'
loop_
 _atom_site_type_symbol
 _atom_site_label
 _atom_site_symmetry_multiplicity
 _atom_site_fract_x
 _atom_site_fract_y
 _atom_site_fract_z
 _atom_site_occupancy
  Tm  Tm0  1  0.488231  0.976463  0.750000  1
  Tm  Tm1  1  0.974384  0.486726  0.250000  1
  Tm  Tm2  1  0.022361  0.510421  0.750000  1
  Tm  Tm3  1  0.512343  0.486726  0.250000  1
  Tm  Tm4  1  0.488059  0.510421  0.750000  1
  Tm  Tm5  1  0.999512  0.999025  0.250000  1
  Tm  Tm6  1  0.000695  0.001390  0.750000  1
  Mg  Mg7  1  0.511945  0.023888  0.250000  1
  Si  Si8  1  0.166407  0.332813  0.001949  1
  Si  Si9  1  0.834712  0.669425  0.995865  1
  Si  Si10  1  0.669911  0.833963  0.003421  1
  Si  Si11  1  0.834712  0.669425  0.504135  1
  Si  Si12  1  0.329062  0.164917  0.998641  1
  Si  Si13  1  0.166407  0.332813  0.498051  1
  Si  Si14  1  0.164053  0.833963  0.003421  1
  Si  Si15  1  0.329062  0.164917  0.501359  1
  Si  Si16  1  0.835855  0.164917  0.998641  1
  Si  Si17  1  0.669911  0.833963  0.496579  1
  Si  Si18  1  0.835855  0.164917  0.501359  1
  Si  Si19  1  0.164053  0.833963  0.496579  1
  Pt  Pt20  1  0.336044  0.672088  0.044771  1
  Pt  Pt21  1  0.665193  0.330384  0.967345  1
  Pt  Pt22  1  0.665193  0.330384  0.532655  1
  Pt  Pt23  1  0.336044  0.672088  0.455229  1
