# generated using pymatgen
data_Na4YbOsO6
_symmetry_space_group_name_H-M   'P 1'
_cell_length_a   5.67044959
_cell_length_b   5.66916605
_cell_length_c   5.73663064
_cell_angle_alpha   99.81197511
_cell_angle_beta   99.74992607
_cell_angle_gamma   119.93497095
_symmetry_Int_Tables_number   1
_chemical_formula_structural   Na4YbOsO6
_chemical_formula_sum   'Na4 Yb1 Os1 O6'
_cell_volume   150.32379239
_cell_formula_units_Z   1
loop_
 _symmetry_equiv_pos_site_id
 _symmetry_equiv_pos_as_xyz
  1  'x, y, z'
loop_
 _atom_site_type_symbol
 _atom_site_label
 _atom_site_symmetry_multiplicity
 _atom_site_fract_x
 _atom_site_fract_y
 _atom_site_fract_z
 _atom_site_occupancy
  Na  Na0  1  0.498853  0.501110  0.999943  1
  Na  Na1  1  0.004828  0.995313  0.500099  1
  Na  Na2  1  0.661401  0.338573  0.500053  1
  Na  Na3  1  0.337143  0.662575  0.499910  1
  Yb  Yb4  1  0.833538  0.166443  0.000060  1
  Os  Os5  1  0.166748  0.833166  0.000000  1
  O  O6  1  0.957033  0.615529  0.204990  1
  O  O7  1  0.527813  0.914045  0.213026  1
  O  O8  1  0.228583  0.186778  0.213465  1
  O  O9  1  0.813468  0.771572  0.786643  1
  O  O10  1  0.085865  0.471996  0.786704  1
  O  O11  1  0.384721  0.042900  0.795110  1
