# generated using pymatgen
data_TbCeAl20Ru3Rh
_symmetry_space_group_name_H-M   'P 1'
_cell_length_a   6.86008934
_cell_length_b   6.85478368
_cell_length_c   9.15696903
_cell_angle_alpha   90.13517889
_cell_angle_beta   90.14514035
_cell_angle_gamma   97.11389811
_symmetry_Int_Tables_number   1
_chemical_formula_structural   TbCeAl20Ru3Rh
_chemical_formula_sum   'Tb1 Ce1 Al20 Ru3 Rh1'
_cell_volume   427.28351418
_cell_formula_units_Z   1
loop_
 _symmetry_equiv_pos_site_id
 _symmetry_equiv_pos_as_xyz
  1  'x, y, z'
loop_
 _atom_site_type_symbol
 _atom_site_label
 _atom_site_symmetry_multiplicity
 _atom_site_fract_x
 _atom_site_fract_y
 _atom_site_fract_z
 _atom_site_occupancy
  Tb  Tb0  1  0.874013  0.128860  0.749742  1
  Ce  Ce1  1  0.121950  0.874936  0.250165  1
  Al  Al2  1  0.590608  0.859371  0.250683  1
  Al  Al3  1  0.777708  0.518527  0.249841  1
  Al  Al4  1  0.157140  0.841235  0.897217  1
  Al  Al5  1  0.412816  0.141166  0.749211  1
  Al  Al6  1  0.623846  0.379005  0.947353  1
  Al  Al7  1  0.841509  0.158213  0.399984  1
  Al  Al8  1  0.775679  0.774587  0.999874  1
  Al  Al9  1  0.859924  0.587777  0.749586  1
  Al  Al10  1  0.842245  0.159239  0.101527  1
  Al  Al11  1  0.221384  0.480312  0.750222  1
  Al  Al12  1  0.158083  0.842556  0.601489  1
  Al  Al13  1  0.775649  0.775639  0.500612  1
  Al  Al14  1  0.480633  0.223183  0.252467  1
  Al  Al15  1  0.623583  0.377154  0.551273  1
  Al  Al16  1  0.223927  0.224776  0.501339  1
  Al  Al17  1  0.377476  0.622007  0.449614  1
  Al  Al18  1  0.139592  0.408872  0.250461  1
  Al  Al19  1  0.520382  0.777331  0.747447  1
  Al  Al20  1  0.376958  0.620194  0.051822  1
  Al  Al21  1  0.223936  0.225794  0.998431  1
  Ru  Ru22  1  0.499715  0.999404  0.500265  1
  Ru  Ru23  1  0.000670  0.500296  0.999681  1
  Ru  Ru24  1  0.000655  0.500371  0.500407  1
  Rh  Rh25  1  0.499920  0.999195  0.999286  1
