# generated using pymatgen
data_Ac8TbYb11Si16
_symmetry_space_group_name_H-M   'P 1'
_cell_length_a   8.15474740
_cell_length_b   8.15132418
_cell_length_c   15.12364400
_cell_angle_alpha   89.89098694
_cell_angle_beta   90.04399722
_cell_angle_gamma   90.01857001
_symmetry_Int_Tables_number   1
_chemical_formula_structural   Ac8TbYb11Si16
_chemical_formula_sum   'Ac8 Tb1 Yb11 Si16'
_cell_volume   1005.29653963
_cell_formula_units_Z   1
loop_
 _symmetry_equiv_pos_site_id
 _symmetry_equiv_pos_as_xyz
  1  'x, y, z'
loop_
 _atom_site_type_symbol
 _atom_site_label
 _atom_site_symmetry_multiplicity
 _atom_site_fract_x
 _atom_site_fract_y
 _atom_site_fract_z
 _atom_site_occupancy
  Ac  Ac0  1  0.986870  0.628536  0.045684  1
  Ac  Ac1  1  0.011807  0.369825  0.545431  1
  Ac  Ac2  1  0.629972  0.989945  0.954247  1
  Ac  Ac3  1  0.129994  0.511329  0.795840  1
  Ac  Ac4  1  0.872249  0.489070  0.296359  1
  Ac  Ac5  1  0.511930  0.130870  0.204476  1
  Ac  Ac6  1  0.489922  0.868051  0.704809  1
  Ac  Ac7  1  0.371899  0.009813  0.453489  1
  Tb  Tb8  1  0.129435  0.996539  0.875559  1
  Yb  Yb9  1  0.369506  0.493598  0.374799  1
  Yb  Yb10  1  0.868999  0.006681  0.374947  1
  Yb  Yb11  1  0.993916  0.129826  0.124705  1
  Yb  Yb12  1  0.007210  0.868293  0.625396  1
  Yb  Yb13  1  0.632328  0.506259  0.874771  1
  Yb  Yb14  1  0.492121  0.368318  0.625222  1
  Yb  Yb15  1  0.505899  0.631898  0.124328  1
  Yb  Yb16  1  0.687410  0.687521  0.500342  1
  Yb  Yb17  1  0.810436  0.189426  0.748956  1
  Yb  Yb18  1  0.186758  0.813057  0.249590  1
  Yb  Yb19  1  0.314808  0.315569  0.000697  1
  Si  Si20  1  0.081802  0.713189  0.441611  1
  Si  Si21  1  0.921344  0.280634  0.940457  1
  Si  Si22  1  0.712710  0.081495  0.559001  1
  Si  Si23  1  0.214460  0.417883  0.191044  1
  Si  Si24  1  0.787829  0.582828  0.692927  1
  Si  Si25  1  0.413475  0.209576  0.810861  1
  Si  Si26  1  0.581252  0.787137  0.307836  1
  Si  Si27  1  0.282804  0.920944  0.055230  1
  Si  Si28  1  0.846552  0.795204  0.808138  1
  Si  Si29  1  0.161208  0.206510  0.305206  1
  Si  Si30  1  0.792195  0.839158  0.193751  1
  Si  Si31  1  0.293318  0.659773  0.555667  1
  Si  Si32  1  0.707777  0.338774  0.053782  1
  Si  Si33  1  0.661319  0.293903  0.445272  1
  Si  Si34  1  0.335424  0.711604  0.941308  1
  Si  Si35  1  0.203062  0.156966  0.698259  1
