# generated using pymatgen
data_NdY3(GePd14)2
_symmetry_space_group_name_H-M   'P 1'
_cell_length_a   8.96166700
_cell_length_b   8.96166700
_cell_length_c   7.16004100
_cell_angle_alpha   90.00000000
_cell_angle_beta   90.00000000
_cell_angle_gamma   90.00000000
_symmetry_Int_Tables_number   1
_chemical_formula_structural   NdY3(GePd14)2
_chemical_formula_sum   'Nd1 Y3 Ge2 Pd28'
_cell_volume   575.03345677
_cell_formula_units_Z   1
loop_
 _symmetry_equiv_pos_site_id
 _symmetry_equiv_pos_as_xyz
  1  'x, y, z'
loop_
 _atom_site_type_symbol
 _atom_site_label
 _atom_site_symmetry_multiplicity
 _atom_site_fract_x
 _atom_site_fract_y
 _atom_site_fract_z
 _atom_site_occupancy
  Nd  Nd0  1  0.000000  0.500000  0.063843  1
  Y  Y1  1  0.500000  0.000000  0.935088  1
  Y  Y2  1  0.000000  0.000000  0.499980  1
  Y  Y3  1  0.500000  0.500000  0.499980  1
  Ge  Ge4  1  0.500000  0.000000  0.449617  1
  Ge  Ge5  1  0.000000  0.500000  0.550375  1
  Pd  Pd6  1  0.330896  0.830896  0.622405  1
  Pd  Pd7  1  0.330896  0.169104  0.622405  1
  Pd  Pd8  1  0.669104  0.830896  0.622405  1
  Pd  Pd9  1  0.669104  0.169104  0.622405  1
  Pd  Pd10  1  0.170174  0.670174  0.379304  1
  Pd  Pd11  1  0.170174  0.329826  0.379304  1
  Pd  Pd12  1  0.829826  0.670174  0.379304  1
  Pd  Pd13  1  0.829826  0.329826  0.379304  1
  Pd  Pd14  1  0.500000  0.766397  0.253025  1
  Pd  Pd15  1  0.500000  0.233603  0.253025  1
  Pd  Pd16  1  0.266397  0.000000  0.253025  1
  Pd  Pd17  1  0.733603  0.000000  0.253025  1
  Pd  Pd18  1  0.000000  0.735094  0.745074  1
  Pd  Pd19  1  0.000000  0.264906  0.745074  1
  Pd  Pd20  1  0.235094  0.500000  0.745074  1
  Pd  Pd21  1  0.764906  0.500000  0.745074  1
  Pd  Pd22  1  0.500000  0.348803  0.854621  1
  Pd  Pd23  1  0.500000  0.651197  0.854621  1
  Pd  Pd24  1  0.848803  0.000000  0.854621  1
  Pd  Pd25  1  0.151197  0.000000  0.854621  1
  Pd  Pd26  1  0.000000  0.150419  0.145807  1
  Pd  Pd27  1  0.000000  0.849581  0.145807  1
  Pd  Pd28  1  0.650419  0.500000  0.145807  1
  Pd  Pd29  1  0.349581  0.500000  0.145807  1
  Pd  Pd30  1  0.251044  0.751044  0.000043  1
  Pd  Pd31  1  0.251044  0.248956  0.000043  1
  Pd  Pd32  1  0.748956  0.751044  0.000043  1
  Pd  Pd33  1  0.748956  0.248956  0.000043  1
