# generated using pymatgen
data_La7Y3Sn20(IrPd)4
_symmetry_space_group_name_H-M   'P 1'
_cell_length_a   14.27269512
_cell_length_b   14.26824011
_cell_length_c   4.68290200
_cell_angle_alpha   90.00000000
_cell_angle_beta   90.00000000
_cell_angle_gamma   89.95472297
_symmetry_Int_Tables_number   1
_chemical_formula_structural   La7Y3Sn20(IrPd)4
_chemical_formula_sum   'La7 Y3 Sn20 Ir4 Pd4'
_cell_volume   953.65509131
_cell_formula_units_Z   1
loop_
 _symmetry_equiv_pos_site_id
 _symmetry_equiv_pos_as_xyz
  1  'x, y, z'
loop_
 _atom_site_type_symbol
 _atom_site_label
 _atom_site_symmetry_multiplicity
 _atom_site_fract_x
 _atom_site_fract_y
 _atom_site_fract_z
 _atom_site_occupancy
  La  La0  1  0.500025  0.499655  0.000000  1
  La  La1  1  0.000135  0.000096  0.000000  1
  La  La2  1  0.823751  0.681099  0.500000  1
  La  La3  1  0.892452  0.389195  0.500000  1
  La  La4  1  0.108175  0.609929  0.500000  1
  La  La5  1  0.392393  0.110307  0.500000  1
  La  La6  1  0.607004  0.890306  0.500000  1
  Y  Y7  1  0.674525  0.180010  0.500000  1
  Y  Y8  1  0.325669  0.819930  0.500000  1
  Y  Y9  1  0.174571  0.319575  0.500000  1
  Sn  Sn10  1  0.569229  0.071030  0.000000  1
  Sn  Sn11  1  0.430784  0.929082  0.000000  1
  Sn  Sn12  1  0.070003  0.428346  0.000000  1
  Sn  Sn13  1  0.932764  0.569312  0.000000  1
  Sn  Sn14  1  0.651339  0.703777  0.000000  1
  Sn  Sn15  1  0.346637  0.296797  0.000000  1
  Sn  Sn16  1  0.153776  0.796917  0.000000  1
  Sn  Sn17  1  0.846667  0.203305  0.000000  1
  Sn  Sn18  1  0.301257  0.653894  0.000000  1
  Sn  Sn19  1  0.698406  0.345760  0.000000  1
  Sn  Sn20  1  0.198819  0.153931  0.000000  1
  Sn  Sn21  1  0.800846  0.848408  0.000000  1
  Sn  Sn22  1  0.663141  0.502297  0.500000  1
  Sn  Sn23  1  0.335922  0.495662  0.500000  1
  Sn  Sn24  1  0.164086  0.995661  0.500000  1
  Sn  Sn25  1  0.835560  0.003509  0.500000  1
  Sn  Sn26  1  0.495975  0.663572  0.500000  1
  Sn  Sn27  1  0.504919  0.336951  0.500000  1
  Sn  Sn28  1  0.004680  0.163273  0.500000  1
  Sn  Sn29  1  0.997221  0.838019  0.500000  1
  Ir  Ir30  1  0.466552  0.745226  0.000000  1
  Ir  Ir31  1  0.532259  0.255023  0.000000  1
  Ir  Ir32  1  0.032519  0.244973  0.000000  1
  Ir  Ir33  1  0.968655  0.755843  0.000000  1
  Pd  Pd34  1  0.744700  0.531285  0.000000  1
  Pd  Pd35  1  0.254693  0.467245  0.000000  1
  Pd  Pd36  1  0.245383  0.967184  0.000000  1
  Pd  Pd37  1  0.754507  0.033615  0.000000  1
