# generated using pymatgen
data_TbCe2Se3N
_symmetry_space_group_name_H-M   'P 1'
_cell_length_a   4.04261200
_cell_length_b   12.88114600
_cell_length_c   13.15098900
_cell_angle_alpha   90.00000000
_cell_angle_beta   90.00000000
_cell_angle_gamma   90.00000000
_symmetry_Int_Tables_number   1
_chemical_formula_structural   TbCe2Se3N
_chemical_formula_sum   'Tb4 Ce8 Se12 N4'
_cell_volume   684.81770209
_cell_formula_units_Z   4
loop_
 _symmetry_equiv_pos_site_id
 _symmetry_equiv_pos_as_xyz
  1  'x, y, z'
loop_
 _atom_site_type_symbol
 _atom_site_label
 _atom_site_symmetry_multiplicity
 _atom_site_fract_x
 _atom_site_fract_y
 _atom_site_fract_z
 _atom_site_occupancy
  Tb  Tb0  1  0.750000  0.438663  0.128785  1
  Tb  Tb1  1  0.750000  0.938663  0.371215  1
  Tb  Tb2  1  0.250000  0.561337  0.871215  1
  Tb  Tb3  1  0.250000  0.061337  0.628785  1
  Ce  Ce4  1  0.750000  0.793090  0.145437  1
  Ce  Ce5  1  0.750000  0.293090  0.354563  1
  Ce  Ce6  1  0.250000  0.206910  0.854563  1
  Ce  Ce7  1  0.250000  0.706910  0.645437  1
  Ce  Ce8  1  0.750000  0.954618  0.848033  1
  Ce  Ce9  1  0.750000  0.454618  0.651967  1
  Ce  Ce10  1  0.250000  0.045382  0.151967  1
  Ce  Ce11  1  0.250000  0.545382  0.348033  1
  Se  Se12  1  0.750000  0.627426  0.503724  1
  Se  Se13  1  0.750000  0.127426  0.996276  1
  Se  Se14  1  0.250000  0.372574  0.496276  1
  Se  Se15  1  0.250000  0.872574  0.003724  1
  Se  Se16  1  0.750000  0.402425  0.893443  1
  Se  Se17  1  0.750000  0.902425  0.606557  1
  Se  Se18  1  0.250000  0.597575  0.106557  1
  Se  Se19  1  0.250000  0.097575  0.393443  1
  Se  Se20  1  0.750000  0.715767  0.822578  1
  Se  Se21  1  0.750000  0.215767  0.677422  1
  Se  Se22  1  0.250000  0.284233  0.177422  1
  Se  Se23  1  0.250000  0.784233  0.322578  1
  N  N24  1  0.750000  0.461704  0.296797  1
  N  N25  1  0.750000  0.961704  0.203203  1
  N  N26  1  0.250000  0.538296  0.703203  1
  N  N27  1  0.250000  0.038296  0.796797  1
