# generated using pymatgen
data_CeB2OsRu
_symmetry_space_group_name_H-M   'P 1'
_cell_length_a   6.73538210
_cell_length_b   6.00903535
_cell_length_c   5.58106422
_cell_angle_alpha   70.95087187
_cell_angle_beta   57.49068872
_cell_angle_gamma   51.55844060
_symmetry_Int_Tables_number   1
_chemical_formula_structural   CeB2OsRu
_chemical_formula_sum   'Ce2 B4 Os2 Ru2'
_cell_volume   149.18826574
_cell_formula_units_Z   2
loop_
 _symmetry_equiv_pos_site_id
 _symmetry_equiv_pos_as_xyz
  1  'x, y, z'
loop_
 _atom_site_type_symbol
 _atom_site_label
 _atom_site_symmetry_multiplicity
 _atom_site_fract_x
 _atom_site_fract_y
 _atom_site_fract_z
 _atom_site_occupancy
  Ce  Ce0  1  0.250000  0.250000  0.250000  1
  Ce  Ce1  1  0.000000  0.000000  0.000000  1
  B  B2  1  0.567576  0.932424  0.567576  1
  B  B3  1  0.932424  0.567576  0.932424  1
  B  B4  1  0.312772  0.687228  0.312772  1
  B  B5  1  0.687228  0.312772  0.687228  1
  Os  Os6  1  0.611827  0.611827  0.888173  1
  Os  Os7  1  0.888173  0.888173  0.611827  1
  Ru  Ru8  1  0.362402  0.362402  0.637598  1
  Ru  Ru9  1  0.637598  0.637598  0.362402  1
