# generated using pymatgen
data_Dy9Ho7(LuSn4)4
_symmetry_space_group_name_H-M   'P 1'
_cell_length_a   7.97897354
_cell_length_b   8.11878573
_cell_length_c   15.38380219
_cell_angle_alpha   90.01651049
_cell_angle_beta   90.01084971
_cell_angle_gamma   90.03664864
_symmetry_Int_Tables_number   1
_chemical_formula_structural   Dy9Ho7(LuSn4)4
_chemical_formula_sum   'Dy9 Ho7 Lu4 Sn16'
_cell_volume   996.55592886
_cell_formula_units_Z   1
loop_
 _symmetry_equiv_pos_site_id
 _symmetry_equiv_pos_as_xyz
  1  'x, y, z'
loop_
 _atom_site_type_symbol
 _atom_site_label
 _atom_site_symmetry_multiplicity
 _atom_site_fract_x
 _atom_site_fract_y
 _atom_site_fract_z
 _atom_site_occupancy
  Dy  Dy0  1  0.865989  0.663290  0.877796  1
  Dy  Dy1  1  0.519957  0.321231  0.904032  1
  Dy  Dy2  1  0.019937  0.178719  0.595757  1
  Dy  Dy3  1  0.479873  0.678417  0.403838  1
  Dy  Dy4  1  0.979368  0.822328  0.097274  1
  Dy  Dy5  1  0.481117  0.678032  0.096314  1
  Dy  Dy6  1  0.980100  0.821690  0.403440  1
  Dy  Dy7  1  0.519169  0.321201  0.595554  1
  Dy  Dy8  1  0.019777  0.178486  0.903653  1
  Ho  Ho9  1  0.364680  0.837534  0.876483  1
  Ho  Ho10  1  0.865123  0.661997  0.622863  1
  Ho  Ho11  1  0.634918  0.161636  0.376935  1
  Ho  Ho12  1  0.135075  0.337881  0.123348  1
  Ho  Ho13  1  0.633914  0.161992  0.124150  1
  Ho  Ho14  1  0.134717  0.337541  0.376900  1
  Ho  Ho15  1  0.365802  0.838042  0.622575  1
  Lu  Lu16  1  0.196923  0.503966  0.749807  1
  Lu  Lu17  1  0.696644  0.996324  0.749466  1
  Lu  Lu18  1  0.803316  0.495888  0.250361  1
  Lu  Lu19  1  0.302907  0.003734  0.250017  1
  Sn  Sn20  1  0.295773  0.038363  0.041736  1
  Sn  Sn21  1  0.796014  0.461436  0.458042  1
  Sn  Sn22  1  0.704756  0.961290  0.541555  1
  Sn  Sn23  1  0.206091  0.537861  0.958380  1
  Sn  Sn24  1  0.702584  0.963319  0.958257  1
  Sn  Sn25  1  0.203544  0.538710  0.541645  1
  Sn  Sn26  1  0.295723  0.038503  0.457956  1
  Sn  Sn27  1  0.796260  0.460498  0.042616  1
  Sn  Sn28  1  0.562100  0.618414  0.749366  1
  Sn  Sn29  1  0.062236  0.882140  0.749326  1
  Sn  Sn30  1  0.438018  0.381559  0.250670  1
  Sn  Sn31  1  0.937989  0.118579  0.250083  1
  Sn  Sn32  1  0.330170  0.150576  0.749667  1
  Sn  Sn33  1  0.829780  0.349676  0.749703  1
  Sn  Sn34  1  0.669605  0.848877  0.250278  1
  Sn  Sn35  1  0.170052  0.650272  0.250157  1
