# generated using pymatgen
data_La8Ho12Ga7Sn9
_symmetry_space_group_name_H-M   'P 1'
_cell_length_a   7.79976500
_cell_length_b   8.31410533
_cell_length_c   15.64665100
_cell_angle_alpha   90.00000000
_cell_angle_beta   90.00000000
_cell_angle_gamma   90.14957100
_symmetry_Int_Tables_number   1
_chemical_formula_structural   La8Ho12Ga7Sn9
_chemical_formula_sum   'La8 Ho12 Ga7 Sn9'
_cell_volume   1014.65162685
_cell_formula_units_Z   1
loop_
 _symmetry_equiv_pos_site_id
 _symmetry_equiv_pos_as_xyz
  1  'x, y, z'
loop_
 _atom_site_type_symbol
 _atom_site_label
 _atom_site_symmetry_multiplicity
 _atom_site_fract_x
 _atom_site_fract_y
 _atom_site_fract_z
 _atom_site_occupancy
  La  La0  1  0.500375  0.319135  0.901697  1
  La  La1  1  0.000361  0.183441  0.599196  1
  La  La2  1  0.502900  0.682891  0.404166  1
  La  La3  1  0.996985  0.821856  0.096518  1
  La  La4  1  0.502900  0.682891  0.095834  1
  La  La5  1  0.996985  0.821856  0.403482  1
  La  La6  1  0.500375  0.319135  0.598303  1
  La  La7  1  0.000361  0.183441  0.900804  1
  Ho  Ho8  1  0.336646  0.829172  0.867641  1
  Ho  Ho9  1  0.837273  0.671123  0.632088  1
  Ho  Ho10  1  0.668080  0.168802  0.369800  1
  Ho  Ho11  1  0.159305  0.323579  0.129001  1
  Ho  Ho12  1  0.668080  0.168802  0.130200  1
  Ho  Ho13  1  0.159305  0.323579  0.370999  1
  Ho  Ho14  1  0.336646  0.829172  0.632359  1
  Ho  Ho15  1  0.837273  0.671123  0.867912  1
  Ho  Ho16  1  0.182223  0.485304  0.750000  1
  Ho  Ho17  1  0.680988  0.015659  0.750000  1
  Ho  Ho18  1  0.807789  0.511444  0.250000  1
  Ho  Ho19  1  0.326131  0.996805  0.250000  1
  Ga  Ga20  1  0.541077  0.611858  0.750000  1
  Ga  Ga21  1  0.040486  0.890819  0.750000  1
  Ga  Ga22  1  0.457337  0.372276  0.250000  1
  Ga  Ga23  1  0.960576  0.108604  0.250000  1
  Ga  Ga24  1  0.290985  0.124067  0.750000  1
  Ga  Ga25  1  0.790163  0.376932  0.750000  1
  Ga  Ga26  1  0.707031  0.875879  0.250000  1
  Sn  Sn27  1  0.325767  0.038478  0.037773  1
  Sn  Sn28  1  0.824968  0.461035  0.461950  1
  Sn  Sn29  1  0.675655  0.960855  0.540193  1
  Sn  Sn30  1  0.176454  0.540940  0.961654  1
  Sn  Sn31  1  0.675655  0.960855  0.959807  1
  Sn  Sn32  1  0.176454  0.540940  0.538346  1
  Sn  Sn33  1  0.325767  0.038478  0.462227  1
  Sn  Sn34  1  0.824968  0.461035  0.038050  1
  Sn  Sn35  1  0.205677  0.627739  0.250000  1
