# generated using pymatgen
data_Tb4MgPa2Co17P12
_symmetry_space_group_name_H-M   'P 1'
_cell_length_a   3.73672100
_cell_length_b   10.60077300
_cell_length_c   12.20882900
_cell_angle_alpha   90.00000000
_cell_angle_beta   90.00000000
_cell_angle_gamma   90.00000000
_symmetry_Int_Tables_number   1
_chemical_formula_structural   Tb4MgPa2Co17P12
_chemical_formula_sum   'Tb4 Mg1 Pa2 Co17 P12'
_cell_volume   483.61773475
_cell_formula_units_Z   1
loop_
 _symmetry_equiv_pos_site_id
 _symmetry_equiv_pos_as_xyz
  1  'x, y, z'
loop_
 _atom_site_type_symbol
 _atom_site_label
 _atom_site_symmetry_multiplicity
 _atom_site_fract_x
 _atom_site_fract_y
 _atom_site_fract_z
 _atom_site_occupancy
  Tb  Tb0  1  0.500000  0.818304  0.206359  1
  Tb  Tb1  1  0.500000  0.181696  0.206359  1
  Tb  Tb2  1  0.000000  0.685556  0.795832  1
  Tb  Tb3  1  0.000000  0.314444  0.795832  1
  Mg  Mg4  1  0.500000  0.500000  0.151747  1
  Pa  Pa5  1  0.000000  0.500000  0.531909  1
  Pa  Pa6  1  0.500000  0.000000  0.471306  1
  Co  Co7  1  0.000000  0.000000  0.838926  1
  Co  Co8  1  0.500000  0.500000  0.695682  1
  Co  Co9  1  0.000000  0.000000  0.304390  1
  Co  Co10  1  0.000000  0.500000  0.984906  1
  Co  Co11  1  0.500000  0.000000  0.014775  1
  Co  Co12  1  0.500000  0.330041  0.991515  1
  Co  Co13  1  0.500000  0.669959  0.991515  1
  Co  Co14  1  0.000000  0.162293  0.002962  1
  Co  Co15  1  0.000000  0.837707  0.002962  1
  Co  Co16  1  0.500000  0.298185  0.434721  1
  Co  Co17  1  0.500000  0.701815  0.434721  1
  Co  Co18  1  0.000000  0.197761  0.569078  1
  Co  Co19  1  0.000000  0.802239  0.569078  1
  Co  Co20  1  0.500000  0.881090  0.708812  1
  Co  Co21  1  0.500000  0.118910  0.708812  1
  Co  Co22  1  0.000000  0.621847  0.293851  1
  Co  Co23  1  0.000000  0.378153  0.293851  1
  P  P24  1  0.500000  0.500000  0.879128  1
  P  P25  1  0.000000  0.000000  0.119946  1
  P  P26  1  0.500000  0.500000  0.353221  1
  P  P27  1  0.000000  0.000000  0.656065  1
  P  P28  1  0.500000  0.306255  0.617589  1
  P  P29  1  0.500000  0.693745  0.617589  1
  P  P30  1  0.000000  0.192837  0.384717  1
  P  P31  1  0.000000  0.807163  0.384717  1
  P  P32  1  0.500000  0.850652  0.892306  1
  P  P33  1  0.500000  0.149348  0.892306  1
  P  P34  1  0.000000  0.661863  0.101257  1
  P  P35  1  0.000000  0.338137  0.101257  1
