# generated using pymatgen
data_YSiPt3
_symmetry_space_group_name_H-M   'P 1'
_cell_length_a   4.05846000
_cell_length_b   4.05846000
_cell_length_c   5.50311200
_cell_angle_alpha   90.00000000
_cell_angle_beta   90.00000000
_cell_angle_gamma   90.00000000
_symmetry_Int_Tables_number   1
_chemical_formula_structural   YSiPt3
_chemical_formula_sum   'Y1 Si1 Pt3'
_cell_volume   90.64229470
_cell_formula_units_Z   1
loop_
 _symmetry_equiv_pos_site_id
 _symmetry_equiv_pos_as_xyz
  1  'x, y, z'
loop_
 _atom_site_type_symbol
 _atom_site_label
 _atom_site_symmetry_multiplicity
 _atom_site_fract_x
 _atom_site_fract_y
 _atom_site_fract_z
 _atom_site_occupancy
  Y  Y0  1  0.500000  0.500000  0.701573  1
  Si  Si1  1  0.000000  0.000000  0.963765  1
  Pt  Pt2  1  0.500000  0.000000  0.196059  1
  Pt  Pt3  1  0.000000  0.500000  0.196059  1
  Pt  Pt4  1  0.000000  0.000000  0.550745  1
