# generated using pymatgen
data_Nd5Th5(Sn3C)2
_symmetry_space_group_name_H-M   'P 1'
_cell_length_a   9.40259500
_cell_length_b   9.35959481
_cell_length_c   6.60867700
_cell_angle_alpha   90.00000000
_cell_angle_beta   90.00000000
_cell_angle_gamma   120.15208931
_symmetry_Int_Tables_number   1
_chemical_formula_structural   Nd5Th5(Sn3C)2
_chemical_formula_sum   'Nd5 Th5 Sn6 C2'
_cell_volume   502.90078606
_cell_formula_units_Z   1
loop_
 _symmetry_equiv_pos_site_id
 _symmetry_equiv_pos_as_xyz
  1  'x, y, z'
loop_
 _atom_site_type_symbol
 _atom_site_label
 _atom_site_symmetry_multiplicity
 _atom_site_fract_x
 _atom_site_fract_y
 _atom_site_fract_z
 _atom_site_occupancy
  Nd  Nd0  1  0.333422  0.666259  0.500021  1
  Nd  Nd1  1  0.667165  0.333741  0.500021  1
  Nd  Nd2  1  0.667165  0.333741  0.999979  1
  Nd  Nd3  1  0.333422  0.666259  0.999979  1
  Nd  Nd4  1  0.226064  0.000000  0.750000  1
  Th  Th5  1  0.781698  0.000000  0.250000  1
  Th  Th6  1  0.001903  0.216935  0.750000  1
  Th  Th7  1  0.000096  0.782284  0.250000  1
  Th  Th8  1  0.784968  0.783065  0.750000  1
  Th  Th9  1  0.217812  0.217716  0.250000  1
  Sn  Sn10  1  0.599604  0.000000  0.750000  1
  Sn  Sn11  1  0.400689  0.000000  0.250000  1
  Sn  Sn12  1  0.999790  0.599167  0.750000  1
  Sn  Sn13  1  0.999639  0.401413  0.250000  1
  Sn  Sn14  1  0.400623  0.400833  0.750000  1
  Sn  Sn15  1  0.598226  0.598587  0.250000  1
  C  C16  1  0.993857  0.000000  0.495826  1
  C  C17  1  0.993857  0.000000  0.004174  1
