# generated using pymatgen
data_PrNd7(SiPd)8
_symmetry_space_group_name_H-M   'P 1'
_cell_length_a   5.88095302
_cell_length_b   7.88857022
_cell_length_c   10.87058415
_cell_angle_alpha   88.25699232
_cell_angle_beta   90.00642960
_cell_angle_gamma   89.99260495
_symmetry_Int_Tables_number   1
_chemical_formula_structural   PrNd7(SiPd)8
_chemical_formula_sum   'Pr1 Nd7 Si8 Pd8'
_cell_volume   504.07817212
_cell_formula_units_Z   1
loop_
 _symmetry_equiv_pos_site_id
 _symmetry_equiv_pos_as_xyz
  1  'x, y, z'
loop_
 _atom_site_type_symbol
 _atom_site_label
 _atom_site_symmetry_multiplicity
 _atom_site_fract_x
 _atom_site_fract_y
 _atom_site_fract_z
 _atom_site_occupancy
  Pr  Pr0  1  0.366293  0.966014  0.142601  1
  Nd  Nd1  1  0.631706  0.326391  0.370844  1
  Nd  Nd2  1  0.131716  0.173628  0.629413  1
  Nd  Nd3  1  0.368487  0.673670  0.629396  1
  Nd  Nd4  1  0.868408  0.826210  0.370859  1
  Nd  Nd5  1  0.134227  0.465772  0.142964  1
  Nd  Nd6  1  0.634017  0.034283  0.856881  1
  Nd  Nd7  1  0.866093  0.534380  0.856979  1
  Si  Si8  1  0.633095  0.035394  0.577276  1
  Si  Si9  1  0.132638  0.464733  0.422890  1
  Si  Si10  1  0.366851  0.964545  0.423415  1
  Si  Si11  1  0.867126  0.535334  0.577210  1
  Si  Si12  1  0.857976  0.124561  0.144035  1
  Si  Si13  1  0.357736  0.375761  0.855913  1
  Si  Si14  1  0.142372  0.875815  0.855735  1
  Si  Si15  1  0.642867  0.623491  0.144215  1
  Pd  Pd16  1  0.900197  0.835871  0.051537  1
  Pd  Pd17  1  0.401114  0.663204  0.947449  1
  Pd  Pd18  1  0.096945  0.164645  0.947014  1
  Pd  Pd19  1  0.599853  0.336670  0.051809  1
  Pd  Pd20  1  0.892959  0.821966  0.668072  1
  Pd  Pd21  1  0.393515  0.677431  0.332551  1
  Pd  Pd22  1  0.106532  0.178275  0.332656  1
  Pd  Pd23  1  0.607278  0.321958  0.668286  1
