# generated using pymatgen
data_Hf8CoNiIr2N
_symmetry_space_group_name_H-M   'P 1'
_cell_length_a   8.60755806
_cell_length_b   8.60755927
_cell_length_c   8.60755896
_cell_angle_alpha   120.09281332
_cell_angle_beta   119.92360753
_cell_angle_gamma   89.98583878
_symmetry_Int_Tables_number   1
_chemical_formula_structural   Hf8CoNiIr2N
_chemical_formula_sum   'Hf16 Co2 Ni2 Ir4 N2'
_cell_volume   450.88927575
_cell_formula_units_Z   2
loop_
 _symmetry_equiv_pos_site_id
 _symmetry_equiv_pos_as_xyz
  1  'x, y, z'
loop_
 _atom_site_type_symbol
 _atom_site_label
 _atom_site_symmetry_multiplicity
 _atom_site_fract_x
 _atom_site_fract_y
 _atom_site_fract_z
 _atom_site_occupancy
  Hf  Hf0  1  0.937128  0.187128  0.750000  1
  Hf  Hf1  1  0.319987  0.569987  0.750000  1
  Hf  Hf2  1  0.936784  0.571051  0.759652  1
  Hf  Hf3  1  0.311399  0.177132  0.740348  1
  Hf  Hf4  1  0.936784  0.177132  0.365733  1
  Hf  Hf5  1  0.311399  0.571051  0.134267  1
  Hf  Hf6  1  0.057896  0.807896  0.250000  1
  Hf  Hf7  1  0.688419  0.438419  0.250000  1
  Hf  Hf8  1  0.059891  0.437697  0.245845  1
  Hf  Hf9  1  0.691853  0.814046  0.254155  1
  Hf  Hf10  1  0.059891  0.814046  0.622193  1
  Hf  Hf11  1  0.691853  0.437697  0.877807  1
  Hf  Hf12  1  0.483567  0.014064  0.030497  1
  Hf  Hf13  1  0.483567  0.453068  0.469503  1
  Hf  Hf14  1  0.481140  0.015913  0.465228  1
  Hf  Hf15  1  0.050684  0.015913  0.034772  1
  Co  Co16  1  0.272049  0.233851  0.461802  1
  Co  Co17  1  0.272049  0.810247  0.038198  1
  Ni  Ni18  1  0.274619  0.229626  0.044993  1
  Ni  Ni19  1  0.684632  0.229626  0.455007  1
  Ir  Ir20  1  0.708067  0.785964  0.577898  1
  Ir  Ir21  1  0.708067  0.130170  0.922102  1
  Ir  Ir22  1  0.706293  0.790326  0.915966  1
  Ir  Ir23  1  0.374361  0.790326  0.584034  1
  N  N24  1  0.998813  0.498371  0.999558  1
  N  N25  1  0.998813  0.999253  0.500442  1
