# generated using pymatgen
data_Mn11Zn8FeN4
_symmetry_space_group_name_H-M   'P 1'
_cell_length_a   6.44123570
_cell_length_b   6.44123570
_cell_length_c   6.44678340
_cell_angle_alpha   89.91674595
_cell_angle_beta   89.91674595
_cell_angle_gamma   89.88933186
_symmetry_Int_Tables_number   1
_chemical_formula_structural   Mn11Zn8FeN4
_chemical_formula_sum   'Mn11 Zn8 Fe1 N4'
_cell_volume   267.47286912
_cell_formula_units_Z   1
loop_
 _symmetry_equiv_pos_site_id
 _symmetry_equiv_pos_as_xyz
  1  'x, y, z'
loop_
 _atom_site_type_symbol
 _atom_site_label
 _atom_site_symmetry_multiplicity
 _atom_site_fract_x
 _atom_site_fract_y
 _atom_site_fract_z
 _atom_site_occupancy
  Mn  Mn0  1  0.705458  0.044542  0.875000  1
  Mn  Mn1  1  0.205783  0.455239  0.124914  1
  Mn  Mn2  1  0.294761  0.544217  0.625086  1
  Mn  Mn3  1  0.955405  0.374932  0.794008  1
  Mn  Mn4  1  0.042173  0.874562  0.704990  1
  Mn  Mn5  1  0.457158  0.123721  0.206086  1
  Mn  Mn6  1  0.544975  0.624812  0.295131  1
  Mn  Mn7  1  0.375068  0.794595  0.955992  1
  Mn  Mn8  1  0.875438  0.707827  0.045010  1
  Mn  Mn9  1  0.125188  0.205025  0.454869  1
  Mn  Mn10  1  0.626279  0.292842  0.543914  1
  Zn  Zn11  1  0.182240  0.817720  0.317652  1
  Zn  Zn12  1  0.317960  0.182432  0.817504  1
  Zn  Zn13  1  0.817580  0.317496  0.182301  1
  Zn  Zn14  1  0.682241  0.682267  0.682522  1
  Zn  Zn15  1  0.567568  0.432040  0.932496  1
  Zn  Zn16  1  0.432504  0.932420  0.567699  1
  Zn  Zn17  1  0.932280  0.567760  0.432348  1
  Zn  Zn18  1  0.067733  0.067759  0.067478  1
  Fe  Fe19  1  0.792978  0.957022  0.375000  1
  N  N20  1  0.874881  0.125680  0.627252  1
  N  N21  1  0.624320  0.875119  0.122748  1
  N  N22  1  0.125301  0.624699  0.875000  1
  N  N23  1  0.374727  0.375273  0.375000  1
