# generated using pymatgen
data_Zr16Fe4Ir3Au
_symmetry_space_group_name_H-M   'P 1'
_cell_length_a   8.74656038
_cell_length_b   8.73981496
_cell_length_c   8.73981500
_cell_angle_alpha   60.00000362
_cell_angle_beta   60.02551173
_cell_angle_gamma   60.02551732
_symmetry_Int_Tables_number   1
_chemical_formula_structural   Zr16Fe4Ir3Au
_chemical_formula_sum   'Zr16 Fe4 Ir3 Au1'
_cell_volume   472.60049161
_cell_formula_units_Z   1
loop_
 _symmetry_equiv_pos_site_id
 _symmetry_equiv_pos_as_xyz
  1  'x, y, z'
loop_
 _atom_site_type_symbol
 _atom_site_label
 _atom_site_symmetry_multiplicity
 _atom_site_fract_x
 _atom_site_fract_y
 _atom_site_fract_z
 _atom_site_occupancy
  Zr  Zr0  1  0.057526  0.647491  0.647491  1
  Zr  Zr1  1  0.645148  0.058601  0.648125  1
  Zr  Zr2  1  0.645148  0.648125  0.058601  1
  Zr  Zr3  1  0.645148  0.648125  0.648125  1
  Zr  Zr4  1  0.804605  0.808977  0.193209  1
  Zr  Zr5  1  0.195133  0.194688  0.805090  1
  Zr  Zr6  1  0.804605  0.193209  0.808977  1
  Zr  Zr7  1  0.195133  0.805090  0.194688  1
  Zr  Zr8  1  0.195133  0.805090  0.805090  1
  Zr  Zr9  1  0.804605  0.193209  0.193209  1
  Zr  Zr10  1  0.440356  0.438400  0.060623  1
  Zr  Zr11  1  0.070435  0.052525  0.438520  1
  Zr  Zr12  1  0.440356  0.060623  0.438400  1
  Zr  Zr13  1  0.070435  0.438520  0.052525  1
  Zr  Zr14  1  0.070435  0.438520  0.438520  1
  Zr  Zr15  1  0.440356  0.060623  0.060623  1
  Fe  Fe16  1  0.423861  0.858713  0.858713  1
  Fe  Fe17  1  0.858220  0.422478  0.859650  1
  Fe  Fe18  1  0.858220  0.859650  0.422478  1
  Fe  Fe19  1  0.858220  0.859650  0.859650  1
  Ir  Ir20  1  0.410351  0.755814  0.416918  1
  Ir  Ir21  1  0.410351  0.416918  0.755814  1
  Ir  Ir22  1  0.410351  0.416918  0.416918  1
  Au  Au23  1  0.745869  0.418044  0.418044  1
