# generated using pymatgen
data_LaNd5U4O20
_symmetry_space_group_name_H-M   'P 1'
_cell_length_a   6.75567706
_cell_length_b   7.65385539
_cell_length_c   8.59348000
_cell_angle_alpha   101.21118272
_cell_angle_beta   97.83245709
_cell_angle_gamma   107.22979372
_symmetry_Int_Tables_number   1
_chemical_formula_structural   LaNd5U4O20
_chemical_formula_sum   'La1 Nd5 U4 O20'
_cell_volume   407.29389950
_cell_formula_units_Z   1
loop_
 _symmetry_equiv_pos_site_id
 _symmetry_equiv_pos_as_xyz
  1  'x, y, z'
loop_
 _atom_site_type_symbol
 _atom_site_label
 _atom_site_symmetry_multiplicity
 _atom_site_fract_x
 _atom_site_fract_y
 _atom_site_fract_z
 _atom_site_occupancy
  La  La0  1  0.000000  0.500000  0.500000  1
  Nd  Nd1  1  0.611033  0.702903  0.701210  1
  Nd  Nd2  1  0.388967  0.297097  0.298790  1
  Nd  Nd3  1  0.200271  0.897870  0.895650  1
  Nd  Nd4  1  0.799729  0.102130  0.104350  1
  Nd  Nd5  1  0.000000  0.000000  0.500000  1
  U  U6  1  0.402343  0.804562  0.301231  1
  U  U7  1  0.199131  0.401597  0.902517  1
  U  U8  1  0.800869  0.598403  0.097483  1
  U  U9  1  0.597657  0.195438  0.698769  1
  O  O10  1  0.437536  0.533845  0.132672  1
  O  O11  1  0.556685  0.991797  0.838232  1
  O  O12  1  0.276401  0.151200  0.746224  1
  O  O13  1  0.365217  0.599956  0.437379  1
  O  O14  1  0.055242  0.729932  0.325196  1
  O  O15  1  0.443315  0.008203  0.161768  1
  O  O16  1  0.150488  0.188125  0.028665  1
  O  O17  1  0.562464  0.466155  0.867328  1
  O  O18  1  0.855747  0.340653  0.949006  1
  O  O19  1  0.258609  0.603300  0.766736  1
  O  O20  1  0.953008  0.773571  0.654165  1
  O  O21  1  0.357850  0.059064  0.454011  1
  O  O22  1  0.642150  0.940936  0.545989  1
  O  O23  1  0.046992  0.226429  0.345835  1
  O  O24  1  0.741391  0.396700  0.233264  1
  O  O25  1  0.144253  0.659347  0.050994  1
  O  O26  1  0.849512  0.811875  0.971335  1
  O  O27  1  0.944758  0.270068  0.674804  1
  O  O28  1  0.634783  0.400044  0.562621  1
  O  O29  1  0.723599  0.848800  0.253776  1
