# generated using pymatgen
data_Hf9Zr5(Cu4Au)4
_symmetry_space_group_name_H-M   'P 1'
_cell_length_a   7.94968386
_cell_length_b   7.94968581
_cell_length_c   9.45195044
_cell_angle_alpha   89.97919943
_cell_angle_beta   89.97919876
_cell_angle_gamma   107.27775979
_symmetry_Int_Tables_number   1
_chemical_formula_structural   Hf9Zr5(Cu4Au)4
_chemical_formula_sum   'Hf9 Zr5 Cu16 Au4'
_cell_volume   570.38517241
_cell_formula_units_Z   1
loop_
 _symmetry_equiv_pos_site_id
 _symmetry_equiv_pos_as_xyz
  1  'x, y, z'
loop_
 _atom_site_type_symbol
 _atom_site_label
 _atom_site_symmetry_multiplicity
 _atom_site_fract_x
 _atom_site_fract_y
 _atom_site_fract_z
 _atom_site_occupancy
  Hf  Hf0  1  0.193316  0.806684  0.500000  1
  Hf  Hf1  1  0.010282  0.510390  0.249922  1
  Hf  Hf2  1  0.990035  0.490338  0.749543  1
  Hf  Hf3  1  0.489610  0.989718  0.750078  1
  Hf  Hf4  1  0.509662  0.009965  0.250457  1
  Hf  Hf5  1  0.314461  0.314852  0.186748  1
  Hf  Hf6  1  0.685148  0.685539  0.813252  1
  Hf  Hf7  1  0.185601  0.185317  0.686517  1
  Hf  Hf8  1  0.814683  0.814399  0.313483  1
  Zr  Zr9  1  0.693410  0.306590  0.000000  1
  Zr  Zr10  1  0.306598  0.693402  0.000000  1
  Zr  Zr11  1  0.806807  0.193193  0.500000  1
  Zr  Zr12  1  0.000243  0.999757  0.000000  1
  Zr  Zr13  1  0.500137  0.499863  0.500000  1
  Cu  Cu14  1  0.862726  0.160926  0.202580  1
  Cu  Cu15  1  0.138172  0.838668  0.796444  1
  Cu  Cu16  1  0.637602  0.339077  0.702318  1
  Cu  Cu17  1  0.660923  0.362398  0.297682  1
  Cu  Cu18  1  0.361592  0.661965  0.298448  1
  Cu  Cu19  1  0.338035  0.638408  0.701552  1
  Cu  Cu20  1  0.839074  0.137274  0.797420  1
  Cu  Cu21  1  0.161332  0.861828  0.203556  1
  Cu  Cu22  1  0.948094  0.648637  0.004279  1
  Cu  Cu23  1  0.051820  0.351620  0.995434  1
  Cu  Cu24  1  0.550604  0.851428  0.504531  1
  Cu  Cu25  1  0.148572  0.449396  0.495469  1
  Cu  Cu26  1  0.447110  0.146879  0.496460  1
  Cu  Cu27  1  0.853121  0.552890  0.503540  1
  Cu  Cu28  1  0.351363  0.051906  0.995721  1
  Cu  Cu29  1  0.648380  0.948180  0.004566  1
  Au  Au30  1  0.113363  0.111528  0.390045  1
  Au  Au31  1  0.888472  0.886637  0.609955  1
  Au  Au32  1  0.387317  0.387666  0.889321  1
  Au  Au33  1  0.612334  0.612683  0.110679  1
