# generated using pymatgen
data_Nd4Y2CoBr10
_symmetry_space_group_name_H-M   'P 1'
_cell_length_a   7.46615089
_cell_length_b   9.31578730
_cell_length_c   9.49160407
_cell_angle_alpha   108.71073378
_cell_angle_beta   96.65001886
_cell_angle_gamma   105.25903193
_symmetry_Int_Tables_number   1
_chemical_formula_structural   Nd4Y2CoBr10
_chemical_formula_sum   'Nd4 Y2 Co1 Br10'
_cell_volume   588.57553589
_cell_formula_units_Z   1
loop_
 _symmetry_equiv_pos_site_id
 _symmetry_equiv_pos_as_xyz
  1  'x, y, z'
loop_
 _atom_site_type_symbol
 _atom_site_label
 _atom_site_symmetry_multiplicity
 _atom_site_fract_x
 _atom_site_fract_y
 _atom_site_fract_z
 _atom_site_occupancy
  Nd  Nd0  1  0.469900  0.788377  0.590132  1
  Nd  Nd1  1  0.530100  0.211623  0.409868  1
  Nd  Nd2  1  0.374383  0.454289  0.748222  1
  Nd  Nd3  1  0.625617  0.545711  0.251778  1
  Y  Y4  1  0.858164  0.633544  0.676173  1
  Y  Y5  1  0.141836  0.366456  0.323827  1
  Co  Co6  1  0.500000  0.500000  0.500000  1
  Br  Br7  1  0.412849  0.129852  0.674101  1
  Br  Br8  1  0.587151  0.870148  0.325899  1
  Br  Br9  1  0.047612  0.674164  0.417798  1
  Br  Br10  1  0.952388  0.325836  0.582202  1
  Br  Br11  1  0.274600  0.757105  0.845956  1
  Br  Br12  1  0.725400  0.242895  0.154044  1
  Br  Br13  1  0.239283  0.411969  0.048862  1
  Br  Br14  1  0.760717  0.588031  0.951138  1
  Br  Br15  1  0.859112  0.949999  0.772207  1
  Br  Br16  1  0.140888  0.050001  0.227793  1
