# generated using pymatgen
data_Hf7Fe7Co9P12W
_symmetry_space_group_name_H-M   'P 1'
_cell_length_a   11.97736104
_cell_length_b   11.99707884
_cell_length_c   3.64677500
_cell_angle_alpha   90.00000000
_cell_angle_beta   90.00000000
_cell_angle_gamma   119.89690418
_symmetry_Int_Tables_number   1
_chemical_formula_structural   Hf7Fe7Co9P12W
_chemical_formula_sum   'Hf7 Fe7 Co9 P12 W1'
_cell_volume   454.28300483
_cell_formula_units_Z   1
loop_
 _symmetry_equiv_pos_site_id
 _symmetry_equiv_pos_as_xyz
  1  'x, y, z'
loop_
 _atom_site_type_symbol
 _atom_site_label
 _atom_site_symmetry_multiplicity
 _atom_site_fract_x
 _atom_site_fract_y
 _atom_site_fract_z
 _atom_site_occupancy
  Hf  Hf0  1  0.812077  0.812138  0.500000  1
  Hf  Hf1  1  0.000369  0.181414  0.500000  1
  Hf  Hf2  1  0.558488  0.000208  0.000000  1
  Hf  Hf3  1  0.336231  0.667620  0.000000  1
  Hf  Hf4  1  0.667174  0.336155  0.000000  1
  Hf  Hf5  1  0.000494  0.558811  0.000000  1
  Hf  Hf6  1  0.182747  0.002102  0.500000  1
  Fe  Fe7  1  0.623491  0.815827  0.000000  1
  Fe  Fe8  1  0.373002  0.198063  0.000000  1
  Fe  Fe9  1  0.002236  0.726173  0.500000  1
  Fe  Fe10  1  0.276639  0.279139  0.500000  1
  Fe  Fe11  1  0.878410  0.355765  0.500000  1
  Fe  Fe12  1  0.724426  0.000563  0.500000  1
  Fe  Fe13  1  0.817339  0.624695  0.000000  1
  Co  Co14  1  0.182265  0.810698  0.000000  1
  Co  Co15  1  0.357534  0.874638  0.500000  1
  Co  Co16  1  0.134050  0.487019  0.500000  1
  Co  Co17  1  0.639184  0.511883  0.500000  1
  Co  Co18  1  0.999284  0.999791  0.000000  1
  Co  Co19  1  0.512839  0.639534  0.500000  1
  Co  Co20  1  0.482933  0.129122  0.500000  1
  Co  Co21  1  0.194076  0.371597  0.000000  1
  Co  Co22  1  0.807859  0.179117  0.000000  1
  P  P23  1  0.000228  0.349110  0.000000  1
  P  P24  1  0.827266  0.518654  0.500000  1
  P  P25  1  0.692623  0.175183  0.500000  1
  P  P26  1  0.176598  0.175685  0.000000  1
  P  P27  1  0.644326  0.643601  0.000000  1
  P  P28  1  0.819724  0.994931  0.000000  1
  P  P29  1  0.520264  0.826492  0.500000  1
  P  P30  1  0.175022  0.693937  0.500000  1
  P  P31  1  0.350128  0.005105  0.000000  1
  P  P32  1  0.478349  0.310306  0.500000  1
  P  P33  1  0.996270  0.820932  0.000000  1
  P  P34  1  0.312589  0.479867  0.500000  1
  W  W35  1  0.443467  0.444128  0.000000  1
