# generated using pymatgen
data_Hf6Al16Ir5Pd2
_symmetry_space_group_name_H-M   'P 1'
_cell_length_a   8.72856893
_cell_length_b   8.72856899
_cell_length_c   8.73499700
_cell_angle_alpha   59.97563977
_cell_angle_beta   59.97563953
_cell_angle_gamma   60.03604383
_symmetry_Int_Tables_number   1
_chemical_formula_structural   Hf6Al16Ir5Pd2
_chemical_formula_sum   'Hf6 Al16 Ir5 Pd2'
_cell_volume   470.53499003
_cell_formula_units_Z   1
loop_
 _symmetry_equiv_pos_site_id
 _symmetry_equiv_pos_as_xyz
  1  'x, y, z'
loop_
 _atom_site_type_symbol
 _atom_site_label
 _atom_site_symmetry_multiplicity
 _atom_site_fract_x
 _atom_site_fract_y
 _atom_site_fract_z
 _atom_site_occupancy
  Hf  Hf0  1  0.683320  0.316680  0.314336  1
  Hf  Hf1  1  0.316680  0.683320  0.685664  1
  Hf  Hf2  1  0.316680  0.683320  0.314336  1
  Hf  Hf3  1  0.683320  0.316680  0.685664  1
  Hf  Hf4  1  0.318658  0.318658  0.681342  1
  Hf  Hf5  1  0.681342  0.681342  0.318658  1
  Al  Al6  1  0.337974  0.337974  0.337943  1
  Al  Al7  1  0.662026  0.662026  0.662057  1
  Al  Al8  1  0.337974  0.337974  0.986109  1
  Al  Al9  1  0.339386  0.984872  0.337871  1
  Al  Al10  1  0.662026  0.662026  0.013891  1
  Al  Al11  1  0.660614  0.015128  0.662129  1
  Al  Al12  1  0.984872  0.339386  0.337871  1
  Al  Al13  1  0.015128  0.660614  0.662129  1
  Al  Al14  1  0.123198  0.123198  0.114845  1
  Al  Al15  1  0.876802  0.876802  0.885155  1
  Al  Al16  1  0.123198  0.123198  0.638759  1
  Al  Al17  1  0.121461  0.636741  0.120899  1
  Al  Al18  1  0.876802  0.876802  0.361241  1
  Al  Al19  1  0.878539  0.363259  0.879101  1
  Al  Al20  1  0.636741  0.121461  0.120899  1
  Al  Al21  1  0.363259  0.878539  0.879101  1
  Ir  Ir22  1  0.500000  0.000000  0.000000  1
  Ir  Ir23  1  0.000000  0.500000  0.500000  1
  Ir  Ir24  1  0.000000  0.500000  0.000000  1
  Ir  Ir25  1  0.500000  0.000000  0.500000  1
  Ir  Ir26  1  0.500000  0.500000  0.000000  1
  Pd  Pd27  1  0.000000  0.000000  0.500000  1
  Pd  Pd28  1  0.000000  0.000000  0.000000  1
