# generated using pymatgen
data_Ho2BIr5Rh
_symmetry_space_group_name_H-M   'P 1'
_cell_length_a   5.83112758
_cell_length_b   5.83112736
_cell_length_c   5.81214700
_cell_angle_alpha   60.10761083
_cell_angle_beta   60.10761205
_cell_angle_gamma   59.78476958
_symmetry_Int_Tables_number   1
_chemical_formula_structural   Ho2BIr5Rh
_chemical_formula_sum   'Ho2 B1 Ir5 Rh1'
_cell_volume   139.73894679
_cell_formula_units_Z   1
loop_
 _symmetry_equiv_pos_site_id
 _symmetry_equiv_pos_as_xyz
  1  'x, y, z'
loop_
 _atom_site_type_symbol
 _atom_site_label
 _atom_site_symmetry_multiplicity
 _atom_site_fract_x
 _atom_site_fract_y
 _atom_site_fract_z
 _atom_site_occupancy
  Ho  Ho0  1  0.749782  0.749782  0.750218  1
  Ho  Ho1  1  0.249782  0.249782  0.250218  1
  B  B2  1  0.001309  0.001309  0.998691  1
  Ir  Ir3  1  0.258041  0.741080  0.258920  1
  Ir  Ir4  1  0.741080  0.258041  0.258920  1
  Ir  Ir5  1  0.259147  0.259147  0.740853  1
  Ir  Ir6  1  0.741080  0.258041  0.741959  1
  Ir  Ir7  1  0.258041  0.741080  0.741959  1
  Rh  Rh8  1  0.741737  0.741737  0.258263  1
