# generated using pymatgen
data_Pr18Nd2Si15Ru
_symmetry_space_group_name_H-M   'P 1'
_cell_length_a   7.91585620
_cell_length_b   7.92792570
_cell_length_c   15.26144467
_cell_angle_alpha   90.26479846
_cell_angle_beta   89.97895672
_cell_angle_gamma   90.03122244
_symmetry_Int_Tables_number   1
_chemical_formula_structural   Pr18Nd2Si15Ru
_chemical_formula_sum   'Pr18 Nd2 Si15 Ru1'
_cell_volume   957.74166787
_cell_formula_units_Z   1
loop_
 _symmetry_equiv_pos_site_id
 _symmetry_equiv_pos_as_xyz
  1  'x, y, z'
loop_
 _atom_site_type_symbol
 _atom_site_label
 _atom_site_symmetry_multiplicity
 _atom_site_fract_x
 _atom_site_fract_y
 _atom_site_fract_z
 _atom_site_occupancy
  Pr  Pr0  1  0.823406  0.188142  0.749654  1
  Pr  Pr1  1  0.695113  0.689251  0.501986  1
  Pr  Pr2  1  0.372177  0.011092  0.449757  1
  Pr  Pr3  1  0.487772  0.879325  0.696803  1
  Pr  Pr4  1  0.510418  0.123479  0.198019  1
  Pr  Pr5  1  0.875855  0.488049  0.300472  1
  Pr  Pr6  1  0.126307  0.505469  0.799035  1
  Pr  Pr7  1  0.625565  0.988706  0.948447  1
  Pr  Pr8  1  0.006379  0.377635  0.552047  1
  Pr  Pr9  1  0.988087  0.624653  0.050795  1
  Pr  Pr10  1  0.133801  0.984172  0.873309  1
  Pr  Pr11  1  0.516973  0.630407  0.125941  1
  Pr  Pr12  1  0.471435  0.359557  0.628585  1
  Pr  Pr13  1  0.627115  0.515367  0.874298  1
  Pr  Pr14  1  0.374860  0.483955  0.373616  1
  Pr  Pr15  1  0.873661  0.020712  0.376832  1
  Pr  Pr16  1  0.982331  0.126512  0.124141  1
  Pr  Pr17  1  0.027111  0.882458  0.626771  1
  Nd  Nd18  1  0.305664  0.306642  0.997918  1
  Nd  Nd19  1  0.190851  0.809218  0.249591  1
  Si  Si20  1  0.332964  0.694063  0.951016  1
  Si  Si21  1  0.664497  0.302757  0.451794  1
  Si  Si22  1  0.696114  0.334787  0.050016  1
  Si  Si23  1  0.303912  0.668074  0.547502  1
  Si  Si24  1  0.806147  0.832348  0.203605  1
  Si  Si25  1  0.168082  0.197344  0.297836  1
  Si  Si26  1  0.833408  0.801964  0.799862  1
  Si  Si27  1  0.287661  0.921905  0.058735  1
  Si  Si28  1  0.579664  0.787870  0.310742  1
  Si  Si29  1  0.423640  0.207753  0.811566  1
  Si  Si30  1  0.779145  0.583151  0.691141  1
  Si  Si31  1  0.212507  0.422122  0.190104  1
  Si  Si32  1  0.704799  0.074767  0.558665  1
  Si  Si33  1  0.919698  0.287474  0.941800  1
  Si  Si34  1  0.080098  0.715680  0.440618  1
  Ru  Ru35  1  0.192783  0.173141  0.696982  1
