# generated using pymatgen
data_Er9Tm(SiSb)4
_symmetry_space_group_name_H-M   'P 1'
_cell_length_a   8.45336311
_cell_length_b   8.45336318
_cell_length_c   7.79191701
_cell_angle_alpha   89.99801065
_cell_angle_beta   89.99801128
_cell_angle_gamma   125.29996513
_symmetry_Int_Tables_number   1
_chemical_formula_structural   Er9Tm(SiSb)4
_chemical_formula_sum   'Er9 Tm1 Si4 Sb4'
_cell_volume   454.42994075
_cell_formula_units_Z   1
loop_
 _symmetry_equiv_pos_site_id
 _symmetry_equiv_pos_as_xyz
  1  'x, y, z'
loop_
 _atom_site_type_symbol
 _atom_site_label
 _atom_site_symmetry_multiplicity
 _atom_site_fract_x
 _atom_site_fract_y
 _atom_site_fract_z
 _atom_site_occupancy
  Er  Er0  1  0.540404  0.791058  0.165095  1
  Er  Er1  1  0.290913  0.040291  0.334786  1
  Er  Er2  1  0.208942  0.459596  0.834905  1
  Er  Er3  1  0.959709  0.709087  0.665214  1
  Er  Er4  1  0.709087  0.959709  0.665214  1
  Er  Er5  1  0.459596  0.208942  0.834905  1
  Er  Er6  1  0.791058  0.540404  0.165095  1
  Er  Er7  1  0.040291  0.290913  0.334786  1
  Er  Er8  1  0.500000  0.500000  0.500000  1
  Tm  Tm9  1  0.000000  0.000000  0.000000  1
  Si  Si10  1  0.632873  0.632873  0.868413  1
  Si  Si11  1  0.132643  0.132643  0.631865  1
  Si  Si12  1  0.867357  0.867357  0.368135  1
  Si  Si13  1  0.367127  0.367127  0.131587  1
  Sb  Sb14  1  0.293669  0.706331  0.500000  1
  Sb  Sb15  1  0.206156  0.793844  0.000000  1
  Sb  Sb16  1  0.706331  0.293669  0.500000  1
  Sb  Sb17  1  0.793844  0.206156  0.000000  1
