# generated using pymatgen
data_Ho2Co12GeP6
_symmetry_space_group_name_H-M   'P 1'
_cell_length_a   9.07678000
_cell_length_b   9.07678044
_cell_length_c   3.57355400
_cell_angle_alpha   90.00000000
_cell_angle_beta   90.00000000
_cell_angle_gamma   120.00000567
_symmetry_Int_Tables_number   1
_chemical_formula_structural   Ho2Co12GeP6
_chemical_formula_sum   'Ho2 Co12 Ge1 P6'
_cell_volume   254.97323598
_cell_formula_units_Z   1
loop_
 _symmetry_equiv_pos_site_id
 _symmetry_equiv_pos_as_xyz
  1  'x, y, z'
loop_
 _atom_site_type_symbol
 _atom_site_label
 _atom_site_symmetry_multiplicity
 _atom_site_fract_x
 _atom_site_fract_y
 _atom_site_fract_z
 _atom_site_occupancy
  Ho  Ho0  1  0.000000  0.000000  0.000000  1
  Ho  Ho1  1  0.333333  0.666667  0.500000  1
  Co  Co2  1  0.103219  0.394314  0.000000  1
  Co  Co3  1  0.605686  0.708905  0.000000  1
  Co  Co4  1  0.291095  0.896781  0.000000  1
  Co  Co5  1  0.052911  0.771764  0.500000  1
  Co  Co6  1  0.228236  0.281148  0.500000  1
  Co  Co7  1  0.718852  0.947089  0.500000  1
  Co  Co8  1  0.827668  0.620469  0.000000  1
  Co  Co9  1  0.379531  0.207198  0.000000  1
  Co  Co10  1  0.792802  0.172332  0.000000  1
  Co  Co11  1  0.915266  0.443841  0.500000  1
  Co  Co12  1  0.556159  0.471425  0.500000  1
  Co  Co13  1  0.528575  0.084734  0.500000  1
  Ge  Ge14  1  0.666667  0.333333  0.000000  1
  P  P15  1  0.777832  0.736125  0.500000  1
  P  P16  1  0.263875  0.041707  0.500000  1
  P  P17  1  0.958293  0.222168  0.500000  1
  P  P18  1  0.072386  0.626544  0.000000  1
  P  P19  1  0.373456  0.445843  0.000000  1
  P  P20  1  0.554157  0.927614  0.000000  1
