# generated using pymatgen
data_Ta12Ga8Ni3MoC4
_symmetry_space_group_name_H-M   'P 1'
_cell_length_a   8.28402353
_cell_length_b   8.24643000
_cell_length_c   8.24642900
_cell_angle_alpha   59.99999999
_cell_angle_beta   60.15000514
_cell_angle_gamma   60.15000637
_symmetry_Int_Tables_number   1
_chemical_formula_structural   Ta12Ga8Ni3MoC4
_chemical_formula_sum   'Ta12 Ga8 Ni3 Mo1 C4'
_cell_volume   399.24474286
_cell_formula_units_Z   1
loop_
 _symmetry_equiv_pos_site_id
 _symmetry_equiv_pos_as_xyz
  1  'x, y, z'
loop_
 _atom_site_type_symbol
 _atom_site_label
 _atom_site_symmetry_multiplicity
 _atom_site_fract_x
 _atom_site_fract_y
 _atom_site_fract_z
 _atom_site_occupancy
  Ta  Ta0  1  0.569784  0.939690  0.550836  1
  Ta  Ta1  1  0.313579  0.687095  0.687095  1
  Ta  Ta2  1  0.680216  0.310310  0.310310  1
  Ta  Ta3  1  0.313579  0.687095  0.312231  1
  Ta  Ta4  1  0.680216  0.699164  0.310310  1
  Ta  Ta5  1  0.313579  0.312231  0.687095  1
  Ta  Ta6  1  0.569784  0.550836  0.939690  1
  Ta  Ta7  1  0.936421  0.562905  0.562905  1
  Ta  Ta8  1  0.569784  0.939690  0.939690  1
  Ta  Ta9  1  0.936421  0.937769  0.562905  1
  Ta  Ta10  1  0.680216  0.310310  0.699164  1
  Ta  Ta11  1  0.936421  0.562905  0.937769  1
  Ga  Ga12  1  0.928571  0.909913  0.909913  1
  Ga  Ga13  1  0.990344  0.336551  0.336551  1
  Ga  Ga14  1  0.321429  0.998395  0.340087  1
  Ga  Ga15  1  0.321429  0.340087  0.998395  1
  Ga  Ga16  1  0.928571  0.251605  0.909913  1
  Ga  Ga17  1  0.928571  0.909913  0.251605  1
  Ga  Ga18  1  0.259656  0.913449  0.913449  1
  Ga  Ga19  1  0.321429  0.340087  0.340087  1
  Ni  Ni20  1  0.125000  0.125000  0.125000  1
  Ni  Ni21  1  0.125000  0.625000  0.125000  1
  Ni  Ni22  1  0.125000  0.125000  0.625000  1
  Mo  Mo23  1  0.625000  0.125000  0.125000  1
  C  C24  1  0.625000  0.625000  0.625000  1
  C  C25  1  0.125000  0.625000  0.625000  1
  C  C26  1  0.625000  0.125000  0.625000  1
  C  C27  1  0.625000  0.625000  0.125000  1
