# generated using pymatgen
data_LaY5TcRh
_symmetry_space_group_name_H-M   'P 1'
_cell_length_a   6.47336416
_cell_length_b   7.33947848
_cell_length_c   9.38167700
_cell_angle_alpha   90.00000000
_cell_angle_beta   90.00000000
_cell_angle_gamma   89.81411295
_symmetry_Int_Tables_number   1
_chemical_formula_structural   LaY5TcRh
_chemical_formula_sum   'La2 Y10 Tc2 Rh2'
_cell_volume   445.73160763
_cell_formula_units_Z   2
loop_
 _symmetry_equiv_pos_site_id
 _symmetry_equiv_pos_as_xyz
  1  'x, y, z'
loop_
 _atom_site_type_symbol
 _atom_site_label
 _atom_site_symmetry_multiplicity
 _atom_site_fract_x
 _atom_site_fract_y
 _atom_site_fract_z
 _atom_site_occupancy
  La  La0  1  0.634195  0.052104  0.250000  1
  La  La1  1  0.365805  0.947896  0.750000  1
  Y  Y2  1  0.127846  0.459554  0.750000  1
  Y  Y3  1  0.872154  0.540446  0.250000  1
  Y  Y4  1  0.169602  0.180966  0.065257  1
  Y  Y5  1  0.830398  0.819034  0.934743  1
  Y  Y6  1  0.668207  0.328899  0.935045  1
  Y  Y7  1  0.830398  0.819034  0.565257  1
  Y  Y8  1  0.331793  0.671101  0.064955  1
  Y  Y9  1  0.169602  0.180966  0.434743  1
  Y  Y10  1  0.331793  0.671101  0.435045  1
  Y  Y11  1  0.668207  0.328899  0.564955  1
  Tc  Tc12  1  0.470754  0.375171  0.250000  1
  Tc  Tc13  1  0.529246  0.624829  0.750000  1
  Rh  Rh14  1  0.952406  0.115755  0.750000  1
  Rh  Rh15  1  0.047594  0.884245  0.250000  1
