# generated using pymatgen
data_CeAl7Ag5
_symmetry_space_group_name_H-M   'P 1'
_cell_length_a   7.09659561
_cell_length_b   7.09659624
_cell_length_c   7.09659600
_cell_angle_alpha   133.75435965
_cell_angle_beta   99.96765217
_cell_angle_gamma   97.77827185
_symmetry_Int_Tables_number   1
_chemical_formula_structural   CeAl7Ag5
_chemical_formula_sum   'Ce1 Al7 Ag5'
_cell_volume   237.35381560
_cell_formula_units_Z   1
loop_
 _symmetry_equiv_pos_site_id
 _symmetry_equiv_pos_as_xyz
  1  'x, y, z'
loop_
 _atom_site_type_symbol
 _atom_site_label
 _atom_site_symmetry_multiplicity
 _atom_site_fract_x
 _atom_site_fract_y
 _atom_site_fract_z
 _atom_site_occupancy
  Ce  Ce0  1  0.998798  0.000000  0.998798  1
  Al  Al1  1  0.644711  0.000000  0.644711  1
  Al  Al2  1  0.351114  0.000000  0.351114  1
  Al  Al3  1  0.348551  0.352858  0.995692  1
  Al  Al4  1  0.642835  0.647142  0.995692  1
  Al  Al5  1  0.776704  0.500000  0.276704  1
  Al  Al6  1  0.790930  0.286077  0.504852  1
  Al  Al7  1  0.218776  0.713923  0.504852  1
  Ag  Ag8  1  0.511249  0.506734  0.501389  1
  Ag  Ag9  1  0.511249  0.009860  0.004516  1
  Ag  Ag10  1  0.994654  0.990140  0.501389  1
  Ag  Ag11  1  0.994654  0.493266  0.004516  1
  Ag  Ag12  1  0.215774  0.500000  0.715774  1
