# generated using pymatgen
data_Ca3SmZn5Ni9
_symmetry_space_group_name_H-M   'P 1'
_cell_length_a   5.19804658
_cell_length_b   5.19804723
_cell_length_c   12.32118240
_cell_angle_alpha   77.82258622
_cell_angle_beta   77.82258596
_cell_angle_gamma   60.00000244
_symmetry_Int_Tables_number   1
_chemical_formula_structural   Ca3SmZn5Ni9
_chemical_formula_sum   'Ca3 Sm1 Zn5 Ni9'
_cell_volume   279.62930931
_cell_formula_units_Z   1
loop_
 _symmetry_equiv_pos_site_id
 _symmetry_equiv_pos_as_xyz
  1  'x, y, z'
loop_
 _atom_site_type_symbol
 _atom_site_label
 _atom_site_symmetry_multiplicity
 _atom_site_fract_x
 _atom_site_fract_y
 _atom_site_fract_z
 _atom_site_occupancy
  Ca  Ca0  1  0.951074  0.951074  0.146780  1
  Ca  Ca1  1  0.047489  0.047489  0.857530  1
  Ca  Ca2  1  0.855466  0.855466  0.433601  1
  Sm  Sm3  1  0.145229  0.145229  0.564312  1
  Zn  Zn4  1  0.500504  0.500504  0.498489  1
  Zn  Zn5  1  0.721977  0.721977  0.834071  1
  Zn  Zn6  1  0.277860  0.277860  0.166419  1
  Zn  Zn7  1  0.611143  0.611143  0.166569  1
  Zn  Zn8  1  0.389187  0.389187  0.832440  1
  Ni  Ni9  1  0.000829  0.499525  0.000121  1
  Ni  Ni10  1  0.499525  0.000829  0.000121  1
  Ni  Ni11  1  0.499525  0.499525  0.000121  1
  Ni  Ni12  1  0.386848  0.386848  0.331773  1
  Ni  Ni13  1  0.894532  0.386848  0.331773  1
  Ni  Ni14  1  0.386848  0.894532  0.331773  1
  Ni  Ni15  1  0.612879  0.612879  0.668036  1
  Ni  Ni16  1  0.106206  0.612879  0.668036  1
  Ni  Ni17  1  0.612879  0.106206  0.668036  1
