# generated using pymatgen
data_ThAl4ZnCu6
_symmetry_space_group_name_H-M   'P 1'
_cell_length_a   10.36352750
_cell_length_b   8.14092842
_cell_length_c   7.95461288
_cell_angle_alpha   80.15372558
_cell_angle_beta   50.71135940
_cell_angle_gamma   49.13492309
_symmetry_Int_Tables_number   1
_chemical_formula_structural   ThAl4ZnCu6
_chemical_formula_sum   'Th2 Al8 Zn2 Cu12'
_cell_volume   357.27051332
_cell_formula_units_Z   2
loop_
 _symmetry_equiv_pos_site_id
 _symmetry_equiv_pos_as_xyz
  1  'x, y, z'
loop_
 _atom_site_type_symbol
 _atom_site_label
 _atom_site_symmetry_multiplicity
 _atom_site_fract_x
 _atom_site_fract_y
 _atom_site_fract_z
 _atom_site_occupancy
  Th  Th0  1  0.000000  0.000000  0.000000  1
  Th  Th1  1  0.250000  0.250000  0.250000  1
  Al  Al2  1  0.760162  0.066353  0.826543  1
  Al  Al3  1  0.826543  0.346942  0.760162  1
  Al  Al4  1  0.066353  0.760162  0.346942  1
  Al  Al5  1  0.346942  0.826543  0.066353  1
  Al  Al6  1  0.489838  0.183647  0.423457  1
  Al  Al7  1  0.423457  0.903058  0.489838  1
  Al  Al8  1  0.183647  0.489838  0.903058  1
  Al  Al9  1  0.903058  0.423457  0.183647  1
  Zn  Zn10  1  0.500000  0.500000  0.500000  1
  Zn  Zn11  1  0.750000  0.750000  0.750000  1
  Cu  Cu12  1  0.625000  0.125000  0.625000  1
  Cu  Cu13  1  0.625000  0.625000  0.625000  1
  Cu  Cu14  1  0.125000  0.625000  0.625000  1
  Cu  Cu15  1  0.625000  0.625000  0.125000  1
  Cu  Cu16  1  0.489020  0.432521  0.182334  1
  Cu  Cu17  1  0.182334  0.896125  0.489020  1
  Cu  Cu18  1  0.432521  0.489020  0.896125  1
  Cu  Cu19  1  0.896125  0.182334  0.432521  1
  Cu  Cu20  1  0.760980  0.817479  0.067666  1
  Cu  Cu21  1  0.067666  0.353875  0.760980  1
  Cu  Cu22  1  0.817479  0.760980  0.353875  1
  Cu  Cu23  1  0.353875  0.067666  0.817479  1
