# generated using pymatgen
data_EuSb12IrRu3
_symmetry_space_group_name_H-M   'P 1'
_cell_length_a   8.15487933
_cell_length_b   8.14594388
_cell_length_c   8.14594261
_cell_angle_alpha   109.44899026
_cell_angle_beta   109.49343915
_cell_angle_gamma   109.49344111
_symmetry_Int_Tables_number   1
_chemical_formula_structural   EuSb12IrRu3
_chemical_formula_sum   'Eu1 Sb12 Ir1 Ru3'
_cell_volume   416.44653462
_cell_formula_units_Z   1
loop_
 _symmetry_equiv_pos_site_id
 _symmetry_equiv_pos_as_xyz
  1  'x, y, z'
loop_
 _atom_site_type_symbol
 _atom_site_label
 _atom_site_symmetry_multiplicity
 _atom_site_fract_x
 _atom_site_fract_y
 _atom_site_fract_z
 _atom_site_occupancy
  Eu  Eu0  1  0.000000  0.000000  0.000000  1
  Sb  Sb1  1  0.659527  0.842023  0.501454  1
  Sb  Sb2  1  0.340473  0.157977  0.498546  1
  Sb  Sb3  1  0.845146  0.184846  0.343451  1
  Sb  Sb4  1  0.817504  0.659431  0.157977  1
  Sb  Sb5  1  0.841927  0.501454  0.659431  1
  Sb  Sb6  1  0.182496  0.340569  0.842023  1
  Sb  Sb7  1  0.154854  0.815154  0.656549  1
  Sb  Sb8  1  0.501696  0.656549  0.841395  1
  Sb  Sb9  1  0.498304  0.343451  0.158605  1
  Sb  Sb10  1  0.158073  0.498546  0.340569  1
  Sb  Sb11  1  0.339699  0.841395  0.184846  1
  Sb  Sb12  1  0.660301  0.158605  0.815154  1
  Ir  Ir13  1  0.500000  0.000000  0.000000  1
  Ru  Ru14  1  0.500000  0.500000  0.500000  1
  Ru  Ru15  1  0.000000  0.000000  0.500000  1
  Ru  Ru16  1  0.000000  0.500000  0.000000  1
