# generated using pymatgen
data_Sc4RuCl4
_symmetry_space_group_name_H-M   'P 1'
_cell_length_a   8.06771599
_cell_length_b   8.06771694
_cell_length_c   6.15845400
_cell_angle_alpha   89.48653206
_cell_angle_beta   89.48653355
_cell_angle_gamma   89.33500304
_symmetry_Int_Tables_number   1
_chemical_formula_structural   Sc4RuCl4
_chemical_formula_sum   'Sc8 Ru2 Cl8'
_cell_volume   400.78293648
_cell_formula_units_Z   2
loop_
 _symmetry_equiv_pos_site_id
 _symmetry_equiv_pos_as_xyz
  1  'x, y, z'
loop_
 _atom_site_type_symbol
 _atom_site_label
 _atom_site_symmetry_multiplicity
 _atom_site_fract_x
 _atom_site_fract_y
 _atom_site_fract_z
 _atom_site_occupancy
  Sc  Sc0  1  0.103863  0.741196  0.984424  1
  Sc  Sc1  1  0.258804  0.896137  0.515576  1
  Sc  Sc2  1  0.896137  0.258804  0.015576  1
  Sc  Sc3  1  0.741196  0.103863  0.484424  1
  Sc  Sc4  1  0.742950  0.897173  0.012826  1
  Sc  Sc5  1  0.102827  0.257050  0.487174  1
  Sc  Sc6  1  0.257050  0.102827  0.987174  1
  Sc  Sc7  1  0.897173  0.742950  0.512826  1
  Ru  Ru8  1  0.009531  0.990469  0.250000  1
  Ru  Ru9  1  0.990469  0.009531  0.750000  1
  Cl  Cl10  1  0.421688  0.819292  0.897727  1
  Cl  Cl11  1  0.180708  0.578312  0.602273  1
  Cl  Cl12  1  0.578312  0.180708  0.102273  1
  Cl  Cl13  1  0.819292  0.421688  0.397727  1
  Cl  Cl14  1  0.807224  0.581909  0.895712  1
  Cl  Cl15  1  0.418091  0.192776  0.604288  1
  Cl  Cl16  1  0.192776  0.418091  0.104288  1
  Cl  Cl17  1  0.581909  0.807224  0.395712  1
