# generated using pymatgen
data_Zr5Co13Cu3(NiP4)3
_symmetry_space_group_name_H-M   'P 1'
_cell_length_a   11.89619300
_cell_length_b   11.89619332
_cell_length_c   3.64156000
_cell_angle_alpha   90.00000000
_cell_angle_beta   90.00000000
_cell_angle_gamma   119.99999634
_symmetry_Int_Tables_number   1
_chemical_formula_structural   Zr5Co13Cu3(NiP4)3
_chemical_formula_sum   'Zr5 Co13 Cu3 Ni3 P12'
_cell_volume   446.30744559
_cell_formula_units_Z   1
loop_
 _symmetry_equiv_pos_site_id
 _symmetry_equiv_pos_as_xyz
  1  'x, y, z'
loop_
 _atom_site_type_symbol
 _atom_site_label
 _atom_site_symmetry_multiplicity
 _atom_site_fract_x
 _atom_site_fract_y
 _atom_site_fract_z
 _atom_site_occupancy
  Zr  Zr0  1  0.666667  0.333333  0.000000  1
  Zr  Zr1  1  0.333333  0.666667  0.000000  1
  Zr  Zr2  1  0.816715  0.815623  0.500000  1
  Zr  Zr3  1  0.184377  0.001092  0.500000  1
  Zr  Zr4  1  0.998908  0.183285  0.500000  1
  Co  Co5  1  0.197122  0.378099  0.000000  1
  Co  Co6  1  0.180977  0.802878  0.000000  1
  Co  Co7  1  0.823602  0.622790  0.000000  1
  Co  Co8  1  0.799189  0.176398  0.000000  1
  Co  Co9  1  0.377210  0.200811  0.000000  1
  Co  Co10  1  0.645845  0.518606  0.500000  1
  Co  Co11  1  0.872761  0.354155  0.500000  1
  Co  Co12  1  0.481394  0.127239  0.500000  1
  Co  Co13  1  0.000000  0.000000  0.000000  1
  Co  Co14  1  0.714200  0.999307  0.500000  1
  Co  Co15  1  0.000693  0.714894  0.500000  1
  Co  Co16  1  0.621901  0.819023  0.000000  1
  Co  Co17  1  0.285106  0.285800  0.500000  1
  Cu  Cu18  1  0.451656  0.449518  0.000000  1
  Cu  Cu19  1  0.550482  0.002138  0.000000  1
  Cu  Cu20  1  0.997862  0.548344  0.000000  1
  Ni  Ni21  1  0.125728  0.485088  0.500000  1
  Ni  Ni22  1  0.359360  0.874272  0.500000  1
  Ni  Ni23  1  0.514912  0.640640  0.500000  1
  P  P24  1  0.645561  0.640604  0.000000  1
  P  P25  1  0.359396  0.004957  0.000000  1
  P  P26  1  0.995043  0.354439  0.000000  1
  P  P27  1  0.484512  0.315068  0.500000  1
  P  P28  1  0.684932  0.169446  0.500000  1
  P  P29  1  0.830554  0.515488  0.500000  1
  P  P30  1  0.519267  0.829139  0.500000  1
  P  P31  1  0.170861  0.690126  0.500000  1
  P  P32  1  0.821991  0.999314  0.000000  1
  P  P33  1  0.000686  0.822677  0.000000  1
  P  P34  1  0.309874  0.480733  0.500000  1
  P  P35  1  0.177323  0.178009  0.000000  1
