# generated using pymatgen
data_Y3Ho16Lu(Cd3Ru)2
_symmetry_space_group_name_H-M   'P 1'
_cell_length_a   9.56002100
_cell_length_b   9.56001984
_cell_length_c   9.79951900
_cell_angle_alpha   90.00000000
_cell_angle_beta   90.00000000
_cell_angle_gamma   120.00000054
_symmetry_Int_Tables_number   1
_chemical_formula_structural   Y3Ho16Lu(Cd3Ru)2
_chemical_formula_sum   'Y3 Ho16 Lu1 Cd6 Ru2'
_cell_volume   775.62719631
_cell_formula_units_Z   1
loop_
 _symmetry_equiv_pos_site_id
 _symmetry_equiv_pos_as_xyz
  1  'x, y, z'
loop_
 _atom_site_type_symbol
 _atom_site_label
 _atom_site_symmetry_multiplicity
 _atom_site_fract_x
 _atom_site_fract_y
 _atom_site_fract_z
 _atom_site_occupancy
  Y  Y0  1  0.458901  0.541099  0.749856  1
  Y  Y1  1  0.458901  0.917802  0.749856  1
  Y  Y2  1  0.082198  0.541099  0.749856  1
  Ho  Ho3  1  0.000000  0.000000  0.999933  1
  Ho  Ho4  1  0.209212  0.790788  0.439948  1
  Ho  Ho5  1  0.209212  0.418425  0.439948  1
  Ho  Ho6  1  0.581575  0.790788  0.439948  1
  Ho  Ho7  1  0.790715  0.209285  0.559801  1
  Ho  Ho8  1  0.790715  0.581430  0.559801  1
  Ho  Ho9  1  0.418570  0.209285  0.559801  1
  Ho  Ho10  1  0.789957  0.210043  0.940249  1
  Ho  Ho11  1  0.789957  0.579912  0.940249  1
  Ho  Ho12  1  0.420088  0.210043  0.940249  1
  Ho  Ho13  1  0.209965  0.790035  0.060006  1
  Ho  Ho14  1  0.209965  0.419931  0.060006  1
  Ho  Ho15  1  0.580069  0.790035  0.060006  1
  Ho  Ho16  1  0.541178  0.458822  0.250151  1
  Ho  Ho17  1  0.541178  0.082355  0.250151  1
  Ho  Ho18  1  0.917645  0.458822  0.250151  1
  Lu  Lu19  1  0.000000  0.000000  0.500074  1
  Cd  Cd20  1  0.885827  0.114173  0.251444  1
  Cd  Cd21  1  0.885827  0.771654  0.251444  1
  Cd  Cd22  1  0.228346  0.114173  0.251444  1
  Cd  Cd23  1  0.114064  0.885936  0.748543  1
  Cd  Cd24  1  0.114064  0.228126  0.748543  1
  Cd  Cd25  1  0.771874  0.885936  0.748543  1
  Ru  Ru26  1  0.333333  0.666667  0.250267  1
  Ru  Ru27  1  0.666667  0.333333  0.749732  1
