# generated using pymatgen
data_La3Nd7OsRu3
_symmetry_space_group_name_H-M   'P 1'
_cell_length_a   8.98420051
_cell_length_b   9.00247845
_cell_length_c   7.39159120
_cell_angle_alpha   84.16891208
_cell_angle_beta   83.92781689
_cell_angle_gamma   43.46599050
_symmetry_Int_Tables_number   1
_chemical_formula_structural   La3Nd7OsRu3
_chemical_formula_sum   'La3 Nd7 Os1 Ru3'
_cell_volume   408.68646349
_cell_formula_units_Z   1
loop_
 _symmetry_equiv_pos_site_id
 _symmetry_equiv_pos_as_xyz
  1  'x, y, z'
loop_
 _atom_site_type_symbol
 _atom_site_label
 _atom_site_symmetry_multiplicity
 _atom_site_fract_x
 _atom_site_fract_y
 _atom_site_fract_z
 _atom_site_occupancy
  La  La0  1  0.012620  0.799196  0.911372  1
  La  La1  1  0.205091  0.981523  0.595069  1
  La  La2  1  0.982695  0.204214  0.095786  1
  Nd  Nd3  1  0.795063  0.018533  0.414758  1
  Nd  Nd4  1  0.362759  0.208567  0.813658  1
  Nd  Nd5  1  0.794726  0.639090  0.681538  1
  Nd  Nd6  1  0.638000  0.793092  0.185437  1
  Nd  Nd7  1  0.210975  0.358832  0.315431  1
  Nd  Nd8  1  0.572945  0.427532  0.749907  1
  Nd  Nd9  1  0.424041  0.573701  0.252642  1
  Os  Os10  1  0.173625  0.603068  0.579204  1
  Ru  Ru11  1  0.387636  0.835554  0.916135  1
  Ru  Ru12  1  0.836271  0.384774  0.415276  1
  Ru  Ru13  1  0.603551  0.172323  0.073785  1
