# generated using pymatgen
data_YbCe3DyIr3
_symmetry_space_group_name_H-M   'P 1'
_cell_length_a   8.22696600
_cell_length_b   8.22696602
_cell_length_c   6.50522700
_cell_angle_alpha   90.00000000
_cell_angle_beta   90.00000000
_cell_angle_gamma   120.00000795
_symmetry_Int_Tables_number   1
_chemical_formula_structural   YbCe3DyIr3
_chemical_formula_sum   'Yb2 Ce6 Dy2 Ir6'
_cell_volume   381.30496376
_cell_formula_units_Z   2
loop_
 _symmetry_equiv_pos_site_id
 _symmetry_equiv_pos_as_xyz
  1  'x, y, z'
loop_
 _atom_site_type_symbol
 _atom_site_label
 _atom_site_symmetry_multiplicity
 _atom_site_fract_x
 _atom_site_fract_y
 _atom_site_fract_z
 _atom_site_occupancy
  Yb  Yb0  1  0.333333  0.666667  0.000000  1
  Yb  Yb1  1  0.666667  0.333333  0.000000  1
  Ce  Ce2  1  0.743507  0.743507  0.244773  1
  Ce  Ce3  1  0.256493  0.000000  0.244773  1
  Ce  Ce4  1  0.000000  0.256493  0.244773  1
  Ce  Ce5  1  0.256493  0.256493  0.755227  1
  Ce  Ce6  1  0.743507  0.000000  0.755227  1
  Ce  Ce7  1  0.000000  0.743507  0.755227  1
  Dy  Dy8  1  0.666667  0.333333  0.500000  1
  Dy  Dy9  1  0.333333  0.666667  0.500000  1
  Ir  Ir10  1  0.377739  0.377739  0.265182  1
  Ir  Ir11  1  0.622261  0.000000  0.265182  1
  Ir  Ir12  1  0.000000  0.622261  0.265182  1
  Ir  Ir13  1  0.622261  0.622261  0.734818  1
  Ir  Ir14  1  0.377739  0.000000  0.734818  1
  Ir  Ir15  1  0.000000  0.377739  0.734818  1
