# generated using pymatgen
data_NaLa6FeBr12
_symmetry_space_group_name_H-M   'P 1'
_cell_length_a   9.40402785
_cell_length_b   9.65102799
_cell_length_c   9.87536843
_cell_angle_alpha   107.71380461
_cell_angle_beta   107.33921283
_cell_angle_gamma   106.53583940
_symmetry_Int_Tables_number   1
_chemical_formula_structural   NaLa6FeBr12
_chemical_formula_sum   'Na1 La6 Fe1 Br12'
_cell_volume   742.32947818
_cell_formula_units_Z   1
loop_
 _symmetry_equiv_pos_site_id
 _symmetry_equiv_pos_as_xyz
  1  'x, y, z'
loop_
 _atom_site_type_symbol
 _atom_site_label
 _atom_site_symmetry_multiplicity
 _atom_site_fract_x
 _atom_site_fract_y
 _atom_site_fract_z
 _atom_site_occupancy
  Na  Na0  1  0.500000  0.500000  0.500000  1
  La  La1  1  0.114409  0.315739  0.028461  1
  La  La2  1  0.295630  0.025870  0.104217  1
  La  La3  1  0.028719  0.123343  0.332580  1
  La  La4  1  0.971281  0.876658  0.667420  1
  La  La5  1  0.704370  0.974131  0.895783  1
  La  La6  1  0.885591  0.684261  0.971539  1
  Fe  Fe7  1  0.000000  0.000000  0.000000  1
  Br  Br8  1  0.219883  0.682189  0.072835  1
  Br  Br9  1  0.462244  0.371794  0.162449  1
  Br  Br10  1  0.677447  0.069989  0.211586  1
  Br  Br11  1  0.929076  0.785707  0.314283  1
  Br  Br12  1  0.154513  0.457953  0.366004  1
  Br  Br13  1  0.372079  0.157484  0.452470  1
  Br  Br14  1  0.627921  0.842516  0.547531  1
  Br  Br15  1  0.845487  0.542047  0.633996  1
  Br  Br16  1  0.070924  0.214293  0.685718  1
  Br  Br17  1  0.322553  0.930011  0.788414  1
  Br  Br18  1  0.537756  0.628206  0.837552  1
  Br  Br19  1  0.780117  0.317812  0.927165  1
