# generated using pymatgen
data_Rb2CaZr3Se8
_symmetry_space_group_name_H-M   'P 1'
_cell_length_a   6.85070300
_cell_length_b   7.95933000
_cell_length_c   16.90263600
_cell_angle_alpha   90.00000000
_cell_angle_beta   90.00000000
_cell_angle_gamma   90.00000000
_symmetry_Int_Tables_number   1
_chemical_formula_structural   Rb2CaZr3Se8
_chemical_formula_sum   'Rb4 Ca2 Zr6 Se16'
_cell_volume   921.65013305
_cell_formula_units_Z   2
loop_
 _symmetry_equiv_pos_site_id
 _symmetry_equiv_pos_as_xyz
  1  'x, y, z'
loop_
 _atom_site_type_symbol
 _atom_site_label
 _atom_site_symmetry_multiplicity
 _atom_site_fract_x
 _atom_site_fract_y
 _atom_site_fract_z
 _atom_site_occupancy
  Rb  Rb0  1  0.331298  0.000000  0.000000  1
  Rb  Rb1  1  0.643638  0.500000  0.500000  1
  Rb  Rb2  1  0.022615  0.000000  0.500000  1
  Rb  Rb3  1  0.976197  0.500000  0.000000  1
  Ca  Ca4  1  0.002687  0.000000  0.247285  1
  Ca  Ca5  1  0.002687  0.000000  0.752715  1
  Zr  Zr6  1  0.997277  0.500000  0.252987  1
  Zr  Zr7  1  0.997277  0.500000  0.747013  1
  Zr  Zr8  1  0.498424  0.245892  0.250163  1
  Zr  Zr9  1  0.498424  0.754108  0.749837  1
  Zr  Zr10  1  0.498424  0.754108  0.250163  1
  Zr  Zr11  1  0.498424  0.245892  0.749837  1
  Se  Se12  1  0.826070  0.262372  0.342949  1
  Se  Se13  1  0.826070  0.737628  0.657051  1
  Se  Se14  1  0.179550  0.731626  0.157183  1
  Se  Se15  1  0.179550  0.268374  0.842817  1
  Se  Se16  1  0.179550  0.268374  0.157183  1
  Se  Se17  1  0.179550  0.731626  0.842817  1
  Se  Se18  1  0.826070  0.737628  0.342949  1
  Se  Se19  1  0.826070  0.262372  0.657051  1
  Se  Se20  1  0.641784  0.000000  0.156847  1
  Se  Se21  1  0.641784  0.000000  0.843153  1
  Se  Se22  1  0.329667  0.500000  0.340944  1
  Se  Se23  1  0.329667  0.500000  0.659056  1
  Se  Se24  1  0.363069  0.000000  0.344509  1
  Se  Se25  1  0.363069  0.000000  0.655491  1
  Se  Se26  1  0.670555  0.500000  0.161614  1
  Se  Se27  1  0.670555  0.500000  0.838386  1
