# generated using pymatgen
data_Tm6Zn22AgAs
_symmetry_space_group_name_H-M   'P 1'
_cell_length_a   9.03846362
_cell_length_b   9.03846328
_cell_length_c   9.03846400
_cell_angle_alpha   59.99999735
_cell_angle_beta   59.99999862
_cell_angle_gamma   59.99999570
_symmetry_Int_Tables_number   1
_chemical_formula_structural   Tm6Zn22AgAs
_chemical_formula_sum   'Tm6 Zn22 Ag1 As1'
_cell_volume   522.11818505
_cell_formula_units_Z   1
loop_
 _symmetry_equiv_pos_site_id
 _symmetry_equiv_pos_as_xyz
  1  'x, y, z'
loop_
 _atom_site_type_symbol
 _atom_site_label
 _atom_site_symmetry_multiplicity
 _atom_site_fract_x
 _atom_site_fract_y
 _atom_site_fract_z
 _atom_site_occupancy
  Tm  Tm0  1  0.715983  0.284017  0.284017  1
  Tm  Tm1  1  0.715983  0.284017  0.715983  1
  Tm  Tm2  1  0.715983  0.715983  0.284017  1
  Tm  Tm3  1  0.284017  0.715983  0.715983  1
  Tm  Tm4  1  0.284017  0.715983  0.284017  1
  Tm  Tm5  1  0.284017  0.284017  0.715983  1
  Zn  Zn6  1  0.622761  0.125747  0.125747  1
  Zn  Zn7  1  0.125747  0.622761  0.125747  1
  Zn  Zn8  1  0.125747  0.125747  0.622761  1
  Zn  Zn9  1  0.125747  0.125747  0.125747  1
  Zn  Zn10  1  0.377239  0.874253  0.874253  1
  Zn  Zn11  1  0.874253  0.377239  0.874253  1
  Zn  Zn12  1  0.874253  0.874253  0.377239  1
  Zn  Zn13  1  0.874253  0.874253  0.874253  1
  Zn  Zn14  1  0.500000  0.000000  0.000000  1
  Zn  Zn15  1  0.500000  0.000000  0.500000  1
  Zn  Zn16  1  0.500000  0.500000  0.000000  1
  Zn  Zn17  1  0.000000  0.500000  0.500000  1
  Zn  Zn18  1  0.000000  0.500000  0.000000  1
  Zn  Zn19  1  0.000000  0.000000  0.500000  1
  Zn  Zn20  1  0.006244  0.331251  0.331251  1
  Zn  Zn21  1  0.331251  0.006244  0.331251  1
  Zn  Zn22  1  0.331251  0.331251  0.006244  1
  Zn  Zn23  1  0.331251  0.331251  0.331251  1
  Zn  Zn24  1  0.993756  0.668749  0.668749  1
  Zn  Zn25  1  0.668749  0.993756  0.668749  1
  Zn  Zn26  1  0.668749  0.668749  0.993756  1
  Zn  Zn27  1  0.668749  0.668749  0.668749  1
  Ag  Ag28  1  0.000000  0.000000  0.000000  1
  As  As29  1  0.500000  0.500000  0.500000  1
