# generated using pymatgen
data_Ho2Cd(B3Ir4)2
_symmetry_space_group_name_H-M   'P 1'
_cell_length_a   9.96238128
_cell_length_b   9.12361914
_cell_length_c   5.59785200
_cell_angle_alpha   81.36993481
_cell_angle_beta   64.88235828
_cell_angle_gamma   33.74770383
_symmetry_Int_Tables_number   1
_chemical_formula_structural   Ho2Cd(B3Ir4)2
_chemical_formula_sum   'Ho2 Cd1 B6 Ir8'
_cell_volume   234.18679124
_cell_formula_units_Z   1
loop_
 _symmetry_equiv_pos_site_id
 _symmetry_equiv_pos_as_xyz
  1  'x, y, z'
loop_
 _atom_site_type_symbol
 _atom_site_label
 _atom_site_symmetry_multiplicity
 _atom_site_fract_x
 _atom_site_fract_y
 _atom_site_fract_z
 _atom_site_occupancy
  Ho  Ho0  1  0.320287  0.320287  0.679713  1
  Ho  Ho1  1  0.504748  0.504748  0.495252  1
  Cd  Cd2  1  0.682725  0.682725  0.317275  1
  B  B3  1  0.672680  0.978454  0.021546  1
  B  B4  1  0.978454  0.672680  0.327320  1
  B  B5  1  0.325752  0.020041  0.979959  1
  B  B6  1  0.020041  0.325752  0.674248  1
  B  B7  1  0.168262  0.830381  0.169619  1
  B  B8  1  0.830381  0.168262  0.831738  1
  Ir  Ir9  1  0.585526  0.585526  0.914474  1
  Ir  Ir10  1  0.913856  0.913856  0.086144  1
  Ir  Ir11  1  0.414163  0.414163  0.085837  1
  Ir  Ir12  1  0.085526  0.085526  0.414474  1
  Ir  Ir13  1  0.914163  0.914163  0.585837  1
  Ir  Ir14  1  0.248411  0.248411  0.251589  1
  Ir  Ir15  1  0.086611  0.086611  0.913389  1
  Ir  Ir16  1  0.748411  0.748411  0.751589  1
