# generated using pymatgen
data_Tm3ZrSn2Ir3
_symmetry_space_group_name_H-M   'P 1'
_cell_length_a   7.32543052
_cell_length_b   7.22066857
_cell_length_c   4.18327700
_cell_angle_alpha   90.00000000
_cell_angle_beta   90.00000000
_cell_angle_gamma   119.52804471
_symmetry_Int_Tables_number   1
_chemical_formula_structural   Tm3ZrSn2Ir3
_chemical_formula_sum   'Tm3 Zr1 Sn2 Ir3'
_cell_volume   192.53231185
_cell_formula_units_Z   1
loop_
 _symmetry_equiv_pos_site_id
 _symmetry_equiv_pos_as_xyz
  1  'x, y, z'
loop_
 _atom_site_type_symbol
 _atom_site_label
 _atom_site_symmetry_multiplicity
 _atom_site_fract_x
 _atom_site_fract_y
 _atom_site_fract_z
 _atom_site_occupancy
  Tm  Tm0  1  0.000000  0.394916  0.500000  1
  Tm  Tm1  1  0.584843  0.590084  0.500000  1
  Tm  Tm2  1  0.415157  0.005241  0.500000  1
  Zr  Zr3  1  0.000000  0.749324  0.000000  1
  Sn  Sn4  1  0.256577  0.255068  0.000000  1
  Sn  Sn5  1  0.743423  0.998491  0.000000  1
  Ir  Ir6  1  0.324973  0.672165  0.000000  1
  Ir  Ir7  1  0.675027  0.347191  0.000000  1
  Ir  Ir8  1  0.000000  0.987520  0.500000  1
