# generated using pymatgen
data_Dy3Y4Ho(B6Ru)4
_symmetry_space_group_name_H-M   'P 1'
_cell_length_a   3.66352300
_cell_length_b   9.14810301
_cell_length_c   11.52493501
_cell_angle_alpha   90.00561476
_cell_angle_beta   90.00000000
_cell_angle_gamma   90.00000000
_symmetry_Int_Tables_number   1
_chemical_formula_structural   Dy3Y4Ho(B6Ru)4
_chemical_formula_sum   'Dy3 Y4 Ho1 B24 Ru4'
_cell_volume   386.24996388
_cell_formula_units_Z   1
loop_
 _symmetry_equiv_pos_site_id
 _symmetry_equiv_pos_as_xyz
  1  'x, y, z'
loop_
 _atom_site_type_symbol
 _atom_site_label
 _atom_site_symmetry_multiplicity
 _atom_site_fract_x
 _atom_site_fract_y
 _atom_site_fract_z
 _atom_site_occupancy
  Dy  Dy0  1  0.000000  0.943724  0.372152  1
  Dy  Dy1  1  0.000000  0.056276  0.627881  1
  Dy  Dy2  1  0.000000  0.443775  0.127719  1
  Y  Y3  1  0.000000  0.322664  0.414076  1
  Y  Y4  1  0.000000  0.677332  0.586004  1
  Y  Y5  1  0.000000  0.822590  0.085877  1
  Y  Y6  1  0.000000  0.177435  0.914037  1
  Ho  Ho7  1  0.000000  0.556265  0.872120  1
  B  B8  1  0.500000  0.554298  0.432788  1
  B  B9  1  0.500000  0.445715  0.567260  1
  B  B10  1  0.500000  0.054283  0.067206  1
  B  B11  1  0.500000  0.945634  0.932771  1
  B  B12  1  0.500000  0.747912  0.419521  1
  B  B13  1  0.500000  0.252119  0.580493  1
  B  B14  1  0.500000  0.247941  0.080469  1
  B  B15  1  0.500000  0.751792  0.919502  1
  B  B16  1  0.500000  0.790931  0.266374  1
  B  B17  1  0.500000  0.209156  0.733657  1
  B  B18  1  0.500000  0.290942  0.233617  1
  B  B19  1  0.500000  0.708788  0.766464  1
  B  B20  1  0.500000  0.631953  0.185289  1
  B  B21  1  0.500000  0.368273  0.814801  1
  B  B22  1  0.500000  0.131977  0.314691  1
  B  B23  1  0.500000  0.867977  0.685347  1
  B  B24  1  0.500000  0.984026  0.212873  1
  B  B25  1  0.500000  0.015945  0.787131  1
  B  B26  1  0.500000  0.484017  0.287116  1
  B  B27  1  0.500000  0.516141  0.713104  1
  B  B28  1  0.500000  0.608225  0.029590  1
  B  B29  1  0.500000  0.391995  0.969943  1
  B  B30  1  0.500000  0.108404  0.470103  1
  B  B31  1  0.500000  0.891587  0.529907  1
  Ru  Ru32  1  0.000000  0.637955  0.321059  1
  Ru  Ru33  1  0.000000  0.362238  0.679078  1
  Ru  Ru34  1  0.000000  0.137973  0.178871  1
  Ru  Ru35  1  0.000000  0.861742  0.821110  1
