# generated using pymatgen
data_CdSbPt3Pb
_symmetry_space_group_name_H-M   'P 1'
_cell_length_a   7.40013223
_cell_length_b   7.40013032
_cell_length_c   5.53243100
_cell_angle_alpha   90.00000000
_cell_angle_beta   90.00000000
_cell_angle_gamma   59.63550828
_symmetry_Int_Tables_number   1
_chemical_formula_structural   CdSbPt3Pb
_chemical_formula_sum   'Cd2 Sb2 Pt6 Pb2'
_cell_volume   261.40785721
_cell_formula_units_Z   2
loop_
 _symmetry_equiv_pos_site_id
 _symmetry_equiv_pos_as_xyz
  1  'x, y, z'
loop_
 _atom_site_type_symbol
 _atom_site_label
 _atom_site_symmetry_multiplicity
 _atom_site_fract_x
 _atom_site_fract_y
 _atom_site_fract_z
 _atom_site_occupancy
  Cd  Cd0  1  0.166337  0.485858  0.249999  1
  Cd  Cd1  1  0.514142  0.833663  0.249999  1
  Sb  Sb2  1  0.822513  0.177487  0.249999  1
  Sb  Sb3  1  0.179914  0.820086  0.750000  1
  Pt  Pt4  1  0.151902  0.151149  0.002294  1
  Pt  Pt5  1  0.498841  0.501159  0.002148  1
  Pt  Pt6  1  0.848851  0.848098  0.002294  1
  Pt  Pt7  1  0.151902  0.151149  0.497707  1
  Pt  Pt8  1  0.498841  0.501159  0.497853  1
  Pt  Pt9  1  0.848851  0.848098  0.497707  1
  Pb  Pb10  1  0.483819  0.165912  0.750000  1
  Pb  Pb11  1  0.834088  0.516181  0.750000  1
