# generated using pymatgen
data_La16Cd4NiRh3
_symmetry_space_group_name_H-M   'P 1'
_cell_length_a   10.11855280
_cell_length_b   10.11203668
_cell_length_c   10.11855200
_cell_angle_alpha   59.97868401
_cell_angle_beta   60.00000260
_cell_angle_gamma   59.97868125
_symmetry_Int_Tables_number   1
_chemical_formula_structural   La16Cd4NiRh3
_chemical_formula_sum   'La16 Cd4 Ni1 Rh3'
_cell_volume   731.84718563
_cell_formula_units_Z   1
loop_
 _symmetry_equiv_pos_site_id
 _symmetry_equiv_pos_as_xyz
  1  'x, y, z'
loop_
 _atom_site_type_symbol
 _atom_site_label
 _atom_site_symmetry_multiplicity
 _atom_site_fract_x
 _atom_site_fract_y
 _atom_site_fract_z
 _atom_site_occupancy
  La  La0  1  0.810669  0.810613  0.189358  1
  La  La1  1  0.810502  0.190384  0.810502  1
  La  La2  1  0.188614  0.190384  0.810502  1
  La  La3  1  0.652979  0.041061  0.652979  1
  La  La4  1  0.060626  0.063507  0.437933  1
  La  La5  1  0.436831  0.439242  0.061964  1
  La  La6  1  0.653493  0.650223  0.653493  1
  La  La7  1  0.810502  0.190384  0.188614  1
  La  La8  1  0.189358  0.810613  0.810669  1
  La  La9  1  0.042790  0.650223  0.653493  1
  La  La10  1  0.437933  0.063507  0.060626  1
  La  La11  1  0.437933  0.063507  0.437933  1
  La  La12  1  0.061964  0.439242  0.061964  1
  La  La13  1  0.653493  0.650223  0.042790  1
  La  La14  1  0.189358  0.810613  0.189358  1
  La  La15  1  0.061964  0.439242  0.436831  1
  Cd  Cd16  1  0.420312  0.420171  0.420312  1
  Cd  Cd17  1  0.420312  0.420171  0.739204  1
  Cd  Cd18  1  0.420475  0.738576  0.420475  1
  Cd  Cd19  1  0.739204  0.420171  0.420312  1
  Ni  Ni20  1  0.857424  0.427728  0.857424  1
  Rh  Rh21  1  0.858961  0.856738  0.858961  1
  Rh  Rh22  1  0.858961  0.856738  0.425339  1
  Rh  Rh23  1  0.425339  0.856738  0.858961  1
