# generated using pymatgen
data_Ce8VS17
_symmetry_space_group_name_H-M   'P 1'
_cell_length_a   7.91463286
_cell_length_b   7.91463191
_cell_length_c   10.51066316
_cell_angle_alpha   81.05166493
_cell_angle_beta   81.05166503
_cell_angle_gamma   65.12304092
_symmetry_Int_Tables_number   1
_chemical_formula_structural   Ce8VS17
_chemical_formula_sum   'Ce8 V1 S17'
_cell_volume   587.05139864
_cell_formula_units_Z   1
loop_
 _symmetry_equiv_pos_site_id
 _symmetry_equiv_pos_as_xyz
  1  'x, y, z'
loop_
 _atom_site_type_symbol
 _atom_site_label
 _atom_site_symmetry_multiplicity
 _atom_site_fract_x
 _atom_site_fract_y
 _atom_site_fract_z
 _atom_site_occupancy
  Ce  Ce0  1  0.814570  0.301533  0.294750  1
  Ce  Ce1  1  0.301533  0.814570  0.294750  1
  Ce  Ce2  1  0.185430  0.698467  0.705250  1
  Ce  Ce3  1  0.698467  0.185430  0.705250  1
  Ce  Ce4  1  0.205705  0.205705  0.544331  1
  Ce  Ce5  1  0.794295  0.794295  0.455669  1
  Ce  Ce6  1  0.683275  0.683275  0.977752  1
  Ce  Ce7  1  0.316725  0.316725  0.022248  1
  V  V8  1  0.000000  0.000000  0.000000  1
  S  S9  1  0.823061  0.429717  0.532996  1
  S  S10  1  0.429717  0.823061  0.532996  1
  S  S11  1  0.176939  0.570283  0.467004  1
  S  S12  1  0.570283  0.176939  0.467004  1
  S  S13  1  0.940269  0.318891  0.027924  1
  S  S14  1  0.318891  0.940269  0.027924  1
  S  S15  1  0.059731  0.681109  0.972076  1
  S  S16  1  0.681109  0.059731  0.972076  1
  S  S17  1  0.208956  0.208956  0.278252  1
  S  S18  1  0.791044  0.791044  0.721748  1
  S  S19  1  0.060372  0.060372  0.775978  1
  S  S20  1  0.939628  0.939628  0.224022  1
  S  S21  1  0.302631  0.302631  0.756954  1
  S  S22  1  0.697369  0.697369  0.243046  1
  S  S23  1  0.520464  0.520464  0.832097  1
  S  S24  1  0.479536  0.479536  0.167903  1
  S  S25  1  0.000000  0.000000  0.500000  1
