# generated using pymatgen
data_Y5Ho3(WC2)4
_symmetry_space_group_name_H-M   'P 1'
_cell_length_a   5.73932302
_cell_length_b   5.73932309
_cell_length_c   9.88330696
_cell_angle_alpha   89.97859988
_cell_angle_beta   89.97860131
_cell_angle_gamma   90.03508722
_symmetry_Int_Tables_number   1
_chemical_formula_structural   Y5Ho3(WC2)4
_chemical_formula_sum   'Y5 Ho3 W4 C8'
_cell_volume   325.55433646
_cell_formula_units_Z   1
loop_
 _symmetry_equiv_pos_site_id
 _symmetry_equiv_pos_as_xyz
  1  'x, y, z'
loop_
 _atom_site_type_symbol
 _atom_site_label
 _atom_site_symmetry_multiplicity
 _atom_site_fract_x
 _atom_site_fract_y
 _atom_site_fract_z
 _atom_site_occupancy
  Y  Y0  1  0.199661  0.199661  0.342112  1
  Y  Y1  1  0.300169  0.700213  0.841545  1
  Y  Y2  1  0.700213  0.300169  0.841545  1
  Y  Y3  1  0.700578  0.300432  0.158325  1
  Y  Y4  1  0.300432  0.700578  0.158325  1
  Ho  Ho5  1  0.199693  0.199693  0.657566  1
  Ho  Ho6  1  0.799805  0.799805  0.342461  1
  Ho  Ho7  1  0.799712  0.799712  0.657366  1
  W  W8  1  0.321168  0.677740  0.499993  1
  W  W9  1  0.822509  0.822509  0.000012  1
  W  W10  1  0.178119  0.178119  0.999839  1
  W  W11  1  0.677740  0.321168  0.499993  1
  C  C12  1  0.999676  0.999676  0.153686  1
  C  C13  1  0.499505  0.499505  0.652988  1
  C  C14  1  0.500382  0.998997  0.500416  1
  C  C15  1  0.500835  0.500835  0.346936  1
  C  C16  1  0.999947  0.999947  0.845632  1
  C  C17  1  0.500288  0.000568  0.000424  1
  C  C18  1  0.000568  0.500288  0.000424  1
  C  C19  1  0.998997  0.500382  0.500416  1
