# generated using pymatgen
data_TiMn2V3B4
_symmetry_space_group_name_H-M   'P 1'
_cell_length_a   5.60319249
_cell_length_b   5.60319249
_cell_length_c   3.06356200
_cell_angle_alpha   90.00000000
_cell_angle_beta   90.00000000
_cell_angle_gamma   89.39732318
_symmetry_Int_Tables_number   1
_chemical_formula_structural   TiMn2V3B4
_chemical_formula_sum   'Ti1 Mn2 V3 B4'
_cell_volume   96.17755513
_cell_formula_units_Z   1
loop_
 _symmetry_equiv_pos_site_id
 _symmetry_equiv_pos_as_xyz
  1  'x, y, z'
loop_
 _atom_site_type_symbol
 _atom_site_label
 _atom_site_symmetry_multiplicity
 _atom_site_fract_x
 _atom_site_fract_y
 _atom_site_fract_z
 _atom_site_occupancy
  Ti  Ti0  1  0.321048  0.821048  0.500000  1
  Mn  Mn1  1  0.998427  0.000850  0.000000  1
  Mn  Mn2  1  0.500850  0.498427  0.000000  1
  V  V3  1  0.821624  0.675432  0.500000  1
  V  V4  1  0.175432  0.321624  0.500000  1
  V  V5  1  0.678417  0.178417  0.500000  1
  B  B6  1  0.108946  0.608946  0.000000  1
  B  B7  1  0.620448  0.889773  0.000000  1
  B  B8  1  0.389773  0.120448  0.000000  1
  B  B9  1  0.885034  0.385034  0.000000  1
