# generated using pymatgen
data_KThAgS3
_symmetry_space_group_name_H-M   'P 1'
_cell_length_a   4.21560100
_cell_length_b   7.45623313
_cell_length_c   10.77084400
_cell_angle_alpha   90.00000000
_cell_angle_beta   90.00000000
_cell_angle_gamma   73.57920225
_symmetry_Int_Tables_number   1
_chemical_formula_structural   KThAgS3
_chemical_formula_sum   'K2 Th2 Ag2 S6'
_cell_volume   324.74543561
_cell_formula_units_Z   2
loop_
 _symmetry_equiv_pos_site_id
 _symmetry_equiv_pos_as_xyz
  1  'x, y, z'
loop_
 _atom_site_type_symbol
 _atom_site_label
 _atom_site_symmetry_multiplicity
 _atom_site_fract_x
 _atom_site_fract_y
 _atom_site_fract_z
 _atom_site_occupancy
  K  K0  1  0.738214  0.523571  0.250000  1
  K  K1  1  0.261786  0.476430  0.750000  1
  Th  Th2  1  0.000000  0.000000  0.000000  1
  Th  Th3  1  0.000000  0.000000  0.500000  1
  Ag  Ag4  1  0.454015  0.091971  0.250000  1
  Ag  Ag5  1  0.545985  0.908029  0.750000  1
  S  S6  1  0.373613  0.252776  0.043687  1
  S  S7  1  0.062140  0.875723  0.250000  1
  S  S8  1  0.373613  0.252776  0.456313  1
  S  S9  1  0.626387  0.747224  0.543687  1
  S  S10  1  0.937860  0.124277  0.750000  1
  S  S11  1  0.626387  0.747224  0.956313  1
