# generated using pymatgen
data_Ba6YTl(RhO6)2
_symmetry_space_group_name_H-M   'P 1'
_cell_length_a   7.03556997
_cell_length_b   7.03557041
_cell_length_c   7.03557100
_cell_angle_alpha   90.92757869
_cell_angle_beta   90.92757875
_cell_angle_gamma   90.92757881
_symmetry_Int_Tables_number   1
_chemical_formula_structural   Ba6YTl(RhO6)2
_chemical_formula_sum   'Ba6 Y1 Tl1 Rh2 O12'
_cell_volume   348.11706647
_cell_formula_units_Z   1
loop_
 _symmetry_equiv_pos_site_id
 _symmetry_equiv_pos_as_xyz
  1  'x, y, z'
loop_
 _atom_site_type_symbol
 _atom_site_label
 _atom_site_symmetry_multiplicity
 _atom_site_fract_x
 _atom_site_fract_y
 _atom_site_fract_z
 _atom_site_occupancy
  Ba  Ba0  1  0.616272  0.883727  0.250000  1
  Ba  Ba1  1  0.250000  0.616272  0.883727  1
  Ba  Ba2  1  0.883727  0.250001  0.616272  1
  Ba  Ba3  1  0.379854  0.120146  0.749999  1
  Ba  Ba4  1  0.750000  0.379854  0.120146  1
  Ba  Ba5  1  0.120147  0.749999  0.379854  1
  Y  Y6  1  0.750000  0.750000  0.750000  1
  Tl  Tl7  1  0.250000  0.250000  0.250000  1
  Rh  Rh8  1  0.994611  0.994611  0.994611  1
  Rh  Rh9  1  0.505390  0.505390  0.505390  1
  O  O10  1  0.274564  0.955674  0.085282  1
  O  O11  1  0.085282  0.274564  0.955674  1
  O  O12  1  0.955673  0.085282  0.274565  1
  O  O13  1  0.544326  0.225435  0.414718  1
  O  O14  1  0.225436  0.414718  0.544326  1
  O  O15  1  0.414719  0.544325  0.225435  1
  O  O16  1  0.710530  0.035105  0.903280  1
  O  O17  1  0.903281  0.710530  0.035105  1
  O  O18  1  0.035105  0.903281  0.710529  1
  O  O19  1  0.464895  0.789471  0.596719  1
  O  O20  1  0.789470  0.596719  0.464895  1
  O  O21  1  0.596718  0.464895  0.789470  1
