# generated using pymatgen
data_Tb2(GaPt3)3
_symmetry_space_group_name_H-M   'P 1'
_cell_length_a   7.79142560
_cell_length_b   7.79142633
_cell_length_c   10.18365684
_cell_angle_alpha   67.58780195
_cell_angle_beta   67.58779916
_cell_angle_gamma   60.10163754
_symmetry_Int_Tables_number   1
_chemical_formula_structural   Tb2(GaPt3)3
_chemical_formula_sum   'Tb4 Ga6 Pt18'
_cell_volume   481.14361506
_cell_formula_units_Z   2
loop_
 _symmetry_equiv_pos_site_id
 _symmetry_equiv_pos_as_xyz
  1  'x, y, z'
loop_
 _atom_site_type_symbol
 _atom_site_label
 _atom_site_symmetry_multiplicity
 _atom_site_fract_x
 _atom_site_fract_y
 _atom_site_fract_z
 _atom_site_occupancy
  Tb  Tb0  1  0.246183  0.415214  0.250581  1
  Tb  Tb1  1  0.753817  0.584786  0.749419  1
  Tb  Tb2  1  0.415214  0.246183  0.750581  1
  Tb  Tb3  1  0.584786  0.753817  0.249419  1
  Ga  Ga4  1  0.181210  0.638758  0.498577  1
  Ga  Ga5  1  0.638758  0.181210  0.998577  1
  Ga  Ga6  1  0.000000  0.500000  0.000000  1
  Ga  Ga7  1  0.818790  0.361242  0.501423  1
  Ga  Ga8  1  0.361242  0.818790  0.001423  1
  Ga  Ga9  1  0.500000  0.000000  0.500000  1
  Pt  Pt10  1  0.132449  0.867551  0.250000  1
  Pt  Pt11  1  0.354763  0.529843  0.921815  1
  Pt  Pt12  1  0.697275  0.859327  0.921631  1
  Pt  Pt13  1  0.706046  0.083108  0.245888  1
  Pt  Pt14  1  0.859327  0.697275  0.421631  1
  Pt  Pt15  1  0.976927  0.807263  0.074663  1
  Pt  Pt16  1  0.302725  0.140673  0.078369  1
  Pt  Pt17  1  0.645237  0.470157  0.078185  1
  Pt  Pt18  1  0.916892  0.293954  0.254112  1
  Pt  Pt19  1  0.083108  0.706046  0.745888  1
  Pt  Pt20  1  0.807263  0.976927  0.574663  1
  Pt  Pt21  1  0.529843  0.354763  0.421815  1
  Pt  Pt22  1  0.140673  0.302725  0.578369  1
  Pt  Pt23  1  0.293954  0.916892  0.754112  1
  Pt  Pt24  1  0.023073  0.192737  0.925337  1
  Pt  Pt25  1  0.867551  0.132449  0.750000  1
  Pt  Pt26  1  0.470157  0.645237  0.578185  1
  Pt  Pt27  1  0.192737  0.023073  0.425337  1
