# generated using pymatgen
data_Sm(ThH5)3
_symmetry_space_group_name_H-M   'P 1'
_cell_length_a   7.87453738
_cell_length_b   7.87707426
_cell_length_c   7.86045485
_cell_angle_alpha   109.46428317
_cell_angle_beta   109.45118933
_cell_angle_gamma   109.57713759
_symmetry_Int_Tables_number   1
_chemical_formula_structural   Sm(ThH5)3
_chemical_formula_sum   'Sm2 Th6 H30'
_cell_volume   374.96560502
_cell_formula_units_Z   2
loop_
 _symmetry_equiv_pos_site_id
 _symmetry_equiv_pos_as_xyz
  1  'x, y, z'
loop_
 _atom_site_type_symbol
 _atom_site_label
 _atom_site_symmetry_multiplicity
 _atom_site_fract_x
 _atom_site_fract_y
 _atom_site_fract_z
 _atom_site_occupancy
  Sm  Sm0  1  0.915192  0.915775  0.916375  1
  Sm  Sm1  1  0.498817  0.999400  0.083625  1
  Th  Th2  1  0.996377  0.081931  0.497161  1
  Th  Th3  1  0.085102  0.502665  0.000323  1
  Th  Th4  1  0.999216  0.584770  0.502839  1
  Th  Th5  1  0.584780  0.502342  0.999677  1
  Th  Th6  1  0.502146  0.999143  0.586261  1
  Th  Th7  1  0.415885  0.412883  0.413739  1
  H  H8  1  0.654628  0.967886  0.375793  1
  H  H9  1  0.218378  0.315615  0.845505  1
  H  H10  1  0.185503  0.403769  0.532518  1
  H  H11  1  0.098466  0.285596  0.129492  1
  H  H12  1  0.283417  0.129152  0.097609  1
  H  H13  1  0.128856  0.097607  0.283756  1
  H  H14  1  0.468974  0.156104  0.870508  1
  H  H15  1  0.719546  0.348328  0.815342  1
  H  H16  1  0.628289  0.382434  0.252909  1
  H  H17  1  0.249547  0.625008  0.374640  1
  H  H18  1  0.751986  0.871823  0.130049  1
  H  H19  1  0.121937  0.741774  0.869951  1
  H  H20  1  0.374907  0.250368  0.625360  1
  H  H21  1  0.875380  0.129525  0.747091  1
  H  H22  1  0.778835  0.592092  0.624207  1
  H  H23  1  0.314709  0.844575  0.221719  1
  H  H24  1  0.372485  0.652227  0.968041  1
  H  H25  1  0.967949  0.371524  0.652687  1
  H  H26  1  0.533249  0.186855  0.408572  1
  H  H27  1  0.404204  0.532986  0.184658  1
  H  H28  1  0.847084  0.220996  0.317065  1
  H  H29  1  0.904444  0.684187  0.031959  1
  H  H30  1  0.815263  0.718837  0.347313  1
  H  H31  1  0.152985  0.871251  0.467482  1
  H  H32  1  0.685807  0.031542  0.902391  1
  H  H33  1  0.345099  0.813851  0.716244  1
  H  H34  1  0.872873  0.470109  0.154495  1
  H  H35  1  0.624677  0.778283  0.591428  1
  H  H36  1  0.592989  0.622856  0.778281  1
  H  H37  1  0.030019  0.903931  0.682935  1
