# generated using pymatgen
data_Pr6SmMoO12
_symmetry_space_group_name_H-M   'P 1'
_cell_length_a   6.97179141
_cell_length_b   6.97179246
_cell_length_c   6.97179200
_cell_angle_alpha   93.36040367
_cell_angle_beta   93.36039594
_cell_angle_gamma   93.36040034
_symmetry_Int_Tables_number   1
_chemical_formula_structural   Pr6SmMoO12
_chemical_formula_sum   'Pr6 Sm1 Mo1 O12'
_cell_volume   337.05049312
_cell_formula_units_Z   1
loop_
 _symmetry_equiv_pos_site_id
 _symmetry_equiv_pos_as_xyz
  1  'x, y, z'
loop_
 _atom_site_type_symbol
 _atom_site_label
 _atom_site_symmetry_multiplicity
 _atom_site_fract_x
 _atom_site_fract_y
 _atom_site_fract_z
 _atom_site_occupancy
  Pr  Pr0  1  0.739517  0.925971  0.436093  1
  Pr  Pr1  1  0.436093  0.739517  0.925971  1
  Pr  Pr2  1  0.074029  0.563907  0.260483  1
  Pr  Pr3  1  0.925971  0.436093  0.739517  1
  Pr  Pr4  1  0.563907  0.260483  0.074029  1
  Pr  Pr5  1  0.260483  0.074029  0.563907  1
  Sm  Sm6  1  0.000000  0.000000  0.000000  1
  Mo  Mo7  1  0.500000  0.500000  0.500000  1
  O  O8  1  0.064636  0.909936  0.315241  1
  O  O9  1  0.684759  0.935364  0.090064  1
  O  O10  1  0.461443  0.800805  0.589364  1
  O  O11  1  0.090064  0.684759  0.935364  1
  O  O12  1  0.800805  0.589364  0.461443  1
  O  O13  1  0.410636  0.538557  0.199195  1
  O  O14  1  0.589364  0.461443  0.800805  1
  O  O15  1  0.199195  0.410636  0.538557  1
  O  O16  1  0.909936  0.315241  0.064636  1
  O  O17  1  0.538557  0.199195  0.410636  1
  O  O18  1  0.315241  0.064636  0.909936  1
  O  O19  1  0.935364  0.090064  0.684759  1
