# generated using pymatgen
data_Er2Tm18Ir7Rh5
_symmetry_space_group_name_H-M   'P 1'
_cell_length_a   10.73635103
_cell_length_b   10.73539516
_cell_length_c   6.31446301
_cell_angle_alpha   89.99410045
_cell_angle_beta   90.00021506
_cell_angle_gamma   89.92069650
_symmetry_Int_Tables_number   1
_chemical_formula_structural   Er2Tm18Ir7Rh5
_chemical_formula_sum   'Er2 Tm18 Ir7 Rh5'
_cell_volume   727.79780725
_cell_formula_units_Z   1
loop_
 _symmetry_equiv_pos_site_id
 _symmetry_equiv_pos_as_xyz
  1  'x, y, z'
loop_
 _atom_site_type_symbol
 _atom_site_label
 _atom_site_symmetry_multiplicity
 _atom_site_fract_x
 _atom_site_fract_y
 _atom_site_fract_z
 _atom_site_occupancy
  Er  Er0  1  0.290254  0.088280  0.378542  1
  Er  Er1  1  0.290531  0.911562  0.877850  1
  Tm  Tm2  1  0.708762  0.087948  0.877585  1
  Tm  Tm3  1  0.708777  0.909977  0.378864  1
  Tm  Tm4  1  0.588342  0.790401  0.878490  1
  Tm  Tm5  1  0.586992  0.209623  0.378167  1
  Tm  Tm6  1  0.411538  0.790452  0.378316  1
  Tm  Tm7  1  0.411659  0.209464  0.878172  1
  Tm  Tm8  1  0.209521  0.411811  0.621517  1
  Tm  Tm9  1  0.209404  0.588553  0.121696  1
  Tm  Tm10  1  0.790414  0.413139  0.121791  1
  Tm  Tm11  1  0.790671  0.588429  0.621809  1
  Tm  Tm12  1  0.911845  0.709625  0.121318  1
  Tm  Tm13  1  0.912060  0.291228  0.622415  1
  Tm  Tm14  1  0.088207  0.709248  0.621933  1
  Tm  Tm15  1  0.089901  0.291305  0.121054  1
  Tm  Tm16  1  0.999867  0.999746  0.499973  1
  Tm  Tm17  1  0.000069  0.000018  0.000113  1
  Tm  Tm18  1  0.499945  0.499764  0.999914  1
  Tm  Tm19  1  0.500260  0.500093  0.500154  1
  Ir  Ir20  1  0.845944  0.846808  0.750068  1
  Ir  Ir21  1  0.153009  0.154284  0.750184  1
  Ir  Ir22  1  0.153759  0.845822  0.250264  1
  Ir  Ir23  1  0.654668  0.345313  0.749967  1
  Ir  Ir24  1  0.654091  0.653719  0.249775  1
  Ir  Ir25  1  0.346332  0.346084  0.250097  1
  Ir  Ir26  1  0.346085  0.653776  0.749878  1
  Rh  Rh27  1  0.845922  0.154070  0.250000  1
  Rh  Rh28  1  0.500871  0.000214  0.123961  1
  Rh  Rh29  1  0.500778  0.000234  0.623335  1
  Rh  Rh30  1  0.999751  0.499532  0.876714  1
  Rh  Rh31  1  0.999771  0.499481  0.376083  1
