# generated using pymatgen
data_Dy13Y2Er(In3Co)2
_symmetry_space_group_name_H-M   'P 1'
_cell_length_a   10.35626800
_cell_length_b   10.35626795
_cell_length_c   7.02209300
_cell_angle_alpha   90.00002766
_cell_angle_beta   89.99996681
_cell_angle_gamma   119.99996823
_symmetry_Int_Tables_number   1
_chemical_formula_structural   Dy13Y2Er(In3Co)2
_chemical_formula_sum   'Dy13 Y2 Er1 In6 Co2'
_cell_volume   652.23470940
_cell_formula_units_Z   1
loop_
 _symmetry_equiv_pos_site_id
 _symmetry_equiv_pos_as_xyz
  1  'x, y, z'
loop_
 _atom_site_type_symbol
 _atom_site_label
 _atom_site_symmetry_multiplicity
 _atom_site_fract_x
 _atom_site_fract_y
 _atom_site_fract_z
 _atom_site_occupancy
  Dy  Dy0  1  0.464414  0.535586  0.483092  1
  Dy  Dy1  1  0.071172  0.535586  0.483092  1
  Dy  Dy2  1  0.464414  0.928828  0.483092  1
  Dy  Dy3  1  0.535826  0.464174  0.982491  1
  Dy  Dy4  1  0.928349  0.464174  0.982491  1
  Dy  Dy5  1  0.535826  0.071651  0.982491  1
  Dy  Dy6  1  0.821419  0.178581  0.276249  1
  Dy  Dy7  1  0.357162  0.178581  0.276249  1
  Dy  Dy8  1  0.821419  0.642839  0.276249  1
  Dy  Dy9  1  0.178265  0.821735  0.775574  1
  Dy  Dy10  1  0.643469  0.821735  0.775574  1
  Dy  Dy11  1  0.178265  0.356531  0.775574  1
  Dy  Dy12  1  0.333333  0.666667  0.092112  1
  Y  Y13  1  0.000000  0.000000  0.494601  1
  Y  Y14  1  0.000000  0.000000  0.995205  1
  Er  Er15  1  0.666667  0.333333  0.590474  1
  In  In16  1  0.162785  0.837215  0.234485  1
  In  In17  1  0.674429  0.837215  0.234485  1
  In  In18  1  0.162785  0.325571  0.234484  1
  In  In19  1  0.836811  0.163189  0.734054  1
  In  In20  1  0.326377  0.163189  0.734054  1
  In  In21  1  0.836811  0.673623  0.734054  1
  Co  Co22  1  0.333333  0.666667  0.707364  1
  Co  Co23  1  0.666667  0.333333  0.206965  1
