# generated using pymatgen
data_Sc2Mn2Fe7Co3P7
_symmetry_space_group_name_H-M   'P 1'
_cell_length_a   8.90096010
_cell_length_b   8.93852260
_cell_length_c   3.55383100
_cell_angle_alpha   90.00000000
_cell_angle_beta   90.00000000
_cell_angle_gamma   119.89796354
_symmetry_Int_Tables_number   1
_chemical_formula_structural   Sc2Mn2Fe7Co3P7
_chemical_formula_sum   'Sc2 Mn2 Fe7 Co3 P7'
_cell_volume   245.11823353
_cell_formula_units_Z   1
loop_
 _symmetry_equiv_pos_site_id
 _symmetry_equiv_pos_as_xyz
  1  'x, y, z'
loop_
 _atom_site_type_symbol
 _atom_site_label
 _atom_site_symmetry_multiplicity
 _atom_site_fract_x
 _atom_site_fract_y
 _atom_site_fract_z
 _atom_site_occupancy
  Sc  Sc0  1  0.003946  0.002557  0.000000  1
  Sc  Sc1  1  0.665350  0.333559  0.500000  1
  Mn  Mn2  1  0.109582  0.563320  0.500000  1
  Mn  Mn3  1  0.453169  0.886587  0.500000  1
  Fe  Fe4  1  0.901554  0.607299  0.000000  1
  Fe  Fe5  1  0.703911  0.097708  0.000000  1
  Fe  Fe6  1  0.611671  0.786984  0.000000  1
  Fe  Fe7  1  0.174053  0.388804  0.000000  1
  Fe  Fe8  1  0.214442  0.821734  0.000000  1
  Fe  Fe9  1  0.281351  0.054621  0.500000  1
  Fe  Fe10  1  0.433009  0.539813  0.500000  1
  Co  Co11  1  0.394501  0.298068  0.000000  1
  Co  Co12  1  0.771968  0.720139  0.500000  1
  Co  Co13  1  0.946527  0.227289  0.500000  1
  P  P14  1  0.630388  0.551156  0.000000  1
  P  P15  1  0.914853  0.367347  0.000000  1
  P  P16  1  0.449181  0.082564  0.000000  1
  P  P17  1  0.744369  0.956469  0.500000  1
  P  P18  1  0.215798  0.261679  0.500000  1
  P  P19  1  0.045335  0.789554  0.500000  1
  P  P20  1  0.335044  0.662749  0.000000  1
