# generated using pymatgen
data_Yb3Cd3Ag2Pt
_symmetry_space_group_name_H-M   'P 1'
_cell_length_a   7.79384700
_cell_length_b   7.79384669
_cell_length_c   4.03365600
_cell_angle_alpha   90.00000000
_cell_angle_beta   90.00000000
_cell_angle_gamma   119.99998859
_symmetry_Int_Tables_number   1
_chemical_formula_structural   Yb3Cd3Ag2Pt
_chemical_formula_sum   'Yb3 Cd3 Ag2 Pt1'
_cell_volume   212.19408513
_cell_formula_units_Z   1
loop_
 _symmetry_equiv_pos_site_id
 _symmetry_equiv_pos_as_xyz
  1  'x, y, z'
loop_
 _atom_site_type_symbol
 _atom_site_label
 _atom_site_symmetry_multiplicity
 _atom_site_fract_x
 _atom_site_fract_y
 _atom_site_fract_z
 _atom_site_occupancy
  Yb  Yb0  1  0.394578  0.975164  0.000000  1
  Yb  Yb1  1  0.580586  0.605422  0.000000  1
  Yb  Yb2  1  0.024836  0.419414  0.000000  1
  Cd  Cd3  1  0.734703  0.000624  0.500000  1
  Cd  Cd4  1  0.265922  0.265297  0.500000  1
  Cd  Cd5  1  0.999376  0.734078  0.500000  1
  Ag  Ag6  1  0.666667  0.333333  0.500000  1
  Ag  Ag7  1  0.000000  0.000000  0.000000  1
  Pt  Pt8  1  0.333333  0.666667  0.500000  1
