# generated using pymatgen
data_Dy7Er13(Bi2Ir)4
_symmetry_space_group_name_H-M   'P 1'
_cell_length_a   7.96106702
_cell_length_b   8.99909900
_cell_length_c   12.48364100
_cell_angle_alpha   90.00056665
_cell_angle_beta   90.00392236
_cell_angle_gamma   89.99984079
_symmetry_Int_Tables_number   1
_chemical_formula_structural   Dy7Er13(Bi2Ir)4
_chemical_formula_sum   'Dy7 Er13 Bi8 Ir4'
_cell_volume   894.35837747
_cell_formula_units_Z   1
loop_
 _symmetry_equiv_pos_site_id
 _symmetry_equiv_pos_as_xyz
  1  'x, y, z'
loop_
 _atom_site_type_symbol
 _atom_site_label
 _atom_site_symmetry_multiplicity
 _atom_site_fract_x
 _atom_site_fract_y
 _atom_site_fract_z
 _atom_site_occupancy
  Dy  Dy0  1  0.661473  0.750000  0.707238  1
  Dy  Dy1  1  0.338295  0.250012  0.292771  1
  Dy  Dy2  1  0.161413  0.249996  0.792850  1
  Dy  Dy3  1  0.838271  0.750000  0.207304  1
  Dy  Dy4  1  0.127469  0.750009  0.808372  1
  Dy  Dy5  1  0.872467  0.250004  0.191807  1
  Dy  Dy6  1  0.627537  0.250010  0.691519  1
  Er  Er7  1  0.373903  0.749983  0.309689  1
  Er  Er8  1  0.555425  0.749972  0.997843  1
  Er  Er9  1  0.444477  0.249978  0.002163  1
  Er  Er10  1  0.055541  0.250018  0.501810  1
  Er  Er11  1  0.944682  0.749978  0.497951  1
  Er  Er12  1  0.825959  0.457786  0.933211  1
  Er  Er13  1  0.174174  0.542352  0.066876  1
  Er  Er14  1  0.325619  0.542403  0.566278  1
  Er  Er15  1  0.174152  0.957683  0.066890  1
  Er  Er16  1  0.673656  0.458610  0.432870  1
  Er  Er17  1  0.825938  0.042163  0.933211  1
  Er  Er18  1  0.673664  0.041377  0.432861  1
  Er  Er19  1  0.325623  0.957610  0.566270  1
  Bi  Bi20  1  0.936113  0.008139  0.671663  1
  Bi  Bi21  1  0.065096  0.991168  0.328297  1
  Bi  Bi22  1  0.436108  0.992003  0.828231  1
  Bi  Bi23  1  0.065094  0.508848  0.328294  1
  Bi  Bi24  1  0.562954  0.007357  0.172055  1
  Bi  Bi25  1  0.936121  0.491875  0.671668  1
  Bi  Bi26  1  0.562967  0.492648  0.172060  1
  Bi  Bi27  1  0.436104  0.508012  0.828232  1
  Ir  Ir28  1  0.928862  0.750009  0.991345  1
  Ir  Ir29  1  0.071020  0.250010  0.008868  1
  Ir  Ir30  1  0.429139  0.249995  0.508454  1
  Ir  Ir31  1  0.570687  0.749996  0.491049  1
