# generated using pymatgen
data_La12TbThPt6
_symmetry_space_group_name_H-M   'P 1'
_cell_length_a   10.33420500
_cell_length_b   10.33420607
_cell_length_c   6.56221200
_cell_angle_alpha   90.00000000
_cell_angle_beta   90.00000000
_cell_angle_gamma   119.99999979
_symmetry_Int_Tables_number   1
_chemical_formula_structural   La12TbThPt6
_chemical_formula_sum   'La12 Tb1 Th1 Pt6'
_cell_volume   606.92507255
_cell_formula_units_Z   1
loop_
 _symmetry_equiv_pos_site_id
 _symmetry_equiv_pos_as_xyz
  1  'x, y, z'
loop_
 _atom_site_type_symbol
 _atom_site_label
 _atom_site_symmetry_multiplicity
 _atom_site_fract_x
 _atom_site_fract_y
 _atom_site_fract_z
 _atom_site_occupancy
  La  La0  1  0.871757  0.743513  0.751356  1
  La  La1  1  0.256487  0.128243  0.751356  1
  La  La2  1  0.871757  0.128243  0.751356  1
  La  La3  1  0.128955  0.257910  0.248744  1
  La  La4  1  0.742090  0.871045  0.248744  1
  La  La5  1  0.128955  0.871045  0.248744  1
  La  La6  1  0.461835  0.923669  0.559966  1
  La  La7  1  0.076331  0.538165  0.559966  1
  La  La8  1  0.461835  0.538165  0.559966  1
  La  La9  1  0.537595  0.075189  0.058618  1
  La  La10  1  0.924811  0.462405  0.058618  1
  La  La11  1  0.537595  0.462405  0.058618  1
  Tb  Tb12  1  0.333333  0.666667  0.035496  1
  Th  Th13  1  0.666667  0.333333  0.536510  1
  Pt  Pt14  1  0.190186  0.380374  0.813663  1
  Pt  Pt15  1  0.619626  0.809814  0.813663  1
  Pt  Pt16  1  0.190186  0.809814  0.813663  1
  Pt  Pt17  1  0.809117  0.618234  0.315159  1
  Pt  Pt18  1  0.381766  0.190883  0.315159  1
  Pt  Pt19  1  0.809117  0.190883  0.315159  1
