# generated using pymatgen
data_YbN6
_symmetry_space_group_name_H-M   'P 1'
_cell_length_a   7.91515342
_cell_length_b   6.40001561
_cell_length_c   6.25212957
_cell_angle_alpha   77.44237703
_cell_angle_beta   52.11405475
_cell_angle_gamma   50.44357672
_symmetry_Int_Tables_number   1
_chemical_formula_structural   YbN6
_chemical_formula_sum   'Yb2 N12'
_cell_volume   184.70581344
_cell_formula_units_Z   2
loop_
 _symmetry_equiv_pos_site_id
 _symmetry_equiv_pos_as_xyz
  1  'x, y, z'
loop_
 _atom_site_type_symbol
 _atom_site_label
 _atom_site_symmetry_multiplicity
 _atom_site_fract_x
 _atom_site_fract_y
 _atom_site_fract_z
 _atom_site_occupancy
  Yb  Yb0  1  0.500000  0.500000  0.500000  1
  Yb  Yb1  1  0.750000  0.750000  0.750000  1
  N  N2  1  0.284659  0.464954  0.348832  1
  N  N3  1  0.901553  0.348832  0.464954  1
  N  N4  1  0.123507  0.123507  0.376493  1
  N  N5  1  0.376493  0.376493  0.123507  1
  N  N6  1  0.126493  0.126493  0.873507  1
  N  N7  1  0.873507  0.873507  0.126493  1
  N  N8  1  0.785046  0.965341  0.348447  1
  N  N9  1  0.901168  0.348447  0.965341  1
  N  N10  1  0.348447  0.901168  0.785046  1
  N  N11  1  0.965341  0.785046  0.901168  1
  N  N12  1  0.464954  0.284659  0.901553  1
  N  N13  1  0.348832  0.901553  0.284659  1
