# generated using pymatgen
data_La4Tb2FeBr10
_symmetry_space_group_name_H-M   'P 1'
_cell_length_a   7.76354207
_cell_length_b   9.51161424
_cell_length_c   9.39991329
_cell_angle_alpha   106.62468075
_cell_angle_beta   96.83083673
_cell_angle_gamma   107.19729010
_symmetry_Int_Tables_number   1
_chemical_formula_structural   La4Tb2FeBr10
_chemical_formula_sum   'La4 Tb2 Fe1 Br10'
_cell_volume   619.47010407
_cell_formula_units_Z   1
loop_
 _symmetry_equiv_pos_site_id
 _symmetry_equiv_pos_as_xyz
  1  'x, y, z'
loop_
 _atom_site_type_symbol
 _atom_site_label
 _atom_site_symmetry_multiplicity
 _atom_site_fract_x
 _atom_site_fract_y
 _atom_site_fract_z
 _atom_site_occupancy
  La  La0  1  0.872435  0.149353  0.691847  1
  La  La1  1  0.127565  0.850647  0.308153  1
  La  La2  1  0.382502  0.950858  0.721178  1
  La  La3  1  0.617498  0.049142  0.278822  1
  Tb  Tb4  1  0.467240  0.295393  0.587567  1
  Tb  Tb5  1  0.532760  0.704607  0.412433  1
  Fe  Fe6  1  0.500000  0.000000  0.500000  1
  Br  Br7  1  0.422670  0.624235  0.666893  1
  Br  Br8  1  0.577330  0.375765  0.333107  1
  Br  Br9  1  0.307133  0.262147  0.840102  1
  Br  Br10  1  0.692867  0.737853  0.159898  1
  Br  Br11  1  0.831726  0.458667  0.768915  1
  Br  Br12  1  0.168274  0.541333  0.231085  1
  Br  Br13  1  0.052090  0.178131  0.417721  1
  Br  Br14  1  0.250579  0.917634  0.041228  1
  Br  Br15  1  0.749421  0.082366  0.958772  1
  Br  Br16  1  0.947910  0.821869  0.582279  1
