# generated using pymatgen
data_Rb10Ba2TaNbP8
_symmetry_space_group_name_H-M   'P 1'
_cell_length_a   10.61944585
_cell_length_b   10.61844834
_cell_length_c   8.17976975
_cell_angle_alpha   88.71966327
_cell_angle_beta   88.72459964
_cell_angle_gamma   120.62847636
_symmetry_Int_Tables_number   1
_chemical_formula_structural   Rb10Ba2TaNbP8
_chemical_formula_sum   'Rb10 Ba2 Ta1 Nb1 P8'
_cell_volume   792.88190012
_cell_formula_units_Z   1
loop_
 _symmetry_equiv_pos_site_id
 _symmetry_equiv_pos_as_xyz
  1  'x, y, z'
loop_
 _atom_site_type_symbol
 _atom_site_label
 _atom_site_symmetry_multiplicity
 _atom_site_fract_x
 _atom_site_fract_y
 _atom_site_fract_z
 _atom_site_occupancy
  Rb  Rb0  1  0.464725  0.526754  0.497731  1
  Rb  Rb1  1  0.062138  0.528319  0.499199  1
  Rb  Rb2  1  0.526787  0.464680  0.997759  1
  Rb  Rb3  1  0.528433  0.062337  0.999364  1
  Rb  Rb4  1  0.864842  0.142079  0.678557  1
  Rb  Rb5  1  0.291742  0.152250  0.710850  1
  Rb  Rb6  1  0.854967  0.715419  0.660500  1
  Rb  Rb7  1  0.142139  0.864835  0.178437  1
  Rb  Rb8  1  0.715330  0.854926  0.160358  1
  Rb  Rb9  1  0.152284  0.291791  0.210743  1
  Ba  Ba10  1  0.463523  0.932977  0.493283  1
  Ba  Ba11  1  0.932816  0.463373  0.993405  1
  Ta  Ta12  1  0.331453  0.669505  0.894099  1
  Nb  Nb13  1  0.669498  0.331638  0.394222  1
  P  P14  1  0.684011  0.337203  0.690524  1
  P  P15  1  0.337141  0.683870  0.189423  1
  P  P16  1  0.789781  0.203000  0.291603  1
  P  P17  1  0.413311  0.195931  0.321869  1
  P  P18  1  0.796499  0.579329  0.276152  1
  P  P19  1  0.203477  0.789401  0.791894  1
  P  P20  1  0.578529  0.796041  0.776535  1
  P  P21  1  0.196574  0.414344  0.822072  1
