# generated using pymatgen
data_TbEu2Th(Sn2O7)2
_symmetry_space_group_name_H-M   'P 1'
_cell_length_a   7.52031936
_cell_length_b   7.55099155
_cell_length_c   7.55174038
_cell_angle_alpha   60.13197100
_cell_angle_beta   60.13754770
_cell_angle_gamma   60.13427524
_symmetry_Int_Tables_number   1
_chemical_formula_structural   TbEu2Th(Sn2O7)2
_chemical_formula_sum   'Tb1 Eu2 Th1 Sn4 O14'
_cell_volume   304.15467764
_cell_formula_units_Z   1
loop_
 _symmetry_equiv_pos_site_id
 _symmetry_equiv_pos_as_xyz
  1  'x, y, z'
loop_
 _atom_site_type_symbol
 _atom_site_label
 _atom_site_symmetry_multiplicity
 _atom_site_fract_x
 _atom_site_fract_y
 _atom_site_fract_z
 _atom_site_occupancy
  Tb  Tb0  1  0.125000  0.125000  0.625000  1
  Eu  Eu1  1  0.125000  0.125000  0.125000  1
  Eu  Eu2  1  0.625000  0.125000  0.125000  1
  Th  Th3  1  0.125000  0.625000  0.125000  1
  Sn  Sn4  1  0.625000  0.625000  0.625000  1
  Sn  Sn5  1  0.125000  0.625000  0.625000  1
  Sn  Sn6  1  0.625000  0.125000  0.625000  1
  Sn  Sn7  1  0.625000  0.625000  0.125000  1
  O  O8  1  0.961162  0.546015  0.959409  1
  O  O9  1  0.707733  0.293230  0.291304  1
  O  O10  1  0.288785  0.710051  0.712381  1
  O  O11  1  0.715561  0.291667  0.704738  1
  O  O12  1  0.288035  0.291667  0.704738  1
  O  O13  1  0.716588  0.703985  0.290591  1
  O  O14  1  0.961965  0.958333  0.545262  1
  O  O15  1  0.542267  0.956770  0.958696  1
  O  O16  1  0.961215  0.539949  0.537619  1
  O  O17  1  0.533412  0.546015  0.959409  1
  O  O18  1  0.288838  0.703985  0.290591  1
  O  O19  1  0.534439  0.958333  0.545262  1
  O  O20  1  0.009979  0.989320  0.990720  1
  O  O21  1  0.240021  0.260680  0.259280  1
