# generated using pymatgen
data_Lu(AlFe)6
_symmetry_space_group_name_H-M   'P 1'
_cell_length_a   6.54138943
_cell_length_b   6.54139101
_cell_length_c   6.54139060
_cell_angle_alpha   135.24973386
_cell_angle_beta   99.08153896
_cell_angle_gamma   97.58390827
_symmetry_Int_Tables_number   1
_chemical_formula_structural   Lu(AlFe)6
_chemical_formula_sum   'Lu1 Al6 Fe6'
_cell_volume   182.20088771
_cell_formula_units_Z   1
loop_
 _symmetry_equiv_pos_site_id
 _symmetry_equiv_pos_as_xyz
  1  'x, y, z'
loop_
 _atom_site_type_symbol
 _atom_site_label
 _atom_site_symmetry_multiplicity
 _atom_site_fract_x
 _atom_site_fract_y
 _atom_site_fract_z
 _atom_site_occupancy
  Lu  Lu0  1  0.000000  0.000000  0.000000  1
  Al  Al1  1  0.345788  0.345788  0.000000  1
  Al  Al2  1  0.654212  0.654212  0.000000  1
  Al  Al3  1  0.664213  0.000000  0.664213  1
  Al  Al4  1  0.335787  0.000000  0.335787  1
  Al  Al5  1  0.809936  0.309936  0.500000  1
  Al  Al6  1  0.190064  0.690064  0.500000  1
  Fe  Fe7  1  0.500000  0.000000  0.000000  1
  Fe  Fe8  1  0.500000  0.500000  0.500000  1
  Fe  Fe9  1  0.000000  0.000000  0.500000  1
  Fe  Fe10  1  0.000000  0.500000  0.000000  1
  Fe  Fe11  1  0.239384  0.500000  0.739384  1
  Fe  Fe12  1  0.760616  0.500000  0.260616  1
