# generated using pymatgen
data_Ho6Sc4In8Ir3Pt
_symmetry_space_group_name_H-M   'P 1'
_cell_length_a   3.57802600
_cell_length_b   7.92233319
_cell_length_c   17.83539456
_cell_angle_alpha   89.98806469
_cell_angle_beta   90.00000000
_cell_angle_gamma   90.00000000
_symmetry_Int_Tables_number   1
_chemical_formula_structural   Ho6Sc4In8Ir3Pt
_chemical_formula_sum   'Ho6 Sc4 In8 Ir3 Pt1'
_cell_volume   505.56768615
_cell_formula_units_Z   1
loop_
 _symmetry_equiv_pos_site_id
 _symmetry_equiv_pos_as_xyz
  1  'x, y, z'
loop_
 _atom_site_type_symbol
 _atom_site_label
 _atom_site_symmetry_multiplicity
 _atom_site_fract_x
 _atom_site_fract_y
 _atom_site_fract_z
 _atom_site_occupancy
  Ho  Ho0  1  0.000000  0.236940  0.217447  1
  Ho  Ho1  1  0.000000  0.759132  0.783057  1
  Ho  Ho2  1  0.000000  0.258716  0.716894  1
  Ho  Ho3  1  0.000000  0.746740  0.284376  1
  Ho  Ho4  1  0.000000  0.998922  0.999392  1
  Ho  Ho5  1  0.000000  0.499831  0.500639  1
  Sc  Sc6  1  0.000000  0.116079  0.410569  1
  Sc  Sc7  1  0.000000  0.882851  0.590375  1
  Sc  Sc8  1  0.000000  0.382775  0.909324  1
  Sc  Sc9  1  0.000000  0.617796  0.088013  1
  In  In10  1  0.500000  0.413589  0.351201  1
  In  In11  1  0.500000  0.584470  0.650049  1
  In  In12  1  0.500000  0.085294  0.849885  1
  In  In13  1  0.500000  0.917697  0.149343  1
  In  In14  1  0.500000  0.307208  0.058772  1
  In  In15  1  0.500000  0.690796  0.939730  1
  In  In16  1  0.500000  0.190670  0.559741  1
  In  In17  1  0.500000  0.808118  0.440408  1
  Ir  Ir18  1  0.500000  0.028591  0.307237  1
  Ir  Ir19  1  0.500000  0.971987  0.693312  1
  Ir  Ir20  1  0.500000  0.471886  0.806671  1
  Pt  Pt21  1  0.500000  0.529913  0.193567  1
