# generated using pymatgen
data_Tb4LuZrGa10
_symmetry_space_group_name_H-M   'P 1'
_cell_length_a   6.10179100
_cell_length_b   9.55122300
_cell_length_c   11.37208800
_cell_angle_alpha   90.00000000
_cell_angle_beta   90.00000000
_cell_angle_gamma   90.00000000
_symmetry_Int_Tables_number   1
_chemical_formula_structural   Tb4LuZrGa10
_chemical_formula_sum   'Tb8 Lu2 Zr2 Ga20'
_cell_volume   662.76035930
_cell_formula_units_Z   2
loop_
 _symmetry_equiv_pos_site_id
 _symmetry_equiv_pos_as_xyz
  1  'x, y, z'
loop_
 _atom_site_type_symbol
 _atom_site_label
 _atom_site_symmetry_multiplicity
 _atom_site_fract_x
 _atom_site_fract_y
 _atom_site_fract_z
 _atom_site_occupancy
  Tb  Tb0  1  0.888269  0.513594  0.352430  1
  Tb  Tb1  1  0.611731  0.986406  0.852430  1
  Tb  Tb2  1  0.110141  0.012093  0.648286  1
  Tb  Tb3  1  0.389859  0.487907  0.148286  1
  Tb  Tb4  1  0.110141  0.487907  0.648286  1
  Tb  Tb5  1  0.389859  0.012093  0.148286  1
  Tb  Tb6  1  0.888269  0.986406  0.352430  1
  Tb  Tb7  1  0.611731  0.513594  0.852430  1
  Lu  Lu8  1  0.151272  0.250000  0.923916  1
  Lu  Lu9  1  0.348728  0.250000  0.423916  1
  Zr  Zr10  1  0.858006  0.750000  0.076801  1
  Zr  Zr11  1  0.641994  0.750000  0.576801  1
  Ga  Ga12  1  0.873965  0.047153  0.089535  1
  Ga  Ga13  1  0.626035  0.452847  0.589535  1
  Ga  Ga14  1  0.122734  0.557330  0.911960  1
  Ga  Ga15  1  0.377266  0.942670  0.411960  1
  Ga  Ga16  1  0.122734  0.942670  0.911960  1
  Ga  Ga17  1  0.377266  0.557330  0.411960  1
  Ga  Ga18  1  0.873965  0.452847  0.089535  1
  Ga  Ga19  1  0.626035  0.047153  0.589535  1
  Ga  Ga20  1  0.169351  0.750000  0.249710  1
  Ga  Ga21  1  0.330649  0.750000  0.749710  1
  Ga  Ga22  1  0.826384  0.250000  0.749147  1
  Ga  Ga23  1  0.673616  0.250000  0.249147  1
  Ga  Ga24  1  0.383047  0.750000  0.005817  1
  Ga  Ga25  1  0.116953  0.750000  0.505817  1
  Ga  Ga26  1  0.627984  0.250000  0.995829  1
  Ga  Ga27  1  0.872016  0.250000  0.495829  1
  Ga  Ga28  1  0.601459  0.750000  0.292341  1
  Ga  Ga29  1  0.898541  0.750000  0.792341  1
  Ga  Ga30  1  0.403545  0.250000  0.702016  1
  Ga  Ga31  1  0.096455  0.250000  0.202016  1
