# generated using pymatgen
data_Pr8Th2Ru3Rh
_symmetry_space_group_name_H-M   'P 1'
_cell_length_a   8.98775717
_cell_length_b   9.00490103
_cell_length_c   7.42391000
_cell_angle_alpha   83.69517724
_cell_angle_beta   83.71420812
_cell_angle_gamma   43.28696300
_symmetry_Int_Tables_number   1
_chemical_formula_structural   Pr8Th2Ru3Rh
_chemical_formula_sum   'Pr8 Th2 Ru3 Rh1'
_cell_volume   409.09473262
_cell_formula_units_Z   1
loop_
 _symmetry_equiv_pos_site_id
 _symmetry_equiv_pos_as_xyz
  1  'x, y, z'
loop_
 _atom_site_type_symbol
 _atom_site_label
 _atom_site_symmetry_multiplicity
 _atom_site_fract_x
 _atom_site_fract_y
 _atom_site_fract_z
 _atom_site_occupancy
  Pr  Pr0  1  0.014473  0.799045  0.919061  1
  Pr  Pr1  1  0.204036  0.985187  0.582402  1
  Pr  Pr2  1  0.985562  0.200954  0.084754  1
  Pr  Pr3  1  0.795522  0.020017  0.415384  1
  Pr  Pr4  1  0.360281  0.206950  0.817226  1
  Pr  Pr5  1  0.788958  0.641505  0.684041  1
  Pr  Pr6  1  0.644452  0.788082  0.185854  1
  Pr  Pr7  1  0.210656  0.356287  0.313142  1
  Th  Th8  1  0.576408  0.425130  0.751528  1
  Th  Th9  1  0.425740  0.575995  0.246076  1
  Ru  Ru10  1  0.418818  0.781561  0.933923  1
  Ru  Ru11  1  0.778455  0.416239  0.437482  1
  Ru  Ru12  1  0.582694  0.219803  0.063382  1
  Rh  Rh13  1  0.213943  0.583243  0.565741  1
