# generated using pymatgen
data_Sc8Ti12Si15Sb
_symmetry_space_group_name_H-M   'P 1'
_cell_length_a   6.90925430
_cell_length_b   6.88006138
_cell_length_c   12.60272300
_cell_angle_alpha   89.98432708
_cell_angle_beta   89.77706080
_cell_angle_gamma   89.93720616
_symmetry_Int_Tables_number   1
_chemical_formula_structural   Sc8Ti12Si15Sb
_chemical_formula_sum   'Sc8 Ti12 Si15 Sb1'
_cell_volume   599.07930489
_cell_formula_units_Z   1
loop_
 _symmetry_equiv_pos_site_id
 _symmetry_equiv_pos_as_xyz
  1  'x, y, z'
loop_
 _atom_site_type_symbol
 _atom_site_label
 _atom_site_symmetry_multiplicity
 _atom_site_fract_x
 _atom_site_fract_y
 _atom_site_fract_z
 _atom_site_occupancy
  Sc  Sc0  1  0.345625  0.996250  0.460790  1
  Sc  Sc1  1  0.506496  0.837686  0.718949  1
  Sc  Sc2  1  0.500136  0.157699  0.217109  1
  Sc  Sc3  1  0.842374  0.499081  0.282137  1
  Sc  Sc4  1  0.156600  0.507743  0.786178  1
  Sc  Sc5  1  0.661002  0.997337  0.969335  1
  Sc  Sc6  1  0.986881  0.352738  0.526481  1
  Sc  Sc7  1  0.001665  0.657811  0.033833  1
  Ti  Ti8  1  0.327651  0.328097  0.000956  1
  Ti  Ti9  1  0.172881  0.827765  0.249719  1
  Ti  Ti10  1  0.819511  0.171865  0.751827  1
  Ti  Ti11  1  0.671187  0.671538  0.499615  1
  Ti  Ti12  1  0.151487  0.006660  0.879201  1
  Ti  Ti13  1  0.494882  0.648413  0.124073  1
  Ti  Ti14  1  0.513935  0.355514  0.625038  1
  Ti  Ti15  1  0.652931  0.496107  0.878451  1
  Ti  Ti16  1  0.348501  0.507295  0.375102  1
  Ti  Ti17  1  0.847950  0.994767  0.373187  1
  Ti  Ti18  1  0.007560  0.149198  0.125870  1
  Ti  Ti19  1  0.981401  0.836566  0.621817  1
  Si  Si20  1  0.365167  0.705796  0.930146  1
  Si  Si21  1  0.632998  0.294743  0.427743  1
  Si  Si22  1  0.707149  0.362978  0.072425  1
  Si  Si23  1  0.294437  0.637418  0.570732  1
  Si  Si24  1  0.794947  0.863469  0.178648  1
  Si  Si25  1  0.135702  0.205520  0.320762  1
  Si  Si26  1  0.865571  0.796252  0.821523  1
  Si  Si27  1  0.298477  0.953603  0.065739  1
  Si  Si28  1  0.547648  0.794009  0.312826  1
  Si  Si29  1  0.463901  0.204865  0.821676  1
  Si  Si30  1  0.797300  0.543358  0.687857  1
  Si  Si31  1  0.204223  0.453920  0.185785  1
  Si  Si32  1  0.700933  0.046230  0.563574  1
  Si  Si33  1  0.954617  0.296927  0.936200  1
  Si  Si34  1  0.045888  0.706001  0.433307  1
  Sb  Sb35  1  0.200387  0.134789  0.671393  1
