# generated using pymatgen
data_La3Sn3IrRuAu
_symmetry_space_group_name_H-M   'P 1'
_cell_length_a   7.70342800
_cell_length_b   7.70342907
_cell_length_c   4.23643100
_cell_angle_alpha   90.00000000
_cell_angle_beta   90.00000000
_cell_angle_gamma   120.00000400
_symmetry_Int_Tables_number   1
_chemical_formula_structural   La3Sn3IrRuAu
_chemical_formula_sum   'La3 Sn3 Ir1 Ru1 Au1'
_cell_volume   217.72027154
_cell_formula_units_Z   1
loop_
 _symmetry_equiv_pos_site_id
 _symmetry_equiv_pos_as_xyz
  1  'x, y, z'
loop_
 _atom_site_type_symbol
 _atom_site_label
 _atom_site_symmetry_multiplicity
 _atom_site_fract_x
 _atom_site_fract_y
 _atom_site_fract_z
 _atom_site_occupancy
  La  La0  1  0.596407  0.014875  0.000000  1
  La  La1  1  0.985125  0.581533  0.000000  1
  La  La2  1  0.418467  0.403593  0.000000  1
  Sn  Sn3  1  0.246667  0.006164  0.500000  1
  Sn  Sn4  1  0.993836  0.240503  0.500000  1
  Sn  Sn5  1  0.759497  0.753333  0.500000  1
  Ir  Ir6  1  0.666667  0.333333  0.500000  1
  Ru  Ru7  1  0.000000  0.000000  0.000000  1
  Au  Au8  1  0.333333  0.666667  0.500000  1
