# generated using pymatgen
data_HoTmCo9P7W3
_symmetry_space_group_name_H-M   'P 1'
_cell_length_a   9.06410800
_cell_length_b   9.06410832
_cell_length_c   3.72237400
_cell_angle_alpha   90.00000000
_cell_angle_beta   90.00000000
_cell_angle_gamma   120.00001345
_symmetry_Int_Tables_number   1
_chemical_formula_structural   HoTmCo9P7W3
_chemical_formula_sum   'Ho1 Tm1 Co9 P7 W3'
_cell_volume   264.85046341
_cell_formula_units_Z   1
loop_
 _symmetry_equiv_pos_site_id
 _symmetry_equiv_pos_as_xyz
  1  'x, y, z'
loop_
 _atom_site_type_symbol
 _atom_site_label
 _atom_site_symmetry_multiplicity
 _atom_site_fract_x
 _atom_site_fract_y
 _atom_site_fract_z
 _atom_site_occupancy
  Ho  Ho0  1  0.333333  0.666667  0.500000  1
  Tm  Tm1  1  0.666667  0.333333  0.000000  1
  Co  Co2  1  0.062898  0.431913  0.000000  1
  Co  Co3  1  0.568087  0.630986  0.000000  1
  Co  Co4  1  0.369014  0.937102  0.000000  1
  Co  Co5  1  0.280199  0.159616  0.000000  1
  Co  Co6  1  0.840384  0.120583  0.000000  1
  Co  Co7  1  0.879417  0.719801  0.000000  1
  Co  Co8  1  0.437922  0.385497  0.500000  1
  Co  Co9  1  0.614503  0.052425  0.500000  1
  Co  Co10  1  0.947575  0.562078  0.500000  1
  P  P11  1  0.303242  0.414821  0.000000  1
  P  P12  1  0.585179  0.888421  0.000000  1
  P  P13  1  0.111579  0.696758  0.000000  1
  P  P14  1  0.412699  0.121460  0.500000  1
  P  P15  1  0.878540  0.291240  0.500000  1
  P  P16  1  0.708760  0.587301  0.500000  1
  P  P17  1  0.000000  0.000000  0.000000  1
  W  W18  1  0.096951  0.220966  0.500000  1
  W  W19  1  0.779034  0.875985  0.500000  1
  W  W20  1  0.124015  0.903049  0.500000  1
