# generated using pymatgen
data_Ho8Er12Si15As
_symmetry_space_group_name_H-M   'P 1'
_cell_length_a   7.43099077
_cell_length_b   7.60672434
_cell_length_c   14.50675822
_cell_angle_alpha   89.89472005
_cell_angle_beta   86.63604812
_cell_angle_gamma   89.99603545
_symmetry_Int_Tables_number   1
_chemical_formula_structural   Ho8Er12Si15As
_chemical_formula_sum   'Ho8 Er12 Si15 As1'
_cell_volume   818.58744611
_cell_formula_units_Z   1
loop_
 _symmetry_equiv_pos_site_id
 _symmetry_equiv_pos_as_xyz
  1  'x, y, z'
loop_
 _atom_site_type_symbol
 _atom_site_label
 _atom_site_symmetry_multiplicity
 _atom_site_fract_x
 _atom_site_fract_y
 _atom_site_fract_z
 _atom_site_occupancy
  Ho  Ho0  1  0.021072  0.183454  0.099464  1
  Ho  Ho1  1  0.978978  0.817408  0.900187  1
  Ho  Ho2  1  0.479356  0.682988  0.900511  1
  Ho  Ho3  1  0.000317  0.820981  0.598688  1
  Ho  Ho4  1  0.521177  0.317578  0.099783  1
  Ho  Ho5  1  0.996337  0.177083  0.400576  1
  Ho  Ho6  1  0.499636  0.316367  0.400177  1
  Ho  Ho7  1  0.506486  0.681943  0.599327  1
  Er  Er8  1  0.170054  0.507018  0.748987  1
  Er  Er9  1  0.829751  0.493004  0.254278  1
  Er  Er10  1  0.328713  0.007438  0.253607  1
  Er  Er11  1  0.671899  0.993011  0.746764  1
  Er  Er12  1  0.354323  0.165090  0.621470  1
  Er  Er13  1  0.646488  0.833053  0.378543  1
  Er  Er14  1  0.145450  0.666932  0.380265  1
  Er  Er15  1  0.672000  0.822052  0.122903  1
  Er  Er16  1  0.852217  0.333038  0.619543  1
  Er  Er17  1  0.328022  0.177952  0.876819  1
  Er  Er18  1  0.828152  0.321956  0.876893  1
  Er  Er19  1  0.171222  0.678493  0.122771  1
  Si  Si20  1  0.044340  0.109287  0.750786  1
  Si  Si21  1  0.956097  0.891075  0.248330  1
  Si  Si22  1  0.454852  0.609286  0.248773  1
  Si  Si23  1  0.544200  0.391489  0.750583  1
  Si  Si24  1  0.288831  0.869455  0.751975  1
  Si  Si25  1  0.712318  0.129427  0.247466  1
  Si  Si26  1  0.212061  0.371158  0.248087  1
  Si  Si27  1  0.788807  0.629523  0.751572  1
  Si  Si28  1  0.792898  0.534796  0.457313  1
  Si  Si29  1  0.299463  0.964170  0.458625  1
  Si  Si30  1  0.851089  0.529828  0.040576  1
  Si  Si31  1  0.699282  0.035802  0.541834  1
  Si  Si32  1  0.148352  0.471171  0.959027  1
  Si  Si33  1  0.647961  0.029885  0.959123  1
  Si  Si34  1  0.351518  0.970972  0.040954  1
  As  As35  1  0.206285  0.465833  0.543419  1
