# generated using pymatgen
data_Er20Os4PdAu7
_symmetry_space_group_name_H-M   'P 1'
_cell_length_a   11.15801818
_cell_length_b   11.15801860
_cell_length_c   6.35562200
_cell_angle_alpha   89.80117464
_cell_angle_beta   89.80117464
_cell_angle_gamma   90.84115760
_symmetry_Int_Tables_number   1
_chemical_formula_structural   Er20Os4PdAu7
_chemical_formula_sum   'Er20 Os4 Pd1 Au7'
_cell_volume   791.18873354
_cell_formula_units_Z   1
loop_
 _symmetry_equiv_pos_site_id
 _symmetry_equiv_pos_as_xyz
  1  'x, y, z'
loop_
 _atom_site_type_symbol
 _atom_site_label
 _atom_site_symmetry_multiplicity
 _atom_site_fract_x
 _atom_site_fract_y
 _atom_site_fract_z
 _atom_site_occupancy
  Er  Er0  1  0.301526  0.080482  0.353533  1
  Er  Er1  1  0.300021  0.913278  0.853229  1
  Er  Er2  1  0.697949  0.082251  0.851223  1
  Er  Er3  1  0.697988  0.916838  0.351163  1
  Er  Er4  1  0.579494  0.799279  0.851425  1
  Er  Er5  1  0.582611  0.198621  0.352571  1
  Er  Er6  1  0.414792  0.798775  0.355127  1
  Er  Er7  1  0.417309  0.196539  0.853678  1
  Er  Er8  1  0.200721  0.420506  0.648575  1
  Er  Er9  1  0.201225  0.585208  0.144873  1
  Er  Er10  1  0.801379  0.417389  0.147429  1
  Er  Er11  1  0.803461  0.582691  0.646322  1
  Er  Er12  1  0.919518  0.698474  0.146467  1
  Er  Er13  1  0.917749  0.302051  0.648777  1
  Er  Er14  1  0.086722  0.699979  0.646771  1
  Er  Er15  1  0.083162  0.302012  0.148837  1
  Er  Er16  1  0.998813  0.001060  0.500057  1
  Er  Er17  1  0.998940  0.001187  0.999943  1
  Er  Er18  1  0.496800  0.501011  0.999420  1
  Er  Er19  1  0.498989  0.503200  0.500580  1
  Os  Os20  1  0.499091  0.998467  0.104489  1
  Os  Os21  1  0.499299  0.998581  0.603503  1
  Os  Os22  1  0.001419  0.500701  0.896497  1
  Os  Os23  1  0.001533  0.500909  0.395511  1
  Pd  Pd24  1  0.347591  0.652409  0.750000  1
  Au  Au25  1  0.844731  0.155269  0.250000  1
  Au  Au26  1  0.843867  0.844598  0.750445  1
  Au  Au27  1  0.155402  0.156133  0.749555  1
  Au  Au28  1  0.153782  0.846218  0.250000  1
  Au  Au29  1  0.653718  0.346282  0.750000  1
  Au  Au30  1  0.655493  0.655095  0.246717  1
  Au  Au31  1  0.344905  0.344507  0.253283  1
