# generated using pymatgen
data_EuFeSb12Ru2Rh
_symmetry_space_group_name_H-M   'P 1'
_cell_length_a   8.10789056
_cell_length_b   8.11192806
_cell_length_c   8.09021418
_cell_angle_alpha   109.47236658
_cell_angle_beta   109.49009184
_cell_angle_gamma   109.55663465
_symmetry_Int_Tables_number   1
_chemical_formula_structural   EuFeSb12Ru2Rh
_chemical_formula_sum   'Eu1 Fe1 Sb12 Ru2 Rh1'
_cell_volume   409.07555122
_cell_formula_units_Z   1
loop_
 _symmetry_equiv_pos_site_id
 _symmetry_equiv_pos_as_xyz
  1  'x, y, z'
loop_
 _atom_site_type_symbol
 _atom_site_label
 _atom_site_symmetry_multiplicity
 _atom_site_fract_x
 _atom_site_fract_y
 _atom_site_fract_z
 _atom_site_occupancy
  Eu  Eu0  1  0.000000  0.000000  0.000000  1
  Fe  Fe1  1  0.000000  0.500000  0.000000  1
  Sb  Sb2  1  0.660486  0.841934  0.502284  1
  Sb  Sb3  1  0.339514  0.158066  0.497716  1
  Sb  Sb4  1  0.844655  0.184445  0.342269  1
  Sb  Sb5  1  0.822244  0.657499  0.155569  1
  Sb  Sb6  1  0.844151  0.501899  0.666493  1
  Sb  Sb7  1  0.177756  0.342501  0.844431  1
  Sb  Sb8  1  0.155345  0.815555  0.657731  1
  Sb  Sb9  1  0.502228  0.657780  0.842228  1
  Sb  Sb10  1  0.497772  0.342220  0.157772  1
  Sb  Sb11  1  0.155849  0.498101  0.333507  1
  Sb  Sb12  1  0.333301  0.835151  0.180501  1
  Sb  Sb13  1  0.666699  0.164849  0.819499  1
  Ru  Ru14  1  0.500000  0.500000  0.500000  1
  Ru  Ru15  1  0.000000  0.000000  0.500000  1
  Rh  Rh16  1  0.500000  0.000000  0.000000  1
