# generated using pymatgen
data_PrNd4(RuO6)2
_symmetry_space_group_name_H-M   'P 1'
_cell_length_a   7.08443639
_cell_length_b   7.08443612
_cell_length_c   7.69772315
_cell_angle_alpha   74.21337071
_cell_angle_beta   74.21337268
_cell_angle_gamma   50.07123034
_symmetry_Int_Tables_number   1
_chemical_formula_structural   PrNd4(RuO6)2
_chemical_formula_sum   'Pr1 Nd4 Ru2 O12'
_cell_volume   282.59321034
_cell_formula_units_Z   1
loop_
 _symmetry_equiv_pos_site_id
 _symmetry_equiv_pos_as_xyz
  1  'x, y, z'
loop_
 _atom_site_type_symbol
 _atom_site_label
 _atom_site_symmetry_multiplicity
 _atom_site_fract_x
 _atom_site_fract_y
 _atom_site_fract_z
 _atom_site_occupancy
  Pr  Pr0  1  0.000000  0.000000  0.500000  1
  Nd  Nd1  1  0.306153  0.306153  0.357883  1
  Nd  Nd2  1  0.693847  0.693847  0.642117  1
  Nd  Nd3  1  0.690706  0.690706  0.167774  1
  Nd  Nd4  1  0.309294  0.309294  0.832226  1
  Ru  Ru5  1  0.764428  0.235572  0.000000  1
  Ru  Ru6  1  0.235572  0.764428  0.000000  1
  O  O7  1  0.095865  0.593073  0.578027  1
  O  O8  1  0.999112  0.999112  0.185944  1
  O  O9  1  0.406927  0.904135  0.421973  1
  O  O10  1  0.499853  0.499853  0.173145  1
  O  O11  1  0.095624  0.584910  0.078927  1
  O  O12  1  0.904135  0.406927  0.421973  1
  O  O13  1  0.000888  0.000888  0.814056  1
  O  O14  1  0.593073  0.095864  0.578027  1
  O  O15  1  0.500147  0.500147  0.826855  1
  O  O16  1  0.584910  0.095624  0.078927  1
  O  O17  1  0.415090  0.904376  0.921073  1
  O  O18  1  0.904376  0.415090  0.921073  1
