# generated using pymatgen
data_Tb9Dy3(InSi2)2
_symmetry_space_group_name_H-M   'P 1'
_cell_length_a   8.56287457
_cell_length_b   8.56276401
_cell_length_c   8.56287470
_cell_angle_alpha   112.37678545
_cell_angle_beta   110.80383816
_cell_angle_gamma   105.31603431
_symmetry_Int_Tables_number   1
_chemical_formula_structural   Tb9Dy3(InSi2)2
_chemical_formula_sum   'Tb9 Dy3 In2 Si4'
_cell_volume   481.32636836
_cell_formula_units_Z   1
loop_
 _symmetry_equiv_pos_site_id
 _symmetry_equiv_pos_as_xyz
  1  'x, y, z'
loop_
 _atom_site_type_symbol
 _atom_site_label
 _atom_site_symmetry_multiplicity
 _atom_site_fract_x
 _atom_site_fract_y
 _atom_site_fract_z
 _atom_site_occupancy
  Tb  Tb0  1  0.442856  0.238550  0.204244  1
  Tb  Tb1  1  0.557189  0.761432  0.795814  1
  Tb  Tb2  1  0.034306  0.238550  0.795693  1
  Tb  Tb3  1  0.965619  0.761432  0.204244  1
  Tb  Tb4  1  0.186080  0.277942  0.464113  1
  Tb  Tb5  1  0.813952  0.722033  0.535946  1
  Tb  Tb6  1  0.186087  0.722033  0.908082  1
  Tb  Tb7  1  0.813829  0.277942  0.091862  1
  Tb  Tb8  1  0.319913  0.616666  0.296752  1
  Dy  Dy9  1  0.680087  0.383159  0.703072  1
  Dy  Dy10  1  0.319910  0.023012  0.703101  1
  Dy  Dy11  1  0.680105  0.977033  0.296929  1
  In  In12  1  0.500036  0.499988  0.999952  1
  In  In13  1  0.000014  0.000031  0.000017  1
  Si  Si14  1  0.369289  0.000109  0.369288  1
  Si  Si15  1  0.630821  0.000109  0.630819  1
  Si  Si16  1  0.115218  0.615284  0.500065  1
  Si  Si17  1  0.884687  0.384693  0.500005  1
