# generated using pymatgen
data_CaTb(Pr3In4)2
_symmetry_space_group_name_H-M   'P 1'
_cell_length_a   6.76633905
_cell_length_b   6.76633947
_cell_length_c   10.25406000
_cell_angle_alpha   90.00000000
_cell_angle_beta   90.00000000
_cell_angle_gamma   98.12428233
_symmetry_Int_Tables_number   1
_chemical_formula_structural   CaTb(Pr3In4)2
_chemical_formula_sum   'Ca1 Tb1 Pr6 In8'
_cell_volume   464.75356576
_cell_formula_units_Z   1
loop_
 _symmetry_equiv_pos_site_id
 _symmetry_equiv_pos_as_xyz
  1  'x, y, z'
loop_
 _atom_site_type_symbol
 _atom_site_label
 _atom_site_symmetry_multiplicity
 _atom_site_fract_x
 _atom_site_fract_y
 _atom_site_fract_z
 _atom_site_occupancy
  Ca  Ca0  1  0.974100  0.974100  0.250000  1
  Tb  Tb1  1  0.019675  0.019675  0.750000  1
  Pr  Pr2  1  0.539746  0.539746  0.250000  1
  Pr  Pr3  1  0.468162  0.468162  0.750000  1
  Pr  Pr4  1  0.245414  0.751884  0.499373  1
  Pr  Pr5  1  0.245414  0.751884  0.000627  1
  Pr  Pr6  1  0.751884  0.245414  0.499373  1
  Pr  Pr7  1  0.751884  0.245414  0.000627  1
  In  In8  1  0.250904  0.250904  0.020353  1
  In  In9  1  0.750737  0.750737  0.973048  1
  In  In10  1  0.250904  0.250904  0.479647  1
  In  In11  1  0.750737  0.750737  0.526952  1
  In  In12  1  0.475176  0.028668  0.250000  1
  In  In13  1  0.976271  0.520323  0.750000  1
  In  In14  1  0.520323  0.976271  0.750000  1
  In  In15  1  0.028668  0.475176  0.250000  1
