# generated using pymatgen
data_Ho2TmSn3RuPt2
_symmetry_space_group_name_H-M   'P 1'
_cell_length_a   7.71962700
_cell_length_b   7.70465102
_cell_length_c   3.72806100
_cell_angle_alpha   90.00000000
_cell_angle_beta   90.00000000
_cell_angle_gamma   120.06431558
_symmetry_Int_Tables_number   1
_chemical_formula_structural   Ho2TmSn3RuPt2
_chemical_formula_sum   'Ho2 Tm1 Sn3 Ru1 Pt2'
_cell_volume   191.90270870
_cell_formula_units_Z   1
loop_
 _symmetry_equiv_pos_site_id
 _symmetry_equiv_pos_as_xyz
  1  'x, y, z'
loop_
 _atom_site_type_symbol
 _atom_site_label
 _atom_site_symmetry_multiplicity
 _atom_site_fract_x
 _atom_site_fract_y
 _atom_site_fract_z
 _atom_site_occupancy
  Ho  Ho0  1  0.000117  0.400230  0.000000  1
  Ho  Ho1  1  0.599888  0.599770  0.000000  1
  Tm  Tm2  1  0.399592  0.000000  0.000000  1
  Sn  Sn3  1  0.001166  0.738295  0.500000  1
  Sn  Sn4  1  0.262872  0.261705  0.500000  1
  Sn  Sn5  1  0.737329  0.000000  0.500000  1
  Ru  Ru6  1  0.000357  0.000000  0.000000  1
  Pt  Pt7  1  0.333852  0.669026  0.500000  1
  Pt  Pt8  1  0.664827  0.330974  0.500000  1
