# generated using pymatgen
data_TiMn(Be4Rh)2
_symmetry_space_group_name_H-M   'P 1'
_cell_length_a   4.36763000
_cell_length_b   4.36763004
_cell_length_c   7.15811400
_cell_angle_alpha   90.00000000
_cell_angle_beta   90.00000000
_cell_angle_gamma   120.00001487
_symmetry_Int_Tables_number   1
_chemical_formula_structural   TiMn(Be4Rh)2
_chemical_formula_sum   'Ti1 Mn1 Be8 Rh2'
_cell_volume   118.25536742
_cell_formula_units_Z   1
loop_
 _symmetry_equiv_pos_site_id
 _symmetry_equiv_pos_as_xyz
  1  'x, y, z'
loop_
 _atom_site_type_symbol
 _atom_site_label
 _atom_site_symmetry_multiplicity
 _atom_site_fract_x
 _atom_site_fract_y
 _atom_site_fract_z
 _atom_site_occupancy
  Ti  Ti0  1  0.666667  0.333333  0.939447  1
  Mn  Mn1  1  0.333333  0.666667  0.436498  1
  Be  Be2  1  0.000000  0.000000  0.002117  1
  Be  Be3  1  0.000000  0.000000  0.497600  1
  Be  Be4  1  0.831468  0.662935  0.254590  1
  Be  Be5  1  0.168358  0.831642  0.744209  1
  Be  Be6  1  0.663283  0.831642  0.744209  1
  Be  Be7  1  0.337065  0.168532  0.254590  1
  Be  Be8  1  0.831468  0.168532  0.254590  1
  Be  Be9  1  0.168358  0.336717  0.744209  1
  Rh  Rh10  1  0.333333  0.666667  0.057471  1
  Rh  Rh11  1  0.666667  0.333333  0.570472  1
