# generated using pymatgen
data_CeAlZnSi
_symmetry_space_group_name_H-M   'P 1'
_cell_length_a   9.16757434
_cell_length_b   9.16757450
_cell_length_c   4.15923700
_cell_angle_alpha   90.00000000
_cell_angle_beta   90.00000000
_cell_angle_gamma   153.38882028
_symmetry_Int_Tables_number   1
_chemical_formula_structural   CeAlZnSi
_chemical_formula_sum   'Ce2 Al2 Zn2 Si2'
_cell_volume   156.57994908
_cell_formula_units_Z   2
loop_
 _symmetry_equiv_pos_site_id
 _symmetry_equiv_pos_as_xyz
  1  'x, y, z'
loop_
 _atom_site_type_symbol
 _atom_site_label
 _atom_site_symmetry_multiplicity
 _atom_site_fract_x
 _atom_site_fract_y
 _atom_site_fract_z
 _atom_site_occupancy
  Ce  Ce0  1  0.904322  0.095678  0.750000  1
  Ce  Ce1  1  0.095678  0.904322  0.250000  1
  Al  Al2  1  0.249428  0.750572  0.750000  1
  Al  Al3  1  0.750572  0.249428  0.250000  1
  Zn  Zn4  1  0.666505  0.333495  0.750000  1
  Zn  Zn5  1  0.333495  0.666505  0.250000  1
  Si  Si6  1  0.532290  0.467710  0.750000  1
  Si  Si7  1  0.467710  0.532290  0.250000  1
