# generated using pymatgen
data_YbTh(CuAs2)2
_symmetry_space_group_name_H-M   'P 1'
_cell_length_a   3.99288900
_cell_length_b   3.99288900
_cell_length_c   10.02874700
_cell_angle_alpha   90.00000000
_cell_angle_beta   90.00000000
_cell_angle_gamma   90.00000000
_symmetry_Int_Tables_number   1
_chemical_formula_structural   YbTh(CuAs2)2
_chemical_formula_sum   'Yb1 Th1 Cu2 As4'
_cell_volume   159.88994376
_cell_formula_units_Z   1
loop_
 _symmetry_equiv_pos_site_id
 _symmetry_equiv_pos_as_xyz
  1  'x, y, z'
loop_
 _atom_site_type_symbol
 _atom_site_label
 _atom_site_symmetry_multiplicity
 _atom_site_fract_x
 _atom_site_fract_y
 _atom_site_fract_z
 _atom_site_occupancy
  Yb  Yb0  1  0.000000  0.500000  0.755497  1
  Th  Th1  1  0.500000  0.000000  0.238096  1
  Cu  Cu2  1  0.000000  0.000000  0.505379  1
  Cu  Cu3  1  0.500000  0.500000  0.505379  1
  As  As4  1  0.000000  0.000000  0.999788  1
  As  As5  1  0.500000  0.500000  0.999788  1
  As  As6  1  0.000000  0.500000  0.345224  1
  As  As7  1  0.500000  0.000000  0.650848  1
