# generated using pymatgen
data_Y6B14MoOs
_symmetry_space_group_name_H-M   'P 1'
_cell_length_a   8.12172200
_cell_length_b   8.12172304
_cell_length_c   9.41355100
_cell_angle_alpha   90.00000000
_cell_angle_beta   90.00000000
_cell_angle_gamma   155.02655876
_symmetry_Int_Tables_number   1
_chemical_formula_structural   Y6B14MoOs
_chemical_formula_sum   'Y6 B14 Mo1 Os1'
_cell_volume   262.15977675
_cell_formula_units_Z   1
loop_
 _symmetry_equiv_pos_site_id
 _symmetry_equiv_pos_as_xyz
  1  'x, y, z'
loop_
 _atom_site_type_symbol
 _atom_site_label
 _atom_site_symmetry_multiplicity
 _atom_site_fract_x
 _atom_site_fract_y
 _atom_site_fract_z
 _atom_site_occupancy
  Y  Y0  1  0.256404  0.743596  0.250000  1
  Y  Y1  1  0.744670  0.255330  0.750000  1
  Y  Y2  1  0.605901  0.394099  0.061905  1
  Y  Y3  1  0.393196  0.606804  0.940907  1
  Y  Y4  1  0.393196  0.606804  0.559093  1
  Y  Y5  1  0.605901  0.394099  0.438095  1
  B  B6  1  0.978896  0.021104  0.096958  1
  B  B7  1  0.019537  0.980463  0.908279  1
  B  B8  1  0.019537  0.980463  0.591721  1
  B  B9  1  0.978896  0.021104  0.403042  1
  B  B10  1  0.773476  0.226524  0.035213  1
  B  B11  1  0.227980  0.772020  0.967748  1
  B  B12  1  0.227980  0.772020  0.532252  1
  B  B13  1  0.773476  0.226524  0.464787  1
  B  B14  1  0.868524  0.131476  0.151298  1
  B  B15  1  0.134402  0.865598  0.852388  1
  B  B16  1  0.134402  0.865598  0.647612  1
  B  B17  1  0.868524  0.131476  0.348702  1
  B  B18  1  0.041756  0.958244  0.250000  1
  B  B19  1  0.954887  0.045113  0.750000  1
  Mo  Mo20  1  0.552642  0.447358  0.750000  1
  Os  Os21  1  0.445818  0.554182  0.250000  1
