# generated using pymatgen
data_K4LiAgAs2
_symmetry_space_group_name_H-M   'P 1'
_cell_length_a   6.50493838
_cell_length_b   6.50493954
_cell_length_c   5.99970391
_cell_angle_alpha   89.69828955
_cell_angle_beta   89.69828881
_cell_angle_gamma   102.64366183
_symmetry_Int_Tables_number   1
_chemical_formula_structural   K4LiAgAs2
_chemical_formula_sum   'K4 Li1 Ag1 As2'
_cell_volume   247.70770788
_cell_formula_units_Z   1
loop_
 _symmetry_equiv_pos_site_id
 _symmetry_equiv_pos_as_xyz
  1  'x, y, z'
loop_
 _atom_site_type_symbol
 _atom_site_label
 _atom_site_symmetry_multiplicity
 _atom_site_fract_x
 _atom_site_fract_y
 _atom_site_fract_z
 _atom_site_occupancy
  K  K0  1  0.029478  0.689513  0.244201  1
  K  K1  1  0.970522  0.310487  0.755799  1
  K  K2  1  0.689513  0.029478  0.244201  1
  K  K3  1  0.310487  0.970522  0.755799  1
  Li  Li4  1  0.500000  0.500000  0.500000  1
  Ag  Ag5  1  0.500000  0.500000  0.000000  1
  As  As6  1  0.752112  0.752112  0.742667  1
  As  As7  1  0.247888  0.247888  0.257333  1
