# generated using pymatgen
data_Sm3NiIr8
_symmetry_space_group_name_H-M   'P 1'
_cell_length_a   9.22831104
_cell_length_b   9.22831050
_cell_length_c   9.22831130
_cell_angle_alpha   33.79812311
_cell_angle_beta   33.79812983
_cell_angle_gamma   33.79812456
_symmetry_Int_Tables_number   1
_chemical_formula_structural   Sm3NiIr8
_chemical_formula_sum   'Sm3 Ni1 Ir8'
_cell_volume   216.69603948
_cell_formula_units_Z   1
loop_
 _symmetry_equiv_pos_site_id
 _symmetry_equiv_pos_as_xyz
  1  'x, y, z'
loop_
 _atom_site_type_symbol
 _atom_site_label
 _atom_site_symmetry_multiplicity
 _atom_site_fract_x
 _atom_site_fract_y
 _atom_site_fract_z
 _atom_site_occupancy
  Sm  Sm0  1  0.859708  0.859708  0.859708  1
  Sm  Sm1  1  0.139248  0.139248  0.139248  1
  Sm  Sm2  1  0.000014  0.000014  0.000014  1
  Ni  Ni3  1  0.332820  0.332820  0.332820  1
  Ir  Ir4  1  0.418029  0.922228  0.418029  1
  Ir  Ir5  1  0.418029  0.418029  0.922228  1
  Ir  Ir6  1  0.922228  0.418029  0.418029  1
  Ir  Ir7  1  0.577858  0.085658  0.577858  1
  Ir  Ir8  1  0.577858  0.577858  0.085658  1
  Ir  Ir9  1  0.085658  0.577858  0.577858  1
  Ir  Ir10  1  0.667662  0.667662  0.667662  1
  Ir  Ir11  1  0.500887  0.500887  0.500887  1
