# generated using pymatgen
data_Tm6Tc5Ni13P12
_symmetry_space_group_name_H-M   'P 1'
_cell_length_a   3.84926400
_cell_length_b   10.48508936
_cell_length_c   12.44217286
_cell_angle_alpha   89.40605270
_cell_angle_beta   90.00000000
_cell_angle_gamma   90.00000000
_symmetry_Int_Tables_number   1
_chemical_formula_structural   Tm6Tc5Ni13P12
_chemical_formula_sum   'Tm6 Tc5 Ni13 P12'
_cell_volume   502.13758482
_cell_formula_units_Z   1
loop_
 _symmetry_equiv_pos_site_id
 _symmetry_equiv_pos_as_xyz
  1  'x, y, z'
loop_
 _atom_site_type_symbol
 _atom_site_label
 _atom_site_symmetry_multiplicity
 _atom_site_fract_x
 _atom_site_fract_y
 _atom_site_fract_z
 _atom_site_occupancy
  Tm  Tm0  1  0.000000  0.500084  0.522726  1
  Tm  Tm1  1  0.500000  0.000121  0.476103  1
  Tm  Tm2  1  0.500000  0.819671  0.213983  1
  Tm  Tm3  1  0.500000  0.180323  0.213239  1
  Tm  Tm4  1  0.000000  0.681212  0.786904  1
  Tm  Tm5  1  0.000000  0.318153  0.789312  1
  Tc  Tc6  1  0.500000  0.514171  0.158874  1
  Tc  Tc7  1  0.000000  0.992531  0.838836  1
  Tc  Tc8  1  0.000000  0.513450  0.986500  1
  Tc  Tc9  1  0.500000  0.997888  0.015200  1
  Tc  Tc10  1  0.500000  0.323188  0.993586  1
  Ni  Ni11  1  0.500000  0.499221  0.697035  1
  Ni  Ni12  1  0.000000  0.000413  0.302948  1
  Ni  Ni13  1  0.500000  0.680927  0.981983  1
  Ni  Ni14  1  0.000000  0.162539  0.019064  1
  Ni  Ni15  1  0.000000  0.824078  0.017459  1
  Ni  Ni16  1  0.500000  0.303622  0.428198  1
  Ni  Ni17  1  0.500000  0.697533  0.429559  1
  Ni  Ni18  1  0.000000  0.196919  0.569590  1
  Ni  Ni19  1  0.000000  0.802690  0.571045  1
  Ni  Ni20  1  0.500000  0.878830  0.701379  1
  Ni  Ni21  1  0.500000  0.119092  0.702687  1
  Ni  Ni22  1  0.000000  0.620678  0.300959  1
  Ni  Ni23  1  0.000000  0.378001  0.289863  1
  P  P24  1  0.500000  0.500697  0.872348  1
  P  P25  1  0.000000  0.995772  0.128697  1
  P  P26  1  0.500000  0.500568  0.350141  1
  P  P27  1  0.000000  0.998570  0.647848  1
  P  P28  1  0.500000  0.313479  0.612828  1
  P  P29  1  0.500000  0.685233  0.611851  1
  P  P30  1  0.000000  0.187008  0.386996  1
  P  P31  1  0.000000  0.814427  0.389252  1
  P  P32  1  0.500000  0.850398  0.879949  1
  P  P33  1  0.500000  0.148478  0.879276  1
  P  P34  1  0.000000  0.654537  0.123661  1
  P  P35  1  0.000000  0.345498  0.110122  1
