# generated using pymatgen
data_NaUCo12SiP6
_symmetry_space_group_name_H-M   'P 1'
_cell_length_a   9.01631300
_cell_length_b   9.01631219
_cell_length_c   3.55850600
_cell_angle_alpha   90.00000000
_cell_angle_beta   90.00000000
_cell_angle_gamma   120.00000519
_symmetry_Int_Tables_number   1
_chemical_formula_structural   NaUCo12SiP6
_chemical_formula_sum   'Na1 U1 Co12 Si1 P6'
_cell_volume   250.52797735
_cell_formula_units_Z   1
loop_
 _symmetry_equiv_pos_site_id
 _symmetry_equiv_pos_as_xyz
  1  'x, y, z'
loop_
 _atom_site_type_symbol
 _atom_site_label
 _atom_site_symmetry_multiplicity
 _atom_site_fract_x
 _atom_site_fract_y
 _atom_site_fract_z
 _atom_site_occupancy
  Na  Na0  1  0.000000  0.000000  0.000000  1
  U  U1  1  0.333333  0.666667  0.500000  1
  Co  Co2  1  0.108640  0.403839  0.000000  1
  Co  Co3  1  0.596161  0.704802  0.000000  1
  Co  Co4  1  0.295198  0.891360  0.000000  1
  Co  Co5  1  0.053328  0.769558  0.500000  1
  Co  Co6  1  0.230442  0.283770  0.500000  1
  Co  Co7  1  0.716230  0.946672  0.500000  1
  Co  Co8  1  0.820390  0.616664  0.000000  1
  Co  Co9  1  0.383336  0.203726  0.000000  1
  Co  Co10  1  0.796274  0.179610  0.000000  1
  Co  Co11  1  0.900822  0.434719  0.500000  1
  Co  Co12  1  0.565281  0.466103  0.500000  1
  Co  Co13  1  0.533897  0.099178  0.500000  1
  Si  Si14  1  0.666667  0.333333  0.000000  1
  P  P15  1  0.781123  0.739653  0.500000  1
  P  P16  1  0.260347  0.041469  0.500000  1
  P  P17  1  0.958531  0.218877  0.500000  1
  P  P18  1  0.064048  0.624953  0.000000  1
  P  P19  1  0.375047  0.439094  0.000000  1
  P  P20  1  0.560906  0.935952  0.000000  1
