# generated using pymatgen
data_K2As2PdPt
_symmetry_space_group_name_H-M   'P 1'
_cell_length_a   6.80686800
_cell_length_b   6.81184728
_cell_length_c   6.78184919
_cell_angle_alpha   89.47977970
_cell_angle_beta   90.00000000
_cell_angle_gamma   90.00000000
_symmetry_Int_Tables_number   1
_chemical_formula_structural   K2As2PdPt
_chemical_formula_sum   'K4 As4 Pd2 Pt2'
_cell_volume   314.44338110
_cell_formula_units_Z   2
loop_
 _symmetry_equiv_pos_site_id
 _symmetry_equiv_pos_as_xyz
  1  'x, y, z'
loop_
 _atom_site_type_symbol
 _atom_site_label
 _atom_site_symmetry_multiplicity
 _atom_site_fract_x
 _atom_site_fract_y
 _atom_site_fract_z
 _atom_site_occupancy
  K  K0  1  0.624034  0.377263  0.874077  1
  K  K1  1  0.374351  0.872647  0.624936  1
  K  K2  1  0.124034  0.122737  0.125923  1
  K  K3  1  0.874351  0.627353  0.375064  1
  As  As4  1  0.158462  0.339281  0.656724  1
  As  As5  1  0.658462  0.160719  0.343276  1
  As  As6  1  0.344608  0.654451  0.158843  1
  As  As7  1  0.844608  0.845549  0.841157  1
  Pd  Pd8  1  0.601983  0.899062  0.103164  1
  Pd  Pd9  1  0.101983  0.600938  0.896836  1
  Pt  Pt10  1  0.396562  0.394933  0.397896  1
  Pt  Pt11  1  0.896562  0.105067  0.602104  1
