# generated using pymatgen
data_Hf7ScTa2(Si3N)2
_symmetry_space_group_name_H-M   'P 1'
_cell_length_a   7.79085425
_cell_length_b   7.77754256
_cell_length_c   5.48391289
_cell_angle_alpha   90.03259385
_cell_angle_beta   89.93492368
_cell_angle_gamma   120.05663824
_symmetry_Int_Tables_number   1
_chemical_formula_structural   Hf7ScTa2(Si3N)2
_chemical_formula_sum   'Hf7 Sc1 Ta2 Si6 N2'
_cell_volume   287.60751478
_cell_formula_units_Z   1
loop_
 _symmetry_equiv_pos_site_id
 _symmetry_equiv_pos_as_xyz
  1  'x, y, z'
loop_
 _atom_site_type_symbol
 _atom_site_label
 _atom_site_symmetry_multiplicity
 _atom_site_fract_x
 _atom_site_fract_y
 _atom_site_fract_z
 _atom_site_occupancy
  Hf  Hf0  1  0.762657  0.000000  0.250332  1
  Hf  Hf1  1  0.000355  0.234131  0.750047  1
  Hf  Hf2  1  0.000067  0.765144  0.250318  1
  Hf  Hf3  1  0.766224  0.765869  0.750047  1
  Hf  Hf4  1  0.234923  0.234856  0.250318  1
  Hf  Hf5  1  0.333617  0.666128  0.500146  1
  Hf  Hf6  1  0.667489  0.333872  0.500146  1
  Sc  Sc7  1  0.235675  0.000000  0.750003  1
  Ta  Ta8  1  0.667832  0.334171  0.000017  1
  Ta  Ta9  1  0.333660  0.665829  0.000017  1
  Si  Si10  1  0.592873  0.000000  0.761016  1
  Si  Si11  1  0.406858  0.000000  0.238390  1
  Si  Si12  1  0.001085  0.592834  0.760886  1
  Si  Si13  1  0.999855  0.406933  0.239365  1
  Si  Si14  1  0.408251  0.407166  0.760886  1
  Si  Si15  1  0.592922  0.593067  0.239365  1
  N  N16  1  0.997450  0.000000  0.497546  1
  N  N17  1  0.998205  0.000000  0.001158  1
