# generated using pymatgen
data_Er5Tm5(SiSn3)2
_symmetry_space_group_name_H-M   'P 1'
_cell_length_a   9.11904202
_cell_length_b   9.11794748
_cell_length_c   6.37699100
_cell_angle_alpha   90.00000000
_cell_angle_beta   90.00000000
_cell_angle_gamma   119.99602468
_symmetry_Int_Tables_number   1
_chemical_formula_structural   Er5Tm5(SiSn3)2
_chemical_formula_sum   'Er5 Tm5 Si2 Sn6'
_cell_volume   459.20872881
_cell_formula_units_Z   1
loop_
 _symmetry_equiv_pos_site_id
 _symmetry_equiv_pos_as_xyz
  1  'x, y, z'
loop_
 _atom_site_type_symbol
 _atom_site_label
 _atom_site_symmetry_multiplicity
 _atom_site_fract_x
 _atom_site_fract_y
 _atom_site_fract_z
 _atom_site_occupancy
  Er  Er0  1  0.747148  0.747145  0.750000  1
  Er  Er1  1  0.252852  0.999997  0.750000  1
  Er  Er2  1  0.000000  0.252862  0.750000  1
  Er  Er3  1  0.252852  0.252836  0.250000  1
  Er  Er4  1  0.747148  0.999984  0.250000  1
  Tm  Tm5  1  0.666682  0.333362  0.000008  1
  Tm  Tm6  1  0.333318  0.666681  0.000008  1
  Tm  Tm7  1  0.333318  0.666681  0.499992  1
  Tm  Tm8  1  0.666682  0.333362  0.499992  1
  Tm  Tm9  1  0.000000  0.747222  0.250000  1
  Si  Si10  1  0.000000  0.999897  0.000124  1
  Si  Si11  1  0.000000  0.999897  0.499876  1
  Sn  Sn12  1  0.392714  0.392716  0.750000  1
  Sn  Sn13  1  0.607286  0.000002  0.750000  1
  Sn  Sn14  1  0.000000  0.607280  0.750000  1
  Sn  Sn15  1  0.607392  0.607329  0.250000  1
  Sn  Sn16  1  0.392608  0.999937  0.250000  1
  Sn  Sn17  1  0.000000  0.392808  0.250000  1
