# generated using pymatgen
data_Tm6MnCo(P3Rh4)4
_symmetry_space_group_name_H-M   'P 1'
_cell_length_a   3.86374300
_cell_length_b   11.17309900
_cell_length_c   12.64626200
_cell_angle_alpha   90.00000000
_cell_angle_beta   90.00000000
_cell_angle_gamma   90.00000000
_symmetry_Int_Tables_number   1
_chemical_formula_structural   Tm6MnCo(P3Rh4)4
_chemical_formula_sum   'Tm6 Mn1 Co1 P12 Rh16'
_cell_volume   545.93891618
_cell_formula_units_Z   1
loop_
 _symmetry_equiv_pos_site_id
 _symmetry_equiv_pos_as_xyz
  1  'x, y, z'
loop_
 _atom_site_type_symbol
 _atom_site_label
 _atom_site_symmetry_multiplicity
 _atom_site_fract_x
 _atom_site_fract_y
 _atom_site_fract_z
 _atom_site_occupancy
  Tm  Tm0  1  0.000000  0.500000  0.521357  1
  Tm  Tm1  1  0.500000  0.000000  0.478745  1
  Tm  Tm2  1  0.500000  0.816990  0.202589  1
  Tm  Tm3  1  0.500000  0.183010  0.202589  1
  Tm  Tm4  1  0.000000  0.681126  0.799218  1
  Tm  Tm5  1  0.000000  0.318874  0.799218  1
  Mn  Mn6  1  0.000000  0.500000  0.989971  1
  Co  Co7  1  0.500000  0.000000  0.022699  1
  P  P8  1  0.500000  0.500000  0.884170  1
  P  P9  1  0.000000  0.000000  0.120897  1
  P  P10  1  0.500000  0.500000  0.349238  1
  P  P11  1  0.000000  0.000000  0.647089  1
  P  P12  1  0.500000  0.315738  0.620876  1
  P  P13  1  0.500000  0.684262  0.620876  1
  P  P14  1  0.000000  0.185168  0.379877  1
  P  P15  1  0.000000  0.814832  0.379877  1
  P  P16  1  0.500000  0.854561  0.895290  1
  P  P17  1  0.500000  0.145439  0.895290  1
  P  P18  1  0.000000  0.652090  0.102726  1
  P  P19  1  0.000000  0.347910  0.102726  1
  Rh  Rh20  1  0.500000  0.500000  0.159789  1
  Rh  Rh21  1  0.000000  0.000000  0.832007  1
  Rh  Rh22  1  0.500000  0.500000  0.701593  1
  Rh  Rh23  1  0.000000  0.000000  0.299664  1
  Rh  Rh24  1  0.500000  0.331399  0.990863  1
  Rh  Rh25  1  0.500000  0.668601  0.990863  1
  Rh  Rh26  1  0.000000  0.161070  0.007446  1
  Rh  Rh27  1  0.000000  0.838930  0.007446  1
  Rh  Rh28  1  0.500000  0.296268  0.430171  1
  Rh  Rh29  1  0.500000  0.703732  0.430171  1
  Rh  Rh30  1  0.000000  0.205917  0.569057  1
  Rh  Rh31  1  0.000000  0.794083  0.569057  1
  Rh  Rh32  1  0.500000  0.871808  0.712339  1
  Rh  Rh33  1  0.500000  0.128192  0.712339  1
  Rh  Rh34  1  0.000000  0.627471  0.285938  1
  Rh  Rh35  1  0.000000  0.372529  0.285938  1
