# generated using pymatgen
data_Na3Yb(USe3)2
_symmetry_space_group_name_H-M   'P 1'
_cell_length_a   7.26058090
_cell_length_b   7.26058077
_cell_length_c   7.39669365
_cell_angle_alpha   80.52227891
_cell_angle_beta   80.52228447
_cell_angle_gamma   119.97739606
_symmetry_Int_Tables_number   1
_chemical_formula_structural   Na3Yb(USe3)2
_chemical_formula_sum   'Na3 Yb1 U2 Se6'
_cell_volume   318.93270763
_cell_formula_units_Z   1
loop_
 _symmetry_equiv_pos_site_id
 _symmetry_equiv_pos_as_xyz
  1  'x, y, z'
loop_
 _atom_site_type_symbol
 _atom_site_label
 _atom_site_symmetry_multiplicity
 _atom_site_fract_x
 _atom_site_fract_y
 _atom_site_fract_z
 _atom_site_occupancy
  Na  Na0  1  0.661671  0.338329  0.500000  1
  Na  Na1  1  0.338329  0.661671  0.500000  1
  Na  Na2  1  0.000000  0.000000  0.500000  1
  Yb  Yb3  1  0.500000  0.500000  0.000000  1
  U  U4  1  0.832811  0.167189  0.000000  1
  U  U5  1  0.167189  0.832811  0.000000  1
  Se  Se6  1  0.763789  0.763789  0.231034  1
  Se  Se7  1  0.236211  0.236211  0.768966  1
  Se  Se8  1  0.422320  0.081296  0.230663  1
  Se  Se9  1  0.577680  0.918704  0.769337  1
  Se  Se10  1  0.918704  0.577680  0.769337  1
  Se  Se11  1  0.081296  0.422320  0.230663  1
