# generated using pymatgen
data_BeGa2(Ni10B3)2
_symmetry_space_group_name_H-M   'P 1'
_cell_length_a   7.38508369
_cell_length_b   7.38508410
_cell_length_c   7.38508400
_cell_angle_alpha   60.00000045
_cell_angle_beta   59.99999863
_cell_angle_gamma   60.00000090
_symmetry_Int_Tables_number   1
_chemical_formula_structural   BeGa2(Ni10B3)2
_chemical_formula_sum   'Be1 Ga2 Ni20 B6'
_cell_volume   284.80742574
_cell_formula_units_Z   1
loop_
 _symmetry_equiv_pos_site_id
 _symmetry_equiv_pos_as_xyz
  1  'x, y, z'
loop_
 _atom_site_type_symbol
 _atom_site_label
 _atom_site_symmetry_multiplicity
 _atom_site_fract_x
 _atom_site_fract_y
 _atom_site_fract_z
 _atom_site_occupancy
  Be  Be0  1  0.000000  0.000000  0.000000  1
  Ga  Ga1  1  0.250000  0.250000  0.250000  1
  Ga  Ga2  1  0.750000  0.750000  0.750000  1
  Ni  Ni3  1  0.334162  0.000000  0.000000  1
  Ni  Ni4  1  0.000000  0.334162  0.665838  1
  Ni  Ni5  1  0.665838  0.000000  0.000000  1
  Ni  Ni6  1  0.000000  0.665838  0.334162  1
  Ni  Ni7  1  0.000000  0.334162  0.000000  1
  Ni  Ni8  1  0.000000  0.000000  0.334162  1
  Ni  Ni9  1  0.334162  0.000000  0.665838  1
  Ni  Ni10  1  0.334162  0.665838  0.000000  1
  Ni  Ni11  1  0.665838  0.000000  0.334162  1
  Ni  Ni12  1  0.000000  0.000000  0.665838  1
  Ni  Ni13  1  0.000000  0.665838  0.000000  1
  Ni  Ni14  1  0.665838  0.334162  0.000000  1
  Ni  Ni15  1  0.382427  0.382427  0.382427  1
  Ni  Ni16  1  0.382427  0.382427  0.852717  1
  Ni  Ni17  1  0.852717  0.382427  0.382427  1
  Ni  Ni18  1  0.382427  0.852717  0.382427  1
  Ni  Ni19  1  0.617573  0.617573  0.617573  1
  Ni  Ni20  1  0.617573  0.617573  0.147283  1
  Ni  Ni21  1  0.617573  0.147283  0.617573  1
  Ni  Ni22  1  0.147283  0.617573  0.617573  1
  B  B23  1  0.725808  0.725808  0.274192  1
  B  B24  1  0.274192  0.274192  0.725808  1
  B  B25  1  0.274192  0.725808  0.725808  1
  B  B26  1  0.725808  0.274192  0.725808  1
  B  B27  1  0.725808  0.274192  0.274192  1
  B  B28  1  0.274192  0.725808  0.274192  1
