# generated using pymatgen
data_Y2ErPaPt4
_symmetry_space_group_name_H-M   'P 1'
_cell_length_a   4.55550800
_cell_length_b   5.59722076
_cell_length_c   6.99712057
_cell_angle_alpha   89.07113332
_cell_angle_beta   90.00000000
_cell_angle_gamma   90.00000000
_symmetry_Int_Tables_number   1
_chemical_formula_structural   Y2ErPaPt4
_chemical_formula_sum   'Y2 Er1 Pa1 Pt4'
_cell_volume   178.39042241
_cell_formula_units_Z   1
loop_
 _symmetry_equiv_pos_site_id
 _symmetry_equiv_pos_as_xyz
  1  'x, y, z'
loop_
 _atom_site_type_symbol
 _atom_site_label
 _atom_site_symmetry_multiplicity
 _atom_site_fract_x
 _atom_site_fract_y
 _atom_site_fract_z
 _atom_site_occupancy
  Y  Y0  1  0.750000  0.354007  0.814480  1
  Y  Y1  1  0.250000  0.857611  0.684491  1
  Er  Er2  1  0.750000  0.145616  0.320038  1
  Pa  Pa3  1  0.250000  0.644519  0.182548  1
  Pt  Pt4  1  0.250000  0.160148  0.056355  1
  Pt  Pt5  1  0.750000  0.832220  0.967713  1
  Pt  Pt6  1  0.750000  0.657915  0.442262  1
  Pt  Pt7  1  0.250000  0.347964  0.532115  1
