# generated using pymatgen
data_Na3TiVN4
_symmetry_space_group_name_H-M   'P 1'
_cell_length_a   6.81109626
_cell_length_b   8.90463946
_cell_length_c   5.74539207
_cell_angle_alpha   90.00000058
_cell_angle_beta   92.02150753
_cell_angle_gamma   130.82011914
_symmetry_Int_Tables_number   1
_chemical_formula_structural   Na3TiVN4
_chemical_formula_sum   'Na6 Ti2 V2 N8'
_cell_volume   263.41595585
_cell_formula_units_Z   2
loop_
 _symmetry_equiv_pos_site_id
 _symmetry_equiv_pos_as_xyz
  1  'x, y, z'
loop_
 _atom_site_type_symbol
 _atom_site_label
 _atom_site_symmetry_multiplicity
 _atom_site_fract_x
 _atom_site_fract_y
 _atom_site_fract_z
 _atom_site_occupancy
  Na  Na0  1  0.216885  0.935849  0.058122  1
  Na  Na1  1  0.783115  0.718963  0.441878  1
  Na  Na2  1  0.787042  0.070071  0.958669  1
  Na  Na3  1  0.212958  0.283029  0.541331  1
  Na  Na4  1  0.000000  0.599106  0.750000  1
  Na  Na5  1  0.000000  0.410969  0.250000  1
  Ti  Ti6  1  0.555580  0.167102  0.577484  1
  Ti  Ti7  1  0.444420  0.611521  0.922516  1
  V  V8  1  0.441506  0.831342  0.422877  1
  V  V9  1  0.558494  0.389837  0.077123  1
  N  N10  1  0.247876  0.897599  0.503741  1
  N  N11  1  0.752124  0.649723  0.996259  1
  N  N12  1  0.744608  0.082959  0.488766  1
  N  N13  1  0.255392  0.338353  0.011234  1
  N  N14  1  0.621720  0.256088  0.900114  1
  N  N15  1  0.378280  0.634367  0.599886  1
  N  N16  1  0.387141  0.755131  0.114604  1
  N  N17  1  0.612859  0.367990  0.385396  1
