# generated using pymatgen
data_YbCeSiIr3
_symmetry_space_group_name_H-M   'P 1'
_cell_length_a   5.07920921
_cell_length_b   5.07920885
_cell_length_c   5.07920955
_cell_angle_alpha   66.48203681
_cell_angle_beta   66.48204259
_cell_angle_gamma   66.48203210
_symmetry_Int_Tables_number   1
_chemical_formula_structural   YbCeSiIr3
_chemical_formula_sum   'Yb1 Ce1 Si1 Ir3'
_cell_volume   105.59419190
_cell_formula_units_Z   1
loop_
 _symmetry_equiv_pos_site_id
 _symmetry_equiv_pos_as_xyz
  1  'x, y, z'
loop_
 _atom_site_type_symbol
 _atom_site_label
 _atom_site_symmetry_multiplicity
 _atom_site_fract_x
 _atom_site_fract_y
 _atom_site_fract_z
 _atom_site_occupancy
  Yb  Yb0  1  0.375685  0.375685  0.375685  1
  Ce  Ce1  1  0.628169  0.628169  0.628169  1
  Si  Si2  1  0.996919  0.996919  0.996919  1
  Ir  Ir3  1  0.495976  0.001625  0.001625  1
  Ir  Ir4  1  0.001625  0.495976  0.001625  1
  Ir  Ir5  1  0.001625  0.001625  0.495974  1
