# generated using pymatgen
data_La2DyY3(IrO7)2
_symmetry_space_group_name_H-M   'P 1'
_cell_length_a   6.50140076
_cell_length_b   6.50806288
_cell_length_c   7.53626501
_cell_angle_alpha   89.99696876
_cell_angle_beta   89.99716046
_cell_angle_gamma   109.74898523
_symmetry_Int_Tables_number   1
_chemical_formula_structural   La2DyY3(IrO7)2
_chemical_formula_sum   'La2 Dy1 Y3 Ir2 O14'
_cell_volume   300.11551720
_cell_formula_units_Z   1
loop_
 _symmetry_equiv_pos_site_id
 _symmetry_equiv_pos_as_xyz
  1  'x, y, z'
loop_
 _atom_site_type_symbol
 _atom_site_label
 _atom_site_symmetry_multiplicity
 _atom_site_fract_x
 _atom_site_fract_y
 _atom_site_fract_z
 _atom_site_occupancy
  La  La0  1  0.000048  0.000001  0.499817  1
  La  La1  1  0.000049  0.000004  0.000183  1
  Dy  Dy2  1  0.064792  0.516267  0.249985  1
  Y  Y3  1  0.516391  0.064210  0.249986  1
  Y  Y4  1  0.935777  0.483427  0.750013  1
  Y  Y5  1  0.483495  0.935769  0.750014  1
  Ir  Ir6  1  0.500347  0.500126  0.499847  1
  Ir  Ir7  1  0.500349  0.500125  0.000155  1
  O  O8  1  0.442548  0.182249  0.534633  1
  O  O9  1  0.817975  0.557127  0.464647  1
  O  O10  1  0.442544  0.182202  0.965373  1
  O  O11  1  0.818024  0.557132  0.035350  1
  O  O12  1  0.557516  0.817811  0.465341  1
  O  O13  1  0.182089  0.442720  0.534183  1
  O  O14  1  0.557522  0.817863  0.034652  1
  O  O15  1  0.182039  0.442716  0.965820  1
  O  O16  1  0.160661  0.879315  0.250001  1
  O  O17  1  0.120242  0.838974  0.749999  1
  O  O18  1  0.839172  0.120484  0.749998  1
  O  O19  1  0.879688  0.161596  0.250001  1
  O  O20  1  0.407870  0.408882  0.250032  1
  O  O21  1  0.590862  0.590998  0.749967  1
