# generated using pymatgen
data_YbTm2Pa(Al3Ir)6
_symmetry_space_group_name_H-M   'P 1'
_cell_length_a   7.56749627
_cell_length_b   7.55844872
_cell_length_c   9.42660200
_cell_angle_alpha   90.00000000
_cell_angle_beta   90.00000000
_cell_angle_gamma   119.46528024
_symmetry_Int_Tables_number   1
_chemical_formula_structural   YbTm2Pa(Al3Ir)6
_chemical_formula_sum   'Yb1 Tm2 Pa1 Al18 Ir6'
_cell_volume   469.44597891
_cell_formula_units_Z   1
loop_
 _symmetry_equiv_pos_site_id
 _symmetry_equiv_pos_as_xyz
  1  'x, y, z'
loop_
 _atom_site_type_symbol
 _atom_site_label
 _atom_site_symmetry_multiplicity
 _atom_site_fract_x
 _atom_site_fract_y
 _atom_site_fract_z
 _atom_site_occupancy
  Yb  Yb0  1  0.672994  0.995001  0.250000  1
  Tm  Tm1  1  0.003300  0.328408  0.750000  1
  Tm  Tm2  1  0.328451  0.003604  0.750000  1
  Pa  Pa3  1  0.995512  0.671693  0.250000  1
  Al  Al4  1  0.132870  0.130337  0.250000  1
  Al  Al5  1  0.873081  0.874921  0.750000  1
  Al  Al6  1  0.000589  0.331968  0.074764  1
  Al  Al7  1  0.999123  0.664145  0.920037  1
  Al  Al8  1  0.999123  0.664145  0.579963  1
  Al  Al9  1  0.339954  0.004412  0.425195  1
  Al  Al10  1  0.000589  0.331968  0.425236  1
  Al  Al11  1  0.664803  0.999661  0.575223  1
  Al  Al12  1  0.664803  0.999661  0.924777  1
  Al  Al13  1  0.339954  0.004412  0.074805  1
  Al  Al14  1  0.331959  0.332099  0.555287  1
  Al  Al15  1  0.663142  0.666478  0.449721  1
  Al  Al16  1  0.663142  0.666478  0.050279  1
  Al  Al17  1  0.331959  0.332099  0.944713  1
  Al  Al18  1  0.337794  0.546923  0.250000  1
  Al  Al19  1  0.659730  0.448953  0.750000  1
  Al  Al20  1  0.547917  0.343622  0.250000  1
  Al  Al21  1  0.450009  0.661630  0.750000  1
  Ir  Ir22  1  0.673776  0.330383  0.000285  1
  Ir  Ir23  1  0.324718  0.670977  0.000569  1
  Ir  Ir24  1  0.324718  0.670977  0.499431  1
  Ir  Ir25  1  0.673776  0.330383  0.499715  1
  Ir  Ir26  1  0.001109  0.997332  0.001540  1
  Ir  Ir27  1  0.001109  0.997332  0.498460  1
