# generated using pymatgen
data_TbNdPa2(Al3Rh)6
_symmetry_space_group_name_H-M   'P 1'
_cell_length_a   7.63027042
_cell_length_b   7.62975202
_cell_length_c   9.41796200
_cell_angle_alpha   90.00000000
_cell_angle_beta   90.00000000
_cell_angle_gamma   119.55757634
_symmetry_Int_Tables_number   1
_chemical_formula_structural   TbNdPa2(Al3Rh)6
_chemical_formula_sum   'Tb1 Nd1 Pa2 Al18 Rh6'
_cell_volume   476.93243379
_cell_formula_units_Z   1
loop_
 _symmetry_equiv_pos_site_id
 _symmetry_equiv_pos_as_xyz
  1  'x, y, z'
loop_
 _atom_site_type_symbol
 _atom_site_label
 _atom_site_symmetry_multiplicity
 _atom_site_fract_x
 _atom_site_fract_y
 _atom_site_fract_z
 _atom_site_occupancy
  Tb  Tb0  1  0.329044  0.006375  0.750000  1
  Nd  Nd1  1  0.670166  0.993574  0.250000  1
  Pa  Pa2  1  0.997356  0.671474  0.250000  1
  Pa  Pa3  1  0.002543  0.328255  0.750000  1
  Al  Al4  1  0.132227  0.127408  0.250000  1
  Al  Al5  1  0.870114  0.873023  0.750000  1
  Al  Al6  1  0.002375  0.334213  0.075368  1
  Al  Al7  1  0.999551  0.667352  0.922628  1
  Al  Al8  1  0.999551  0.667352  0.577372  1
  Al  Al9  1  0.336249  0.002928  0.426715  1
  Al  Al10  1  0.002375  0.334213  0.424632  1
  Al  Al11  1  0.661809  0.996953  0.577090  1
  Al  Al12  1  0.661809  0.996953  0.922910  1
  Al  Al13  1  0.336249  0.002928  0.073285  1
  Al  Al14  1  0.334536  0.333357  0.552541  1
  Al  Al15  1  0.665493  0.665373  0.450431  1
  Al  Al16  1  0.665493  0.665373  0.049569  1
  Al  Al17  1  0.334536  0.333357  0.947459  1
  Al  Al18  1  0.338233  0.546554  0.250000  1
  Al  Al19  1  0.660100  0.451218  0.750000  1
  Al  Al20  1  0.550545  0.344307  0.250000  1
  Al  Al21  1  0.448613  0.656586  0.750000  1
  Rh  Rh22  1  0.675066  0.330056  0.998713  1
  Rh  Rh23  1  0.324496  0.669922  0.999730  1
  Rh  Rh24  1  0.324496  0.669922  0.500270  1
  Rh  Rh25  1  0.675066  0.330056  0.501287  1
  Rh  Rh26  1  0.000955  0.000460  0.998904  1
  Rh  Rh27  1  0.000955  0.000460  0.501096  1
