# generated using pymatgen
data_LaNd3(Y3Si4)2
_symmetry_space_group_name_H-M   'P 1'
_cell_length_a   7.78875881
_cell_length_b   7.78844881
_cell_length_c   14.52189400
_cell_angle_alpha   90.00000000
_cell_angle_beta   90.00000000
_cell_angle_gamma   89.90263855
_symmetry_Int_Tables_number   1
_chemical_formula_structural   LaNd3(Y3Si4)2
_chemical_formula_sum   'La2 Nd6 Y12 Si16'
_cell_volume   880.93093453
_cell_formula_units_Z   2
loop_
 _symmetry_equiv_pos_site_id
 _symmetry_equiv_pos_as_xyz
  1  'x, y, z'
loop_
 _atom_site_type_symbol
 _atom_site_label
 _atom_site_symmetry_multiplicity
 _atom_site_fract_x
 _atom_site_fract_y
 _atom_site_fract_z
 _atom_site_occupancy
  La  La0  1  0.636362  0.988786  0.455511  1
  La  La1  1  0.363638  0.011214  0.955511  1
  Nd  Nd2  1  0.989922  0.634320  0.545486  1
  Nd  Nd3  1  0.490852  0.864476  0.205028  1
  Nd  Nd4  1  0.509148  0.135524  0.705028  1
  Nd  Nd5  1  0.865299  0.489883  0.795134  1
  Nd  Nd6  1  0.134701  0.510117  0.295134  1
  Nd  Nd7  1  0.010078  0.365680  0.045486  1
  Y  Y8  1  0.488958  0.365140  0.125259  1
  Y  Y9  1  0.987391  0.135578  0.625175  1
  Y  Y10  1  0.864412  0.012150  0.874624  1
  Y  Y11  1  0.135588  0.987850  0.374624  1
  Y  Y12  1  0.511042  0.634860  0.625259  1
  Y  Y13  1  0.365014  0.488355  0.874691  1
  Y  Y14  1  0.634986  0.511645  0.374691  1
  Y  Y15  1  0.012609  0.864422  0.125175  1
  Y  Y16  1  0.313985  0.314725  0.499993  1
  Y  Y17  1  0.184940  0.814211  0.750058  1
  Y  Y18  1  0.815060  0.185789  0.250058  1
  Y  Y19  1  0.686015  0.685275  0.999993  1
  Si  Si20  1  0.285335  0.930234  0.561688  1
  Si  Si21  1  0.714665  0.069766  0.061688  1
  Si  Si22  1  0.932867  0.289715  0.438557  1
  Si  Si23  1  0.429903  0.212883  0.310968  1
  Si  Si24  1  0.570097  0.787117  0.810968  1
  Si  Si25  1  0.211461  0.432360  0.688221  1
  Si  Si26  1  0.788539  0.567640  0.188221  1
  Si  Si27  1  0.067133  0.710285  0.938557  1
  Si  Si28  1  0.800224  0.840449  0.693072  1
  Si  Si29  1  0.199776  0.159551  0.193072  1
  Si  Si30  1  0.841902  0.799135  0.305432  1
  Si  Si31  1  0.338900  0.697905  0.443565  1
  Si  Si32  1  0.661100  0.302095  0.943565  1
  Si  Si33  1  0.700623  0.343081  0.557539  1
  Si  Si34  1  0.299377  0.656919  0.057539  1
  Si  Si35  1  0.158098  0.200865  0.805432  1
