# generated using pymatgen
data_Mn4Nb4Si3As
_symmetry_space_group_name_H-M   'P 1'
_cell_length_a   3.58168400
_cell_length_b   6.39113762
_cell_length_c   7.49763427
_cell_angle_alpha   89.83508081
_cell_angle_beta   90.00000000
_cell_angle_gamma   90.00000000
_symmetry_Int_Tables_number   1
_chemical_formula_structural   Mn4Nb4Si3As
_chemical_formula_sum   'Mn4 Nb4 Si3 As1'
_cell_volume   171.62790001
_cell_formula_units_Z   1
loop_
 _symmetry_equiv_pos_site_id
 _symmetry_equiv_pos_as_xyz
  1  'x, y, z'
loop_
 _atom_site_type_symbol
 _atom_site_label
 _atom_site_symmetry_multiplicity
 _atom_site_fract_x
 _atom_site_fract_y
 _atom_site_fract_z
 _atom_site_occupancy
  Mn  Mn0  1  0.250000  0.358649  0.560587  1
  Mn  Mn1  1  0.250000  0.864896  0.941701  1
  Mn  Mn2  1  0.750000  0.634617  0.435218  1
  Mn  Mn3  1  0.750000  0.136219  0.061005  1
  Nb  Nb4  1  0.250000  0.968655  0.323094  1
  Nb  Nb5  1  0.250000  0.466886  0.172044  1
  Nb  Nb6  1  0.750000  0.040914  0.674414  1
  Nb  Nb7  1  0.750000  0.529122  0.831382  1
  Si  Si8  1  0.250000  0.234049  0.872308  1
  Si  Si9  1  0.750000  0.264824  0.368385  1
  Si  Si10  1  0.750000  0.765267  0.129081  1
  As  As11  1  0.250000  0.735901  0.630782  1
