# generated using pymatgen
data_Er4Al24NiPt8
_symmetry_space_group_name_H-M   'P 1'
_cell_length_a   7.48264410
_cell_length_b   7.49142615
_cell_length_c   13.09499992
_cell_angle_alpha   84.57205500
_cell_angle_beta   100.82944073
_cell_angle_gamma   119.73049701
_symmetry_Int_Tables_number   1
_chemical_formula_structural   Er4Al24NiPt8
_chemical_formula_sum   'Er4 Al24 Ni1 Pt8'
_cell_volume   626.07162016
_cell_formula_units_Z   1
loop_
 _symmetry_equiv_pos_site_id
 _symmetry_equiv_pos_as_xyz
  1  'x, y, z'
loop_
 _atom_site_type_symbol
 _atom_site_label
 _atom_site_symmetry_multiplicity
 _atom_site_fract_x
 _atom_site_fract_y
 _atom_site_fract_z
 _atom_site_occupancy
  Er  Er0  1  0.735853  0.000961  0.191691  1
  Er  Er1  1  0.267970  0.003183  0.808428  1
  Er  Er2  1  0.059951  0.668325  0.191483  1
  Er  Er3  1  0.935895  0.327608  0.808295  1
  Al  Al4  1  0.805167  0.866175  0.816492  1
  Al  Al5  1  0.194400  0.133816  0.183436  1
  Al  Al6  1  0.992167  0.665573  0.945080  1
  Al  Al7  1  0.024166  0.340621  0.053877  1
  Al  Al8  1  0.392060  0.662784  0.821278  1
  Al  Al9  1  0.600621  0.337310  0.182381  1
  Al  Al10  1  0.883009  0.664823  0.671689  1
  Al  Al11  1  0.118309  0.335882  0.328787  1
  Al  Al12  1  0.602021  0.458720  0.817209  1
  Al  Al13  1  0.396679  0.549426  0.179331  1
  Al  Al14  1  0.230837  0.340691  0.670253  1
  Al  Al15  1  0.768269  0.660009  0.329763  1
  Al  Al16  1  0.853721  0.333380  0.558841  1
  Al  Al17  1  0.185957  0.999179  0.558738  1
  Al  Al18  1  0.813301  0.000646  0.441205  1
  Al  Al19  1  0.352711  0.989599  0.055172  1
  Al  Al20  1  0.641798  0.994290  0.946049  1
  Al  Al21  1  0.555383  0.992229  0.671431  1
  Al  Al22  1  0.443478  0.006457  0.327884  1
  Al  Al23  1  0.521145  0.667300  0.561676  1
  Al  Al24  1  0.478862  0.332251  0.438336  1
  Al  Al25  1  0.678337  0.668067  0.044151  1
  Al  Al26  1  0.317524  0.336757  0.955677  1
  Al  Al27  1  0.146142  0.666993  0.441084  1
  Ni  Ni28  1  0.331252  0.670422  0.000462  1
  Pt  Pt29  1  0.546512  0.324373  0.638140  1
  Pt  Pt30  1  0.453193  0.675331  0.361885  1
  Pt  Pt31  1  0.888913  0.008373  0.639766  1
  Pt  Pt32  1  0.110826  0.991580  0.360147  1
  Pt  Pt33  1  0.672276  0.327353  0.999978  1
  Pt  Pt34  1  0.204821  0.666663  0.639604  1
  Pt  Pt35  1  0.795405  0.333439  0.360385  1
  Pt  Pt36  1  0.001069  0.999409  0.999915  1
