# generated using pymatgen
data_CeEr4(CoO6)2
_symmetry_space_group_name_H-M   'P 1'
_cell_length_a   6.71882601
_cell_length_b   6.71882675
_cell_length_c   7.14610906
_cell_angle_alpha   74.62777377
_cell_angle_beta   74.62776903
_cell_angle_gamma   50.38012377
_symmetry_Int_Tables_number   1
_chemical_formula_structural   CeEr4(CoO6)2
_chemical_formula_sum   'Ce1 Er4 Co2 O12'
_cell_volume   237.58998499
_cell_formula_units_Z   1
loop_
 _symmetry_equiv_pos_site_id
 _symmetry_equiv_pos_as_xyz
  1  'x, y, z'
loop_
 _atom_site_type_symbol
 _atom_site_label
 _atom_site_symmetry_multiplicity
 _atom_site_fract_x
 _atom_site_fract_y
 _atom_site_fract_z
 _atom_site_occupancy
  Ce  Ce0  1  0.000000  0.000000  0.500000  1
  Er  Er1  1  0.308082  0.308082  0.350271  1
  Er  Er2  1  0.691918  0.691918  0.649729  1
  Er  Er3  1  0.305569  0.305569  0.843390  1
  Er  Er4  1  0.694431  0.694431  0.156610  1
  Co  Co5  1  0.754304  0.245696  0.000000  1
  Co  Co6  1  0.245696  0.754304  0.000000  1
  O  O7  1  0.900834  0.421436  0.918344  1
  O  O8  1  0.421436  0.900834  0.918344  1
  O  O9  1  0.099166  0.578564  0.081656  1
  O  O10  1  0.578564  0.099166  0.081656  1
  O  O11  1  0.095686  0.600217  0.574798  1
  O  O12  1  0.600217  0.095686  0.574798  1
  O  O13  1  0.904314  0.399783  0.425202  1
  O  O14  1  0.399783  0.904314  0.425202  1
  O  O15  1  0.999615  0.999615  0.824654  1
  O  O16  1  0.000385  0.000385  0.175346  1
  O  O17  1  0.499182  0.499182  0.820210  1
  O  O18  1  0.500818  0.500818  0.179790  1
