# generated using pymatgen
data_YbDyTmAg(Pt2O7)2
_symmetry_space_group_name_H-M   'P 1'
_cell_length_a   7.29613377
_cell_length_b   7.29285389
_cell_length_c   7.16651967
_cell_angle_alpha   59.57202209
_cell_angle_beta   59.44649636
_cell_angle_gamma   60.01111638
_symmetry_Int_Tables_number   1
_chemical_formula_structural   YbDyTmAg(Pt2O7)2
_chemical_formula_sum   'Yb1 Dy1 Tm1 Ag1 Pt4 O14'
_cell_volume   267.64364525
_cell_formula_units_Z   1
loop_
 _symmetry_equiv_pos_site_id
 _symmetry_equiv_pos_as_xyz
  1  'x, y, z'
loop_
 _atom_site_type_symbol
 _atom_site_label
 _atom_site_symmetry_multiplicity
 _atom_site_fract_x
 _atom_site_fract_y
 _atom_site_fract_z
 _atom_site_occupancy
  Yb  Yb0  1  0.625000  0.125000  0.625000  1
  Dy  Dy1  1  0.125000  0.625000  0.625000  1
  Tm  Tm2  1  0.625000  0.625000  0.625000  1
  Ag  Ag3  1  0.625000  0.625000  0.125000  1
  Pt  Pt4  1  0.125000  0.125000  0.125000  1
  Pt  Pt5  1  0.625000  0.125000  0.125000  1
  Pt  Pt6  1  0.125000  0.625000  0.125000  1
  Pt  Pt7  1  0.125000  0.125000  0.625000  1
  O  O8  1  0.029536  0.465470  0.469568  1
  O  O9  1  0.793507  0.792186  0.221672  1
  O  O10  1  0.793525  0.204338  0.207969  1
  O  O11  1  0.462514  0.027625  0.467139  1
  O  O12  1  0.038571  0.030717  0.467716  1
  O  O13  1  0.049443  0.458810  0.034543  1
  O  O14  1  0.744578  0.736780  0.767237  1
  O  O15  1  0.505422  0.513220  0.482763  1
  O  O16  1  0.787486  0.222375  0.782861  1
  O  O17  1  0.200557  0.791190  0.215457  1
  O  O18  1  0.211429  0.219283  0.782284  1
  O  O19  1  0.456475  0.045662  0.042031  1
  O  O20  1  0.456493  0.457814  0.028328  1
  O  O21  1  0.220464  0.784530  0.780432  1
