# generated using pymatgen
data_SmZr4Bi3F28
_symmetry_space_group_name_H-M   'P 1'
_cell_length_a   5.87325576
_cell_length_b   9.36229643
_cell_length_c   12.50843525
_cell_angle_alpha   61.97150188
_cell_angle_beta   89.95975452
_cell_angle_gamma   90.01817203
_symmetry_Int_Tables_number   1
_chemical_formula_structural   SmZr4Bi3F28
_chemical_formula_sum   'Sm1 Zr4 Bi3 F28'
_cell_volume   607.13331466
_cell_formula_units_Z   1
loop_
 _symmetry_equiv_pos_site_id
 _symmetry_equiv_pos_as_xyz
  1  'x, y, z'
loop_
 _atom_site_type_symbol
 _atom_site_label
 _atom_site_symmetry_multiplicity
 _atom_site_fract_x
 _atom_site_fract_y
 _atom_site_fract_z
 _atom_site_occupancy
  Sm  Sm0  1  0.755830  0.811777  0.765899  1
  Zr  Zr1  1  0.744556  0.272991  0.456278  1
  Zr  Zr2  1  0.244177  0.725324  0.043567  1
  Zr  Zr3  1  0.255186  0.725293  0.545793  1
  Zr  Zr4  1  0.756193  0.275600  0.954851  1
  Bi  Bi5  1  0.742558  0.815869  0.264455  1
  Bi  Bi6  1  0.243414  0.182718  0.236562  1
  Bi  Bi7  1  0.258531  0.179403  0.736193  1
  F  F8  1  0.464734  0.713981  0.921359  1
  F  F9  1  0.961639  0.288247  0.576611  1
  F  F10  1  0.539130  0.289282  0.076437  1
  F  F11  1  0.038821  0.712340  0.423980  1
  F  F12  1  0.457609  0.280999  0.547060  1
  F  F13  1  0.959922  0.720292  0.949171  1
  F  F14  1  0.541015  0.719635  0.453120  1
  F  F15  1  0.041385  0.282610  0.046874  1
  F  F16  1  0.765719  0.522457  0.859388  1
  F  F17  1  0.266969  0.482381  0.640552  1
  F  F18  1  0.232821  0.481806  0.139185  1
  F  F19  1  0.733048  0.517800  0.360192  1
  F  F20  1  0.759630  0.027908  0.057495  1
  F  F21  1  0.259798  0.973902  0.442419  1
  F  F22  1  0.240163  0.973505  0.942192  1
  F  F23  1  0.740163  0.026118  0.559672  1
  F  F24  1  0.989719  0.735843  0.648282  1
  F  F25  1  0.489221  0.266389  0.854127  1
  F  F26  1  0.011323  0.265504  0.353796  1
  F  F27  1  0.510514  0.734658  0.144737  1
  F  F28  1  0.038871  0.746742  0.168365  1
  F  F29  1  0.538927  0.253165  0.330193  1
  F  F30  1  0.961061  0.254181  0.830273  1
  F  F31  1  0.464204  0.747364  0.670079  1
  F  F32  1  0.422641  0.970827  0.233332  1
  F  F33  1  0.921463  0.027817  0.266947  1
  F  F34  1  0.573875  0.024985  0.766234  1
  F  F35  1  0.075168  0.970289  0.734330  1
