# generated using pymatgen
data_SrZn10Pt
_symmetry_space_group_name_H-M   'P 1'
_cell_length_a   8.44638389
_cell_length_b   8.44638378
_cell_length_c   8.37654319
_cell_angle_alpha   99.66760097
_cell_angle_beta   99.66760196
_cell_angle_gamma   131.85155386
_symmetry_Int_Tables_number   1
_chemical_formula_structural   SrZn10Pt
_chemical_formula_sum   'Sr2 Zn20 Pt2'
_cell_volume   405.66316948
_cell_formula_units_Z   2
loop_
 _symmetry_equiv_pos_site_id
 _symmetry_equiv_pos_as_xyz
  1  'x, y, z'
loop_
 _atom_site_type_symbol
 _atom_site_label
 _atom_site_symmetry_multiplicity
 _atom_site_fract_x
 _atom_site_fract_y
 _atom_site_fract_z
 _atom_site_occupancy
  Sr  Sr0  1  0.001109  0.998891  0.000000  1
  Sr  Sr1  1  0.248891  0.751109  0.500000  1
  Zn  Zn2  1  0.063027  0.644877  0.826158  1
  Zn  Zn3  1  0.820644  0.236143  0.168948  1
  Zn  Zn4  1  0.756673  0.243327  0.500000  1
  Zn  Zn5  1  0.493327  0.506673  0.000000  1
  Zn  Zn6  1  0.625000  0.375000  0.750000  1
  Zn  Zn7  1  0.625000  0.375000  0.250000  1
  Zn  Zn8  1  0.820299  0.649992  0.585424  1
  Zn  Zn9  1  0.894877  0.813027  0.326158  1
  Zn  Zn10  1  0.486143  0.570644  0.668948  1
  Zn  Zn11  1  0.068279  0.237433  0.414798  1
  Zn  Zn12  1  0.762567  0.931721  0.585202  1
  Zn  Zn13  1  0.350008  0.179701  0.414576  1
  Zn  Zn14  1  0.429356  0.513857  0.331052  1
  Zn  Zn15  1  0.186973  0.105123  0.673842  1
  Zn  Zn16  1  0.429701  0.100008  0.914576  1
  Zn  Zn17  1  0.355123  0.936973  0.173842  1
  Zn  Zn18  1  0.763857  0.179356  0.831052  1
  Zn  Zn19  1  0.181721  0.512567  0.085202  1
  Zn  Zn20  1  0.487433  0.818279  0.914798  1
  Zn  Zn21  1  0.899992  0.570299  0.085424  1
  Pt  Pt22  1  0.125000  0.375000  0.750000  1
  Pt  Pt23  1  0.625000  0.875000  0.250000  1
