# generated using pymatgen
data_YPu3(NiGe)4
_symmetry_space_group_name_H-M   'P 1'
_cell_length_a   4.28303400
_cell_length_b   7.00756158
_cell_length_c   7.10919802
_cell_angle_alpha   89.76151206
_cell_angle_beta   90.00000000
_cell_angle_gamma   90.00000000
_symmetry_Int_Tables_number   1
_chemical_formula_structural   YPu3(NiGe)4
_chemical_formula_sum   'Y1 Pu3 Ni4 Ge4'
_cell_volume   213.37095130
_cell_formula_units_Z   1
loop_
 _symmetry_equiv_pos_site_id
 _symmetry_equiv_pos_as_xyz
  1  'x, y, z'
loop_
 _atom_site_type_symbol
 _atom_site_label
 _atom_site_symmetry_multiplicity
 _atom_site_fract_x
 _atom_site_fract_y
 _atom_site_fract_z
 _atom_site_occupancy
  Y  Y0  1  0.750000  0.485899  0.302225  1
  Pu  Pu1  1  0.250000  0.014046  0.806635  1
  Pu  Pu2  1  0.250000  0.515776  0.699604  1
  Pu  Pu3  1  0.750000  0.986411  0.193685  1
  Ni  Ni4  1  0.250000  0.808186  0.412893  1
  Ni  Ni5  1  0.250000  0.313552  0.082314  1
  Ni  Ni6  1  0.750000  0.186882  0.583909  1
  Ni  Ni7  1  0.750000  0.687210  0.917532  1
  Ge  Ge8  1  0.250000  0.190286  0.410118  1
  Ge  Ge9  1  0.250000  0.688415  0.090318  1
  Ge  Ge10  1  0.750000  0.811775  0.589486  1
  Ge  Ge11  1  0.750000  0.311563  0.911282  1
