# generated using pymatgen
data_Tb2Y2Al4Pd3Rh
_symmetry_space_group_name_H-M   'P 1'
_cell_length_a   4.44468900
_cell_length_b   6.88614586
_cell_length_c   7.81851243
_cell_angle_alpha   89.87885420
_cell_angle_beta   90.00000000
_cell_angle_gamma   90.00000000
_symmetry_Int_Tables_number   1
_chemical_formula_structural   Tb2Y2Al4Pd3Rh
_chemical_formula_sum   'Tb2 Y2 Al4 Pd3 Rh1'
_cell_volume   239.29892933
_cell_formula_units_Z   1
loop_
 _symmetry_equiv_pos_site_id
 _symmetry_equiv_pos_as_xyz
  1  'x, y, z'
loop_
 _atom_site_type_symbol
 _atom_site_label
 _atom_site_symmetry_multiplicity
 _atom_site_fract_x
 _atom_site_fract_y
 _atom_site_fract_z
 _atom_site_occupancy
  Tb  Tb0  1  0.250000  0.036320  0.322640  1
  Tb  Tb1  1  0.750000  0.973928  0.679918  1
  Y  Y2  1  0.250000  0.532650  0.180519  1
  Y  Y3  1  0.750000  0.464872  0.817007  1
  Al  Al4  1  0.250000  0.146918  0.936071  1
  Al  Al5  1  0.250000  0.638385  0.562792  1
  Al  Al6  1  0.750000  0.854766  0.061163  1
  Al  Al7  1  0.750000  0.355291  0.440072  1
  Pd  Pd8  1  0.250000  0.774593  0.881257  1
  Pd  Pd9  1  0.750000  0.727308  0.381293  1
  Pd  Pd10  1  0.750000  0.226286  0.119991  1
  Rh  Rh11  1  0.250000  0.268685  0.617277  1
