# generated using pymatgen
data_Ti2Be8FeTc
_symmetry_space_group_name_H-M   'P 1'
_cell_length_a   4.36537800
_cell_length_b   4.36537815
_cell_length_c   7.12638500
_cell_angle_alpha   90.00000000
_cell_angle_beta   90.00000000
_cell_angle_gamma   119.99998368
_symmetry_Int_Tables_number   1
_chemical_formula_structural   Ti2Be8FeTc
_chemical_formula_sum   'Ti2 Be8 Fe1 Tc1'
_cell_volume   117.60985390
_cell_formula_units_Z   1
loop_
 _symmetry_equiv_pos_site_id
 _symmetry_equiv_pos_as_xyz
  1  'x, y, z'
loop_
 _atom_site_type_symbol
 _atom_site_label
 _atom_site_symmetry_multiplicity
 _atom_site_fract_x
 _atom_site_fract_y
 _atom_site_fract_z
 _atom_site_occupancy
  Ti  Ti0  1  0.333333  0.666667  0.069910  1
  Ti  Ti1  1  0.666667  0.333333  0.559944  1
  Be  Be2  1  0.000000  0.000000  0.998505  1
  Be  Be3  1  0.000000  0.000000  0.494903  1
  Be  Be4  1  0.830896  0.661792  0.252586  1
  Be  Be5  1  0.169651  0.830349  0.748365  1
  Be  Be6  1  0.660697  0.830349  0.748365  1
  Be  Be7  1  0.338208  0.169104  0.252586  1
  Be  Be8  1  0.830896  0.169104  0.252586  1
  Be  Be9  1  0.169651  0.339303  0.748365  1
  Fe  Fe10  1  0.333333  0.666667  0.435899  1
  Tc  Tc11  1  0.666667  0.333333  0.937983  1
