# generated using pymatgen
data_TbYb(Ga2Ag)2
_symmetry_space_group_name_H-M   'P 1'
_cell_length_a   4.37319100
_cell_length_b   6.98406511
_cell_length_c   10.35628124
_cell_angle_alpha   90.71314499
_cell_angle_beta   90.00000000
_cell_angle_gamma   90.00000000
_symmetry_Int_Tables_number   1
_chemical_formula_structural   TbYb(Ga2Ag)2
_chemical_formula_sum   'Tb2 Yb2 Ga8 Ag4'
_cell_volume   316.28377929
_cell_formula_units_Z   2
loop_
 _symmetry_equiv_pos_site_id
 _symmetry_equiv_pos_as_xyz
  1  'x, y, z'
loop_
 _atom_site_type_symbol
 _atom_site_label
 _atom_site_symmetry_multiplicity
 _atom_site_fract_x
 _atom_site_fract_y
 _atom_site_fract_z
 _atom_site_occupancy
  Tb  Tb0  1  0.250000  0.778582  0.828387  1
  Tb  Tb1  1  0.750000  0.221418  0.171613  1
  Yb  Yb2  1  0.750000  0.723593  0.328933  1
  Yb  Yb3  1  0.250000  0.276407  0.671067  1
  Ga  Ga4  1  0.250000  0.701241  0.535063  1
  Ga  Ga5  1  0.750000  0.298759  0.464937  1
  Ga  Ga6  1  0.750000  0.796312  0.036519  1
  Ga  Ga7  1  0.250000  0.203688  0.963481  1
  Ga  Ga8  1  0.250000  0.925665  0.150844  1
  Ga  Ga9  1  0.750000  0.074335  0.849156  1
  Ga  Ga10  1  0.750000  0.572277  0.651739  1
  Ga  Ga11  1  0.250000  0.427723  0.348261  1
  Ag  Ag12  1  0.250000  0.542523  0.099371  1
  Ag  Ag13  1  0.750000  0.457477  0.900629  1
  Ag  Ag14  1  0.750000  0.959653  0.598539  1
  Ag  Ag15  1  0.250000  0.040347  0.401461  1
