# generated using pymatgen
data_Dy3Ho3Tm10(CdIr)4
_symmetry_space_group_name_H-M   'P 1'
_cell_length_a   9.54866130
_cell_length_b   9.55491555
_cell_length_c   9.54968080
_cell_angle_alpha   59.97480774
_cell_angle_beta   59.96532809
_cell_angle_gamma   59.98539477
_symmetry_Int_Tables_number   1
_chemical_formula_structural   Dy3Ho3Tm10(CdIr)4
_chemical_formula_sum   'Dy3 Ho3 Tm10 Cd4 Ir4'
_cell_volume   615.74180932
_cell_formula_units_Z   1
loop_
 _symmetry_equiv_pos_site_id
 _symmetry_equiv_pos_as_xyz
  1  'x, y, z'
loop_
 _atom_site_type_symbol
 _atom_site_label
 _atom_site_symmetry_multiplicity
 _atom_site_fract_x
 _atom_site_fract_y
 _atom_site_fract_z
 _atom_site_occupancy
  Dy  Dy0  1  0.188678  0.811322  0.188678  1
  Dy  Dy1  1  0.811440  0.811301  0.188837  1
  Dy  Dy2  1  0.188837  0.188423  0.811440  1
  Ho  Ho3  1  0.188948  0.811163  0.811284  1
  Ho  Ho4  1  0.811284  0.188604  0.188948  1
  Ho  Ho5  1  0.811209  0.188791  0.811209  1
  Tm  Tm6  1  0.598781  0.598242  0.598957  1
  Tm  Tm7  1  0.599198  0.598469  0.203652  1
  Tm  Tm8  1  0.598957  0.204021  0.598781  1
  Tm  Tm9  1  0.203652  0.598682  0.599198  1
  Tm  Tm10  1  0.060820  0.438876  0.438359  1
  Tm  Tm11  1  0.438359  0.061945  0.060820  1
  Tm  Tm12  1  0.438704  0.061296  0.438704  1
  Tm  Tm13  1  0.061414  0.438586  0.061414  1
  Tm  Tm14  1  0.438389  0.438960  0.060799  1
  Tm  Tm15  1  0.060799  0.061852  0.438389  1
  Cd  Cd16  1  0.830649  0.830847  0.830440  1
  Cd  Cd17  1  0.830593  0.830927  0.507674  1
  Cd  Cd18  1  0.830440  0.508064  0.830649  1
  Cd  Cd19  1  0.507674  0.830806  0.830593  1
  Ir  Ir20  1  0.392126  0.391356  0.391957  1
  Ir  Ir21  1  0.392220  0.391505  0.824875  1
  Ir  Ir22  1  0.391957  0.824562  0.392126  1
  Ir  Ir23  1  0.824875  0.391401  0.392220  1
