# generated using pymatgen
data_Pa3(SiNi3)2
_symmetry_space_group_name_H-M   'P 1'
_cell_length_a   7.54713056
_cell_length_b   7.54713004
_cell_length_c   7.54712900
_cell_angle_alpha   109.47122054
_cell_angle_beta   109.47121912
_cell_angle_gamma   109.47121977
_symmetry_Int_Tables_number   1
_chemical_formula_structural   Pa3(SiNi3)2
_chemical_formula_sum   'Pa6 Si4 Ni12'
_cell_volume   330.92043906
_cell_formula_units_Z   2
loop_
 _symmetry_equiv_pos_site_id
 _symmetry_equiv_pos_as_xyz
  1  'x, y, z'
loop_
 _atom_site_type_symbol
 _atom_site_label
 _atom_site_symmetry_multiplicity
 _atom_site_fract_x
 _atom_site_fract_y
 _atom_site_fract_z
 _atom_site_occupancy
  Pa  Pa0  1  0.723996  0.723996  0.000000  1
  Pa  Pa1  1  0.276004  0.000000  0.276004  1
  Pa  Pa2  1  0.000000  0.276004  0.276004  1
  Pa  Pa3  1  0.276004  0.276004  0.000000  1
  Pa  Pa4  1  0.723996  0.000000  0.723996  1
  Pa  Pa5  1  0.000000  0.723996  0.723996  1
  Si  Si6  1  0.000000  0.000000  0.500000  1
  Si  Si7  1  0.000000  0.500000  0.000000  1
  Si  Si8  1  0.500000  0.000000  0.000000  1
  Si  Si9  1  0.500000  0.500000  0.500000  1
  Ni  Ni10  1  0.341679  0.341679  0.683358  1
  Ni  Ni11  1  0.658321  0.000000  0.341679  1
  Ni  Ni12  1  0.000000  0.658321  0.341679  1
  Ni  Ni13  1  0.658321  0.341679  0.000000  1
  Ni  Ni14  1  0.341679  0.683358  0.341679  1
  Ni  Ni15  1  0.000000  0.341679  0.658321  1
  Ni  Ni16  1  0.341679  0.658321  0.000000  1
  Ni  Ni17  1  0.341679  0.000000  0.658321  1
  Ni  Ni18  1  0.683358  0.341679  0.341679  1
  Ni  Ni19  1  0.658321  0.658321  0.316642  1
  Ni  Ni20  1  0.658321  0.316642  0.658321  1
  Ni  Ni21  1  0.316642  0.658321  0.658321  1
