# generated using pymatgen
data_Ho16Hg4PtRh3
_symmetry_space_group_name_H-M   'P 1'
_cell_length_a   9.55938093
_cell_length_b   9.56685061
_cell_length_c   9.55938100
_cell_angle_alpha   60.02582811
_cell_angle_beta   60.00000322
_cell_angle_gamma   60.02583102
_symmetry_Int_Tables_number   1
_chemical_formula_structural   Ho16Hg4PtRh3
_chemical_formula_sum   'Ho16 Hg4 Pt1 Rh3'
_cell_volume   618.41923433
_cell_formula_units_Z   1
loop_
 _symmetry_equiv_pos_site_id
 _symmetry_equiv_pos_as_xyz
  1  'x, y, z'
loop_
 _atom_site_type_symbol
 _atom_site_label
 _atom_site_symmetry_multiplicity
 _atom_site_fract_x
 _atom_site_fract_y
 _atom_site_fract_z
 _atom_site_occupancy
  Ho  Ho0  1  0.185821  0.185077  0.814552  1
  Ho  Ho1  1  0.603443  0.600234  0.192880  1
  Ho  Ho2  1  0.439016  0.064304  0.439016  1
  Ho  Ho3  1  0.438204  0.438422  0.061687  1
  Ho  Ho4  1  0.814552  0.185077  0.814552  1
  Ho  Ho5  1  0.185742  0.812979  0.185742  1
  Ho  Ho6  1  0.439016  0.064304  0.057664  1
  Ho  Ho7  1  0.185742  0.812979  0.815538  1
  Ho  Ho8  1  0.061687  0.438422  0.061687  1
  Ho  Ho9  1  0.815538  0.812979  0.185742  1
  Ho  Ho10  1  0.192880  0.600234  0.603443  1
  Ho  Ho11  1  0.061687  0.438422  0.438204  1
  Ho  Ho12  1  0.057664  0.064304  0.439016  1
  Ho  Ho13  1  0.814552  0.185077  0.185821  1
  Ho  Ho14  1  0.600600  0.198201  0.600600  1
  Ho  Ho15  1  0.603443  0.600234  0.603443  1
  Hg  Hg16  1  0.834525  0.834993  0.834525  1
  Hg  Hg17  1  0.834525  0.834993  0.495957  1
  Hg  Hg18  1  0.495957  0.834993  0.834525  1
  Hg  Hg19  1  0.835376  0.493874  0.835376  1
  Pt  Pt20  1  0.393235  0.820295  0.393235  1
  Rh  Rh21  1  0.393019  0.393202  0.393019  1
  Rh  Rh22  1  0.820759  0.393202  0.393019  1
  Rh  Rh23  1  0.393019  0.393202  0.820759  1
