# generated using pymatgen
data_Tm4Al2Os5W
_symmetry_space_group_name_H-M   'P 1'
_cell_length_a   5.45447276
_cell_length_b   5.29472759
_cell_length_c   8.83873500
_cell_angle_alpha   90.00000000
_cell_angle_beta   90.00000000
_cell_angle_gamma   121.21495044
_symmetry_Int_Tables_number   1
_chemical_formula_structural   Tm4Al2Os5W
_chemical_formula_sum   'Tm4 Al2 Os5 W1'
_cell_volume   218.30765318
_cell_formula_units_Z   1
loop_
 _symmetry_equiv_pos_site_id
 _symmetry_equiv_pos_as_xyz
  1  'x, y, z'
loop_
 _atom_site_type_symbol
 _atom_site_label
 _atom_site_symmetry_multiplicity
 _atom_site_fract_x
 _atom_site_fract_y
 _atom_site_fract_z
 _atom_site_occupancy
  Tm  Tm0  1  0.671365  0.340508  0.566413  1
  Tm  Tm1  1  0.339246  0.669277  0.442928  1
  Tm  Tm2  1  0.339246  0.669277  0.057072  1
  Tm  Tm3  1  0.671365  0.340508  0.933587  1
  Al  Al4  1  0.817350  0.659280  0.250000  1
  Al  Al5  1  0.820493  0.161111  0.250000  1
  Os  Os6  1  0.010956  0.013517  0.494434  1
  Os  Os7  1  0.010956  0.013517  0.005566  1
  Os  Os8  1  0.173696  0.826861  0.750000  1
  Os  Os9  1  0.649195  0.820575  0.750000  1
  Os  Os10  1  0.334515  0.162376  0.250000  1
  W  W11  1  0.161618  0.323192  0.750000  1
