# generated using pymatgen
data_Er2Tm5Lu3(CoSb2)2
_symmetry_space_group_name_H-M   'P 1'
_cell_length_a   7.72935500
_cell_length_b   8.71055613
_cell_length_c   12.02077418
_cell_angle_alpha   90.02006727
_cell_angle_beta   90.00000000
_cell_angle_gamma   90.00000000
_symmetry_Int_Tables_number   1
_chemical_formula_structural   Er2Tm5Lu3(CoSb2)2
_chemical_formula_sum   'Er4 Tm10 Lu6 Co4 Sb8'
_cell_volume   809.32238071
_cell_formula_units_Z   2
loop_
 _symmetry_equiv_pos_site_id
 _symmetry_equiv_pos_as_xyz
  1  'x, y, z'
loop_
 _atom_site_type_symbol
 _atom_site_label
 _atom_site_symmetry_multiplicity
 _atom_site_fract_x
 _atom_site_fract_y
 _atom_site_fract_z
 _atom_site_occupancy
  Er  Er0  1  0.622719  0.750075  0.308435  1
  Er  Er1  1  0.122719  0.249925  0.191565  1
  Er  Er2  1  0.377573  0.249853  0.691602  1
  Er  Er3  1  0.877573  0.750147  0.808398  1
  Tm  Tm4  1  0.157450  0.750117  0.204421  1
  Tm  Tm5  1  0.657450  0.249883  0.295579  1
  Tm  Tm6  1  0.842592  0.249958  0.795440  1
  Tm  Tm7  1  0.342592  0.750042  0.704560  1
  Tm  Tm8  1  0.449413  0.750099  0.997954  1
  Tm  Tm9  1  0.949413  0.249901  0.502046  1
  Tm  Tm10  1  0.550201  0.249839  0.001984  1
  Tm  Tm11  1  0.050201  0.750161  0.498016  1
  Tm  Tm12  1  0.824023  0.537758  0.065586  1
  Tm  Tm13  1  0.324023  0.462242  0.434414  1
  Lu  Lu14  1  0.824807  0.962209  0.065486  1
  Lu  Lu15  1  0.324807  0.037791  0.434514  1
  Lu  Lu16  1  0.175391  0.462189  0.934402  1
  Lu  Lu17  1  0.675391  0.537811  0.565598  1
  Lu  Lu18  1  0.175160  0.037832  0.934452  1
  Lu  Lu19  1  0.675160  0.962168  0.565548  1
  Co  Co20  1  0.430880  0.750215  0.490845  1
  Co  Co21  1  0.930880  0.249785  0.009155  1
  Co  Co22  1  0.569808  0.249721  0.509329  1
  Co  Co23  1  0.069808  0.750279  0.990671  1
  Sb  Sb24  1  0.931726  0.991462  0.327568  1
  Sb  Sb25  1  0.431726  0.008538  0.172432  1
  Sb  Sb26  1  0.068404  0.491469  0.672418  1
  Sb  Sb27  1  0.568404  0.508531  0.827582  1
  Sb  Sb28  1  0.068328  0.008535  0.672403  1
  Sb  Sb29  1  0.568328  0.991465  0.827597  1
  Sb  Sb30  1  0.931526  0.508587  0.327574  1
  Sb  Sb31  1  0.431526  0.491413  0.172426  1
