# generated using pymatgen
data_Nd12OsPt2Au
_symmetry_space_group_name_H-M   'P 1'
_cell_length_a   6.64339292
_cell_length_b   7.38431763
_cell_length_c   9.97763400
_cell_angle_alpha   90.00000000
_cell_angle_beta   90.00000000
_cell_angle_gamma   89.95698318
_symmetry_Int_Tables_number   1
_chemical_formula_structural   Nd12OsPt2Au
_chemical_formula_sum   'Nd12 Os1 Pt2 Au1'
_cell_volume   489.47188933
_cell_formula_units_Z   1
loop_
 _symmetry_equiv_pos_site_id
 _symmetry_equiv_pos_as_xyz
  1  'x, y, z'
loop_
 _atom_site_type_symbol
 _atom_site_label
 _atom_site_symmetry_multiplicity
 _atom_site_fract_x
 _atom_site_fract_y
 _atom_site_fract_z
 _atom_site_occupancy
  Nd  Nd0  1  0.335940  0.670227  0.063758  1
  Nd  Nd1  1  0.177607  0.187712  0.440056  1
  Nd  Nd2  1  0.669980  0.320623  0.559273  1
  Nd  Nd3  1  0.831486  0.822887  0.936905  1
  Nd  Nd4  1  0.669980  0.320623  0.940727  1
  Nd  Nd5  1  0.831486  0.822887  0.563095  1
  Nd  Nd6  1  0.335940  0.670227  0.436242  1
  Nd  Nd7  1  0.177607  0.187712  0.059944  1
  Nd  Nd8  1  0.853687  0.519834  0.250000  1
  Nd  Nd9  1  0.621937  0.042634  0.250000  1
  Nd  Nd10  1  0.137211  0.468574  0.750000  1
  Nd  Nd11  1  0.360472  0.963793  0.750000  1
  Os  Os12  1  0.436420  0.383428  0.250000  1
  Pt  Pt13  1  0.936035  0.116180  0.750000  1
  Pt  Pt14  1  0.567224  0.614337  0.750000  1
  Au  Au15  1  0.056989  0.888326  0.250000  1
