# generated using pymatgen
data_ReBiF7
_symmetry_space_group_name_H-M   'P 1'
_cell_length_a   5.68165600
_cell_length_b   9.22908012
_cell_length_c   12.36036568
_cell_angle_alpha   62.00590495
_cell_angle_beta   90.00000000
_cell_angle_gamma   90.00000000
_symmetry_Int_Tables_number   1
_chemical_formula_structural   ReBiF7
_chemical_formula_sum   'Re4 Bi4 F28'
_cell_volume   572.29953607
_cell_formula_units_Z   4
loop_
 _symmetry_equiv_pos_site_id
 _symmetry_equiv_pos_as_xyz
  1  'x, y, z'
loop_
 _atom_site_type_symbol
 _atom_site_label
 _atom_site_symmetry_multiplicity
 _atom_site_fract_x
 _atom_site_fract_y
 _atom_site_fract_z
 _atom_site_occupancy
  Re  Re0  1  0.757238  0.272078  0.958849  1
  Re  Re1  1  0.257238  0.727922  0.541151  1
  Re  Re2  1  0.242762  0.727922  0.041151  1
  Re  Re3  1  0.742762  0.272078  0.458849  1
  Bi  Bi4  1  0.759845  0.815085  0.762143  1
  Bi  Bi5  1  0.259845  0.184915  0.737857  1
  Bi  Bi6  1  0.240155  0.184915  0.237857  1
  Bi  Bi7  1  0.740155  0.815085  0.262143  1
  F  F8  1  0.434601  0.708346  0.915164  1
  F  F9  1  0.934601  0.291654  0.584836  1
  F  F10  1  0.565399  0.291654  0.084836  1
  F  F11  1  0.065399  0.708346  0.415164  1
  F  F12  1  0.446268  0.276339  0.543805  1
  F  F13  1  0.946268  0.723661  0.956195  1
  F  F14  1  0.553732  0.723661  0.456195  1
  F  F15  1  0.053732  0.276339  0.043805  1
  F  F16  1  0.771946  0.512896  0.861667  1
  F  F17  1  0.271946  0.487104  0.638333  1
  F  F18  1  0.228054  0.487104  0.138333  1
  F  F19  1  0.728054  0.512896  0.361667  1
  F  F20  1  0.757895  0.027778  0.054300  1
  F  F21  1  0.257895  0.972222  0.445700  1
  F  F22  1  0.242105  0.972222  0.945700  1
  F  F23  1  0.742105  0.027778  0.554300  1
  F  F24  1  0.969990  0.729774  0.631268  1
  F  F25  1  0.469990  0.270226  0.868732  1
  F  F26  1  0.030010  0.270226  0.368732  1
  F  F27  1  0.530010  0.729774  0.131268  1
  F  F28  1  0.057303  0.746417  0.170745  1
  F  F29  1  0.557303  0.253583  0.329255  1
  F  F30  1  0.942697  0.253583  0.829255  1
  F  F31  1  0.442697  0.746417  0.670745  1
  F  F32  1  0.407653  0.969908  0.229307  1
  F  F33  1  0.907653  0.030092  0.270693  1
  F  F34  1  0.592347  0.030092  0.770693  1
  F  F35  1  0.092347  0.969908  0.729307  1
