# generated using pymatgen
data_RbNpPO6
_symmetry_space_group_name_H-M   'P 1'
_cell_length_a   10.39310568
_cell_length_b   10.40089702
_cell_length_c   8.99591821
_cell_angle_alpha   64.32127062
_cell_angle_beta   64.41074570
_cell_angle_gamma   51.26798052
_symmetry_Int_Tables_number   1
_chemical_formula_structural   RbNpPO6
_chemical_formula_sum   'Rb4 Np4 P4 O24'
_cell_volume   665.53956239
_cell_formula_units_Z   4
loop_
 _symmetry_equiv_pos_site_id
 _symmetry_equiv_pos_as_xyz
  1  'x, y, z'
loop_
 _atom_site_type_symbol
 _atom_site_label
 _atom_site_symmetry_multiplicity
 _atom_site_fract_x
 _atom_site_fract_y
 _atom_site_fract_z
 _atom_site_occupancy
  Rb  Rb0  1  0.810137  0.189863  0.189863  1
  Rb  Rb1  1  0.189863  0.810137  0.810137  1
  Rb  Rb2  1  0.439863  0.060137  0.060137  1
  Rb  Rb3  1  0.060137  0.439863  0.439863  1
  Np  Np4  1  0.960022  0.539978  0.960022  1
  Np  Np5  1  0.539978  0.960022  0.539978  1
  Np  Np6  1  0.289978  0.710022  0.289978  1
  Np  Np7  1  0.710022  0.289978  0.710022  1
  P  P8  1  0.357433  0.357433  0.642567  1
  P  P9  1  0.642567  0.642567  0.357433  1
  P  P10  1  0.892567  0.892567  0.607433  1
  P  P11  1  0.607433  0.607433  0.892567  1
  O  O12  1  0.167870  0.439489  0.731447  1
  O  O13  1  0.661194  0.731447  0.439489  1
  O  O14  1  0.731447  0.661194  0.167870  1
  O  O15  1  0.439489  0.167870  0.661194  1
  O  O16  1  0.082130  0.810511  0.518553  1
  O  O17  1  0.588806  0.518553  0.810511  1
  O  O18  1  0.518553  0.588806  0.082130  1
  O  O19  1  0.810511  0.082130  0.588806  1
  O  O20  1  0.450111  0.374675  0.724064  1
  O  O21  1  0.451149  0.724064  0.374675  1
  O  O22  1  0.724064  0.451149  0.450111  1
  O  O23  1  0.374675  0.450111  0.451149  1
  O  O24  1  0.799889  0.875325  0.525936  1
  O  O25  1  0.798851  0.525936  0.875325  1
  O  O26  1  0.525936  0.798851  0.799889  1
  O  O27  1  0.875325  0.799889  0.798851  1
  O  O28  1  0.098478  0.554765  0.022745  1
  O  O29  1  0.324012  0.022745  0.554765  1
  O  O30  1  0.022745  0.324012  0.098478  1
  O  O31  1  0.554765  0.098478  0.324012  1
  O  O32  1  0.151522  0.695235  0.227255  1
  O  O33  1  0.925988  0.227255  0.695235  1
  O  O34  1  0.227255  0.925988  0.151522  1
  O  O35  1  0.695235  0.151522  0.925988  1
