# generated using pymatgen
data_HoLu9Tl8
_symmetry_space_group_name_H-M   'P 1'
_cell_length_a   9.09474700
_cell_length_b   9.12076243
_cell_length_c   6.58782300
_cell_angle_alpha   90.00000000
_cell_angle_beta   90.00000000
_cell_angle_gamma   119.90568679
_symmetry_Int_Tables_number   1
_chemical_formula_structural   HoLu9Tl8
_chemical_formula_sum   'Ho1 Lu9 Tl8'
_cell_volume   473.70315057
_cell_formula_units_Z   1
loop_
 _symmetry_equiv_pos_site_id
 _symmetry_equiv_pos_as_xyz
  1  'x, y, z'
loop_
 _atom_site_type_symbol
 _atom_site_label
 _atom_site_symmetry_multiplicity
 _atom_site_fract_x
 _atom_site_fract_y
 _atom_site_fract_z
 _atom_site_occupancy
  Ho  Ho0  1  0.290593  0.000000  0.750000  1
  Lu  Lu1  1  0.333109  0.664664  0.499873  1
  Lu  Lu2  1  0.668448  0.335336  0.499873  1
  Lu  Lu3  1  0.668448  0.335336  0.000127  1
  Lu  Lu4  1  0.333109  0.664664  0.000127  1
  Lu  Lu5  1  0.705625  0.000000  0.250000  1
  Lu  Lu6  1  0.001925  0.292316  0.750000  1
  Lu  Lu7  1  0.000333  0.708777  0.250000  1
  Lu  Lu8  1  0.709608  0.707684  0.750000  1
  Lu  Lu9  1  0.291556  0.291223  0.250000  1
  Tl  Tl10  1  0.997116  0.000000  0.498410  1
  Tl  Tl11  1  0.997116  0.000000  0.001590  1
  Tl  Tl12  1  0.630108  0.000000  0.750000  1
  Tl  Tl13  1  0.371863  0.000000  0.250000  1
  Tl  Tl14  1  0.999458  0.625790  0.750000  1
  Tl  Tl15  1  0.999973  0.372029  0.250000  1
  Tl  Tl16  1  0.373668  0.374210  0.750000  1
  Tl  Tl17  1  0.627944  0.627971  0.250000  1
