# generated using pymatgen
data_Yb4AlCo7O16
_symmetry_space_group_name_H-M   'P 1'
_cell_length_a   4.93217503
_cell_length_b   5.68620372
_cell_length_c   10.67442964
_cell_angle_alpha   89.62511926
_cell_angle_beta   89.84742729
_cell_angle_gamma   89.76084934
_symmetry_Int_Tables_number   1
_chemical_formula_structural   Yb4AlCo7O16
_chemical_formula_sum   'Yb4 Al1 Co7 O16'
_cell_volume   299.35808139
_cell_formula_units_Z   1
loop_
 _symmetry_equiv_pos_site_id
 _symmetry_equiv_pos_as_xyz
  1  'x, y, z'
loop_
 _atom_site_type_symbol
 _atom_site_label
 _atom_site_symmetry_multiplicity
 _atom_site_fract_x
 _atom_site_fract_y
 _atom_site_fract_z
 _atom_site_occupancy
  Yb  Yb0  1  0.032458  0.749846  0.249443  1
  Yb  Yb1  1  0.352311  0.745946  0.747687  1
  Yb  Yb2  1  0.647688  0.254054  0.252314  1
  Yb  Yb3  1  0.967539  0.250154  0.750557  1
  Al  Al4  1  0.500001  0.999999  0.000000  1
  Co  Co5  1  0.003093  0.249276  0.005548  1
  Co  Co6  1  0.996909  0.750723  0.994452  1
  Co  Co7  1  0.002659  0.249901  0.494982  1
  Co  Co8  1  0.997341  0.750100  0.505018  1
  Co  Co9  1  0.500000  0.000000  0.500000  1
  Co  Co10  1  0.500001  0.499999  0.000000  1
  Co  Co11  1  0.500000  0.500000  0.500000  1
  O  O12  1  0.167947  0.002933  0.900544  1
  O  O13  1  0.164700  0.001492  0.598239  1
  O  O14  1  0.164915  0.496374  0.598061  1
  O  O15  1  0.165475  0.497234  0.902333  1
  O  O16  1  0.338979  0.246038  0.096207  1
  O  O17  1  0.335265  0.251260  0.404567  1
  O  O18  1  0.329144  0.752488  0.089921  1
  O  O19  1  0.329352  0.751120  0.409592  1
  O  O20  1  0.670647  0.248880  0.590408  1
  O  O21  1  0.670857  0.247511  0.910079  1
  O  O22  1  0.664734  0.748741  0.595434  1
  O  O23  1  0.661022  0.753961  0.903792  1
  O  O24  1  0.832054  0.997067  0.099456  1
  O  O25  1  0.835300  0.998510  0.401761  1
  O  O26  1  0.834526  0.502765  0.097667  1
  O  O27  1  0.835084  0.503627  0.401939  1
