# generated using pymatgen
data_Tb2SmDy2(CoB3)2
_symmetry_space_group_name_H-M   'P 1'
_cell_length_a   5.41030814
_cell_length_b   5.41030757
_cell_length_c   8.42634108
_cell_angle_alpha   71.27446642
_cell_angle_beta   71.27446954
_cell_angle_gamma   59.99999633
_symmetry_Int_Tables_number   1
_chemical_formula_structural   Tb2SmDy2(CoB3)2
_chemical_formula_sum   'Tb2 Sm1 Dy2 Co2 B6'
_cell_volume   198.38727010
_cell_formula_units_Z   1
loop_
 _symmetry_equiv_pos_site_id
 _symmetry_equiv_pos_as_xyz
  1  'x, y, z'
loop_
 _atom_site_type_symbol
 _atom_site_label
 _atom_site_symmetry_multiplicity
 _atom_site_fract_x
 _atom_site_fract_y
 _atom_site_fract_z
 _atom_site_occupancy
  Tb  Tb0  1  0.251128  0.251128  0.246615  1
  Tb  Tb1  1  0.748872  0.748872  0.753385  1
  Sm  Sm2  1  0.000000  0.000000  0.000000  1
  Dy  Dy3  1  0.417414  0.417414  0.747758  1
  Dy  Dy4  1  0.582586  0.582586  0.252242  1
  Co  Co5  1  0.120096  0.120096  0.639712  1
  Co  Co6  1  0.879904  0.879904  0.360288  1
  B  B7  1  0.168712  0.831288  0.500000  1
  B  B8  1  0.831288  0.500000  0.500000  1
  B  B9  1  0.500000  0.168712  0.500000  1
  B  B10  1  0.168712  0.500000  0.500000  1
  B  B11  1  0.500000  0.831288  0.500000  1
  B  B12  1  0.831288  0.168712  0.500000  1
