# generated using pymatgen
data_Y4SnSb5Rh7
_symmetry_space_group_name_H-M   'P 1'
_cell_length_a   7.62267884
_cell_length_b   7.62268100
_cell_length_c   7.62268000
_cell_angle_alpha   109.60706469
_cell_angle_beta   109.40334833
_cell_angle_gamma   109.40333691
_symmetry_Int_Tables_number   1
_chemical_formula_structural   Y4SnSb5Rh7
_chemical_formula_sum   'Y4 Sn1 Sb5 Rh7'
_cell_volume   340.95677190
_cell_formula_units_Z   1
loop_
 _symmetry_equiv_pos_site_id
 _symmetry_equiv_pos_as_xyz
  1  'x, y, z'
loop_
 _atom_site_type_symbol
 _atom_site_label
 _atom_site_symmetry_multiplicity
 _atom_site_fract_x
 _atom_site_fract_y
 _atom_site_fract_z
 _atom_site_occupancy
  Y  Y0  1  0.498694  0.000591  0.000591  1
  Y  Y1  1  0.000000  0.501897  0.000591  1
  Y  Y2  1  0.000000  0.000591  0.501897  1
  Y  Y3  1  0.501306  0.501897  0.501897  1
  Sn  Sn4  1  0.000000  0.314400  0.314400  1
  Sb  Sb5  1  0.682597  0.001458  0.684055  1
  Sb  Sb6  1  0.682597  0.684055  0.001458  1
  Sb  Sb7  1  0.000000  0.677906  0.677906  1
  Sb  Sb8  1  0.317403  0.001458  0.318860  1
  Sb  Sb9  1  0.317403  0.318860  0.001458  1
  Rh  Rh10  1  0.000000  0.994720  0.994720  1
  Rh  Rh11  1  0.500000  0.751185  0.251185  1
  Rh  Rh12  1  0.748985  0.499948  0.248934  1
  Rh  Rh13  1  0.251015  0.750963  0.499948  1
  Rh  Rh14  1  0.251015  0.499948  0.750963  1
  Rh  Rh15  1  0.500000  0.251185  0.751185  1
  Rh  Rh16  1  0.748985  0.248934  0.499948  1
