# generated using pymatgen
data_Ce3Lu2CoPb3
_symmetry_space_group_name_H-M   'P 1'
_cell_length_a   9.52868761
_cell_length_b   9.30718779
_cell_length_c   6.28882200
_cell_angle_alpha   90.00000000
_cell_angle_beta   90.00000000
_cell_angle_gamma   119.23397277
_symmetry_Int_Tables_number   1
_chemical_formula_structural   Ce3Lu2CoPb3
_chemical_formula_sum   'Ce6 Lu4 Co2 Pb6'
_cell_volume   486.68989431
_cell_formula_units_Z   2
loop_
 _symmetry_equiv_pos_site_id
 _symmetry_equiv_pos_as_xyz
  1  'x, y, z'
loop_
 _atom_site_type_symbol
 _atom_site_label
 _atom_site_symmetry_multiplicity
 _atom_site_fract_x
 _atom_site_fract_y
 _atom_site_fract_z
 _atom_site_occupancy
  Ce  Ce0  1  0.327646  0.663824  0.500000  1
  Ce  Ce1  1  0.672354  0.336176  0.500000  1
  Ce  Ce2  1  0.000000  0.212888  0.250000  1
  Ce  Ce3  1  0.000000  0.787112  0.750000  1
  Ce  Ce4  1  0.327646  0.663824  0.000000  1
  Ce  Ce5  1  0.672354  0.336176  0.000000  1
  Lu  Lu6  1  0.239918  0.237361  0.750000  1
  Lu  Lu7  1  0.760082  0.762639  0.250000  1
  Lu  Lu8  1  0.239918  0.002557  0.250000  1
  Lu  Lu9  1  0.760082  0.997443  0.750000  1
  Co  Co10  1  0.000000  0.000000  0.000000  1
  Co  Co11  1  0.000000  0.000000  0.500000  1
  Pb  Pb12  1  0.399996  0.395427  0.250000  1
  Pb  Pb13  1  0.600004  0.604573  0.750000  1
  Pb  Pb14  1  0.000000  0.390260  0.750000  1
  Pb  Pb15  1  0.600004  0.995431  0.250000  1
  Pb  Pb16  1  0.399996  0.004569  0.750000  1
  Pb  Pb17  1  0.000000  0.609740  0.250000  1
