# generated using pymatgen
data_Ca6Sc2(Al2Ir)7
_symmetry_space_group_name_H-M   'P 1'
_cell_length_a   9.03678989
_cell_length_b   9.06126837
_cell_length_c   9.06126756
_cell_angle_alpha   60.13402071
_cell_angle_beta   60.08931039
_cell_angle_gamma   60.08932008
_symmetry_Int_Tables_number   1
_chemical_formula_structural   Ca6Sc2(Al2Ir)7
_chemical_formula_sum   'Ca6 Sc2 Al14 Ir7'
_cell_volume   525.89767612
_cell_formula_units_Z   1
loop_
 _symmetry_equiv_pos_site_id
 _symmetry_equiv_pos_as_xyz
  1  'x, y, z'
loop_
 _atom_site_type_symbol
 _atom_site_label
 _atom_site_symmetry_multiplicity
 _atom_site_fract_x
 _atom_site_fract_y
 _atom_site_fract_z
 _atom_site_occupancy
  Ca  Ca0  1  0.704644  0.703912  0.293380  1
  Ca  Ca1  1  0.298065  0.703912  0.293380  1
  Ca  Ca2  1  0.701621  0.298379  0.298379  1
  Ca  Ca3  1  0.298065  0.293380  0.703912  1
  Ca  Ca4  1  0.704644  0.293380  0.703912  1
  Ca  Ca5  1  0.290641  0.709359  0.709359  1
  Sc  Sc6  1  0.879738  0.883340  0.357185  1
  Sc  Sc7  1  0.879738  0.357185  0.883340  1
  Al  Al8  1  0.358238  0.881139  0.881139  1
  Al  Al9  1  0.879484  0.881139  0.881139  1
  Al  Al10  1  0.120997  0.120873  0.637133  1
  Al  Al11  1  0.120997  0.637133  0.120873  1
  Al  Al12  1  0.639647  0.118077  0.118077  1
  Al  Al13  1  0.124199  0.118077  0.118077  1
  Al  Al14  1  0.669602  0.675457  0.985337  1
  Al  Al15  1  0.669602  0.985337  0.675457  1
  Al  Al16  1  0.983848  0.674058  0.674058  1
  Al  Al17  1  0.668034  0.674058  0.674058  1
  Al  Al18  1  0.327748  0.326994  0.017511  1
  Al  Al19  1  0.327748  0.017511  0.326994  1
  Al  Al20  1  0.020173  0.326079  0.326079  1
  Al  Al21  1  0.327670  0.326079  0.326079  1
  Ir  Ir22  1  0.006569  0.993431  0.993431  1
  Ir  Ir23  1  0.001885  0.999992  0.502308  1
  Ir  Ir24  1  0.495815  0.999992  0.502308  1
  Ir  Ir25  1  0.002272  0.497728  0.497728  1
  Ir  Ir26  1  0.495815  0.502308  0.999992  1
  Ir  Ir27  1  0.001885  0.502308  0.999992  1
  Ir  Ir28  1  0.500616  0.999384  0.999384  1
