# generated using pymatgen
data_Th3Ir8Rh
_symmetry_space_group_name_H-M   'P 1'
_cell_length_a   5.37561200
_cell_length_b   5.37561239
_cell_length_c   17.79650800
_cell_angle_alpha   90.00000000
_cell_angle_beta   90.00000000
_cell_angle_gamma   119.99999762
_symmetry_Int_Tables_number   1
_chemical_formula_structural   Th3Ir8Rh
_chemical_formula_sum   'Th6 Ir16 Rh2'
_cell_volume   445.37034593
_cell_formula_units_Z   2
loop_
 _symmetry_equiv_pos_site_id
 _symmetry_equiv_pos_as_xyz
  1  'x, y, z'
loop_
 _atom_site_type_symbol
 _atom_site_label
 _atom_site_symmetry_multiplicity
 _atom_site_fract_x
 _atom_site_fract_y
 _atom_site_fract_z
 _atom_site_occupancy
  Th  Th0  1  0.333333  0.666667  0.958281  1
  Th  Th1  1  0.666667  0.333333  0.041719  1
  Th  Th2  1  0.666667  0.333333  0.458281  1
  Th  Th3  1  0.333333  0.666667  0.541719  1
  Th  Th4  1  0.333333  0.666667  0.750000  1
  Th  Th5  1  0.666667  0.333333  0.250000  1
  Ir  Ir6  1  0.167111  0.832889  0.373174  1
  Ir  Ir7  1  0.167111  0.334221  0.373174  1
  Ir  Ir8  1  0.665779  0.832889  0.373174  1
  Ir  Ir9  1  0.832889  0.167111  0.626826  1
  Ir  Ir10  1  0.832889  0.665779  0.626826  1
  Ir  Ir11  1  0.334221  0.167111  0.626826  1
  Ir  Ir12  1  0.832889  0.167111  0.873174  1
  Ir  Ir13  1  0.832889  0.665779  0.873174  1
  Ir  Ir14  1  0.334221  0.167111  0.873174  1
  Ir  Ir15  1  0.167111  0.832889  0.126826  1
  Ir  Ir16  1  0.167111  0.334221  0.126826  1
  Ir  Ir17  1  0.665779  0.832889  0.126826  1
  Ir  Ir18  1  0.333333  0.666667  0.250000  1
  Ir  Ir19  1  0.666667  0.333333  0.750000  1
  Ir  Ir20  1  0.000000  0.000000  0.500000  1
  Ir  Ir21  1  0.000000  0.000000  0.000000  1
  Rh  Rh22  1  0.000000  0.000000  0.250000  1
  Rh  Rh23  1  0.000000  0.000000  0.750000  1
