# generated using pymatgen
data_Y5Ho11Cd3InPd4
_symmetry_space_group_name_H-M   'P 1'
_cell_length_a   9.67728778
_cell_length_b   9.67646101
_cell_length_c   9.67646038
_cell_angle_alpha   60.12798904
_cell_angle_beta   60.11283918
_cell_angle_gamma   60.11284061
_symmetry_Int_Tables_number   1
_chemical_formula_structural   Y5Ho11Cd3InPd4
_chemical_formula_sum   'Y5 Ho11 Cd3 In1 Pd4'
_cell_volume   642.43634829
_cell_formula_units_Z   1
loop_
 _symmetry_equiv_pos_site_id
 _symmetry_equiv_pos_as_xyz
  1  'x, y, z'
loop_
 _atom_site_type_symbol
 _atom_site_label
 _atom_site_symmetry_multiplicity
 _atom_site_fract_x
 _atom_site_fract_y
 _atom_site_fract_z
 _atom_site_occupancy
  Y  Y0  1  0.564108  0.936115  0.936115  1
  Y  Y1  1  0.566498  0.935871  0.566142  1
  Y  Y2  1  0.936033  0.564100  0.935694  1
  Y  Y3  1  0.566498  0.566142  0.935871  1
  Y  Y4  1  0.936033  0.935694  0.564100  1
  Ho  Ho5  1  0.351230  0.351624  0.351624  1
  Ho  Ho6  1  0.355692  0.355735  0.937131  1
  Ho  Ho7  1  0.355692  0.937131  0.355735  1
  Ho  Ho8  1  0.937212  0.355810  0.355810  1
  Ho  Ho9  1  0.810876  0.189542  0.189542  1
  Ho  Ho10  1  0.190213  0.809763  0.809763  1
  Ho  Ho11  1  0.189300  0.810785  0.189767  1
  Ho  Ho12  1  0.809841  0.190484  0.809650  1
  Ho  Ho13  1  0.189300  0.189767  0.810785  1
  Ho  Ho14  1  0.809841  0.809650  0.190484  1
  Ho  Ho15  1  0.936288  0.566135  0.566135  1
  Cd  Cd16  1  0.580881  0.580904  0.252484  1
  Cd  Cd17  1  0.580881  0.252484  0.580904  1
  Cd  Cd18  1  0.252197  0.580939  0.580939  1
  In  In19  1  0.582469  0.582337  0.582337  1
  Pd  Pd20  1  0.145433  0.145451  0.145451  1
  Pd  Pd21  1  0.142822  0.142899  0.567810  1
  Pd  Pd22  1  0.142822  0.567810  0.142899  1
  Pd  Pd23  1  0.567842  0.142829  0.142829  1
