# generated using pymatgen
data_Nd7TmSc12Si15Sb
_symmetry_space_group_name_H-M   'P 1'
_cell_length_a   7.26786611
_cell_length_b   7.51030807
_cell_length_c   14.23232469
_cell_angle_alpha   90.02271037
_cell_angle_beta   89.10996680
_cell_angle_gamma   90.31467329
_symmetry_Int_Tables_number   1
_chemical_formula_structural   Nd7TmSc12Si15Sb
_chemical_formula_sum   'Nd7 Tm1 Sc12 Si15 Sb1'
_cell_volume   776.75049998
_cell_formula_units_Z   1
loop_
 _symmetry_equiv_pos_site_id
 _symmetry_equiv_pos_as_xyz
  1  'x, y, z'
loop_
 _atom_site_type_symbol
 _atom_site_label
 _atom_site_symmetry_multiplicity
 _atom_site_fract_x
 _atom_site_fract_y
 _atom_site_fract_z
 _atom_site_occupancy
  Nd  Nd0  1  0.010675  0.173450  0.097100  1
  Nd  Nd1  1  0.989854  0.827302  0.901475  1
  Nd  Nd2  1  0.489603  0.672221  0.903933  1
  Nd  Nd3  1  0.993061  0.828847  0.598460  1
  Nd  Nd4  1  0.510830  0.327242  0.097676  1
  Nd  Nd5  1  0.003591  0.170669  0.401493  1
  Nd  Nd6  1  0.508171  0.322262  0.399794  1
  Tm  Tm7  1  0.509880  0.682773  0.601932  1
  Sc  Sc8  1  0.165247  0.500367  0.753606  1
  Sc  Sc9  1  0.834980  0.501696  0.251571  1
  Sc  Sc10  1  0.335231  0.998194  0.250573  1
  Sc  Sc11  1  0.666002  0.000992  0.750019  1
  Sc  Sc12  1  0.346130  0.160947  0.630775  1
  Sc  Sc13  1  0.659434  0.825994  0.373103  1
  Sc  Sc14  1  0.155800  0.679377  0.371817  1
  Sc  Sc15  1  0.666724  0.824392  0.124520  1
  Sc  Sc16  1  0.829264  0.327902  0.624781  1
  Sc  Sc17  1  0.332277  0.174130  0.873339  1
  Sc  Sc18  1  0.831862  0.324357  0.874193  1
  Sc  Sc19  1  0.167082  0.676395  0.124922  1
  Si  Si20  1  0.036751  0.126339  0.749222  1
  Si  Si21  1  0.959718  0.877535  0.248207  1
  Si  Si22  1  0.458286  0.623542  0.248516  1
  Si  Si23  1  0.538318  0.380073  0.750903  1
  Si  Si24  1  0.295430  0.871629  0.750144  1
  Si  Si25  1  0.708296  0.118494  0.247932  1
  Si  Si26  1  0.207004  0.381872  0.249535  1
  Si  Si27  1  0.791121  0.621457  0.749132  1
  Si  Si28  1  0.816353  0.544376  0.457767  1
  Si  Si29  1  0.340639  0.958003  0.462287  1
  Si  Si30  1  0.847209  0.536883  0.039162  1
  Si  Si31  1  0.659711  0.034422  0.540463  1
  Si  Si32  1  0.151226  0.463562  0.960174  1
  Si  Si33  1  0.652566  0.036574  0.959611  1
  Si  Si34  1  0.346753  0.964691  0.039552  1
  Sb  Sb35  1  0.184919  0.461041  0.542315  1
