# generated using pymatgen
data_NdDy4(MnB3)2
_symmetry_space_group_name_H-M   'P 1'
_cell_length_a   5.43441629
_cell_length_b   5.43441637
_cell_length_c   8.35806390
_cell_angle_alpha   71.02835307
_cell_angle_beta   71.02835085
_cell_angle_gamma   60.00001800
_symmetry_Int_Tables_number   1
_chemical_formula_structural   NdDy4(MnB3)2
_chemical_formula_sum   'Nd1 Dy4 Mn2 B6'
_cell_volume   198.13397516
_cell_formula_units_Z   1
loop_
 _symmetry_equiv_pos_site_id
 _symmetry_equiv_pos_as_xyz
  1  'x, y, z'
loop_
 _atom_site_type_symbol
 _atom_site_label
 _atom_site_symmetry_multiplicity
 _atom_site_fract_x
 _atom_site_fract_y
 _atom_site_fract_z
 _atom_site_occupancy
  Nd  Nd0  1  0.000000  0.000000  0.000000  1
  Dy  Dy1  1  0.249642  0.249642  0.251073  1
  Dy  Dy2  1  0.750358  0.750358  0.748927  1
  Dy  Dy3  1  0.417670  0.417670  0.746991  1
  Dy  Dy4  1  0.582330  0.582330  0.253009  1
  Mn  Mn5  1  0.115200  0.115200  0.654401  1
  Mn  Mn6  1  0.884800  0.884800  0.345599  1
  B  B7  1  0.166116  0.833884  0.500000  1
  B  B8  1  0.833884  0.500000  0.500000  1
  B  B9  1  0.500000  0.166116  0.500000  1
  B  B10  1  0.166116  0.500000  0.500000  1
  B  B11  1  0.500000  0.833884  0.500000  1
  B  B12  1  0.833884  0.166116  0.500000  1
