# generated using pymatgen
data_Pr3ScCd2Pt3
_symmetry_space_group_name_H-M   'P 1'
_cell_length_a   7.52523100
_cell_length_b   7.72115529
_cell_length_c   4.21786600
_cell_angle_alpha   90.00000000
_cell_angle_beta   90.00000000
_cell_angle_gamma   119.16409688
_symmetry_Int_Tables_number   1
_chemical_formula_structural   Pr3ScCd2Pt3
_chemical_formula_sum   'Pr3 Sc1 Cd2 Pt3'
_cell_volume   214.00423189
_cell_formula_units_Z   1
loop_
 _symmetry_equiv_pos_site_id
 _symmetry_equiv_pos_as_xyz
  1  'x, y, z'
loop_
 _atom_site_type_symbol
 _atom_site_label
 _atom_site_symmetry_multiplicity
 _atom_site_fract_x
 _atom_site_fract_y
 _atom_site_fract_z
 _atom_site_occupancy
  Pr  Pr0  1  0.609044  0.000000  0.000000  1
  Pr  Pr1  1  0.988021  0.576025  0.000000  1
  Pr  Pr2  1  0.411996  0.423975  0.000000  1
  Sc  Sc3  1  0.238142  0.000000  0.500000  1
  Cd  Cd4  1  0.001602  0.248344  0.500000  1
  Cd  Cd5  1  0.753258  0.751656  0.500000  1
  Pt  Pt6  1  0.328608  0.685778  0.500000  1
  Pt  Pt7  1  0.642831  0.314222  0.500000  1
  Pt  Pt8  1  0.026499  0.000000  0.000000  1
