# generated using pymatgen
data_LaSn2IrPd
_symmetry_space_group_name_H-M   'P 1'
_cell_length_a   4.65007000
_cell_length_b   4.65007000
_cell_length_c   10.57520200
_cell_angle_alpha   90.00000000
_cell_angle_beta   90.00000000
_cell_angle_gamma   90.00000000
_symmetry_Int_Tables_number   1
_chemical_formula_structural   LaSn2IrPd
_chemical_formula_sum   'La2 Sn4 Ir2 Pd2'
_cell_volume   228.66918975
_cell_formula_units_Z   2
loop_
 _symmetry_equiv_pos_site_id
 _symmetry_equiv_pos_as_xyz
  1  'x, y, z'
loop_
 _atom_site_type_symbol
 _atom_site_label
 _atom_site_symmetry_multiplicity
 _atom_site_fract_x
 _atom_site_fract_y
 _atom_site_fract_z
 _atom_site_occupancy
  La  La0  1  0.000000  0.500000  0.250103  1
  La  La1  1  0.500000  0.000000  0.749897  1
  Sn  Sn2  1  0.000000  0.000000  0.500000  1
  Sn  Sn3  1  0.500000  0.500000  0.500000  1
  Sn  Sn4  1  0.000000  0.500000  0.873326  1
  Sn  Sn5  1  0.500000  0.000000  0.126674  1
  Ir  Ir6  1  0.000000  0.500000  0.628109  1
  Ir  Ir7  1  0.500000  0.000000  0.371891  1
  Pd  Pd8  1  0.000000  0.000000  0.000000  1
  Pd  Pd9  1  0.500000  0.500000  0.000000  1
