# generated using pymatgen
data_Hf16TcNi4Mo3
_symmetry_space_group_name_H-M   'P 1'
_cell_length_a   8.66541304
_cell_length_b   8.66541278
_cell_length_c   8.66541373
_cell_angle_alpha   60.03900242
_cell_angle_beta   60.03899699
_cell_angle_gamma   60.03899986
_symmetry_Int_Tables_number   1
_chemical_formula_structural   Hf16TcNi4Mo3
_chemical_formula_sum   'Hf16 Tc1 Ni4 Mo3'
_cell_volume   460.50736164
_cell_formula_units_Z   1
loop_
 _symmetry_equiv_pos_site_id
 _symmetry_equiv_pos_as_xyz
  1  'x, y, z'
loop_
 _atom_site_type_symbol
 _atom_site_label
 _atom_site_symmetry_multiplicity
 _atom_site_fract_x
 _atom_site_fract_y
 _atom_site_fract_z
 _atom_site_occupancy
  Hf  Hf0  1  0.690992  0.103014  0.103014  1
  Hf  Hf1  1  0.103014  0.690992  0.103014  1
  Hf  Hf2  1  0.103014  0.103014  0.690992  1
  Hf  Hf3  1  0.103057  0.103057  0.103057  1
  Hf  Hf4  1  0.315103  0.315103  0.683807  1
  Hf  Hf5  1  0.684965  0.684965  0.315122  1
  Hf  Hf6  1  0.315103  0.683807  0.315103  1
  Hf  Hf7  1  0.684965  0.315122  0.684965  1
  Hf  Hf8  1  0.683807  0.315103  0.315103  1
  Hf  Hf9  1  0.315122  0.684965  0.684965  1
  Hf  Hf10  1  0.952205  0.952205  0.547783  1
  Hf  Hf11  1  0.547626  0.547626  0.952392  1
  Hf  Hf12  1  0.952205  0.547783  0.952205  1
  Hf  Hf13  1  0.547626  0.952392  0.547626  1
  Hf  Hf14  1  0.547783  0.952205  0.952205  1
  Hf  Hf15  1  0.952392  0.547626  0.547626  1
  Tc  Tc16  1  0.334827  0.334827  0.334827  1
  Ni  Ni17  1  0.324616  0.891440  0.891440  1
  Ni  Ni18  1  0.891440  0.324616  0.891440  1
  Ni  Ni19  1  0.891440  0.891440  0.324616  1
  Ni  Ni20  1  0.891764  0.891764  0.891764  1
  Mo  Mo21  1  0.999875  0.333527  0.333527  1
  Mo  Mo22  1  0.333527  0.999875  0.333527  1
  Mo  Mo23  1  0.333527  0.333527  0.999875  1
