# generated using pymatgen
data_Na2SrSi(PPd4)5
_symmetry_space_group_name_H-M   'P 1'
_cell_length_a   8.68101135
_cell_length_b   8.68111973
_cell_length_c   8.68112066
_cell_angle_alpha   59.97533831
_cell_angle_beta   60.00042022
_cell_angle_gamma   60.00041689
_symmetry_Int_Tables_number   1
_chemical_formula_structural   Na2SrSi(PPd4)5
_chemical_formula_sum   'Na2 Sr1 Si1 P5 Pd20'
_cell_volume   462.51796030
_cell_formula_units_Z   1
loop_
 _symmetry_equiv_pos_site_id
 _symmetry_equiv_pos_as_xyz
  1  'x, y, z'
loop_
 _atom_site_type_symbol
 _atom_site_label
 _atom_site_symmetry_multiplicity
 _atom_site_fract_x
 _atom_site_fract_y
 _atom_site_fract_z
 _atom_site_occupancy
  Na  Na0  1  0.250338  0.249662  0.249662  1
  Na  Na1  1  0.999287  0.000713  0.000713  1
  Sr  Sr2  1  0.750440  0.749560  0.749560  1
  Si  Si3  1  0.735529  0.264471  0.264471  1
  P  P4  1  0.263545  0.736455  0.736455  1
  P  P5  1  0.264532  0.735310  0.263172  1
  P  P6  1  0.736986  0.263172  0.735310  1
  P  P7  1  0.264532  0.263172  0.735310  1
  P  P8  1  0.736986  0.735310  0.263172  1
  Pd  Pd9  1  0.382001  0.382888  0.382888  1
  Pd  Pd10  1  0.609955  0.609894  0.609894  1
  Pd  Pd11  1  0.382745  0.383238  0.851272  1
  Pd  Pd12  1  0.382745  0.851272  0.383238  1
  Pd  Pd13  1  0.609396  0.612863  0.168344  1
  Pd  Pd14  1  0.609396  0.168344  0.612863  1
  Pd  Pd15  1  0.852224  0.382888  0.382888  1
  Pd  Pd16  1  0.170255  0.609894  0.609894  1
  Pd  Pd17  1  0.342594  0.001307  0.001307  1
  Pd  Pd18  1  0.654791  0.001307  0.001307  1
  Pd  Pd19  1  0.000007  0.343944  0.656041  1
  Pd  Pd20  1  0.000007  0.656041  0.343944  1
  Pd  Pd21  1  0.002610  0.344527  0.998518  1
  Pd  Pd22  1  0.654345  0.998518  0.344527  1
  Pd  Pd23  1  0.000431  0.655458  0.000644  1
  Pd  Pd24  1  0.343466  0.000644  0.655458  1
  Pd  Pd25  1  0.002610  0.998518  0.344527  1
  Pd  Pd26  1  0.000431  0.000644  0.655458  1
  Pd  Pd27  1  0.654345  0.344527  0.998518  1
  Pd  Pd28  1  0.343466  0.655458  0.000644  1
