# generated using pymatgen
data_Rb5SbAu2
_symmetry_space_group_name_H-M   'P 1'
_cell_length_a   10.63583485
_cell_length_b   10.63583463
_cell_length_c   10.63583524
_cell_angle_alpha   128.91650384
_cell_angle_beta   128.91650288
_cell_angle_gamma   75.14495725
_symmetry_Int_Tables_number   1
_chemical_formula_structural   Rb5SbAu2
_chemical_formula_sum   'Rb10 Sb2 Au4'
_cell_volume   709.11006418
_cell_formula_units_Z   2
loop_
 _symmetry_equiv_pos_site_id
 _symmetry_equiv_pos_as_xyz
  1  'x, y, z'
loop_
 _atom_site_type_symbol
 _atom_site_label
 _atom_site_symmetry_multiplicity
 _atom_site_fract_x
 _atom_site_fract_y
 _atom_site_fract_z
 _atom_site_occupancy
  Rb  Rb0  1  0.500000  0.500000  0.000000  1
  Rb  Rb1  1  0.000000  0.000000  0.000000  1
  Rb  Rb2  1  0.533287  0.033287  0.852676  1
  Rb  Rb3  1  0.180610  0.680610  0.147324  1
  Rb  Rb4  1  0.033287  0.180610  0.500000  1
  Rb  Rb5  1  0.680610  0.533287  0.500000  1
  Rb  Rb6  1  0.466713  0.966713  0.147324  1
  Rb  Rb7  1  0.819390  0.319390  0.852676  1
  Rb  Rb8  1  0.966713  0.819390  0.500000  1
  Rb  Rb9  1  0.319390  0.466713  0.500000  1
  Sb  Sb10  1  0.250000  0.250000  0.000000  1
  Sb  Sb11  1  0.750000  0.750000  0.000000  1
  Au  Au12  1  0.115247  0.615247  0.730495  1
  Au  Au13  1  0.884753  0.384753  0.269505  1
  Au  Au14  1  0.615247  0.884753  0.500000  1
  Au  Au15  1  0.384753  0.115247  0.500000  1
