# generated using pymatgen
data_Zr4TaTi3P4
_symmetry_space_group_name_H-M   'P 1'
_cell_length_a   3.58096600
_cell_length_b   6.79007101
_cell_length_c   8.25881519
_cell_angle_alpha   89.90698009
_cell_angle_beta   90.00000000
_cell_angle_gamma   90.00000000
_symmetry_Int_Tables_number   1
_chemical_formula_structural   Zr4TaTi3P4
_chemical_formula_sum   'Zr4 Ta1 Ti3 P4'
_cell_volume   200.81293763
_cell_formula_units_Z   1
loop_
 _symmetry_equiv_pos_site_id
 _symmetry_equiv_pos_as_xyz
  1  'x, y, z'
loop_
 _atom_site_type_symbol
 _atom_site_label
 _atom_site_symmetry_multiplicity
 _atom_site_fract_x
 _atom_site_fract_y
 _atom_site_fract_z
 _atom_site_occupancy
  Zr  Zr0  1  0.250000  0.033890  0.667779  1
  Zr  Zr1  1  0.250000  0.535441  0.829905  1
  Zr  Zr2  1  0.750000  0.464213  0.171995  1
  Zr  Zr3  1  0.750000  0.963750  0.330898  1
  Ta  Ta4  1  0.250000  0.138726  0.058892  1
  Ti  Ti5  1  0.750000  0.863377  0.940480  1
  Ti  Ti6  1  0.250000  0.636290  0.440798  1
  Ti  Ti7  1  0.750000  0.365265  0.559919  1
  P  P8  1  0.250000  0.263335  0.365474  1
  P  P9  1  0.250000  0.762725  0.140140  1
  P  P10  1  0.750000  0.736423  0.638396  1
  P  P11  1  0.750000  0.236565  0.855323  1
