# generated using pymatgen
data_Ho3Er5(HgPt)2
_symmetry_space_group_name_H-M   'P 1'
_cell_length_a   9.57715343
_cell_length_b   9.57715435
_cell_length_c   9.57715300
_cell_angle_alpha   60.00000120
_cell_angle_beta   59.99999803
_cell_angle_gamma   60.00000186
_symmetry_Int_Tables_number   1
_chemical_formula_structural   Ho3Er5(HgPt)2
_chemical_formula_sum   'Ho6 Er10 Hg4 Pt4'
_cell_volume   621.14695844
_cell_formula_units_Z   2
loop_
 _symmetry_equiv_pos_site_id
 _symmetry_equiv_pos_as_xyz
  1  'x, y, z'
loop_
 _atom_site_type_symbol
 _atom_site_label
 _atom_site_symmetry_multiplicity
 _atom_site_fract_x
 _atom_site_fract_y
 _atom_site_fract_z
 _atom_site_occupancy
  Ho  Ho0  1  0.186008  0.813992  0.813992  1
  Ho  Ho1  1  0.813992  0.186008  0.186008  1
  Ho  Ho2  1  0.813992  0.186008  0.813992  1
  Ho  Ho3  1  0.186008  0.813992  0.186008  1
  Ho  Ho4  1  0.813992  0.813992  0.186008  1
  Ho  Ho5  1  0.186008  0.186008  0.813992  1
  Er  Er6  1  0.604409  0.604409  0.604409  1
  Er  Er7  1  0.604409  0.604409  0.186771  1
  Er  Er8  1  0.604409  0.186771  0.604409  1
  Er  Er9  1  0.186771  0.604409  0.604409  1
  Er  Er10  1  0.060165  0.439835  0.439835  1
  Er  Er11  1  0.439835  0.060165  0.060165  1
  Er  Er12  1  0.439835  0.060165  0.439835  1
  Er  Er13  1  0.060165  0.439835  0.060165  1
  Er  Er14  1  0.439835  0.439835  0.060165  1
  Er  Er15  1  0.060165  0.060165  0.439835  1
  Hg  Hg16  1  0.836062  0.836062  0.836062  1
  Hg  Hg17  1  0.836062  0.836062  0.491816  1
  Hg  Hg18  1  0.836062  0.491816  0.836062  1
  Hg  Hg19  1  0.491816  0.836062  0.836062  1
  Pt  Pt20  1  0.393934  0.393934  0.393934  1
  Pt  Pt21  1  0.393934  0.393934  0.818196  1
  Pt  Pt22  1  0.393934  0.818196  0.393934  1
  Pt  Pt23  1  0.818196  0.393934  0.393934  1
