# generated using pymatgen
data_Tb10IrRuPt4
_symmetry_space_group_name_H-M   'P 1'
_cell_length_a   11.09291300
_cell_length_b   11.09291300
_cell_length_c   6.36599600
_cell_angle_alpha   90.00000000
_cell_angle_beta   90.00000000
_cell_angle_gamma   90.00000000
_symmetry_Int_Tables_number   1
_chemical_formula_structural   Tb10IrRuPt4
_chemical_formula_sum   'Tb20 Ir2 Ru2 Pt8'
_cell_volume   783.35311583
_cell_formula_units_Z   2
loop_
 _symmetry_equiv_pos_site_id
 _symmetry_equiv_pos_as_xyz
  1  'x, y, z'
loop_
 _atom_site_type_symbol
 _atom_site_label
 _atom_site_symmetry_multiplicity
 _atom_site_fract_x
 _atom_site_fract_y
 _atom_site_fract_z
 _atom_site_occupancy
  Tb  Tb0  1  0.297383  0.086473  0.373281  1
  Tb  Tb1  1  0.297383  0.913527  0.873281  1
  Tb  Tb2  1  0.702617  0.086473  0.873281  1
  Tb  Tb3  1  0.702617  0.913527  0.373281  1
  Tb  Tb4  1  0.586473  0.797383  0.873281  1
  Tb  Tb5  1  0.586473  0.202617  0.373281  1
  Tb  Tb6  1  0.413527  0.797383  0.373281  1
  Tb  Tb7  1  0.413527  0.202617  0.873281  1
  Tb  Tb8  1  0.205386  0.410905  0.626877  1
  Tb  Tb9  1  0.205386  0.589095  0.126877  1
  Tb  Tb10  1  0.794614  0.410905  0.126877  1
  Tb  Tb11  1  0.794614  0.589095  0.626877  1
  Tb  Tb12  1  0.910905  0.705386  0.126877  1
  Tb  Tb13  1  0.910905  0.294614  0.626877  1
  Tb  Tb14  1  0.089095  0.705386  0.626877  1
  Tb  Tb15  1  0.089095  0.294614  0.126877  1
  Tb  Tb16  1  0.000000  0.000000  0.499121  1
  Tb  Tb17  1  0.000000  0.000000  0.999121  1
  Tb  Tb18  1  0.500000  0.500000  0.999121  1
  Tb  Tb19  1  0.500000  0.500000  0.499121  1
  Ir  Ir20  1  0.000000  0.500000  0.881047  1
  Ir  Ir21  1  0.000000  0.500000  0.381047  1
  Ru  Ru22  1  0.500000  0.000000  0.123113  1
  Ru  Ru23  1  0.500000  0.000000  0.623113  1
  Pt  Pt24  1  0.846541  0.154068  0.249241  1
  Pt  Pt25  1  0.846541  0.845932  0.749241  1
  Pt  Pt26  1  0.153459  0.154068  0.749241  1
  Pt  Pt27  1  0.153459  0.845932  0.249241  1
  Pt  Pt28  1  0.654068  0.346541  0.749241  1
  Pt  Pt29  1  0.654068  0.653459  0.249241  1
  Pt  Pt30  1  0.345932  0.346541  0.249241  1
  Pt  Pt31  1  0.345932  0.653459  0.749241  1
