# generated using pymatgen
data_Er3CrCo7NiP6
_symmetry_space_group_name_H-M   'P 1'
_cell_length_a   3.70672600
_cell_length_b   10.51279700
_cell_length_c   12.21435700
_cell_angle_alpha   90.00000000
_cell_angle_beta   90.00000000
_cell_angle_gamma   90.00000000
_symmetry_Int_Tables_number   1
_chemical_formula_structural   Er3CrCo7NiP6
_chemical_formula_sum   'Er6 Cr2 Co14 Ni2 P12'
_cell_volume   475.96977167
_cell_formula_units_Z   2
loop_
 _symmetry_equiv_pos_site_id
 _symmetry_equiv_pos_as_xyz
  1  'x, y, z'
loop_
 _atom_site_type_symbol
 _atom_site_label
 _atom_site_symmetry_multiplicity
 _atom_site_fract_x
 _atom_site_fract_y
 _atom_site_fract_z
 _atom_site_occupancy
  Er  Er0  1  0.000000  0.500000  0.520981  1
  Er  Er1  1  0.500000  0.000000  0.479019  1
  Er  Er2  1  0.500000  0.817162  0.204414  1
  Er  Er3  1  0.500000  0.182838  0.204414  1
  Er  Er4  1  0.000000  0.682838  0.795586  1
  Er  Er5  1  0.000000  0.317162  0.795586  1
  Cr  Cr6  1  0.500000  0.500000  0.156226  1
  Cr  Cr7  1  0.000000  0.000000  0.843774  1
  Co  Co8  1  0.000000  0.500000  0.987311  1
  Co  Co9  1  0.500000  0.000000  0.012689  1
  Co  Co10  1  0.500000  0.332679  0.992352  1
  Co  Co11  1  0.500000  0.667321  0.992352  1
  Co  Co12  1  0.000000  0.167321  0.007648  1
  Co  Co13  1  0.000000  0.832679  0.007648  1
  Co  Co14  1  0.500000  0.297093  0.431416  1
  Co  Co15  1  0.500000  0.702907  0.431416  1
  Co  Co16  1  0.000000  0.202907  0.568584  1
  Co  Co17  1  0.000000  0.797093  0.568584  1
  Co  Co18  1  0.500000  0.878902  0.708957  1
  Co  Co19  1  0.500000  0.121098  0.708957  1
  Co  Co20  1  0.000000  0.621098  0.291043  1
  Co  Co21  1  0.000000  0.378902  0.291043  1
  Ni  Ni22  1  0.500000  0.500000  0.702260  1
  Ni  Ni23  1  0.000000  0.000000  0.297740  1
  P  P24  1  0.500000  0.500000  0.882784  1
  P  P25  1  0.000000  0.000000  0.117216  1
  P  P26  1  0.500000  0.500000  0.345292  1
  P  P27  1  0.000000  0.000000  0.654708  1
  P  P28  1  0.500000  0.311102  0.616061  1
  P  P29  1  0.500000  0.688898  0.616061  1
  P  P30  1  0.000000  0.188898  0.383939  1
  P  P31  1  0.000000  0.811102  0.383939  1
  P  P32  1  0.500000  0.846855  0.892062  1
  P  P33  1  0.500000  0.153145  0.892062  1
  P  P34  1  0.000000  0.653145  0.107938  1
  P  P35  1  0.000000  0.346855  0.107938  1
