# generated using pymatgen
data_LaHg2O
_symmetry_space_group_name_H-M   'P 1'
_cell_length_a   5.91622107
_cell_length_b   5.85371906
_cell_length_c   11.13457270
_cell_angle_alpha   90.01739644
_cell_angle_beta   96.11883647
_cell_angle_gamma   89.99689112
_symmetry_Int_Tables_number   1
_chemical_formula_structural   LaHg2O
_chemical_formula_sum   'La4 Hg8 O4'
_cell_volume   383.41450160
_cell_formula_units_Z   4
loop_
 _symmetry_equiv_pos_site_id
 _symmetry_equiv_pos_as_xyz
  1  'x, y, z'
loop_
 _atom_site_type_symbol
 _atom_site_label
 _atom_site_symmetry_multiplicity
 _atom_site_fract_x
 _atom_site_fract_y
 _atom_site_fract_z
 _atom_site_occupancy
  La  La0  1  0.520339  0.187484  0.106200  1
  La  La1  1  0.020185  0.687555  0.106100  1
  La  La2  1  0.979878  0.187425  0.893895  1
  La  La3  1  0.479623  0.687370  0.893814  1
  Hg  Hg4  1  0.532758  0.161415  0.415006  1
  Hg  Hg5  1  0.027417  0.647981  0.415741  1
  Hg  Hg6  1  0.972577  0.147817  0.584268  1
  Hg  Hg7  1  0.467247  0.661291  0.584983  1
  Hg  Hg8  1  0.537763  0.673850  0.293703  1
  Hg  Hg9  1  0.042063  0.166896  0.292865  1
  Hg  Hg10  1  0.957936  0.666762  0.707142  1
  Hg  Hg11  1  0.462219  0.173715  0.706297  1
  O  O12  1  0.749822  0.937424  0.999883  1
  O  O13  1  0.249938  0.937796  0.999629  1
  O  O14  1  0.750063  0.437799  0.000374  1
  O  O15  1  0.250183  0.437380  0.000102  1
