# generated using pymatgen
data_Tb14Y2MgTl(CdPd2)2
_symmetry_space_group_name_H-M   'P 1'
_cell_length_a   9.75403698
_cell_length_b   9.75403793
_cell_length_c   9.76587600
_cell_angle_alpha   59.95985118
_cell_angle_beta   59.95984795
_cell_angle_gamma   60.05970800
_symmetry_Int_Tables_number   1
_chemical_formula_structural   Tb14Y2MgTl(CdPd2)2
_chemical_formula_sum   'Tb14 Y2 Mg1 Tl1 Cd2 Pd4'
_cell_volume   656.89592553
_cell_formula_units_Z   1
loop_
 _symmetry_equiv_pos_site_id
 _symmetry_equiv_pos_as_xyz
  1  'x, y, z'
loop_
 _atom_site_type_symbol
 _atom_site_label
 _atom_site_symmetry_multiplicity
 _atom_site_fract_x
 _atom_site_fract_y
 _atom_site_fract_z
 _atom_site_occupancy
  Tb  Tb0  1  0.352273  0.352273  0.351973  1
  Tb  Tb1  1  0.351356  0.351356  0.945584  1
  Tb  Tb2  1  0.354687  0.939416  0.352282  1
  Tb  Tb3  1  0.939416  0.354687  0.352282  1
  Tb  Tb4  1  0.809329  0.190498  0.191676  1
  Tb  Tb5  1  0.188907  0.812135  0.811146  1
  Tb  Tb6  1  0.190498  0.809329  0.191676  1
  Tb  Tb7  1  0.812135  0.188907  0.811146  1
  Tb  Tb8  1  0.190287  0.190287  0.810079  1
  Tb  Tb9  1  0.810815  0.810815  0.190285  1
  Tb  Tb10  1  0.936466  0.566068  0.565835  1
  Tb  Tb11  1  0.564937  0.938888  0.930634  1
  Tb  Tb12  1  0.566068  0.936466  0.565835  1
  Tb  Tb13  1  0.938888  0.564937  0.930634  1
  Y  Y14  1  0.566657  0.566657  0.933383  1
  Y  Y15  1  0.936463  0.936463  0.563040  1
  Mg  Mg16  1  0.576149  0.576149  0.579664  1
  Tl  Tl17  1  0.583326  0.583326  0.249980  1
  Cd  Cd18  1  0.580309  0.253348  0.585153  1
  Cd  Cd19  1  0.253348  0.580309  0.585153  1
  Pd  Pd20  1  0.143174  0.143174  0.147049  1
  Pd  Pd21  1  0.143544  0.143544  0.565824  1
  Pd  Pd22  1  0.142893  0.568073  0.144842  1
  Pd  Pd23  1  0.568073  0.142893  0.144842  1
