# generated using pymatgen
data_DyTmCr2F14
_symmetry_space_group_name_H-M   'P 1'
_cell_length_a   5.46983000
_cell_length_b   8.69982810
_cell_length_c   11.64033290
_cell_angle_alpha   63.20740370
_cell_angle_beta   90.00000000
_cell_angle_gamma   90.00000000
_symmetry_Int_Tables_number   1
_chemical_formula_structural   DyTmCr2F14
_chemical_formula_sum   'Dy2 Tm2 Cr4 F28'
_cell_volume   494.45665533
_cell_formula_units_Z   2
loop_
 _symmetry_equiv_pos_site_id
 _symmetry_equiv_pos_as_xyz
  1  'x, y, z'
loop_
 _atom_site_type_symbol
 _atom_site_label
 _atom_site_symmetry_multiplicity
 _atom_site_fract_x
 _atom_site_fract_y
 _atom_site_fract_z
 _atom_site_occupancy
  Dy  Dy0  1  0.234102  0.191708  0.233813  1
  Dy  Dy1  1  0.734102  0.808292  0.266187  1
  Tm  Tm2  1  0.766678  0.810721  0.765423  1
  Tm  Tm3  1  0.266678  0.189279  0.734577  1
  Cr  Cr4  1  0.758267  0.274691  0.954188  1
  Cr  Cr5  1  0.258267  0.725309  0.545812  1
  Cr  Cr6  1  0.242986  0.728010  0.041152  1
  Cr  Cr7  1  0.742986  0.271990  0.458848  1
  F  F8  1  0.435201  0.706370  0.920067  1
  F  F9  1  0.935201  0.293630  0.579933  1
  F  F10  1  0.567287  0.295033  0.076697  1
  F  F11  1  0.067287  0.704967  0.423303  1
  F  F12  1  0.451257  0.277571  0.546487  1
  F  F13  1  0.951257  0.722429  0.953513  1
  F  F14  1  0.547972  0.719410  0.458060  1
  F  F15  1  0.047972  0.280590  0.041940  1
  F  F16  1  0.769580  0.511621  0.860886  1
  F  F17  1  0.269580  0.488379  0.639114  1
  F  F18  1  0.228129  0.491484  0.135994  1
  F  F19  1  0.728129  0.508516  0.364006  1
  F  F20  1  0.755100  0.039713  0.044524  1
  F  F21  1  0.255100  0.960287  0.455476  1
  F  F22  1  0.244927  0.963027  0.952401  1
  F  F23  1  0.744927  0.036973  0.547599  1
  F  F24  1  0.975736  0.728511  0.639179  1
  F  F25  1  0.475736  0.271489  0.860821  1
  F  F26  1  0.025017  0.272534  0.364893  1
  F  F27  1  0.525017  0.727466  0.135107  1
  F  F28  1  0.053642  0.746098  0.168392  1
  F  F29  1  0.553642  0.253902  0.331608  1
  F  F30  1  0.950334  0.254031  0.828838  1
  F  F31  1  0.450334  0.745969  0.671162  1
  F  F32  1  0.409896  0.972505  0.227118  1
  F  F33  1  0.909896  0.027495  0.272882  1
  F  F34  1  0.583888  0.024270  0.771478  1
  F  F35  1  0.083888  0.975730  0.728522  1
