# generated using pymatgen
data_Tb5Pr3(AgRh)2
_symmetry_space_group_name_H-M   'P 1'
_cell_length_a   9.70601340
_cell_length_b   9.70601383
_cell_length_c   9.70601300
_cell_angle_alpha   59.99999942
_cell_angle_beta   59.99999795
_cell_angle_gamma   59.99999813
_symmetry_Int_Tables_number   1
_chemical_formula_structural   Tb5Pr3(AgRh)2
_chemical_formula_sum   'Tb10 Pr6 Ag4 Rh4'
_cell_volume   646.55823622
_cell_formula_units_Z   2
loop_
 _symmetry_equiv_pos_site_id
 _symmetry_equiv_pos_as_xyz
  1  'x, y, z'
loop_
 _atom_site_type_symbol
 _atom_site_label
 _atom_site_symmetry_multiplicity
 _atom_site_fract_x
 _atom_site_fract_y
 _atom_site_fract_z
 _atom_site_occupancy
  Tb  Tb0  1  0.351071  0.351071  0.351071  1
  Tb  Tb1  1  0.351071  0.351071  0.946785  1
  Tb  Tb2  1  0.351071  0.946785  0.351071  1
  Tb  Tb3  1  0.946785  0.351071  0.351071  1
  Tb  Tb4  1  0.813500  0.186500  0.186500  1
  Tb  Tb5  1  0.186500  0.813501  0.813500  1
  Tb  Tb6  1  0.186500  0.813500  0.186499  1
  Tb  Tb7  1  0.813500  0.186500  0.813500  1
  Tb  Tb8  1  0.186500  0.186500  0.813500  1
  Tb  Tb9  1  0.813501  0.813501  0.186499  1
  Pr  Pr10  1  0.938723  0.561277  0.561277  1
  Pr  Pr11  1  0.561277  0.938723  0.938723  1
  Pr  Pr12  1  0.561277  0.938723  0.561277  1
  Pr  Pr13  1  0.938723  0.561277  0.938723  1
  Pr  Pr14  1  0.561277  0.561277  0.938723  1
  Pr  Pr15  1  0.938723  0.938723  0.561277  1
  Ag  Ag16  1  0.579844  0.579844  0.579844  1
  Ag  Ag17  1  0.579844  0.579844  0.260467  1
  Ag  Ag18  1  0.579844  0.260467  0.579844  1
  Ag  Ag19  1  0.260467  0.579844  0.579844  1
  Rh  Rh20  1  0.142961  0.142961  0.142961  1
  Rh  Rh21  1  0.142961  0.142961  0.571119  1
  Rh  Rh22  1  0.142961  0.571119  0.142961  1
  Rh  Rh23  1  0.571119  0.142961  0.142961  1
