# generated using pymatgen
data_Sm2Er18Si15Ir
_symmetry_space_group_name_H-M   'P 1'
_cell_length_a   7.40755640
_cell_length_b   7.63770892
_cell_length_c   14.49609200
_cell_angle_alpha   90.08347141
_cell_angle_beta   90.64088585
_cell_angle_gamma   90.25934484
_symmetry_Int_Tables_number   1
_chemical_formula_structural   Sm2Er18Si15Ir
_chemical_formula_sum   'Sm2 Er18 Si15 Ir1'
_cell_volume   820.08127294
_cell_formula_units_Z   1
loop_
 _symmetry_equiv_pos_site_id
 _symmetry_equiv_pos_as_xyz
  1  'x, y, z'
loop_
 _atom_site_type_symbol
 _atom_site_label
 _atom_site_symmetry_multiplicity
 _atom_site_fract_x
 _atom_site_fract_y
 _atom_site_fract_z
 _atom_site_occupancy
  Sm  Sm0  1  0.022747  0.823176  0.597613  1
  Sm  Sm1  1  0.523593  0.681509  0.595931  1
  Er  Er2  1  0.320693  0.818171  0.121873  1
  Er  Er3  1  0.816497  0.679460  0.122032  1
  Er  Er4  1  0.850898  0.506609  0.749432  1
  Er  Er5  1  0.468934  0.315119  0.100123  1
  Er  Er6  1  0.029462  0.817305  0.901706  1
  Er  Er7  1  0.474958  0.313102  0.401352  1
  Er  Er8  1  0.652688  0.011572  0.257723  1
  Er  Er9  1  0.531227  0.682440  0.900627  1
  Er  Er10  1  0.682584  0.179603  0.878999  1
  Er  Er11  1  0.179040  0.322306  0.624667  1
  Er  Er12  1  0.184630  0.323390  0.877462  1
  Er  Er13  1  0.816286  0.687913  0.380693  1
  Er  Er14  1  0.324653  0.825484  0.376759  1
  Er  Er15  1  0.352017  0.991366  0.748403  1
  Er  Er16  1  0.681577  0.167434  0.619368  1
  Er  Er17  1  0.146995  0.488752  0.252931  1
  Er  Er18  1  0.969966  0.181851  0.098695  1
  Er  Er19  1  0.969970  0.173821  0.400802  1
  Si  Si20  1  0.233029  0.628158  0.753862  1
  Si  Si21  1  0.344756  0.034203  0.539019  1
  Si  Si22  1  0.027307  0.892363  0.245162  1
  Si  Si23  1  0.733605  0.871398  0.754583  1
  Si  Si24  1  0.264908  0.127063  0.245520  1
  Si  Si25  1  0.854000  0.468000  0.540380  1
  Si  Si26  1  0.480793  0.391026  0.751166  1
  Si  Si27  1  0.148882  0.529036  0.460163  1
  Si  Si28  1  0.145956  0.527439  0.041055  1
  Si  Si29  1  0.977621  0.107260  0.753470  1
  Si  Si30  1  0.768482  0.376137  0.247757  1
  Si  Si31  1  0.352745  0.028731  0.959719  1
  Si  Si32  1  0.857276  0.472069  0.959165  1
  Si  Si33  1  0.644897  0.971061  0.040409  1
  Si  Si34  1  0.521586  0.601957  0.247101  1
  Ir  Ir35  1  0.644738  0.983709  0.454280  1
