# generated using pymatgen
data_Nd6Th2Cd2IrRu
_symmetry_space_group_name_H-M   'P 1'
_cell_length_a   9.96993118
_cell_length_b   9.96993138
_cell_length_c   9.98810000
_cell_angle_alpha   59.93969908
_cell_angle_beta   59.93969843
_cell_angle_gamma   60.04290841
_symmetry_Int_Tables_number   1
_chemical_formula_structural   Nd6Th2Cd2IrRu
_chemical_formula_sum   'Nd12 Th4 Cd4 Ir2 Ru2'
_cell_volume   701.61061375
_cell_formula_units_Z   2
loop_
 _symmetry_equiv_pos_site_id
 _symmetry_equiv_pos_as_xyz
  1  'x, y, z'
loop_
 _atom_site_type_symbol
 _atom_site_label
 _atom_site_symmetry_multiplicity
 _atom_site_fract_x
 _atom_site_fract_y
 _atom_site_fract_z
 _atom_site_occupancy
  Nd  Nd0  1  0.811215  0.190202  0.190670  1
  Nd  Nd1  1  0.190202  0.811215  0.807913  1
  Nd  Nd2  1  0.190202  0.811215  0.190670  1
  Nd  Nd3  1  0.811215  0.190202  0.807913  1
  Nd  Nd4  1  0.189927  0.189927  0.810073  1
  Nd  Nd5  1  0.808618  0.808618  0.191382  1
  Nd  Nd6  1  0.938776  0.560859  0.562590  1
  Nd  Nd7  1  0.560859  0.938776  0.937776  1
  Nd  Nd8  1  0.560859  0.938776  0.562590  1
  Nd  Nd9  1  0.938776  0.560859  0.937776  1
  Nd  Nd10  1  0.561045  0.561045  0.938955  1
  Nd  Nd11  1  0.937849  0.937849  0.562151  1
  Th  Th12  1  0.344839  0.344839  0.349246  1
  Th  Th13  1  0.344839  0.344839  0.961077  1
  Th  Th14  1  0.343462  0.962829  0.346855  1
  Th  Th15  1  0.962829  0.343462  0.346855  1
  Cd  Cd16  1  0.579864  0.579864  0.580267  1
  Cd  Cd17  1  0.579864  0.579864  0.260003  1
  Cd  Cd18  1  0.580157  0.258738  0.580551  1
  Cd  Cd19  1  0.258738  0.580157  0.580551  1
  Ir  Ir20  1  0.146344  0.565503  0.144076  1
  Ir  Ir21  1  0.565503  0.146344  0.144076  1
  Ru  Ru22  1  0.147009  0.147009  0.144728  1
  Ru  Ru23  1  0.147009  0.147009  0.561253  1
