# generated using pymatgen
data_NdZnAgPt3
_symmetry_space_group_name_H-M   'P 1'
_cell_length_a   5.23725669
_cell_length_b   5.23725551
_cell_length_c   5.23725608
_cell_angle_alpha   63.77088924
_cell_angle_beta   63.77088760
_cell_angle_gamma   63.77089176
_symmetry_Int_Tables_number   1
_chemical_formula_structural   NdZnAgPt3
_chemical_formula_sum   'Nd1 Zn1 Ag1 Pt3'
_cell_volume   110.02897739
_cell_formula_units_Z   1
loop_
 _symmetry_equiv_pos_site_id
 _symmetry_equiv_pos_as_xyz
  1  'x, y, z'
loop_
 _atom_site_type_symbol
 _atom_site_label
 _atom_site_symmetry_multiplicity
 _atom_site_fract_x
 _atom_site_fract_y
 _atom_site_fract_z
 _atom_site_occupancy
  Nd  Nd0  1  0.003502  0.003502  0.003502  1
  Zn  Zn1  1  0.623376  0.623376  0.623376  1
  Ag  Ag2  1  0.252704  0.252704  0.252704  1
  Pt  Pt3  1  0.622251  0.622251  0.125914  1
  Pt  Pt4  1  0.622251  0.125914  0.622251  1
  Pt  Pt5  1  0.125914  0.622251  0.622251  1
