# generated using pymatgen
data_Tm3Mg3InAgPb
_symmetry_space_group_name_H-M   'P 1'
_cell_length_a   7.49602500
_cell_length_b   7.49602468
_cell_length_c   4.51319000
_cell_angle_alpha   90.00000000
_cell_angle_beta   90.00000000
_cell_angle_gamma   119.99999699
_symmetry_Int_Tables_number   1
_chemical_formula_structural   Tm3Mg3InAgPb
_chemical_formula_sum   'Tm3 Mg3 In1 Ag1 Pb1'
_cell_volume   219.62222966
_cell_formula_units_Z   1
loop_
 _symmetry_equiv_pos_site_id
 _symmetry_equiv_pos_as_xyz
  1  'x, y, z'
loop_
 _atom_site_type_symbol
 _atom_site_label
 _atom_site_symmetry_multiplicity
 _atom_site_fract_x
 _atom_site_fract_y
 _atom_site_fract_z
 _atom_site_occupancy
  Tm  Tm0  1  0.580185  0.993131  0.000000  1
  Tm  Tm1  1  0.006869  0.587053  0.000000  1
  Tm  Tm2  1  0.412947  0.419815  0.000000  1
  Mg  Mg3  1  0.233196  0.995568  0.500000  1
  Mg  Mg4  1  0.004432  0.237628  0.500000  1
  Mg  Mg5  1  0.762372  0.766804  0.500000  1
  In  In6  1  0.333333  0.666667  0.500000  1
  Ag  Ag7  1  0.000000  0.000000  0.000000  1
  Pb  Pb8  1  0.666667  0.333333  0.500000  1
