# generated using pymatgen
data_DyErSc3(In2Pt)2
_symmetry_space_group_name_H-M   'P 1'
_cell_length_a   3.56178400
_cell_length_b   7.87885634
_cell_length_c   17.73195404
_cell_angle_alpha   90.13349457
_cell_angle_beta   90.00000000
_cell_angle_gamma   90.00000000
_symmetry_Int_Tables_number   1
_chemical_formula_structural   DyErSc3(In2Pt)2
_chemical_formula_sum   'Dy2 Er2 Sc6 In8 Pt4'
_cell_volume   497.60665365
_cell_formula_units_Z   2
loop_
 _symmetry_equiv_pos_site_id
 _symmetry_equiv_pos_as_xyz
  1  'x, y, z'
loop_
 _atom_site_type_symbol
 _atom_site_label
 _atom_site_symmetry_multiplicity
 _atom_site_fract_x
 _atom_site_fract_y
 _atom_site_fract_z
 _atom_site_occupancy
  Dy  Dy0  1  0.000000  0.243216  0.219453  1
  Dy  Dy1  1  0.000000  0.756784  0.780547  1
  Er  Er2  1  0.000000  0.256688  0.719714  1
  Er  Er3  1  0.000000  0.743312  0.280286  1
  Sc  Sc4  1  0.000000  0.116347  0.416042  1
  Sc  Sc5  1  0.000000  0.883653  0.583958  1
  Sc  Sc6  1  0.000000  0.383487  0.916025  1
  Sc  Sc7  1  0.000000  0.616513  0.083975  1
  Sc  Sc8  1  0.000000  0.000000  0.000000  1
  Sc  Sc9  1  0.000000  0.500000  0.500000  1
  In  In10  1  0.500000  0.419417  0.355930  1
  In  In11  1  0.500000  0.580583  0.644070  1
  In  In12  1  0.500000  0.081652  0.855720  1
  In  In13  1  0.500000  0.918348  0.144280  1
  In  In14  1  0.500000  0.294723  0.060633  1
  In  In15  1  0.500000  0.705277  0.939367  1
  In  In16  1  0.500000  0.205714  0.560887  1
  In  In17  1  0.500000  0.794286  0.439113  1
  Pt  Pt18  1  0.500000  0.028800  0.308472  1
  Pt  Pt19  1  0.500000  0.971200  0.691528  1
  Pt  Pt20  1  0.500000  0.468596  0.808133  1
  Pt  Pt21  1  0.500000  0.531404  0.191867  1
