# generated using pymatgen
data_NaThPPt8
_symmetry_space_group_name_H-M   'P 1'
_cell_length_a   9.06978354
_cell_length_b   9.19030574
_cell_length_c   4.31090300
_cell_angle_alpha   90.00000000
_cell_angle_beta   90.00000000
_cell_angle_gamma   145.22696426
_symmetry_Int_Tables_number   1
_chemical_formula_structural   NaThPPt8
_chemical_formula_sum   'Na1 Th1 P1 Pt8'
_cell_volume   204.93640328
_cell_formula_units_Z   1
loop_
 _symmetry_equiv_pos_site_id
 _symmetry_equiv_pos_as_xyz
  1  'x, y, z'
loop_
 _atom_site_type_symbol
 _atom_site_label
 _atom_site_symmetry_multiplicity
 _atom_site_fract_x
 _atom_site_fract_y
 _atom_site_fract_z
 _atom_site_occupancy
  Na  Na0  1  0.615876  0.374422  0.500000  1
  Th  Th1  1  0.374327  0.628300  0.500000  1
  P  P2  1  0.227028  0.216863  0.000000  1
  Pt  Pt3  1  0.102733  0.881089  0.000000  1
  Pt  Pt4  1  0.897323  0.113707  0.000000  1
  Pt  Pt5  1  0.489149  0.977098  0.000000  1
  Pt  Pt6  1  0.994001  0.489567  0.000000  1
  Pt  Pt7  1  0.191150  0.789298  0.500000  1
  Pt  Pt8  1  0.792002  0.198736  0.500000  1
  Pt  Pt9  1  0.010405  0.011015  0.500000  1
  Pt  Pt10  1  0.619604  0.633505  0.000000  1
