# generated using pymatgen
data_Tb3YTe7Pd
_symmetry_space_group_name_H-M   'P 1'
_cell_length_a   4.17604143
_cell_length_b   8.53867771
_cell_length_c   9.03554000
_cell_angle_alpha   90.02343854
_cell_angle_beta   90.02615055
_cell_angle_gamma   89.99948604
_symmetry_Int_Tables_number   1
_chemical_formula_structural   Tb3YTe7Pd
_chemical_formula_sum   'Tb3 Y1 Te7 Pd1'
_cell_volume   322.18806767
_cell_formula_units_Z   1
loop_
 _symmetry_equiv_pos_site_id
 _symmetry_equiv_pos_as_xyz
  1  'x, y, z'
loop_
 _atom_site_type_symbol
 _atom_site_label
 _atom_site_symmetry_multiplicity
 _atom_site_fract_x
 _atom_site_fract_y
 _atom_site_fract_z
 _atom_site_occupancy
  Tb  Tb0  1  0.000862  0.750126  0.716471  1
  Tb  Tb1  1  0.001777  0.250143  0.744830  1
  Tb  Tb2  1  0.499416  0.003727  0.265587  1
  Y  Y3  1  0.499391  0.495913  0.266533  1
  Te  Te4  1  0.998737  0.953504  0.000170  1
  Te  Te5  1  0.998684  0.546383  0.000510  1
  Te  Te6  1  0.500965  0.250117  0.001665  1
  Te  Te7  1  0.999903  0.749868  0.368549  1
  Te  Te8  1  0.999986  0.250048  0.377519  1
  Te  Te9  1  0.501025  0.001982  0.626133  1
  Te  Te10  1  0.501044  0.498368  0.626414  1
  Pd  Pd11  1  0.498208  0.749824  0.006544  1
