# generated using pymatgen
data_Ac3Sm(ZnIn)4
_symmetry_space_group_name_H-M   'P 1'
_cell_length_a   4.84669800
_cell_length_b   4.84669885
_cell_length_c   16.11750000
_cell_angle_alpha   90.00000000
_cell_angle_beta   90.00000000
_cell_angle_gamma   120.00000783
_symmetry_Int_Tables_number   1
_chemical_formula_structural   Ac3Sm(ZnIn)4
_chemical_formula_sum   'Ac3 Sm1 Zn4 In4'
_cell_volume   327.88403556
_cell_formula_units_Z   1
loop_
 _symmetry_equiv_pos_site_id
 _symmetry_equiv_pos_as_xyz
  1  'x, y, z'
loop_
 _atom_site_type_symbol
 _atom_site_label
 _atom_site_symmetry_multiplicity
 _atom_site_fract_x
 _atom_site_fract_y
 _atom_site_fract_z
 _atom_site_occupancy
  Ac  Ac0  1  0.000000  0.000000  0.491406  1
  Ac  Ac1  1  0.000000  0.000000  0.008594  1
  Ac  Ac2  1  0.000000  0.000000  0.750000  1
  Sm  Sm3  1  0.000000  0.000000  0.250000  1
  Zn  Zn4  1  0.333333  0.666667  0.120803  1
  Zn  Zn5  1  0.666667  0.333333  0.639730  1
  Zn  Zn6  1  0.666667  0.333333  0.860270  1
  Zn  Zn7  1  0.333333  0.666667  0.379197  1
  In  In8  1  0.666667  0.333333  0.349230  1
  In  In9  1  0.666667  0.333333  0.150770  1
  In  In10  1  0.333333  0.666667  0.892675  1
  In  In11  1  0.333333  0.666667  0.607325  1
