# generated using pymatgen
data_V3Co4Si4W
_symmetry_space_group_name_H-M   'P 1'
_cell_length_a   3.55895100
_cell_length_b   6.00481143
_cell_length_c   6.87355817
_cell_angle_alpha   90.05509987
_cell_angle_beta   90.00000000
_cell_angle_gamma   90.00000000
_symmetry_Int_Tables_number   1
_chemical_formula_structural   V3Co4Si4W
_chemical_formula_sum   'V3 Co4 Si4 W1'
_cell_volume   146.89357277
_cell_formula_units_Z   1
loop_
 _symmetry_equiv_pos_site_id
 _symmetry_equiv_pos_as_xyz
  1  'x, y, z'
loop_
 _atom_site_type_symbol
 _atom_site_label
 _atom_site_symmetry_multiplicity
 _atom_site_fract_x
 _atom_site_fract_y
 _atom_site_fract_z
 _atom_site_occupancy
  V  V0  1  0.250000  0.023437  0.175997  1
  V  V1  1  0.750000  0.973206  0.825286  1
  V  V2  1  0.250000  0.525748  0.325149  1
  Co  Co3  1  0.250000  0.643634  0.940274  1
  Co  Co4  1  0.250000  0.144779  0.560109  1
  Co  Co5  1  0.750000  0.856592  0.438623  1
  Co  Co6  1  0.750000  0.358018  0.060786  1
  Si  Si7  1  0.250000  0.775741  0.624599  1
  Si  Si8  1  0.250000  0.263564  0.880076  1
  Si  Si9  1  0.750000  0.228845  0.370472  1
  Si  Si10  1  0.750000  0.732263  0.125226  1
  W  W11  1  0.750000  0.474176  0.673404  1
