# generated using pymatgen
data_Sc6Ti3Al12MoRu7
_symmetry_space_group_name_H-M   'P 1'
_cell_length_a   8.81942330
_cell_length_b   8.81942323
_cell_length_c   8.81339203
_cell_angle_alpha   59.97737034
_cell_angle_beta   59.97736972
_cell_angle_gamma   59.99999865
_symmetry_Int_Tables_number   1
_chemical_formula_structural   Sc6Ti3Al12MoRu7
_chemical_formula_sum   'Sc6 Ti3 Al12 Mo1 Ru7'
_cell_volume   484.57368076
_cell_formula_units_Z   1
loop_
 _symmetry_equiv_pos_site_id
 _symmetry_equiv_pos_as_xyz
  1  'x, y, z'
loop_
 _atom_site_type_symbol
 _atom_site_label
 _atom_site_symmetry_multiplicity
 _atom_site_fract_x
 _atom_site_fract_y
 _atom_site_fract_z
 _atom_site_occupancy
  Sc  Sc0  1  0.709960  0.709960  0.289953  1
  Sc  Sc1  1  0.290128  0.709960  0.289953  1
  Sc  Sc2  1  0.709960  0.290128  0.289953  1
  Sc  Sc3  1  0.290180  0.290180  0.709189  1
  Sc  Sc4  1  0.710450  0.290180  0.709189  1
  Sc  Sc5  1  0.290180  0.710450  0.709189  1
  Ti  Ti6  1  0.881934  0.358104  0.878028  1
  Ti  Ti7  1  0.358104  0.881934  0.878028  1
  Ti  Ti8  1  0.881934  0.881934  0.878028  1
  Al  Al9  1  0.119866  0.119866  0.640402  1
  Al  Al10  1  0.120727  0.640288  0.118258  1
  Al  Al11  1  0.640288  0.120727  0.118258  1
  Al  Al12  1  0.120727  0.120727  0.118258  1
  Al  Al13  1  0.665916  0.665916  0.002252  1
  Al  Al14  1  0.665192  0.001665  0.667952  1
  Al  Al15  1  0.001665  0.665192  0.667952  1
  Al  Al16  1  0.665192  0.665192  0.667952  1
  Al  Al17  1  0.334123  0.334123  0.997630  1
  Al  Al18  1  0.334010  0.996662  0.335317  1
  Al  Al19  1  0.996662  0.334010  0.335317  1
  Al  Al20  1  0.334010  0.334010  0.335317  1
  Mo  Mo21  1  0.879032  0.879032  0.362905  1
  Ru  Ru22  1  0.998123  0.998123  0.005631  1
  Ru  Ru23  1  0.997545  0.997545  0.500035  1
  Ru  Ru24  1  0.504875  0.997545  0.500035  1
  Ru  Ru25  1  0.997545  0.504875  0.500035  1
  Ru  Ru26  1  0.501250  0.501250  0.998328  1
  Ru  Ru27  1  0.999172  0.501250  0.998328  1
  Ru  Ru28  1  0.501250  0.999172  0.998328  1
