# generated using pymatgen
data_SmYLu4(Co3P2)6
_symmetry_space_group_name_H-M   'P 1'
_cell_length_a   3.67456000
_cell_length_b   10.47932800
_cell_length_c   12.12612900
_cell_angle_alpha   90.00000000
_cell_angle_beta   90.00000000
_cell_angle_gamma   90.00000000
_symmetry_Int_Tables_number   1
_chemical_formula_structural   SmYLu4(Co3P2)6
_chemical_formula_sum   'Sm1 Y1 Lu4 Co18 P12'
_cell_volume   466.93987320
_cell_formula_units_Z   1
loop_
 _symmetry_equiv_pos_site_id
 _symmetry_equiv_pos_as_xyz
  1  'x, y, z'
loop_
 _atom_site_type_symbol
 _atom_site_label
 _atom_site_symmetry_multiplicity
 _atom_site_fract_x
 _atom_site_fract_y
 _atom_site_fract_z
 _atom_site_occupancy
  Sm  Sm0  1  0.500000  0.000000  0.477182  1
  Y  Y1  1  0.000000  0.500000  0.522240  1
  Lu  Lu2  1  0.500000  0.818022  0.205198  1
  Lu  Lu3  1  0.500000  0.181978  0.205198  1
  Lu  Lu4  1  0.000000  0.681397  0.794392  1
  Lu  Lu5  1  0.000000  0.318603  0.794392  1
  Co  Co6  1  0.500000  0.500000  0.158456  1
  Co  Co7  1  0.000000  0.000000  0.842351  1
  Co  Co8  1  0.500000  0.500000  0.705726  1
  Co  Co9  1  0.000000  0.000000  0.293570  1
  Co  Co10  1  0.000000  0.500000  0.986513  1
  Co  Co11  1  0.500000  0.000000  0.013397  1
  Co  Co12  1  0.500000  0.333239  0.994650  1
  Co  Co13  1  0.500000  0.666761  0.994650  1
  Co  Co14  1  0.000000  0.166834  0.005448  1
  Co  Co15  1  0.000000  0.833166  0.005448  1
  Co  Co16  1  0.500000  0.298196  0.429740  1
  Co  Co17  1  0.500000  0.701804  0.429740  1
  Co  Co18  1  0.000000  0.204528  0.570452  1
  Co  Co19  1  0.000000  0.795472  0.570452  1
  Co  Co20  1  0.500000  0.877828  0.711566  1
  Co  Co21  1  0.500000  0.122172  0.711566  1
  Co  Co22  1  0.000000  0.621483  0.288733  1
  Co  Co23  1  0.000000  0.378517  0.288733  1
  P  P24  1  0.500000  0.500000  0.882390  1
  P  P25  1  0.000000  0.000000  0.116960  1
  P  P26  1  0.500000  0.500000  0.343357  1
  P  P27  1  0.000000  0.000000  0.658482  1
  P  P28  1  0.500000  0.311258  0.617732  1
  P  P29  1  0.500000  0.688742  0.617732  1
  P  P30  1  0.000000  0.190873  0.381611  1
  P  P31  1  0.000000  0.809127  0.381611  1
  P  P32  1  0.500000  0.845749  0.892675  1
  P  P33  1  0.500000  0.154251  0.892675  1
  P  P34  1  0.000000  0.653596  0.107494  1
  P  P35  1  0.000000  0.346404  0.107494  1
