# generated using pymatgen
data_MnV4Fe2CoP4
_symmetry_space_group_name_H-M   'P 1'
_cell_length_a   3.49453800
_cell_length_b   5.88498271
_cell_length_c   6.71365095
_cell_angle_alpha   89.67547689
_cell_angle_beta   90.00000000
_cell_angle_gamma   90.00000000
_symmetry_Int_Tables_number   1
_chemical_formula_structural   MnV4Fe2CoP4
_chemical_formula_sum   'Mn1 V4 Fe2 Co1 P4'
_cell_volume   138.06600242
_cell_formula_units_Z   1
loop_
 _symmetry_equiv_pos_site_id
 _symmetry_equiv_pos_as_xyz
  1  'x, y, z'
loop_
 _atom_site_type_symbol
 _atom_site_label
 _atom_site_symmetry_multiplicity
 _atom_site_fract_x
 _atom_site_fract_y
 _atom_site_fract_z
 _atom_site_occupancy
  Mn  Mn0  1  0.750000  0.855076  0.438233  1
  V  V1  1  0.750000  0.474464  0.670647  1
  V  V2  1  0.750000  0.975177  0.824023  1
  V  V3  1  0.250000  0.531303  0.330152  1
  V  V4  1  0.250000  0.020895  0.174833  1
  Fe  Fe5  1  0.250000  0.640687  0.939106  1
  Fe  Fe6  1  0.250000  0.145454  0.560607  1
  Co  Co7  1  0.750000  0.355489  0.062644  1
  P  P8  1  0.750000  0.731213  0.122156  1
  P  P9  1  0.750000  0.231739  0.375553  1
  P  P10  1  0.250000  0.268536  0.874223  1
  P  P11  1  0.250000  0.769969  0.627823  1
