# generated using pymatgen
data_Y19ErCd6RuPt
_symmetry_space_group_name_H-M   'P 1'
_cell_length_a   9.68917200
_cell_length_b   9.68917938
_cell_length_c   9.86413400
_cell_angle_alpha   90.00015332
_cell_angle_beta   89.99989450
_cell_angle_gamma   120.00008264
_symmetry_Int_Tables_number   1
_chemical_formula_structural   Y19ErCd6RuPt
_chemical_formula_sum   'Y19 Er1 Cd6 Ru1 Pt1'
_cell_volume   801.97881333
_cell_formula_units_Z   1
loop_
 _symmetry_equiv_pos_site_id
 _symmetry_equiv_pos_as_xyz
  1  'x, y, z'
loop_
 _atom_site_type_symbol
 _atom_site_label
 _atom_site_symmetry_multiplicity
 _atom_site_fract_x
 _atom_site_fract_y
 _atom_site_fract_z
 _atom_site_occupancy
  Y  Y0  1  0.999999  0.000001  0.000849  1
  Y  Y1  1  0.207816  0.792183  0.442046  1
  Y  Y2  1  0.207818  0.415635  0.442046  1
  Y  Y3  1  0.584364  0.792183  0.442046  1
  Y  Y4  1  0.790800  0.209201  0.560533  1
  Y  Y5  1  0.790801  0.581599  0.560533  1
  Y  Y6  1  0.418401  0.209200  0.560532  1
  Y  Y7  1  0.790266  0.209734  0.939362  1
  Y  Y8  1  0.790265  0.580531  0.939363  1
  Y  Y9  1  0.419470  0.209734  0.939363  1
  Y  Y10  1  0.208335  0.791664  0.058015  1
  Y  Y11  1  0.208336  0.416672  0.058014  1
  Y  Y12  1  0.583330  0.791665  0.058016  1
  Y  Y13  1  0.542456  0.457542  0.250047  1
  Y  Y14  1  0.542456  0.084912  0.250049  1
  Y  Y15  1  0.915086  0.457543  0.250049  1
  Y  Y16  1  0.458807  0.541193  0.749988  1
  Y  Y17  1  0.458807  0.917611  0.749987  1
  Y  Y18  1  0.082390  0.541195  0.749987  1
  Er  Er19  1  0.000000  0.000000  0.499030  1
  Cd  Cd20  1  0.885371  0.114628  0.250776  1
  Cd  Cd21  1  0.885371  0.770744  0.250775  1
  Cd  Cd22  1  0.229257  0.114629  0.250775  1
  Cd  Cd23  1  0.114472  0.885527  0.749281  1
  Cd  Cd24  1  0.114472  0.228943  0.749281  1
  Cd  Cd25  1  0.771056  0.885528  0.749282  1
  Ru  Ru26  1  0.666667  0.333333  0.749700  1
  Pt  Pt27  1  0.333333  0.666667  0.250274  1
