# generated using pymatgen
data_DyY11(TcIr)2
_symmetry_space_group_name_H-M   'P 1'
_cell_length_a   6.37725759
_cell_length_b   7.36033404
_cell_length_c   9.23358700
_cell_angle_alpha   90.00000000
_cell_angle_beta   90.00000000
_cell_angle_gamma   89.89630582
_symmetry_Int_Tables_number   1
_chemical_formula_structural   DyY11(TcIr)2
_chemical_formula_sum   'Dy1 Y11 Tc2 Ir2'
_cell_volume   433.41228606
_cell_formula_units_Z   1
loop_
 _symmetry_equiv_pos_site_id
 _symmetry_equiv_pos_as_xyz
  1  'x, y, z'
loop_
 _atom_site_type_symbol
 _atom_site_label
 _atom_site_symmetry_multiplicity
 _atom_site_fract_x
 _atom_site_fract_y
 _atom_site_fract_z
 _atom_site_occupancy
  Dy  Dy0  1  0.628463  0.040236  0.250000  1
  Y  Y1  1  0.329186  0.676254  0.066051  1
  Y  Y2  1  0.171079  0.175812  0.434170  1
  Y  Y3  1  0.669694  0.324043  0.561520  1
  Y  Y4  1  0.830068  0.824359  0.938401  1
  Y  Y5  1  0.669694  0.324043  0.938480  1
  Y  Y6  1  0.830068  0.824359  0.561599  1
  Y  Y7  1  0.329186  0.676254  0.433949  1
  Y  Y8  1  0.171079  0.175812  0.065830  1
  Y  Y9  1  0.872875  0.539324  0.250000  1
  Y  Y10  1  0.133813  0.459077  0.750000  1
  Y  Y11  1  0.365917  0.958940  0.750000  1
  Tc  Tc12  1  0.033460  0.887253  0.250000  1
  Tc  Tc13  1  0.465528  0.384700  0.250000  1
  Ir  Ir14  1  0.956553  0.114847  0.750000  1
  Ir  Ir15  1  0.543334  0.614684  0.750000  1
