# generated using pymatgen
data_Ac11TbGa12
_symmetry_space_group_name_H-M   'P 1'
_cell_length_a   4.29237100
_cell_length_b   14.21393300
_cell_length_c   12.00204300
_cell_angle_alpha   89.99867620
_cell_angle_beta   90.00000000
_cell_angle_gamma   90.00000000
_symmetry_Int_Tables_number   1
_chemical_formula_structural   Ac11TbGa12
_chemical_formula_sum   'Ac11 Tb1 Ga12'
_cell_volume   732.26233201
_cell_formula_units_Z   1
loop_
 _symmetry_equiv_pos_site_id
 _symmetry_equiv_pos_as_xyz
  1  'x, y, z'
loop_
 _atom_site_type_symbol
 _atom_site_label
 _atom_site_symmetry_multiplicity
 _atom_site_fract_x
 _atom_site_fract_y
 _atom_site_fract_z
 _atom_site_occupancy
  Ac  Ac0  1  0.250000  0.663053  0.854403  1
  Ac  Ac1  1  0.250000  0.829808  0.359024  1
  Ac  Ac2  1  0.750000  0.333771  0.141791  1
  Ac  Ac3  1  0.750000  0.167572  0.642559  1
  Ac  Ac4  1  0.250000  0.336233  0.855854  1
  Ac  Ac5  1  0.250000  0.170683  0.360079  1
  Ac  Ac6  1  0.750000  0.666466  0.140598  1
  Ac  Ac7  1  0.750000  0.832331  0.641454  1
  Ac  Ac8  1  0.250000  0.000197  0.859341  1
  Ac  Ac9  1  0.250000  0.499836  0.358239  1
  Ac  Ac10  1  0.750000  0.999512  0.142788  1
  Tb  Tb11  1  0.750000  0.500351  0.627131  1
  Ga  Ga12  1  0.250000  0.344152  0.574417  1
  Ga  Ga13  1  0.250000  0.166711  0.066364  1
  Ga  Ga14  1  0.750000  0.662617  0.440401  1
  Ga  Ga15  1  0.750000  0.831405  0.932017  1
  Ga  Ga16  1  0.250000  0.656316  0.572460  1
  Ga  Ga17  1  0.250000  0.832779  0.064011  1
  Ga  Ga18  1  0.750000  0.337652  0.442451  1
  Ga  Ga19  1  0.750000  0.168351  0.934349  1
  Ga  Ga20  1  0.250000  0.000090  0.564435  1
  Ga  Ga21  1  0.250000  0.500033  0.062687  1
  Ga  Ga22  1  0.750000  0.000252  0.433118  1
  Ga  Ga23  1  0.750000  0.499835  0.930029  1
