# generated using pymatgen
data_La6Cr(ReC4)3
_symmetry_space_group_name_H-M   'P 1'
_cell_length_a   8.53350200
_cell_length_b   8.53350192
_cell_length_c   5.35215400
_cell_angle_alpha   90.00000000
_cell_angle_beta   90.00000000
_cell_angle_gamma   119.99999256
_symmetry_Int_Tables_number   1
_chemical_formula_structural   La6Cr(ReC4)3
_chemical_formula_sum   'La6 Cr1 Re3 C12'
_cell_volume   337.53114332
_cell_formula_units_Z   1
loop_
 _symmetry_equiv_pos_site_id
 _symmetry_equiv_pos_as_xyz
  1  'x, y, z'
loop_
 _atom_site_type_symbol
 _atom_site_label
 _atom_site_symmetry_multiplicity
 _atom_site_fract_x
 _atom_site_fract_y
 _atom_site_fract_z
 _atom_site_occupancy
  La  La0  1  0.616525  0.695027  0.751055  1
  La  La1  1  0.921498  0.616525  0.248945  1
  La  La2  1  0.695027  0.078502  0.248945  1
  La  La3  1  0.304973  0.921498  0.751055  1
  La  La4  1  0.078502  0.383475  0.751055  1
  La  La5  1  0.383475  0.304973  0.248945  1
  Cr  Cr6  1  0.000000  0.000000  0.000000  1
  Re  Re7  1  0.000000  0.000000  0.500000  1
  Re  Re8  1  0.666667  0.333333  0.749548  1
  Re  Re9  1  0.333333  0.666667  0.250452  1
  C  C10  1  0.951046  0.773858  0.750812  1
  C  C11  1  0.177187  0.951046  0.249188  1
  C  C12  1  0.773858  0.822813  0.249188  1
  C  C13  1  0.226142  0.177187  0.750812  1
  C  C14  1  0.822813  0.048954  0.750812  1
  C  C15  1  0.048954  0.226142  0.249188  1
  C  C16  1  0.858057  0.587702  0.749627  1
  C  C17  1  0.270354  0.858057  0.250373  1
  C  C18  1  0.587702  0.729646  0.250373  1
  C  C19  1  0.412298  0.270354  0.749627  1
  C  C20  1  0.141943  0.412298  0.250373  1
  C  C21  1  0.729646  0.141943  0.749627  1
