# generated using pymatgen
data_Y12Lu4MgAg3Rh4
_symmetry_space_group_name_H-M   'P 1'
_cell_length_a   9.54125363
_cell_length_b   9.54958317
_cell_length_c   9.54960500
_cell_angle_alpha   60.00147570
_cell_angle_beta   59.96994604
_cell_angle_gamma   59.97022950
_symmetry_Int_Tables_number   1
_chemical_formula_structural   Y12Lu4MgAg3Rh4
_chemical_formula_sum   'Y12 Lu4 Mg1 Ag3 Rh4'
_cell_volume   614.99077660
_cell_formula_units_Z   1
loop_
 _symmetry_equiv_pos_site_id
 _symmetry_equiv_pos_as_xyz
  1  'x, y, z'
loop_
 _atom_site_type_symbol
 _atom_site_label
 _atom_site_symmetry_multiplicity
 _atom_site_fract_x
 _atom_site_fract_y
 _atom_site_fract_z
 _atom_site_occupancy
  Y  Y0  1  0.060238  0.439053  0.439059  1
  Y  Y1  1  0.437038  0.062564  0.062556  1
  Y  Y2  1  0.437037  0.062559  0.437852  1
  Y  Y3  1  0.060252  0.439047  0.061648  1
  Y  Y4  1  0.437023  0.437848  0.062561  1
  Y  Y5  1  0.060251  0.061640  0.439050  1
  Y  Y6  1  0.185210  0.813298  0.813315  1
  Y  Y7  1  0.813035  0.186027  0.186034  1
  Y  Y8  1  0.813029  0.186031  0.814902  1
  Y  Y9  1  0.185220  0.813306  0.188158  1
  Y  Y10  1  0.813035  0.814918  0.186022  1
  Y  Y11  1  0.185215  0.188170  0.813307  1
  Lu  Lu12  1  0.601364  0.599309  0.599303  1
  Lu  Lu13  1  0.601350  0.599319  0.200024  1
  Lu  Lu14  1  0.601342  0.200041  0.599303  1
  Lu  Lu15  1  0.184033  0.605325  0.605322  1
  Mg  Mg16  1  0.538954  0.820354  0.820343  1
  Ag  Ag17  1  0.832163  0.833488  0.833483  1
  Ag  Ag18  1  0.832150  0.833490  0.500865  1
  Ag  Ag19  1  0.832156  0.500850  0.833491  1
  Rh  Rh20  1  0.392572  0.397877  0.397890  1
  Rh  Rh21  1  0.392562  0.397884  0.811698  1
  Rh  Rh22  1  0.392599  0.811676  0.397862  1
  Rh  Rh23  1  0.812175  0.395928  0.395954  1
