# generated using pymatgen
data_NdHo7GaPd24
_symmetry_space_group_name_H-M   'P 1'
_cell_length_a   8.36462731
_cell_length_b   8.36462731
_cell_length_c   8.36462731
_cell_angle_alpha   89.90054345
_cell_angle_beta   89.90054345
_cell_angle_gamma   90.09945655
_symmetry_Int_Tables_number   1
_chemical_formula_structural   NdHo7GaPd24
_chemical_formula_sum   'Nd1 Ho7 Ga1 Pd24'
_cell_volume   585.24514668
_cell_formula_units_Z   1
loop_
 _symmetry_equiv_pos_site_id
 _symmetry_equiv_pos_as_xyz
  1  'x, y, z'
loop_
 _atom_site_type_symbol
 _atom_site_label
 _atom_site_symmetry_multiplicity
 _atom_site_fract_x
 _atom_site_fract_y
 _atom_site_fract_z
 _atom_site_occupancy
  Nd  Nd0  1  0.252073  0.252073  0.747927  1
  Ho  Ho1  1  0.251928  0.748280  0.251720  1
  Ho  Ho2  1  0.748280  0.251928  0.251720  1
  Ho  Ho3  1  0.748280  0.748280  0.748072  1
  Ho  Ho4  1  0.747722  0.747722  0.252278  1
  Ho  Ho5  1  0.747661  0.252038  0.747962  1
  Ho  Ho6  1  0.252038  0.747661  0.747962  1
  Ho  Ho7  1  0.252038  0.252038  0.252339  1
  Ga  Ga8  1  0.000112  0.000112  0.999888  1
  Pd  Pd9  1  0.503671  0.503671  0.747423  1
  Pd  Pd10  1  0.503671  0.252577  0.496329  1
  Pd  Pd11  1  0.252577  0.503671  0.496329  1
  Pd  Pd12  1  0.500423  0.500423  0.252596  1
  Pd  Pd13  1  0.500423  0.747404  0.499577  1
  Pd  Pd14  1  0.747404  0.500423  0.499577  1
  Pd  Pd15  1  0.996717  0.996717  0.708087  1
  Pd  Pd16  1  0.996717  0.291913  0.003283  1
  Pd  Pd17  1  0.291913  0.996717  0.003283  1
  Pd  Pd18  1  0.999789  0.999789  0.290777  1
  Pd  Pd19  1  0.999789  0.709223  0.000211  1
  Pd  Pd20  1  0.709223  0.999789  0.000211  1
  Pd  Pd21  1  0.995818  0.502837  0.740185  1
  Pd  Pd22  1  0.502837  0.259815  0.004182  1
  Pd  Pd23  1  0.259815  0.995818  0.497163  1
  Pd  Pd24  1  0.995818  0.259815  0.497163  1
  Pd  Pd25  1  0.502837  0.995818  0.740185  1
  Pd  Pd26  1  0.259815  0.502837  0.004182  1
  Pd  Pd27  1  0.999759  0.500766  0.260220  1
  Pd  Pd28  1  0.500766  0.739780  0.000241  1
  Pd  Pd29  1  0.999759  0.739780  0.499234  1
  Pd  Pd30  1  0.500766  0.999759  0.260220  1
  Pd  Pd31  1  0.739780  0.999759  0.499234  1
  Pd  Pd32  1  0.739780  0.500766  0.000241  1
