# generated using pymatgen
data_Th2SiSe
_symmetry_space_group_name_H-M   'P 1'
_cell_length_a   7.35207572
_cell_length_b   7.35207505
_cell_length_c   7.35207523
_cell_angle_alpha   33.61962093
_cell_angle_beta   33.61962992
_cell_angle_gamma   33.61961992
_symmetry_Int_Tables_number   1
_chemical_formula_structural   Th2SiSe
_chemical_formula_sum   'Th2 Si1 Se1'
_cell_volume   108.52503996
_cell_formula_units_Z   1
loop_
 _symmetry_equiv_pos_site_id
 _symmetry_equiv_pos_as_xyz
  1  'x, y, z'
loop_
 _atom_site_type_symbol
 _atom_site_label
 _atom_site_symmetry_multiplicity
 _atom_site_fract_x
 _atom_site_fract_y
 _atom_site_fract_z
 _atom_site_occupancy
  Th  Th0  1  0.255669  0.255669  0.255669  1
  Th  Th1  1  0.744331  0.744331  0.744331  1
  Si  Si2  1  0.000000  0.000000  0.000000  1
  Se  Se3  1  0.500000  0.500000  0.500000  1
