# generated using pymatgen
data_Eu15Dy(InRh)4
_symmetry_space_group_name_H-M   'P 1'
_cell_length_a   10.20321259
_cell_length_b   10.11916415
_cell_length_c   10.11916500
_cell_angle_alpha   60.00000048
_cell_angle_beta   60.27212104
_cell_angle_gamma   60.27212000
_symmetry_Int_Tables_number   1
_chemical_formula_structural   Eu15Dy(InRh)4
_chemical_formula_sum   'Eu15 Dy1 In4 Rh4'
_cell_volume   741.79749510
_cell_formula_units_Z   1
loop_
 _symmetry_equiv_pos_site_id
 _symmetry_equiv_pos_as_xyz
  1  'x, y, z'
loop_
 _atom_site_type_symbol
 _atom_site_label
 _atom_site_symmetry_multiplicity
 _atom_site_fract_x
 _atom_site_fract_y
 _atom_site_fract_z
 _atom_site_occupancy
  Eu  Eu0  1  0.695581  0.304576  0.304576  1
  Eu  Eu1  1  0.695581  0.695268  0.304576  1
  Eu  Eu2  1  0.305272  0.694346  0.306035  1
  Eu  Eu3  1  0.940826  0.944688  0.557243  1
  Eu  Eu4  1  0.154289  0.154968  0.535775  1
  Eu  Eu5  1  0.553524  0.946370  0.553737  1
  Eu  Eu6  1  0.154289  0.154968  0.154968  1
  Eu  Eu7  1  0.305272  0.306035  0.694346  1
  Eu  Eu8  1  0.940826  0.557243  0.557243  1
  Eu  Eu9  1  0.553524  0.553737  0.946370  1
  Eu  Eu10  1  0.553524  0.946370  0.946370  1
  Eu  Eu11  1  0.940826  0.557243  0.944688  1
  Eu  Eu12  1  0.154289  0.535775  0.154968  1
  Eu  Eu13  1  0.305272  0.694346  0.694346  1
  Eu  Eu14  1  0.695581  0.304576  0.695268  1
  Dy  Dy15  1  0.531948  0.156017  0.156017  1
  In  In16  1  0.916676  0.922571  0.238183  1
  In  In17  1  0.233925  0.922025  0.922025  1
  In  In18  1  0.916676  0.238183  0.922571  1
  In  In19  1  0.916676  0.922571  0.922571  1
  Rh  Rh20  1  0.373698  0.351891  0.351891  1
  Rh  Rh21  1  0.914526  0.361825  0.361825  1
  Rh  Rh22  1  0.373698  0.351891  0.922521  1
  Rh  Rh23  1  0.373698  0.922521  0.351891  1
