# generated using pymatgen
data_Er3Tm2(TcO6)2
_symmetry_space_group_name_H-M   'P 1'
_cell_length_a   6.75550495
_cell_length_b   6.75550580
_cell_length_c   7.45051427
_cell_angle_alpha   73.80181686
_cell_angle_beta   73.80181372
_cell_angle_gamma   49.30200624
_symmetry_Int_Tables_number   1
_chemical_formula_structural   Er3Tm2(TcO6)2
_chemical_formula_sum   'Er3 Tm2 Tc2 O12'
_cell_volume   245.34401196
_cell_formula_units_Z   1
loop_
 _symmetry_equiv_pos_site_id
 _symmetry_equiv_pos_as_xyz
  1  'x, y, z'
loop_
 _atom_site_type_symbol
 _atom_site_label
 _atom_site_symmetry_multiplicity
 _atom_site_fract_x
 _atom_site_fract_y
 _atom_site_fract_z
 _atom_site_occupancy
  Er  Er0  1  0.803737  0.803737  0.358558  1
  Er  Er1  1  0.196223  0.196223  0.642051  1
  Er  Er2  1  0.184246  0.184246  0.177316  1
  Tm  Tm3  1  0.815826  0.815826  0.822366  1
  Tm  Tm4  1  0.499930  0.499930  0.500177  1
  Tc  Tc5  1  0.285783  0.714254  0.999790  1
  Tc  Tc6  1  0.714254  0.285783  0.999790  1
  O  O7  1  0.414609  0.918338  0.913649  1
  O  O8  1  0.080366  0.587103  0.085331  1
  O  O9  1  0.587103  0.080366  0.085331  1
  O  O10  1  0.918338  0.414609  0.913649  1
  O  O11  1  0.599156  0.094987  0.573692  1
  O  O12  1  0.904380  0.401551  0.427576  1
  O  O13  1  0.401551  0.904380  0.427576  1
  O  O14  1  0.000509  0.000509  0.819284  1
  O  O15  1  0.999052  0.999052  0.180224  1
  O  O16  1  0.497897  0.497897  0.793659  1
  O  O17  1  0.502053  0.502053  0.206289  1
  O  O18  1  0.094987  0.599156  0.573692  1
