# generated using pymatgen
data_Lu4InRu
_symmetry_space_group_name_H-M   'P 1'
_cell_length_a   9.45351959
_cell_length_b   9.45352015
_cell_length_c   9.45352000
_cell_angle_alpha   60.00000053
_cell_angle_beta   59.99999856
_cell_angle_gamma   60.00000101
_symmetry_Int_Tables_number   1
_chemical_formula_structural   Lu4InRu
_chemical_formula_sum   'Lu16 In4 Ru4'
_cell_volume   597.40056995
_cell_formula_units_Z   4
loop_
 _symmetry_equiv_pos_site_id
 _symmetry_equiv_pos_as_xyz
  1  'x, y, z'
loop_
 _atom_site_type_symbol
 _atom_site_label
 _atom_site_symmetry_multiplicity
 _atom_site_fract_x
 _atom_site_fract_y
 _atom_site_fract_z
 _atom_site_occupancy
  Lu  Lu0  1  0.598323  0.598323  0.598323  1
  Lu  Lu1  1  0.598323  0.598323  0.205033  1
  Lu  Lu2  1  0.598323  0.205033  0.598323  1
  Lu  Lu3  1  0.205033  0.598323  0.598323  1
  Lu  Lu4  1  0.058547  0.441453  0.441453  1
  Lu  Lu5  1  0.441453  0.058547  0.058547  1
  Lu  Lu6  1  0.441453  0.058547  0.441453  1
  Lu  Lu7  1  0.058547  0.441453  0.058547  1
  Lu  Lu8  1  0.441453  0.441453  0.058547  1
  Lu  Lu9  1  0.058547  0.058547  0.441453  1
  Lu  Lu10  1  0.192703  0.807297  0.807297  1
  Lu  Lu11  1  0.807297  0.192703  0.192703  1
  Lu  Lu12  1  0.807297  0.192703  0.807297  1
  Lu  Lu13  1  0.192703  0.807297  0.192703  1
  Lu  Lu14  1  0.807297  0.807297  0.192703  1
  Lu  Lu15  1  0.192703  0.192703  0.807297  1
  In  In16  1  0.833426  0.833426  0.833426  1
  In  In17  1  0.833426  0.833426  0.499721  1
  In  In18  1  0.833426  0.499721  0.833426  1
  In  In19  1  0.499721  0.833426  0.833426  1
  Ru  Ru20  1  0.389879  0.389879  0.389879  1
  Ru  Ru21  1  0.389879  0.389879  0.830362  1
  Ru  Ru22  1  0.389879  0.830362  0.389879  1
  Ru  Ru23  1  0.830362  0.389879  0.389879  1
