# generated using pymatgen
data_SrYEr(Si3Pd10)2
_symmetry_space_group_name_H-M   'P 1'
_cell_length_a   8.74996974
_cell_length_b   8.74997011
_cell_length_c   8.74997000
_cell_angle_alpha   60.00000043
_cell_angle_beta   59.99999901
_cell_angle_gamma   60.00000513
_symmetry_Int_Tables_number   1
_chemical_formula_structural   SrYEr(Si3Pd10)2
_chemical_formula_sum   'Sr1 Y1 Er1 Si6 Pd20'
_cell_volume   473.70143669
_cell_formula_units_Z   1
loop_
 _symmetry_equiv_pos_site_id
 _symmetry_equiv_pos_as_xyz
  1  'x, y, z'
loop_
 _atom_site_type_symbol
 _atom_site_label
 _atom_site_symmetry_multiplicity
 _atom_site_fract_x
 _atom_site_fract_y
 _atom_site_fract_z
 _atom_site_occupancy
  Sr  Sr0  1  0.250000  0.250000  0.250000  1
  Y  Y1  1  0.750000  0.750000  0.750000  1
  Er  Er2  1  0.000000  0.000000  0.000000  1
  Si  Si3  1  0.732494  0.267506  0.267506  1
  Si  Si4  1  0.267506  0.732494  0.732494  1
  Si  Si5  1  0.267506  0.732494  0.267506  1
  Si  Si6  1  0.732494  0.267506  0.732494  1
  Si  Si7  1  0.267506  0.267506  0.732494  1
  Si  Si8  1  0.732494  0.732494  0.267506  1
  Pd  Pd9  1  0.346503  0.997515  0.997515  1
  Pd  Pd10  1  0.658467  0.997515  0.997515  1
  Pd  Pd11  1  0.997515  0.346503  0.658467  1
  Pd  Pd12  1  0.997515  0.658467  0.346503  1
  Pd  Pd13  1  0.997515  0.346503  0.997515  1
  Pd  Pd14  1  0.658467  0.997515  0.346503  1
  Pd  Pd15  1  0.997515  0.658467  0.997515  1
  Pd  Pd16  1  0.346503  0.997515  0.658467  1
  Pd  Pd17  1  0.997515  0.997515  0.346503  1
  Pd  Pd18  1  0.997515  0.997515  0.658467  1
  Pd  Pd19  1  0.658467  0.346503  0.997515  1
  Pd  Pd20  1  0.346503  0.658467  0.997515  1
  Pd  Pd21  1  0.387274  0.387274  0.387274  1
  Pd  Pd22  1  0.616997  0.616997  0.616997  1
  Pd  Pd23  1  0.387274  0.387274  0.838178  1
  Pd  Pd24  1  0.387274  0.838178  0.387274  1
  Pd  Pd25  1  0.616997  0.616997  0.149007  1
  Pd  Pd26  1  0.616997  0.149007  0.616997  1
  Pd  Pd27  1  0.838178  0.387274  0.387274  1
  Pd  Pd28  1  0.149007  0.616997  0.616997  1
