# generated using pymatgen
data_TiMn4Nb3P4
_symmetry_space_group_name_H-M   'P 1'
_cell_length_a   3.53493300
_cell_length_b   6.19715782
_cell_length_c   7.21266460
_cell_angle_alpha   89.85717728
_cell_angle_beta   90.00000000
_cell_angle_gamma   90.00000000
_symmetry_Int_Tables_number   1
_chemical_formula_structural   TiMn4Nb3P4
_chemical_formula_sum   'Ti1 Mn4 Nb3 P4'
_cell_volume   158.00401785
_cell_formula_units_Z   1
loop_
 _symmetry_equiv_pos_site_id
 _symmetry_equiv_pos_as_xyz
  1  'x, y, z'
loop_
 _atom_site_type_symbol
 _atom_site_label
 _atom_site_symmetry_multiplicity
 _atom_site_fract_x
 _atom_site_fract_y
 _atom_site_fract_z
 _atom_site_occupancy
  Ti  Ti0  1  0.250000  0.529518  0.674564  1
  Mn  Mn1  1  0.750000  0.861147  0.559086  1
  Mn  Mn2  1  0.250000  0.139049  0.442427  1
  Mn  Mn3  1  0.750000  0.361793  0.939460  1
  Mn  Mn4  1  0.250000  0.640721  0.057855  1
  Nb  Nb5  1  0.750000  0.470100  0.328768  1
  Nb  Nb6  1  0.250000  0.028943  0.826834  1
  Nb  Nb7  1  0.750000  0.967439  0.172501  1
  P  P8  1  0.250000  0.270683  0.128672  1
  P  P9  1  0.750000  0.725980  0.863739  1
  P  P10  1  0.250000  0.767882  0.375014  1
  P  P11  1  0.750000  0.236745  0.631081  1
