# generated using pymatgen
data_Sr10GaTc3N14
_symmetry_space_group_name_H-M   'P 1'
_cell_length_a   6.45689882
_cell_length_b   9.18547918
_cell_length_c   9.31594454
_cell_angle_alpha   113.82744556
_cell_angle_beta   98.60881450
_cell_angle_gamma   89.68587736
_symmetry_Int_Tables_number   1
_chemical_formula_structural   Sr10GaTc3N14
_chemical_formula_sum   'Sr10 Ga1 Tc3 N14'
_cell_volume   498.81314011
_cell_formula_units_Z   1
loop_
 _symmetry_equiv_pos_site_id
 _symmetry_equiv_pos_as_xyz
  1  'x, y, z'
loop_
 _atom_site_type_symbol
 _atom_site_label
 _atom_site_symmetry_multiplicity
 _atom_site_fract_x
 _atom_site_fract_y
 _atom_site_fract_z
 _atom_site_occupancy
  Sr  Sr0  1  0.856829  0.578952  0.340391  1
  Sr  Sr1  1  0.265050  0.989501  0.562079  1
  Sr  Sr2  1  0.699522  0.406872  0.841585  1
  Sr  Sr3  1  0.293686  0.585008  0.144974  1
  Sr  Sr4  1  0.397800  0.787764  0.912012  1
  Sr  Sr5  1  0.605529  0.213697  0.102382  1
  Sr  Sr6  1  0.149470  0.404600  0.650684  1
  Sr  Sr7  1  0.885435  0.845155  0.761843  1
  Sr  Sr8  1  0.117300  0.155761  0.244882  1
  Sr  Sr9  1  0.730425  0.028528  0.435088  1
  Ga  Ga10  1  0.583886  0.352398  0.474317  1
  Tc  Tc11  1  0.423663  0.647382  0.526811  1
  Tc  Tc12  1  0.123051  0.217518  0.913604  1
  Tc  Tc13  1  0.874850  0.776609  0.084731  1
  N  N14  1  0.549047  0.564114  0.675630  1
  N  N15  1  0.445952  0.459384  0.334538  1
  N  N16  1  0.161661  0.708381  0.580060  1
  N  N17  1  0.852277  0.298780  0.409465  1
  N  N18  1  0.407753  0.191854  0.487464  1
  N  N19  1  0.589300  0.809943  0.525370  1
  N  N20  1  0.954368  0.144321  0.717311  1
  N  N21  1  0.043152  0.847427  0.280150  1
  N  N22  1  0.228434  0.052288  0.961129  1
  N  N23  1  0.766043  0.944421  0.042082  1
  N  N24  1  0.353498  0.330933  0.909153  1
  N  N25  1  0.973423  0.344597  0.067692  1
  N  N26  1  0.022968  0.653859  0.926044  1
  N  N27  1  0.645627  0.659954  0.088528  1
