# generated using pymatgen
data_HfTh4(WN4)3
_symmetry_space_group_name_H-M   'P 1'
_cell_length_a   5.64745741
_cell_length_b   5.74368126
_cell_length_c   8.02029992
_cell_angle_alpha   90.18300662
_cell_angle_beta   90.04154217
_cell_angle_gamma   90.01476494
_symmetry_Int_Tables_number   1
_chemical_formula_structural   HfTh4(WN4)3
_chemical_formula_sum   'Hf1 Th4 W3 N12'
_cell_volume   260.15463077
_cell_formula_units_Z   1
loop_
 _symmetry_equiv_pos_site_id
 _symmetry_equiv_pos_as_xyz
  1  'x, y, z'
loop_
 _atom_site_type_symbol
 _atom_site_label
 _atom_site_symmetry_multiplicity
 _atom_site_fract_x
 _atom_site_fract_y
 _atom_site_fract_z
 _atom_site_occupancy
  Hf  Hf0  1  0.000000  0.500000  0.000000  1
  Th  Th1  1  0.504146  0.545816  0.251226  1
  Th  Th2  1  0.995384  0.045259  0.250987  1
  Th  Th3  1  0.495854  0.454184  0.748774  1
  Th  Th4  1  0.004616  0.954741  0.749013  1
  W  W5  1  0.500000  0.000000  0.500000  1
  W  W6  1  0.000000  0.500000  0.500000  1
  W  W7  1  0.500000  0.000000  0.000000  1
  N  N8  1  0.421320  0.980502  0.250362  1
  N  N9  1  0.085304  0.476061  0.256881  1
  N  N10  1  0.578680  0.019498  0.749638  1
  N  N11  1  0.914696  0.523939  0.743119  1
  N  N12  1  0.799669  0.814783  0.044266  1
  N  N13  1  0.706219  0.292430  0.459856  1
  N  N14  1  0.205914  0.206211  0.541989  1
  N  N15  1  0.314993  0.700640  0.956146  1
  N  N16  1  0.200331  0.185217  0.955734  1
  N  N17  1  0.293781  0.707570  0.540144  1
  N  N18  1  0.794086  0.793789  0.458011  1
  N  N19  1  0.685007  0.299360  0.043854  1
