# generated using pymatgen
data_Nd8Si15Pd
_symmetry_space_group_name_H-M   'P 1'
_cell_length_a   8.24353300
_cell_length_b   8.24353499
_cell_length_c   8.43938700
_cell_angle_alpha   90.00000000
_cell_angle_beta   90.00000000
_cell_angle_gamma   119.99999604
_symmetry_Int_Tables_number   1
_chemical_formula_structural   Nd8Si15Pd
_chemical_formula_sum   'Nd8 Si15 Pd1'
_cell_volume   496.67055972
_cell_formula_units_Z   1
loop_
 _symmetry_equiv_pos_site_id
 _symmetry_equiv_pos_as_xyz
  1  'x, y, z'
loop_
 _atom_site_type_symbol
 _atom_site_label
 _atom_site_symmetry_multiplicity
 _atom_site_fract_x
 _atom_site_fract_y
 _atom_site_fract_z
 _atom_site_occupancy
  Nd  Nd0  1  0.498316  0.501684  0.754389  1
  Nd  Nd1  1  0.498318  0.501682  0.245594  1
  Nd  Nd2  1  0.003367  0.501684  0.754389  1
  Nd  Nd3  1  0.003366  0.501682  0.245594  1
  Nd  Nd4  1  0.498316  0.996633  0.754389  1
  Nd  Nd5  1  0.498318  0.996634  0.245594  1
  Nd  Nd6  1  0.000000  0.000000  0.751172  1
  Nd  Nd7  1  0.000000  0.000000  0.248967  1
  Si  Si8  1  0.833777  0.166223  0.999601  1
  Si  Si9  1  0.166834  0.833166  0.000464  1
  Si  Si10  1  0.332446  0.166223  0.999601  1
  Si  Si11  1  0.164728  0.835272  0.499598  1
  Si  Si12  1  0.666333  0.833166  0.000464  1
  Si  Si13  1  0.832180  0.167820  0.500339  1
  Si  Si14  1  0.833777  0.667554  0.999601  1
  Si  Si15  1  0.670543  0.835272  0.499598  1
  Si  Si16  1  0.166834  0.333667  0.000464  1
  Si  Si17  1  0.335639  0.167820  0.500339  1
  Si  Si18  1  0.164728  0.329457  0.499598  1
  Si  Si19  1  0.832180  0.664361  0.500339  1
  Si  Si20  1  0.666667  0.333333  0.000380  1
  Si  Si21  1  0.333333  0.666667  0.999565  1
  Si  Si22  1  0.333333  0.666667  0.500410  1
  Pd  Pd23  1  0.666667  0.333333  0.499547  1
