# generated using pymatgen
data_Hf7Zr2Re4N3
_symmetry_space_group_name_H-M   'P 1'
_cell_length_a   8.52356111
_cell_length_b   8.50020743
_cell_length_c   8.54065716
_cell_angle_alpha   90.07114079
_cell_angle_beta   89.93027910
_cell_angle_gamma   120.17953430
_symmetry_Int_Tables_number   1
_chemical_formula_structural   Hf7Zr2Re4N3
_chemical_formula_sum   'Hf14 Zr4 Re8 N6'
_cell_volume   534.91349554
_cell_formula_units_Z   2
loop_
 _symmetry_equiv_pos_site_id
 _symmetry_equiv_pos_as_xyz
  1  'x, y, z'
loop_
 _atom_site_type_symbol
 _atom_site_label
 _atom_site_symmetry_multiplicity
 _atom_site_fract_x
 _atom_site_fract_y
 _atom_site_fract_z
 _atom_site_occupancy
  Hf  Hf0  1  0.454155  0.909224  0.249893  1
  Hf  Hf1  1  0.545643  0.091646  0.750135  1
  Hf  Hf2  1  0.091741  0.545918  0.249880  1
  Hf  Hf3  1  0.909175  0.453893  0.750143  1
  Hf  Hf4  1  0.453852  0.545275  0.249762  1
  Hf  Hf5  1  0.544792  0.453382  0.750049  1
  Hf  Hf6  1  0.406967  0.203575  0.443322  1
  Hf  Hf7  1  0.203616  0.406939  0.944146  1
  Hf  Hf8  1  0.203228  0.796796  0.556229  1
  Hf  Hf9  1  0.407066  0.203418  0.056339  1
  Hf  Hf10  1  0.796155  0.203846  0.443785  1
  Hf  Hf11  1  0.592161  0.795963  0.944592  1
  Hf  Hf12  1  0.796357  0.203629  0.056310  1
  Hf  Hf13  1  0.204309  0.795764  0.943686  1
  Zr  Zr14  1  0.204042  0.408237  0.558728  1
  Zr  Zr15  1  0.795482  0.591265  0.442194  1
  Zr  Zr16  1  0.590905  0.795531  0.558280  1
  Zr  Zr17  1  0.795671  0.591097  0.057525  1
  Re  Re18  1  0.107985  0.216611  0.249101  1
  Re  Re19  1  0.893492  0.784851  0.750251  1
  Re  Re20  1  0.785055  0.894914  0.249015  1
  Re  Re21  1  0.216340  0.106556  0.750312  1
  Re  Re22  1  0.109873  0.894271  0.249591  1
  Re  Re23  1  0.891705  0.107214  0.750539  1
  Re  Re24  1  0.000506  0.000611  0.999982  1
  Re  Re25  1  0.000643  0.000580  0.499894  1
  N  N26  1  0.500278  0.000201  0.999994  1
  N  N27  1  0.002810  0.499460  0.999175  1
  N  N28  1  0.499479  0.002820  0.499157  1
  N  N29  1  0.496931  0.499550  0.999017  1
  N  N30  1  0.000180  0.500250  0.499984  1
  N  N31  1  0.499406  0.496713  0.498990  1
