# generated using pymatgen
data_Tb7Tm3(Bi2Ir)2
_symmetry_space_group_name_H-M   'P 1'
_cell_length_a   7.98848046
_cell_length_b   9.01699821
_cell_length_c   12.53454854
_cell_angle_alpha   89.94753015
_cell_angle_beta   90.15426085
_cell_angle_gamma   90.06108695
_symmetry_Int_Tables_number   1
_chemical_formula_structural   Tb7Tm3(Bi2Ir)2
_chemical_formula_sum   'Tb14 Tm6 Bi8 Ir4'
_cell_volume   902.88586816
_cell_formula_units_Z   2
loop_
 _symmetry_equiv_pos_site_id
 _symmetry_equiv_pos_as_xyz
  1  'x, y, z'
loop_
 _atom_site_type_symbol
 _atom_site_label
 _atom_site_symmetry_multiplicity
 _atom_site_fract_x
 _atom_site_fract_y
 _atom_site_fract_z
 _atom_site_occupancy
  Tb  Tb0  1  0.841667  0.750603  0.793651  1
  Tb  Tb1  1  0.158333  0.249397  0.206349  1
  Tb  Tb2  1  0.342622  0.249884  0.705714  1
  Tb  Tb3  1  0.657378  0.750116  0.294286  1
  Tb  Tb4  1  0.375890  0.749913  0.692970  1
  Tb  Tb5  1  0.624110  0.250087  0.307030  1
  Tb  Tb6  1  0.875692  0.248899  0.806047  1
  Tb  Tb7  1  0.124308  0.751101  0.193953  1
  Tb  Tb8  1  0.946366  0.750108  0.501862  1
  Tb  Tb9  1  0.053634  0.249892  0.498138  1
  Tb  Tb10  1  0.447690  0.248443  0.998321  1
  Tb  Tb11  1  0.552310  0.751557  0.001679  1
  Tb  Tb12  1  0.822155  0.459061  0.065438  1
  Tb  Tb13  1  0.177845  0.540939  0.934562  1
  Tm  Tm14  1  0.673344  0.040631  0.564820  1
  Tm  Tm15  1  0.326656  0.959369  0.435180  1
  Tm  Tm16  1  0.173424  0.958652  0.934945  1
  Tm  Tm17  1  0.326533  0.540627  0.435351  1
  Tm  Tm18  1  0.826576  0.041348  0.065055  1
  Tm  Tm19  1  0.673467  0.459373  0.564649  1
  Bi  Bi20  1  0.569818  0.491127  0.826936  1
  Bi  Bi21  1  0.430182  0.508873  0.173064  1
  Bi  Bi22  1  0.066883  0.508354  0.672361  1
  Bi  Bi23  1  0.432592  0.991536  0.173114  1
  Bi  Bi24  1  0.933117  0.491646  0.327639  1
  Bi  Bi25  1  0.567408  0.008464  0.826886  1
  Bi  Bi26  1  0.932570  0.008518  0.327478  1
  Bi  Bi27  1  0.067430  0.991482  0.672522  1
  Ir  Ir28  1  0.567361  0.750033  0.508757  1
  Ir  Ir29  1  0.432639  0.249967  0.491243  1
  Ir  Ir30  1  0.068602  0.247441  0.990760  1
  Ir  Ir31  1  0.931398  0.752559  0.009240  1
