# generated using pymatgen
data_Na4CePuSe6
_symmetry_space_group_name_H-M   'P 1'
_cell_length_a   7.33235420
_cell_length_b   7.33235399
_cell_length_c   7.38103352
_cell_angle_alpha   80.36154582
_cell_angle_beta   80.36155602
_cell_angle_gamma   119.96787506
_symmetry_Int_Tables_number   1
_chemical_formula_structural   Na4CePuSe6
_chemical_formula_sum   'Na4 Ce1 Pu1 Se6'
_cell_volume   323.94855289
_cell_formula_units_Z   1
loop_
 _symmetry_equiv_pos_site_id
 _symmetry_equiv_pos_as_xyz
  1  'x, y, z'
loop_
 _atom_site_type_symbol
 _atom_site_label
 _atom_site_symmetry_multiplicity
 _atom_site_fract_x
 _atom_site_fract_y
 _atom_site_fract_z
 _atom_site_occupancy
  Na  Na0  1  0.000132  0.999868  0.000000  1
  Na  Na1  1  0.500773  0.499227  0.500000  1
  Na  Na2  1  0.839070  0.160930  0.500000  1
  Na  Na3  1  0.159976  0.840024  0.500000  1
  Ce  Ce4  1  0.332880  0.667120  0.000000  1
  Pu  Pu5  1  0.667076  0.332924  0.000000  1
  Se  Se6  1  0.280187  0.275108  0.231292  1
  Se  Se7  1  0.435887  0.082573  0.771102  1
  Se  Se8  1  0.071884  0.430183  0.770721  1
  Se  Se9  1  0.724892  0.719813  0.768708  1
  Se  Se10  1  0.569817  0.928116  0.229279  1
  Se  Se11  1  0.917427  0.564113  0.228898  1
