# generated using pymatgen
data_La2NdZn3Pd2Ru
_symmetry_space_group_name_H-M   'P 1'
_cell_length_a   7.46323871
_cell_length_b   7.39217348
_cell_length_c   4.03490200
_cell_angle_alpha   90.00000000
_cell_angle_beta   90.00000000
_cell_angle_gamma   119.71517478
_symmetry_Int_Tables_number   1
_chemical_formula_structural   La2NdZn3Pd2Ru
_chemical_formula_sum   'La2 Nd1 Zn3 Pd2 Ru1'
_cell_volume   193.33141422
_cell_formula_units_Z   1
loop_
 _symmetry_equiv_pos_site_id
 _symmetry_equiv_pos_as_xyz
  1  'x, y, z'
loop_
 _atom_site_type_symbol
 _atom_site_label
 _atom_site_symmetry_multiplicity
 _atom_site_fract_x
 _atom_site_fract_y
 _atom_site_fract_z
 _atom_site_occupancy
  La  La0  1  0.423887  0.410307  0.000000  1
  La  La1  1  0.592094  0.014199  0.000000  1
  Nd  Nd2  1  0.989732  0.581866  0.000000  1
  Zn  Zn3  1  0.764652  0.757769  0.500000  1
  Zn  Zn4  1  0.238164  0.997161  0.500000  1
  Zn  Zn5  1  0.998597  0.247276  0.500000  1
  Pd  Pd6  1  0.000378  0.000438  0.000000  1
  Pd  Pd7  1  0.333596  0.665779  0.500000  1
  Ru  Ru8  1  0.658901  0.325206  0.500000  1
