# generated using pymatgen
data_La16Pr4Si15Pt
_symmetry_space_group_name_H-M   'P 1'
_cell_length_a   8.01745465
_cell_length_b   8.03227491
_cell_length_c   15.50052615
_cell_angle_alpha   89.93894749
_cell_angle_beta   89.59842909
_cell_angle_gamma   90.10087282
_symmetry_Int_Tables_number   1
_chemical_formula_structural   La16Pr4Si15Pt
_chemical_formula_sum   'La16 Pr4 Si15 Pt1'
_cell_volume   998.18243677
_cell_formula_units_Z   1
loop_
 _symmetry_equiv_pos_site_id
 _symmetry_equiv_pos_as_xyz
  1  'x, y, z'
loop_
 _atom_site_type_symbol
 _atom_site_label
 _atom_site_symmetry_multiplicity
 _atom_site_fract_x
 _atom_site_fract_y
 _atom_site_fract_z
 _atom_site_occupancy
  La  La0  1  0.306137  0.306443  0.999063  1
  La  La1  1  0.192070  0.808586  0.249661  1
  La  La2  1  0.814846  0.187206  0.750764  1
  La  La3  1  0.692695  0.687653  0.499645  1
  La  La4  1  0.374644  0.011221  0.448158  1
  La  La5  1  0.489951  0.873760  0.698630  1
  La  La6  1  0.510687  0.123692  0.198342  1
  La  La7  1  0.876835  0.488648  0.300736  1
  La  La8  1  0.123484  0.512090  0.800401  1
  La  La9  1  0.626778  0.987921  0.949149  1
  La  La10  1  0.005727  0.376291  0.551202  1
  La  La11  1  0.989111  0.625226  0.051801  1
  La  La12  1  0.133459  0.987255  0.874992  1
  La  La13  1  0.516114  0.630369  0.126768  1
  La  La14  1  0.476224  0.365129  0.627582  1
  La  La15  1  0.628082  0.517066  0.874185  1
  Pr  Pr16  1  0.371944  0.483543  0.373346  1
  Pr  Pr17  1  0.872242  0.018722  0.375840  1
  Pr  Pr18  1  0.982325  0.127303  0.125249  1
  Pr  Pr19  1  0.020090  0.873816  0.622789  1
  Si  Si20  1  0.332081  0.697585  0.951505  1
  Si  Si21  1  0.663956  0.301397  0.451316  1
  Si  Si22  1  0.699802  0.334192  0.049632  1
  Si  Si23  1  0.302282  0.668796  0.547410  1
  Si  Si24  1  0.804398  0.833554  0.203042  1
  Si  Si25  1  0.166923  0.198547  0.298556  1
  Si  Si26  1  0.835164  0.801996  0.797406  1
  Si  Si27  1  0.287915  0.922089  0.058437  1
  Si  Si28  1  0.580461  0.788740  0.309750  1
  Si  Si29  1  0.429749  0.207990  0.811908  1
  Si  Si30  1  0.787596  0.581564  0.690739  1
  Si  Si31  1  0.211011  0.419842  0.191378  1
  Si  Si32  1  0.705452  0.075629  0.557582  1
  Si  Si33  1  0.919231  0.288797  0.942749  1
  Si  Si34  1  0.079953  0.714251  0.441691  1
  Pt  Pt35  1  0.190582  0.173088  0.698599  1
