# generated using pymatgen
data_NaSrMoH9
_symmetry_space_group_name_H-M   'P 1'
_cell_length_a   8.61523200
_cell_length_b   8.61522910
_cell_length_c   4.97341600
_cell_angle_alpha   90.00000000
_cell_angle_beta   90.00000000
_cell_angle_gamma   120.00000346
_symmetry_Int_Tables_number   1
_chemical_formula_structural   NaSrMoH9
_chemical_formula_sum   'Na3 Sr3 Mo3 H27'
_cell_volume   319.68275680
_cell_formula_units_Z   3
loop_
 _symmetry_equiv_pos_site_id
 _symmetry_equiv_pos_as_xyz
  1  'x, y, z'
loop_
 _atom_site_type_symbol
 _atom_site_label
 _atom_site_symmetry_multiplicity
 _atom_site_fract_x
 _atom_site_fract_y
 _atom_site_fract_z
 _atom_site_occupancy
  Na  Na0  1  0.000000  0.255671  0.500000  1
  Na  Na1  1  0.744329  0.744329  0.500000  1
  Na  Na2  1  0.255671  0.000000  0.500000  1
  Sr  Sr3  1  0.000000  0.600530  0.000000  1
  Sr  Sr4  1  0.399470  0.399470  0.000000  1
  Sr  Sr5  1  0.600530  0.000000  0.000000  1
  Mo  Mo6  1  0.666667  0.333333  0.500000  1
  Mo  Mo7  1  0.333333  0.666667  0.500000  1
  Mo  Mo8  1  0.000000  0.000000  0.000000  1
  H  H9  1  0.800784  0.315548  0.752075  1
  H  H10  1  0.684452  0.485235  0.752075  1
  H  H11  1  0.514765  0.199216  0.752075  1
  H  H12  1  0.199216  0.514765  0.247925  1
  H  H13  1  0.514765  0.199216  0.247925  1
  H  H14  1  0.800784  0.315548  0.247925  1
  H  H15  1  0.684452  0.485235  0.247925  1
  H  H16  1  0.315548  0.800784  0.752075  1
  H  H17  1  0.485235  0.684452  0.752075  1
  H  H18  1  0.201832  0.000000  0.000000  1
  H  H19  1  0.798168  0.798168  0.000000  1
  H  H20  1  0.000000  0.201832  0.000000  1
  H  H21  1  0.855452  0.000000  0.248380  1
  H  H22  1  0.144548  0.144548  0.751620  1
  H  H23  1  0.000000  0.855452  0.751620  1
  H  H24  1  0.000000  0.855452  0.248380  1
  H  H25  1  0.144548  0.144548  0.248380  1
  H  H26  1  0.855452  0.000000  0.751620  1
  H  H27  1  0.126509  0.650558  0.500000  1
  H  H28  1  0.524049  0.873491  0.500000  1
  H  H29  1  0.349442  0.475951  0.500000  1
  H  H30  1  0.475951  0.349442  0.500000  1
  H  H31  1  0.873491  0.524049  0.500000  1
  H  H32  1  0.650558  0.126509  0.500000  1
  H  H33  1  0.199216  0.514765  0.752075  1
  H  H34  1  0.315548  0.800784  0.247925  1
  H  H35  1  0.485235  0.684452  0.247925  1
