# generated using pymatgen
data_Pr4Mg(FeO4)3
_symmetry_space_group_name_H-M   'P 1'
_cell_length_a   5.53718198
_cell_length_b   5.67811002
_cell_length_c   7.87147217
_cell_angle_alpha   89.75239295
_cell_angle_beta   90.17859922
_cell_angle_gamma   89.88026944
_symmetry_Int_Tables_number   1
_chemical_formula_structural   Pr4Mg(FeO4)3
_chemical_formula_sum   'Pr4 Mg1 Fe3 O12'
_cell_volume   247.48075839
_cell_formula_units_Z   1
loop_
 _symmetry_equiv_pos_site_id
 _symmetry_equiv_pos_as_xyz
  1  'x, y, z'
loop_
 _atom_site_type_symbol
 _atom_site_label
 _atom_site_symmetry_multiplicity
 _atom_site_fract_x
 _atom_site_fract_y
 _atom_site_fract_z
 _atom_site_occupancy
  Pr  Pr0  1  0.015358  0.947919  0.743578  1
  Pr  Pr1  1  0.509328  0.548613  0.255934  1
  Pr  Pr2  1  0.490672  0.451387  0.744066  1
  Pr  Pr3  1  0.984642  0.052081  0.256422  1
  Mg  Mg4  1  0.000000  0.500000  0.500000  1
  Fe  Fe5  1  0.500000  0.000000  0.500000  1
  Fe  Fe6  1  0.500000  0.000000  0.000000  1
  Fe  Fe7  1  0.000000  0.500000  0.000000  1
  O  O8  1  0.700791  0.291346  0.456537  1
  O  O9  1  0.211284  0.200227  0.542273  1
  O  O10  1  0.785356  0.790935  0.050233  1
  O  O11  1  0.290311  0.712162  0.951093  1
  O  O12  1  0.299209  0.708654  0.543463  1
  O  O13  1  0.788716  0.799773  0.457727  1
  O  O14  1  0.214644  0.209065  0.949767  1
  O  O15  1  0.709689  0.287838  0.048907  1
  O  O16  1  0.084262  0.477621  0.240580  1
  O  O17  1  0.588485  0.022095  0.753636  1
  O  O18  1  0.411515  0.977905  0.246364  1
  O  O19  1  0.915738  0.522379  0.759420  1
