# generated using pymatgen
data_Ba10TlSi4Hg
_symmetry_space_group_name_H-M   'P 1'
_cell_length_a   8.58779000
_cell_length_b   8.58779000
_cell_length_c   17.57280300
_cell_angle_alpha   90.00000000
_cell_angle_beta   90.00000000
_cell_angle_gamma   90.00000000
_symmetry_Int_Tables_number   1
_chemical_formula_structural   Ba10TlSi4Hg
_chemical_formula_sum   'Ba20 Tl2 Si8 Hg2'
_cell_volume   1295.99663020
_cell_formula_units_Z   2
loop_
 _symmetry_equiv_pos_site_id
 _symmetry_equiv_pos_as_xyz
  1  'x, y, z'
loop_
 _atom_site_type_symbol
 _atom_site_label
 _atom_site_symmetry_multiplicity
 _atom_site_fract_x
 _atom_site_fract_y
 _atom_site_fract_z
 _atom_site_occupancy
  Ba  Ba0  1  0.319999  0.670053  0.113112  1
  Ba  Ba1  1  0.170053  0.180001  0.113112  1
  Ba  Ba2  1  0.500000  0.000000  0.737708  1
  Ba  Ba3  1  0.329715  0.680891  0.390046  1
  Ba  Ba4  1  0.670053  0.680001  0.886888  1
  Ba  Ba5  1  0.180891  0.170285  0.390046  1
  Ba  Ba6  1  0.670285  0.319109  0.390046  1
  Ba  Ba7  1  0.170285  0.819109  0.609954  1
  Ba  Ba8  1  0.329947  0.319999  0.886888  1
  Ba  Ba9  1  0.180001  0.829947  0.886888  1
  Ba  Ba10  1  0.500000  0.000000  0.246903  1
  Ba  Ba11  1  0.829715  0.180891  0.609954  1
  Ba  Ba12  1  0.319109  0.329715  0.609954  1
  Ba  Ba13  1  0.819109  0.829715  0.390046  1
  Ba  Ba14  1  0.819999  0.170053  0.886888  1
  Ba  Ba15  1  0.829947  0.819999  0.113112  1
  Ba  Ba16  1  0.000000  0.500000  0.262292  1
  Ba  Ba17  1  0.000000  0.500000  0.753097  1
  Ba  Ba18  1  0.680001  0.329947  0.113112  1
  Ba  Ba19  1  0.680891  0.670285  0.609954  1
  Tl  Tl20  1  0.500000  0.000000  0.505890  1
  Tl  Tl21  1  0.000000  0.500000  0.494110  1
  Si  Si22  1  0.100644  0.100351  0.748620  1
  Si  Si23  1  0.399649  0.600644  0.748620  1
  Si  Si24  1  0.600644  0.600351  0.251380  1
  Si  Si25  1  0.100351  0.899356  0.251380  1
  Si  Si26  1  0.600351  0.399356  0.748620  1
  Si  Si27  1  0.899356  0.899649  0.748620  1
  Si  Si28  1  0.399356  0.399649  0.251380  1
  Si  Si29  1  0.899649  0.100644  0.251380  1
  Hg  Hg30  1  0.000000  0.500000  0.992684  1
  Hg  Hg31  1  0.500000  0.000000  0.007316  1
