# generated using pymatgen
data_Ac3Sm(CdPb)4
_symmetry_space_group_name_H-M   'P 1'
_cell_length_a   4.90362000
_cell_length_b   4.90361958
_cell_length_c   18.04815400
_cell_angle_alpha   90.00000000
_cell_angle_beta   90.00000000
_cell_angle_gamma   120.00000287
_symmetry_Int_Tables_number   1
_chemical_formula_structural   Ac3Sm(CdPb)4
_chemical_formula_sum   'Ac3 Sm1 Cd4 Pb4'
_cell_volume   375.83479509
_cell_formula_units_Z   1
loop_
 _symmetry_equiv_pos_site_id
 _symmetry_equiv_pos_as_xyz
  1  'x, y, z'
loop_
 _atom_site_type_symbol
 _atom_site_label
 _atom_site_symmetry_multiplicity
 _atom_site_fract_x
 _atom_site_fract_y
 _atom_site_fract_z
 _atom_site_occupancy
  Ac  Ac0  1  0.000000  0.000000  0.506839  1
  Ac  Ac1  1  0.000000  0.000000  0.993161  1
  Ac  Ac2  1  0.000000  0.000000  0.250000  1
  Sm  Sm3  1  0.000000  0.000000  0.750000  1
  Cd  Cd4  1  0.333333  0.666667  0.346839  1
  Cd  Cd5  1  0.666667  0.333333  0.666179  1
  Cd  Cd6  1  0.666667  0.333333  0.833821  1
  Cd  Cd7  1  0.333333  0.666667  0.153161  1
  Pb  Pb8  1  0.333333  0.666667  0.881521  1
  Pb  Pb9  1  0.666667  0.333333  0.106892  1
  Pb  Pb10  1  0.666667  0.333333  0.393108  1
  Pb  Pb11  1  0.333333  0.666667  0.618479  1
