# generated using pymatgen
data_Ho8InSi4TcB16
_symmetry_space_group_name_H-M   'P 1'
_cell_length_a   7.11553700
_cell_length_b   7.11553700
_cell_length_c   7.69823400
_cell_angle_alpha   90.00000000
_cell_angle_beta   90.00000000
_cell_angle_gamma   90.00000000
_symmetry_Int_Tables_number   1
_chemical_formula_structural   Ho8InSi4TcB16
_chemical_formula_sum   'Ho8 In1 Si4 Tc1 B16'
_cell_volume   389.76826024
_cell_formula_units_Z   1
loop_
 _symmetry_equiv_pos_site_id
 _symmetry_equiv_pos_as_xyz
  1  'x, y, z'
loop_
 _atom_site_type_symbol
 _atom_site_label
 _atom_site_symmetry_multiplicity
 _atom_site_fract_x
 _atom_site_fract_y
 _atom_site_fract_z
 _atom_site_occupancy
  Ho  Ho0  1  0.681301  0.179854  0.234375  1
  Ho  Ho1  1  0.318699  0.820146  0.765625  1
  Ho  Ho2  1  0.318699  0.820146  0.234375  1
  Ho  Ho3  1  0.820146  0.681301  0.234375  1
  Ho  Ho4  1  0.820146  0.681301  0.765625  1
  Ho  Ho5  1  0.681301  0.179854  0.765625  1
  Ho  Ho6  1  0.179854  0.318699  0.765625  1
  Ho  Ho7  1  0.179854  0.318699  0.234375  1
  In  In8  1  0.500000  0.500000  0.500000  1
  Si  Si9  1  0.102809  0.633843  0.500000  1
  Si  Si10  1  0.897191  0.366157  0.500000  1
  Si  Si11  1  0.366157  0.102809  0.500000  1
  Si  Si12  1  0.633843  0.897191  0.500000  1
  Tc  Tc13  1  0.000000  0.000000  0.500000  1
  B  B14  1  0.172330  0.040438  0.000000  1
  B  B15  1  0.827670  0.959562  0.000000  1
  B  B16  1  0.959562  0.172330  0.000000  1
  B  B17  1  0.326368  0.540624  0.000000  1
  B  B18  1  0.040438  0.827670  0.000000  1
  B  B19  1  0.673632  0.459376  0.000000  1
  B  B20  1  0.540624  0.673632  0.000000  1
  B  B21  1  0.459376  0.326368  0.000000  1
  B  B22  1  0.089556  0.589897  0.000000  1
  B  B23  1  0.910444  0.410103  0.000000  1
  B  B24  1  0.410103  0.089556  0.000000  1
  B  B25  1  0.589897  0.910444  0.000000  1
  B  B26  1  0.000000  0.000000  0.172737  1
  B  B27  1  0.000000  0.000000  0.827263  1
  B  B28  1  0.500000  0.500000  0.836067  1
  B  B29  1  0.500000  0.500000  0.163933  1
