# generated using pymatgen
data_PrGaPRu2
_symmetry_space_group_name_H-M   'P 1'
_cell_length_a   5.81404418
_cell_length_b   5.81404414
_cell_length_c   5.81404466
_cell_angle_alpha   137.34003418
_cell_angle_beta   137.34003636
_cell_angle_gamma   61.91528310
_symmetry_Int_Tables_number   1
_chemical_formula_structural   PrGaPRu2
_chemical_formula_sum   'Pr1 Ga1 P1 Ru2'
_cell_volume   89.19334333
_cell_formula_units_Z   1
loop_
 _symmetry_equiv_pos_site_id
 _symmetry_equiv_pos_as_xyz
  1  'x, y, z'
loop_
 _atom_site_type_symbol
 _atom_site_label
 _atom_site_symmetry_multiplicity
 _atom_site_fract_x
 _atom_site_fract_y
 _atom_site_fract_z
 _atom_site_occupancy
  Pr  Pr0  1  0.001862  0.001862  0.000000  1
  Ga  Ga1  1  0.374226  0.374226  0.000000  1
  P  P2  1  0.642819  0.642819  0.000000  1
  Ru  Ru3  1  0.740547  0.240547  0.500000  1
  Ru  Ru4  1  0.240547  0.740547  0.500000  1
