# generated using pymatgen
data_DyEr11InCo4Os
_symmetry_space_group_name_H-M   'P 1'
_cell_length_a   8.22163968
_cell_length_b   8.22163895
_cell_length_c   8.22127094
_cell_angle_alpha   111.56077965
_cell_angle_beta   110.61568788
_cell_angle_gamma   106.28684574
_symmetry_Int_Tables_number   1
_chemical_formula_structural   DyEr11InCo4Os
_chemical_formula_sum   'Dy1 Er11 In1 Co4 Os1'
_cell_volume   426.76761361
_cell_formula_units_Z   1
loop_
 _symmetry_equiv_pos_site_id
 _symmetry_equiv_pos_as_xyz
  1  'x, y, z'
loop_
 _atom_site_type_symbol
 _atom_site_label
 _atom_site_symmetry_multiplicity
 _atom_site_fract_x
 _atom_site_fract_y
 _atom_site_fract_z
 _atom_site_occupancy
  Dy  Dy0  1  0.182354  0.280918  0.463272  1
  Er  Er1  1  0.818261  0.720067  0.538327  1
  Er  Er2  1  0.181821  0.720123  0.901943  1
  Er  Er3  1  0.817676  0.280140  0.097817  1
  Er  Er4  1  0.314678  0.620862  0.305762  1
  Er  Er5  1  0.685844  0.379396  0.694129  1
  Er  Er6  1  0.314733  0.008286  0.694129  1
  Er  Er7  1  0.684900  0.991084  0.305762  1
  Er  Er8  1  0.415320  0.220742  0.193920  1
  Er  Er9  1  0.585577  0.779765  0.806338  1
  Er  Er10  1  0.026573  0.220761  0.806338  1
  Er  Er11  1  0.973178  0.778600  0.193920  1
  In  In12  1  0.500023  0.500051  0.000074  1
  Co  Co13  1  0.111120  0.612222  0.499704  1
  Co  Co14  1  0.887482  0.388584  0.499704  1
  Co  Co15  1  0.376417  0.999315  0.375732  1
  Co  Co16  1  0.624067  0.000141  0.624208  1
  Os  Os17  1  0.999976  0.998945  0.998922  1
