# generated using pymatgen
data_Sc12GaNi4Os
_symmetry_space_group_name_H-M   'P 1'
_cell_length_a   7.72130372
_cell_length_b   7.72135385
_cell_length_c   7.72130325
_cell_angle_alpha   110.87960202
_cell_angle_beta   110.40192689
_cell_angle_gamma   107.15675393
_symmetry_Int_Tables_number   1
_chemical_formula_structural   Sc12GaNi4Os
_chemical_formula_sum   'Sc12 Ga1 Ni4 Os1'
_cell_volume   353.92983057
_cell_formula_units_Z   1
loop_
 _symmetry_equiv_pos_site_id
 _symmetry_equiv_pos_as_xyz
  1  'x, y, z'
loop_
 _atom_site_type_symbol
 _atom_site_label
 _atom_site_symmetry_multiplicity
 _atom_site_fract_x
 _atom_site_fract_y
 _atom_site_fract_z
 _atom_site_occupancy
  Sc  Sc0  1  0.426588  0.232969  0.193621  1
  Sc  Sc1  1  0.573412  0.767031  0.806379  1
  Sc  Sc2  1  0.039348  0.232969  0.806382  1
  Sc  Sc3  1  0.960652  0.767031  0.193618  1
  Sc  Sc4  1  0.323157  0.619453  0.296295  1
  Sc  Sc5  1  0.676843  0.380547  0.703705  1
  Sc  Sc6  1  0.323167  0.026858  0.703692  1
  Sc  Sc7  1  0.676833  0.973142  0.296308  1
  Sc  Sc8  1  0.180557  0.273303  0.453853  1
  Sc  Sc9  1  0.819443  0.726696  0.546147  1
  Sc  Sc10  1  0.180549  0.726696  0.907254  1
  Sc  Sc11  1  0.819451  0.273303  0.092746  1
  Ga  Ga12  1  0.500000  0.500000  0.000000  1
  Ni  Ni13  1  0.354055  0.000000  0.354055  1
  Ni  Ni14  1  0.645945  0.000000  0.645945  1
  Ni  Ni15  1  0.125844  0.625839  0.499994  1
  Ni  Ni16  1  0.874156  0.374161  0.500006  1
  Os  Os17  1  0.000000  0.000000  0.000000  1
