# generated using pymatgen
data_TbCeTh(RhPb)3
_symmetry_space_group_name_H-M   'P 1'
_cell_length_a   7.71827101
_cell_length_b   7.77282951
_cell_length_c   3.97715700
_cell_angle_alpha   90.00000000
_cell_angle_beta   90.00000000
_cell_angle_gamma   119.60291858
_symmetry_Int_Tables_number   1
_chemical_formula_structural   TbCeTh(RhPb)3
_chemical_formula_sum   'Tb1 Ce1 Th1 Rh3 Pb3'
_cell_volume   207.45618497
_cell_formula_units_Z   1
loop_
 _symmetry_equiv_pos_site_id
 _symmetry_equiv_pos_as_xyz
  1  'x, y, z'
loop_
 _atom_site_type_symbol
 _atom_site_label
 _atom_site_symmetry_multiplicity
 _atom_site_fract_x
 _atom_site_fract_y
 _atom_site_fract_z
 _atom_site_occupancy
  Tb  Tb0  1  0.592445  0.995288  0.500000  1
  Ce  Ce1  1  0.997719  0.588735  0.500000  1
  Th  Th2  1  0.410320  0.409654  0.500000  1
  Rh  Rh3  1  0.010713  0.007622  0.500000  1
  Rh  Rh4  1  0.663493  0.345916  0.000000  1
  Rh  Rh5  1  0.325246  0.651345  0.000000  1
  Pb  Pb6  1  0.746226  0.752164  0.000000  1
  Pb  Pb7  1  0.265941  0.994353  0.000000  1
  Pb  Pb8  1  0.987896  0.254923  0.000000  1
