# generated using pymatgen
data_Er8Si12AgRh3
_symmetry_space_group_name_H-M   'P 1'
_cell_length_a   8.17858400
_cell_length_b   8.17858356
_cell_length_c   7.81451100
_cell_angle_alpha   90.00000000
_cell_angle_beta   90.00000000
_cell_angle_gamma   120.00000179
_symmetry_Int_Tables_number   1
_chemical_formula_structural   Er8Si12AgRh3
_chemical_formula_sum   'Er8 Si12 Ag1 Rh3'
_cell_volume   452.67722438
_cell_formula_units_Z   1
loop_
 _symmetry_equiv_pos_site_id
 _symmetry_equiv_pos_as_xyz
  1  'x, y, z'
loop_
 _atom_site_type_symbol
 _atom_site_label
 _atom_site_symmetry_multiplicity
 _atom_site_fract_x
 _atom_site_fract_y
 _atom_site_fract_z
 _atom_site_occupancy
  Er  Er0  1  0.973968  0.486985  0.255441  1
  Er  Er1  1  0.513015  0.486985  0.255441  1
  Er  Er2  1  0.492850  0.985699  0.746366  1
  Er  Er3  1  0.014301  0.507150  0.746366  1
  Er  Er4  1  0.492850  0.507150  0.746366  1
  Er  Er5  1  0.513015  0.026032  0.255441  1
  Er  Er6  1  0.000000  0.000000  0.746713  1
  Er  Er7  1  0.000000  0.000000  0.248990  1
  Si  Si8  1  0.167133  0.832867  0.496396  1
  Si  Si9  1  0.167133  0.334266  0.496396  1
  Si  Si10  1  0.665734  0.832867  0.496396  1
  Si  Si11  1  0.337327  0.168664  0.001123  1
  Si  Si12  1  0.833997  0.667995  0.502508  1
  Si  Si13  1  0.831336  0.168664  0.001123  1
  Si  Si14  1  0.831336  0.662673  0.001123  1
  Si  Si15  1  0.160651  0.321302  0.995403  1
  Si  Si16  1  0.678698  0.839349  0.995403  1
  Si  Si17  1  0.332005  0.166003  0.502508  1
  Si  Si18  1  0.833997  0.166003  0.502508  1
  Si  Si19  1  0.160651  0.839349  0.995403  1
  Ag  Ag20  1  0.333333  0.666667  0.045528  1
  Rh  Rh21  1  0.666667  0.333333  0.960643  1
  Rh  Rh22  1  0.666667  0.333333  0.534945  1
  Rh  Rh23  1  0.333333  0.666667  0.471471  1
