# generated using pymatgen
data_YLu7(AlPt)2
_symmetry_space_group_name_H-M   'P 1'
_cell_length_a   9.43022379
_cell_length_b   9.43022393
_cell_length_c   9.41880400
_cell_angle_alpha   60.04005121
_cell_angle_beta   60.04005074
_cell_angle_gamma   59.91989644
_symmetry_Int_Tables_number   1
_chemical_formula_structural   YLu7(AlPt)2
_chemical_formula_sum   'Y2 Lu14 Al4 Pt4'
_cell_volume   592.27511915
_cell_formula_units_Z   2
loop_
 _symmetry_equiv_pos_site_id
 _symmetry_equiv_pos_as_xyz
  1  'x, y, z'
loop_
 _atom_site_type_symbol
 _atom_site_label
 _atom_site_symmetry_multiplicity
 _atom_site_fract_x
 _atom_site_fract_y
 _atom_site_fract_z
 _atom_site_occupancy
  Y  Y0  1  0.568637  0.568637  0.931363  1
  Y  Y1  1  0.931363  0.931363  0.568637  1
  Lu  Lu2  1  0.355406  0.355406  0.351989  1
  Lu  Lu3  1  0.355406  0.355406  0.937199  1
  Lu  Lu4  1  0.351989  0.937199  0.355406  1
  Lu  Lu5  1  0.937199  0.351989  0.355406  1
  Lu  Lu6  1  0.807617  0.192383  0.192383  1
  Lu  Lu7  1  0.192383  0.807617  0.807617  1
  Lu  Lu8  1  0.192383  0.807617  0.192383  1
  Lu  Lu9  1  0.807617  0.192383  0.807617  1
  Lu  Lu10  1  0.192967  0.192967  0.807033  1
  Lu  Lu11  1  0.807033  0.807033  0.192967  1
  Lu  Lu12  1  0.938855  0.561145  0.561145  1
  Lu  Lu13  1  0.561145  0.938855  0.938855  1
  Lu  Lu14  1  0.561145  0.938855  0.561145  1
  Lu  Lu15  1  0.938855  0.561145  0.938855  1
  Al  Al16  1  0.578226  0.578226  0.578040  1
  Al  Al17  1  0.578226  0.578226  0.265507  1
  Al  Al18  1  0.578040  0.265507  0.578226  1
  Al  Al19  1  0.265507  0.578040  0.578226  1
  Pt  Pt20  1  0.144465  0.144465  0.140375  1
  Pt  Pt21  1  0.144465  0.144465  0.570695  1
  Pt  Pt22  1  0.140375  0.570695  0.144465  1
  Pt  Pt23  1  0.570695  0.140375  0.144465  1
