# generated using pymatgen
data_TbY19Cd3Ni2Ag3
_symmetry_space_group_name_H-M   'P 1'
_cell_length_a   9.66703802
_cell_length_b   9.66703846
_cell_length_c   9.64863900
_cell_angle_alpha   90.00000000
_cell_angle_beta   90.00000000
_cell_angle_gamma   120.00725299
_symmetry_Int_Tables_number   1
_chemical_formula_structural   TbY19Cd3Ni2Ag3
_chemical_formula_sum   'Tb1 Y19 Cd3 Ni2 Ag3'
_cell_volume   780.82159679
_cell_formula_units_Z   1
loop_
 _symmetry_equiv_pos_site_id
 _symmetry_equiv_pos_as_xyz
  1  'x, y, z'
loop_
 _atom_site_type_symbol
 _atom_site_label
 _atom_site_symmetry_multiplicity
 _atom_site_fract_x
 _atom_site_fract_y
 _atom_site_fract_z
 _atom_site_occupancy
  Tb  Tb0  1  0.542497  0.457503  0.250000  1
  Y  Y1  1  0.999987  0.000013  0.472378  1
  Y  Y2  1  0.999987  0.000013  0.027622  1
  Y  Y3  1  0.542613  0.085037  0.250000  1
  Y  Y4  1  0.914963  0.457387  0.250000  1
  Y  Y5  1  0.456586  0.543414  0.750000  1
  Y  Y6  1  0.456571  0.913159  0.750000  1
  Y  Y7  1  0.086841  0.543429  0.750000  1
  Y  Y8  1  0.210538  0.789462  0.438412  1
  Y  Y9  1  0.210572  0.421093  0.438432  1
  Y  Y10  1  0.578907  0.789428  0.438432  1
  Y  Y11  1  0.790188  0.209812  0.561642  1
  Y  Y12  1  0.790104  0.580305  0.561688  1
  Y  Y13  1  0.419695  0.209896  0.561688  1
  Y  Y14  1  0.790188  0.209812  0.938358  1
  Y  Y15  1  0.790104  0.580305  0.938312  1
  Y  Y16  1  0.419695  0.209896  0.938312  1
  Y  Y17  1  0.210538  0.789462  0.061588  1
  Y  Y18  1  0.210572  0.421093  0.061568  1
  Y  Y19  1  0.578907  0.789428  0.061568  1
  Cd  Cd20  1  0.110974  0.889026  0.750000  1
  Cd  Cd21  1  0.110961  0.221941  0.750000  1
  Cd  Cd22  1  0.778059  0.889039  0.750000  1
  Ni  Ni23  1  0.333297  0.666703  0.250000  1
  Ni  Ni24  1  0.666653  0.333347  0.750000  1
  Ag  Ag25  1  0.874887  0.125113  0.250000  1
  Ag  Ag26  1  0.874815  0.749691  0.250000  1
  Ag  Ag27  1  0.250309  0.125185  0.250000  1
