# generated using pymatgen
data_SmDy3Co12(P3Rh2)4
_symmetry_space_group_name_H-M   'P 1'
_cell_length_a   3.75127900
_cell_length_b   10.52590700
_cell_length_c   12.10504314
_cell_angle_alpha   89.95008938
_cell_angle_beta   90.00000000
_cell_angle_gamma   90.00000000
_symmetry_Int_Tables_number   1
_chemical_formula_structural   SmDy3Co12(P3Rh2)4
_chemical_formula_sum   'Sm1 Dy3 Co12 P12 Rh8'
_cell_volume   477.97487839
_cell_formula_units_Z   1
loop_
 _symmetry_equiv_pos_site_id
 _symmetry_equiv_pos_as_xyz
  1  'x, y, z'
loop_
 _atom_site_type_symbol
 _atom_site_label
 _atom_site_symmetry_multiplicity
 _atom_site_fract_x
 _atom_site_fract_y
 _atom_site_fract_z
 _atom_site_occupancy
  Sm  Sm0  1  0.750000  0.084696  0.790039  1
  Dy  Dy1  1  0.250000  0.584126  0.709885  1
  Dy  Dy2  1  0.250000  0.915581  0.209754  1
  Dy  Dy3  1  0.750000  0.415550  0.290093  1
  Co  Co4  1  0.250000  0.222172  0.179086  1
  Co  Co5  1  0.250000  0.280270  0.678277  1
  Co  Co6  1  0.750000  0.777924  0.821451  1
  Co  Co7  1  0.750000  0.721168  0.321374  1
  Co  Co8  1  0.250000  0.881375  0.696697  1
  Co  Co9  1  0.250000  0.616943  0.197552  1
  Co  Co10  1  0.750000  0.117102  0.302361  1
  Co  Co11  1  0.750000  0.384197  0.802828  1
  Co  Co12  1  0.250000  0.464283  0.931734  1
  Co  Co13  1  0.250000  0.036439  0.430065  1
  Co  Co14  1  0.750000  0.536804  0.069032  1
  Co  Co15  1  0.750000  0.962324  0.567292  1
  P  P16  1  0.250000  0.422133  0.110988  1
  P  P17  1  0.250000  0.077900  0.608671  1
  P  P18  1  0.750000  0.578127  0.889364  1
  P  P19  1  0.750000  0.921832  0.388435  1
  P  P20  1  0.250000  0.277029  0.863201  1
  P  P21  1  0.250000  0.225218  0.362218  1
  P  P22  1  0.750000  0.724876  0.137904  1
  P  P23  1  0.750000  0.774750  0.637717  1
  P  P24  1  0.250000  0.604502  0.379667  1
  P  P25  1  0.250000  0.893568  0.880265  1
  P  P26  1  0.750000  0.395342  0.620421  1
  P  P27  1  0.750000  0.104886  0.120280  1
  Rh  Rh28  1  0.250000  0.711564  0.987917  1
  Rh  Rh29  1  0.250000  0.787734  0.486839  1
  Rh  Rh30  1  0.750000  0.288380  0.012762  1
  Rh  Rh31  1  0.750000  0.211940  0.512804  1
  Rh  Rh32  1  0.250000  0.406597  0.479924  1
  Rh  Rh33  1  0.250000  0.093313  0.983368  1
  Rh  Rh34  1  0.750000  0.593486  0.519861  1
  Rh  Rh35  1  0.750000  0.905872  0.019873  1
