# generated using pymatgen
data_Hf5Zr(Ti2Pb3)2
_symmetry_space_group_name_H-M   'P 1'
_cell_length_a   8.38306600
_cell_length_b   8.47329819
_cell_length_c   5.65188000
_cell_angle_alpha   90.00000000
_cell_angle_beta   90.00000000
_cell_angle_gamma   119.64835459
_symmetry_Int_Tables_number   1
_chemical_formula_structural   Hf5Zr(Ti2Pb3)2
_chemical_formula_sum   'Hf5 Zr1 Ti4 Pb6'
_cell_volume   348.90479958
_cell_formula_units_Z   1
loop_
 _symmetry_equiv_pos_site_id
 _symmetry_equiv_pos_as_xyz
  1  'x, y, z'
loop_
 _atom_site_type_symbol
 _atom_site_label
 _atom_site_symmetry_multiplicity
 _atom_site_fract_x
 _atom_site_fract_y
 _atom_site_fract_z
 _atom_site_occupancy
  Hf  Hf0  1  0.774546  0.000000  0.750000  1
  Hf  Hf1  1  0.999184  0.237792  0.250000  1
  Hf  Hf2  1  0.000081  0.761920  0.750000  1
  Hf  Hf3  1  0.761392  0.762208  0.250000  1
  Hf  Hf4  1  0.238161  0.238080  0.750000  1
  Zr  Zr5  1  0.229010  0.000000  0.250000  1
  Ti  Ti6  1  0.333333  0.667796  0.000110  1
  Ti  Ti7  1  0.665538  0.332204  0.000110  1
  Ti  Ti8  1  0.665538  0.332204  0.499890  1
  Ti  Ti9  1  0.333333  0.667796  0.499890  1
  Pb  Pb10  1  0.599610  0.000000  0.250000  1
  Pb  Pb11  1  0.402051  0.000000  0.750000  1
  Pb  Pb12  1  0.999129  0.599091  0.250000  1
  Pb  Pb13  1  0.999635  0.400217  0.750000  1
  Pb  Pb14  1  0.400039  0.400909  0.250000  1
  Pb  Pb15  1  0.599419  0.599783  0.750000  1
