# generated using pymatgen
data_Sm4HgI6
_symmetry_space_group_name_H-M   'P 1'
_cell_length_a   4.33457900
_cell_length_b   14.54924300
_cell_length_c   15.29730700
_cell_angle_alpha   90.00000000
_cell_angle_beta   90.00000000
_cell_angle_gamma   90.00000000
_symmetry_Int_Tables_number   1
_chemical_formula_structural   Sm4HgI6
_chemical_formula_sum   'Sm8 Hg2 I12'
_cell_volume   964.72226693
_cell_formula_units_Z   2
loop_
 _symmetry_equiv_pos_site_id
 _symmetry_equiv_pos_as_xyz
  1  'x, y, z'
loop_
 _atom_site_type_symbol
 _atom_site_label
 _atom_site_symmetry_multiplicity
 _atom_site_fract_x
 _atom_site_fract_y
 _atom_site_fract_z
 _atom_site_occupancy
  Sm  Sm0  1  0.500000  0.117691  0.342555  1
  Sm  Sm1  1  0.500000  0.882309  0.657445  1
  Sm  Sm2  1  0.500000  0.617691  0.157445  1
  Sm  Sm3  1  0.500000  0.382309  0.842555  1
  Sm  Sm4  1  0.000000  0.118131  0.579339  1
  Sm  Sm5  1  0.000000  0.881869  0.420661  1
  Sm  Sm6  1  0.000000  0.618131  0.920661  1
  Sm  Sm7  1  0.000000  0.381869  0.079339  1
  Hg  Hg8  1  0.500000  0.000000  0.500000  1
  Hg  Hg9  1  0.500000  0.500000  0.000000  1
  I  I10  1  0.500000  0.244255  0.162281  1
  I  I11  1  0.500000  0.755745  0.837719  1
  I  I12  1  0.500000  0.744255  0.337719  1
  I  I13  1  0.500000  0.255745  0.662281  1
  I  I14  1  0.000000  0.258078  0.414005  1
  I  I15  1  0.000000  0.741922  0.585995  1
  I  I16  1  0.000000  0.758078  0.085995  1
  I  I17  1  0.000000  0.241922  0.914005  1
  I  I18  1  0.000000  0.999075  0.241094  1
  I  I19  1  0.000000  0.000925  0.758906  1
  I  I20  1  0.000000  0.499075  0.258906  1
  I  I21  1  0.000000  0.500925  0.741094  1
