# generated using pymatgen
data_Yb2TcB8Ru
_symmetry_space_group_name_H-M   'P 1'
_cell_length_a   3.54091300
_cell_length_b   5.96415505
_cell_length_c   11.53323382
_cell_angle_alpha   89.85068108
_cell_angle_beta   90.00000000
_cell_angle_gamma   90.00000000
_symmetry_Int_Tables_number   1
_chemical_formula_structural   Yb2TcB8Ru
_chemical_formula_sum   'Yb4 Tc2 B16 Ru2'
_cell_volume   243.56439578
_cell_formula_units_Z   2
loop_
 _symmetry_equiv_pos_site_id
 _symmetry_equiv_pos_as_xyz
  1  'x, y, z'
loop_
 _atom_site_type_symbol
 _atom_site_label
 _atom_site_symmetry_multiplicity
 _atom_site_fract_x
 _atom_site_fract_y
 _atom_site_fract_z
 _atom_site_occupancy
  Yb  Yb0  1  0.500000  0.629656  0.149879  1
  Yb  Yb1  1  0.500000  0.370344  0.850121  1
  Yb  Yb2  1  0.500000  0.129235  0.348933  1
  Yb  Yb3  1  0.500000  0.870765  0.651067  1
  Tc  Tc4  1  0.500000  0.629918  0.416260  1
  Tc  Tc5  1  0.500000  0.370082  0.583740  1
  B  B6  1  0.000000  0.976335  0.191862  1
  B  B7  1  0.000000  0.023665  0.808138  1
  B  B8  1  0.000000  0.477209  0.306736  1
  B  B9  1  0.000000  0.522791  0.693264  1
  B  B10  1  0.000000  0.786897  0.314706  1
  B  B11  1  0.000000  0.213103  0.685294  1
  B  B12  1  0.000000  0.285357  0.184796  1
  B  B13  1  0.000000  0.714643  0.815204  1
  B  B14  1  0.000000  0.866116  0.467857  1
  B  B15  1  0.000000  0.133884  0.532143  1
  B  B16  1  0.000000  0.364133  0.030893  1
  B  B17  1  0.000000  0.635867  0.969107  1
  B  B18  1  0.000000  0.887659  0.047279  1
  B  B19  1  0.000000  0.112341  0.952721  1
  B  B20  1  0.000000  0.385679  0.452454  1
  B  B21  1  0.000000  0.614321  0.547546  1
  Ru  Ru22  1  0.500000  0.135178  0.086303  1
  Ru  Ru23  1  0.500000  0.864822  0.913697  1
