# generated using pymatgen
data_Na2NpN3
_symmetry_space_group_name_H-M   'P 1'
_cell_length_a   11.29379753
_cell_length_b   10.72429680
_cell_length_c   5.98692569
_cell_angle_alpha   79.54405799
_cell_angle_beta   69.03613104
_cell_angle_gamma   31.41982116
_symmetry_Int_Tables_number   1
_chemical_formula_structural   Na2NpN3
_chemical_formula_sum   'Na8 Np4 N12'
_cell_volume   341.37588757
_cell_formula_units_Z   4
loop_
 _symmetry_equiv_pos_site_id
 _symmetry_equiv_pos_as_xyz
  1  'x, y, z'
loop_
 _atom_site_type_symbol
 _atom_site_label
 _atom_site_symmetry_multiplicity
 _atom_site_fract_x
 _atom_site_fract_y
 _atom_site_fract_z
 _atom_site_occupancy
  Na  Na0  1  0.996009  0.996009  0.503991  1
  Na  Na1  1  0.421879  0.421879  0.578121  1
  Na  Na2  1  0.828121  0.828121  0.671879  1
  Na  Na3  1  0.253991  0.253991  0.746009  1
  Na  Na4  1  0.746009  0.746009  0.253991  1
  Na  Na5  1  0.671879  0.671879  0.828121  1
  Na  Na6  1  0.578121  0.578121  0.421879  1
  Na  Na7  1  0.503991  0.503991  0.996009  1
  Np  Np8  1  0.915920  0.915920  0.084080  1
  Np  Np9  1  0.334080  0.334080  0.165920  1
  Np  Np10  1  0.165920  0.165920  0.334080  1
  Np  Np11  1  0.084080  0.084080  0.915920  1
  N  N12  1  0.145902  0.660914  0.286772  1
  N  N13  1  0.660914  0.145902  0.906411  1
  N  N14  1  0.104098  0.589086  0.963228  1
  N  N15  1  0.589086  0.104098  0.343589  1
  N  N16  1  0.062722  0.437278  0.437278  1
  N  N17  1  0.437278  0.062722  0.062722  1
  N  N18  1  0.343589  0.963228  0.589086  1
  N  N19  1  0.963228  0.343589  0.104098  1
  N  N20  1  0.906411  0.286772  0.660914  1
  N  N21  1  0.286772  0.906411  0.145902  1
  N  N22  1  0.187278  0.812722  0.812722  1
  N  N23  1  0.812722  0.187278  0.187278  1
