# generated using pymatgen
data_Tb6In(P3Rh5)4
_symmetry_space_group_name_H-M   'P 1'
_cell_length_a   13.50483000
_cell_length_b   13.50482739
_cell_length_c   3.91341300
_cell_angle_alpha   90.00000000
_cell_angle_beta   90.00000000
_cell_angle_gamma   119.99999658
_symmetry_Int_Tables_number   1
_chemical_formula_structural   Tb6In(P3Rh5)4
_chemical_formula_sum   'Tb6 In1 P12 Rh20'
_cell_volume   618.10817773
_cell_formula_units_Z   1
loop_
 _symmetry_equiv_pos_site_id
 _symmetry_equiv_pos_as_xyz
  1  'x, y, z'
loop_
 _atom_site_type_symbol
 _atom_site_label
 _atom_site_symmetry_multiplicity
 _atom_site_fract_x
 _atom_site_fract_y
 _atom_site_fract_z
 _atom_site_occupancy
  Tb  Tb0  1  0.530266  0.716982  0.253367  1
  Tb  Tb1  1  0.283018  0.813284  0.253367  1
  Tb  Tb2  1  0.186716  0.469734  0.253367  1
  Tb  Tb3  1  0.469734  0.283018  0.746633  1
  Tb  Tb4  1  0.716982  0.186716  0.746633  1
  Tb  Tb5  1  0.813284  0.530266  0.746633  1
  In  In6  1  0.000000  0.000000  0.000000  1
  P  P7  1  0.527280  0.138140  0.248892  1
  P  P8  1  0.861860  0.389141  0.248892  1
  P  P9  1  0.610859  0.472720  0.248892  1
  P  P10  1  0.949397  0.717832  0.243378  1
  P  P11  1  0.282168  0.231565  0.243378  1
  P  P12  1  0.768435  0.050603  0.243378  1
  P  P13  1  0.389141  0.527280  0.751108  1
  P  P14  1  0.472720  0.861860  0.751108  1
  P  P15  1  0.138140  0.610859  0.751108  1
  P  P16  1  0.717832  0.768435  0.756622  1
  P  P17  1  0.231565  0.949397  0.756622  1
  P  P18  1  0.050603  0.282168  0.756622  1
  Rh  Rh19  1  0.333333  0.666667  0.752848  1
  Rh  Rh20  1  0.918226  0.253121  0.242672  1
  Rh  Rh21  1  0.746879  0.665105  0.242672  1
  Rh  Rh22  1  0.334895  0.081774  0.242672  1
  Rh  Rh23  1  0.443916  0.027679  0.748124  1
  Rh  Rh24  1  0.972321  0.416238  0.748124  1
  Rh  Rh25  1  0.583762  0.556084  0.748124  1
  Rh  Rh26  1  0.666667  0.333333  0.247152  1
  Rh  Rh27  1  0.098721  0.209015  0.266153  1
  Rh  Rh28  1  0.790985  0.889706  0.266153  1
  Rh  Rh29  1  0.110294  0.901279  0.266153  1
  Rh  Rh30  1  0.027679  0.583762  0.251876  1
  Rh  Rh31  1  0.416238  0.443916  0.251876  1
  Rh  Rh32  1  0.556084  0.972321  0.251876  1
  Rh  Rh33  1  0.665105  0.918226  0.757328  1
  Rh  Rh34  1  0.081774  0.746879  0.757328  1
  Rh  Rh35  1  0.253121  0.334895  0.757328  1
  Rh  Rh36  1  0.901279  0.790985  0.733847  1
  Rh  Rh37  1  0.209015  0.110294  0.733847  1
  Rh  Rh38  1  0.889706  0.098721  0.733847  1
