# generated using pymatgen
data_KNd(AgSb)2
_symmetry_space_group_name_H-M   'P 1'
_cell_length_a   4.71472800
_cell_length_b   9.21355884
_cell_length_c   8.14338900
_cell_angle_alpha   89.83578422
_cell_angle_beta   90.00000000
_cell_angle_gamma   90.00000000
_symmetry_Int_Tables_number   1
_chemical_formula_structural   KNd(AgSb)2
_chemical_formula_sum   'K2 Nd2 Ag4 Sb4'
_cell_volume   353.74267346
_cell_formula_units_Z   2
loop_
 _symmetry_equiv_pos_site_id
 _symmetry_equiv_pos_as_xyz
  1  'x, y, z'
loop_
 _atom_site_type_symbol
 _atom_site_label
 _atom_site_symmetry_multiplicity
 _atom_site_fract_x
 _atom_site_fract_y
 _atom_site_fract_z
 _atom_site_occupancy
  K  K0  1  0.250000  0.501271  0.243491  1
  K  K1  1  0.750000  0.498729  0.756509  1
  Nd  Nd2  1  0.250000  0.000889  0.254602  1
  Nd  Nd3  1  0.750000  0.999111  0.745398  1
  Ag  Ag4  1  0.250000  0.781745  0.583758  1
  Ag  Ag5  1  0.750000  0.218255  0.416242  1
  Ag  Ag6  1  0.250000  0.202233  0.916406  1
  Ag  Ag7  1  0.750000  0.797767  0.083594  1
  Sb  Sb8  1  0.750000  0.782972  0.417411  1
  Sb  Sb9  1  0.250000  0.217028  0.582589  1
  Sb  Sb10  1  0.750000  0.209779  0.082763  1
  Sb  Sb11  1  0.250000  0.790221  0.917237  1
