# generated using pymatgen
data_ScMnAlB2Ir5
_symmetry_space_group_name_H-M   'P 1'
_cell_length_a   9.44050200
_cell_length_b   9.42423900
_cell_length_c   2.97183900
_cell_angle_alpha   90.00000000
_cell_angle_beta   90.00000000
_cell_angle_gamma   90.00000000
_symmetry_Int_Tables_number   1
_chemical_formula_structural   ScMnAlB2Ir5
_chemical_formula_sum   'Sc2 Mn2 Al2 B4 Ir10'
_cell_volume   264.40316997
_cell_formula_units_Z   2
loop_
 _symmetry_equiv_pos_site_id
 _symmetry_equiv_pos_as_xyz
  1  'x, y, z'
loop_
 _atom_site_type_symbol
 _atom_site_label
 _atom_site_symmetry_multiplicity
 _atom_site_fract_x
 _atom_site_fract_y
 _atom_site_fract_z
 _atom_site_occupancy
  Sc  Sc0  1  0.824282  0.674238  0.000000  1
  Sc  Sc1  1  0.324282  0.825762  0.000000  1
  Mn  Mn2  1  0.679263  0.179590  0.000000  1
  Mn  Mn3  1  0.179263  0.320410  0.000000  1
  Al  Al4  1  0.000238  0.998526  0.000000  1
  Al  Al5  1  0.500238  0.501474  0.000000  1
  B  B6  1  0.372891  0.128384  0.000000  1
  B  B7  1  0.872891  0.371617  0.000000  1
  B  B8  1  0.124822  0.622943  0.000000  1
  B  B9  1  0.624821  0.877057  0.000000  1
  Ir  Ir10  1  0.502618  0.005444  0.500002  1
  Ir  Ir11  1  0.213408  0.071224  0.500002  1
  Ir  Ir12  1  0.928342  0.211802  0.500002  1
  Ir  Ir13  1  0.428341  0.288198  0.500002  1
  Ir  Ir14  1  0.713409  0.428776  0.500002  1
  Ir  Ir15  1  0.002618  0.494556  0.500002  1
  Ir  Ir16  1  0.285017  0.568703  0.500002  1
  Ir  Ir17  1  0.569120  0.716482  0.500002  1
  Ir  Ir18  1  0.069120  0.783520  0.500002  1
  Ir  Ir19  1  0.785018  0.931298  0.500002  1
