# generated using pymatgen
data_ErPaPdPt5
_symmetry_space_group_name_H-M   'P 1'
_cell_length_a   5.79545200
_cell_length_b   5.81481610
_cell_length_c   4.86398300
_cell_angle_alpha   90.00000000
_cell_angle_beta   90.00000000
_cell_angle_gamma   119.88990115
_symmetry_Int_Tables_number   1
_chemical_formula_structural   ErPaPdPt5
_chemical_formula_sum   'Er1 Pa1 Pd1 Pt5'
_cell_volume   142.11068348
_cell_formula_units_Z   1
loop_
 _symmetry_equiv_pos_site_id
 _symmetry_equiv_pos_as_xyz
  1  'x, y, z'
loop_
 _atom_site_type_symbol
 _atom_site_label
 _atom_site_symmetry_multiplicity
 _atom_site_fract_x
 _atom_site_fract_y
 _atom_site_fract_z
 _atom_site_occupancy
  Er  Er0  1  0.666260  0.332518  0.250000  1
  Pa  Pa1  1  0.333266  0.666533  0.750000  1
  Pd  Pd2  1  0.163672  0.327343  0.250000  1
  Pt  Pt3  1  0.838167  0.163219  0.750000  1
  Pt  Pt4  1  0.325051  0.163219  0.750000  1
  Pt  Pt5  1  0.837843  0.675687  0.750000  1
  Pt  Pt6  1  0.163887  0.835740  0.250000  1
  Pt  Pt7  1  0.671853  0.835740  0.250000  1
