# generated using pymatgen
data_Yb3DyPtRh3O14
_symmetry_space_group_name_H-M   'P 1'
_cell_length_a   7.21109146
_cell_length_b   7.21723963
_cell_length_c   7.21724055
_cell_angle_alpha   60.12324089
_cell_angle_beta   60.05220523
_cell_angle_gamma   60.05219807
_symmetry_Int_Tables_number   1
_chemical_formula_structural   Yb3DyPtRh3O14
_chemical_formula_sum   'Yb3 Dy1 Pt1 Rh3 O14'
_cell_volume   266.05660032
_cell_formula_units_Z   1
loop_
 _symmetry_equiv_pos_site_id
 _symmetry_equiv_pos_as_xyz
  1  'x, y, z'
loop_
 _atom_site_type_symbol
 _atom_site_label
 _atom_site_symmetry_multiplicity
 _atom_site_fract_x
 _atom_site_fract_y
 _atom_site_fract_z
 _atom_site_occupancy
  Yb  Yb0  1  0.125000  0.625000  0.125000  1
  Yb  Yb1  1  0.125000  0.125000  0.625000  1
  Yb  Yb2  1  0.625000  0.125000  0.125000  1
  Dy  Dy3  1  0.125000  0.125000  0.125000  1
  Pt  Pt4  1  0.125000  0.625000  0.625000  1
  Rh  Rh5  1  0.625000  0.625000  0.625000  1
  Rh  Rh6  1  0.625000  0.125000  0.625000  1
  Rh  Rh7  1  0.625000  0.625000  0.125000  1
  O  O8  1  0.293546  0.706902  0.706902  1
  O  O9  1  0.542338  0.954280  0.954280  1
  O  O10  1  0.700699  0.297176  0.703986  1
  O  O11  1  0.292539  0.291673  0.711964  1
  O  O12  1  0.700699  0.703986  0.297176  1
  O  O13  1  0.001763  0.002653  0.002653  1
  O  O14  1  0.292539  0.711964  0.291673  1
  O  O15  1  0.957461  0.538036  0.958327  1
  O  O16  1  0.957461  0.958327  0.538036  1
  O  O17  1  0.549301  0.546014  0.952824  1
  O  O18  1  0.248237  0.247347  0.247347  1
  O  O19  1  0.549301  0.952824  0.546014  1
  O  O20  1  0.707662  0.295720  0.295720  1
  O  O21  1  0.956454  0.543098  0.543098  1
