# generated using pymatgen
data_Tb8In4Pd7Au
_symmetry_space_group_name_H-M   'P 1'
_cell_length_a   7.80055637
_cell_length_b   7.80055575
_cell_length_c   7.49091037
_cell_angle_alpha   89.99534634
_cell_angle_beta   89.99535316
_cell_angle_gamma   89.82014989
_symmetry_Int_Tables_number   1
_chemical_formula_structural   Tb8In4Pd7Au
_chemical_formula_sum   'Tb8 In4 Pd7 Au1'
_cell_volume   455.80972078
_cell_formula_units_Z   1
loop_
 _symmetry_equiv_pos_site_id
 _symmetry_equiv_pos_as_xyz
  1  'x, y, z'
loop_
 _atom_site_type_symbol
 _atom_site_label
 _atom_site_symmetry_multiplicity
 _atom_site_fract_x
 _atom_site_fract_y
 _atom_site_fract_z
 _atom_site_occupancy
  Tb  Tb0  1  0.827550  0.166329  0.503257  1
  Tb  Tb1  1  0.166329  0.827550  0.503257  1
  Tb  Tb2  1  0.336283  0.336283  0.996674  1
  Tb  Tb3  1  0.669348  0.669348  0.999583  1
  Tb  Tb4  1  0.677757  0.677757  0.500595  1
  Tb  Tb5  1  0.326241  0.326241  0.502576  1
  Tb  Tb6  1  0.175714  0.818000  0.997182  1
  Tb  Tb7  1  0.818000  0.175714  0.997182  1
  In  In8  1  0.503471  0.998412  0.250290  1
  In  In9  1  0.999592  0.497231  0.750184  1
  In  In10  1  0.497231  0.999592  0.750184  1
  In  In11  1  0.998412  0.503471  0.250290  1
  Pd  Pd12  1  0.628217  0.373709  0.259957  1
  Pd  Pd13  1  0.373709  0.628217  0.259957  1
  Pd  Pd14  1  0.128055  0.128055  0.760084  1
  Pd  Pd15  1  0.873246  0.873246  0.759966  1
  Pd  Pd16  1  0.374907  0.628314  0.739721  1
  Pd  Pd17  1  0.628314  0.374907  0.739721  1
  Pd  Pd18  1  0.872125  0.872125  0.240221  1
  Au  Au19  1  0.125498  0.125498  0.239120  1
