# generated using pymatgen
data_Tb5Dy3(Ho3Pb4)4
_symmetry_space_group_name_H-M   'P 1'
_cell_length_a   8.20662908
_cell_length_b   8.28869803
_cell_length_c   15.63619415
_cell_angle_alpha   90.00654136
_cell_angle_beta   89.98539079
_cell_angle_gamma   89.99238662
_symmetry_Int_Tables_number   1
_chemical_formula_structural   Tb5Dy3(Ho3Pb4)4
_chemical_formula_sum   'Tb5 Dy3 Ho12 Pb16'
_cell_volume   1063.60937488
_cell_formula_units_Z   1
loop_
 _symmetry_equiv_pos_site_id
 _symmetry_equiv_pos_as_xyz
  1  'x, y, z'
loop_
 _atom_site_type_symbol
 _atom_site_label
 _atom_site_symmetry_multiplicity
 _atom_site_fract_x
 _atom_site_fract_y
 _atom_site_fract_z
 _atom_site_occupancy
  Tb  Tb0  1  0.965739  0.823028  0.100042  1
  Tb  Tb1  1  0.465738  0.676938  0.099965  1
  Tb  Tb2  1  0.965718  0.823004  0.400006  1
  Tb  Tb3  1  0.534273  0.323036  0.599965  1
  Tb  Tb4  1  0.034249  0.176994  0.900015  1
  Dy  Dy5  1  0.534344  0.323074  0.899904  1
  Dy  Dy6  1  0.034376  0.176886  0.600106  1
  Dy  Dy7  1  0.465622  0.676870  0.399914  1
  Ho  Ho8  1  0.376604  0.840925  0.879262  1
  Ho  Ho9  1  0.876662  0.659122  0.620701  1
  Ho  Ho10  1  0.623328  0.159129  0.379299  1
  Ho  Ho11  1  0.123378  0.340843  0.120737  1
  Ho  Ho12  1  0.623353  0.159178  0.120696  1
  Ho  Ho13  1  0.123393  0.340876  0.379354  1
  Ho  Ho14  1  0.376617  0.840908  0.620655  1
  Ho  Ho15  1  0.876558  0.659054  0.879239  1
  Ho  Ho16  1  0.208343  0.504168  0.750000  1
  Ho  Ho17  1  0.708335  0.995834  0.749954  1
  Ho  Ho18  1  0.791618  0.495774  0.250084  1
  Ho  Ho19  1  0.291750  0.004252  0.250045  1
  Pb  Pb20  1  0.282174  0.033919  0.042698  1
  Pb  Pb21  1  0.781882  0.466307  0.457252  1
  Pb  Pb22  1  0.718100  0.966299  0.542822  1
  Pb  Pb23  1  0.218074  0.533713  0.957197  1
  Pb  Pb24  1  0.717677  0.966220  0.957228  1
  Pb  Pb25  1  0.217858  0.533922  0.542663  1
  Pb  Pb26  1  0.282133  0.033918  0.457419  1
  Pb  Pb27  1  0.782029  0.465910  0.042547  1
  Pb  Pb28  1  0.571826  0.626828  0.749977  1
  Pb  Pb29  1  0.071824  0.873147  0.750002  1
  Pb  Pb30  1  0.428165  0.373191  0.250004  1
  Pb  Pb31  1  0.928159  0.126918  0.250042  1
  Pb  Pb32  1  0.345236  0.152089  0.750095  1
  Pb  Pb33  1  0.845236  0.347916  0.749892  1
  Pb  Pb34  1  0.654678  0.847923  0.250157  1
  Pb  Pb35  1  0.154950  0.651888  0.250061  1
