# generated using pymatgen
data_Sm5Hf3(Co4As3)4
_symmetry_space_group_name_H-M   'P 1'
_cell_length_a   12.76768900
_cell_length_b   12.76768750
_cell_length_c   3.86507200
_cell_angle_alpha   90.00000000
_cell_angle_beta   90.00000000
_cell_angle_gamma   120.00000648
_symmetry_Int_Tables_number   1
_chemical_formula_structural   Sm5Hf3(Co4As3)4
_chemical_formula_sum   'Sm5 Hf3 Co16 As12'
_cell_volume   545.64820604
_cell_formula_units_Z   1
loop_
 _symmetry_equiv_pos_site_id
 _symmetry_equiv_pos_as_xyz
  1  'x, y, z'
loop_
 _atom_site_type_symbol
 _atom_site_label
 _atom_site_symmetry_multiplicity
 _atom_site_fract_x
 _atom_site_fract_y
 _atom_site_fract_z
 _atom_site_occupancy
  Sm  Sm0  1  0.184090  0.184090  0.500000  1
  Sm  Sm1  1  0.815910  0.000000  0.500000  1
  Sm  Sm2  1  0.000000  0.815910  0.500000  1
  Sm  Sm3  1  0.333333  0.666667  0.000000  1
  Sm  Sm4  1  0.666667  0.333333  0.000000  1
  Hf  Hf5  1  0.563565  0.563565  0.000000  1
  Hf  Hf6  1  0.436435  0.000000  0.000000  1
  Hf  Hf7  1  0.000000  0.436435  0.000000  1
  Co  Co8  1  0.718248  0.718248  0.500000  1
  Co  Co9  1  0.281752  0.000000  0.500000  1
  Co  Co10  1  0.000000  0.281752  0.500000  1
  Co  Co11  1  0.177467  0.375108  0.000000  1
  Co  Co12  1  0.624892  0.802359  0.000000  1
  Co  Co13  1  0.197641  0.822533  0.000000  1
  Co  Co14  1  0.802359  0.624892  0.000000  1
  Co  Co15  1  0.822533  0.197641  0.000000  1
  Co  Co16  1  0.375108  0.177467  0.000000  1
  Co  Co17  1  0.358641  0.480221  0.500000  1
  Co  Co18  1  0.519779  0.878421  0.500000  1
  Co  Co19  1  0.121579  0.641359  0.500000  1
  Co  Co20  1  0.878421  0.519779  0.500000  1
  Co  Co21  1  0.641359  0.121579  0.500000  1
  Co  Co22  1  0.480221  0.358641  0.500000  1
  Co  Co23  1  0.000000  0.000000  0.000000  1
  As  As24  1  0.821465  0.821465  0.000000  1
  As  As25  1  0.178535  0.000000  0.000000  1
  As  As26  1  0.000000  0.178535  0.000000  1
  As  As27  1  0.172178  0.480435  0.500000  1
  As  As28  1  0.519565  0.691743  0.500000  1
  As  As29  1  0.308257  0.827822  0.500000  1
  As  As30  1  0.691743  0.519565  0.500000  1
  As  As31  1  0.827822  0.308257  0.500000  1
  As  As32  1  0.480435  0.172178  0.500000  1
  As  As33  1  0.355624  0.355624  0.000000  1
  As  As34  1  0.644376  0.000000  0.000000  1
  As  As35  1  0.000000  0.644376  0.000000  1
