# generated using pymatgen
data_Tm10In8Co3Rh
_symmetry_space_group_name_H-M   'P 1'
_cell_length_a   3.51311300
_cell_length_b   7.86492600
_cell_length_c   17.87130674
_cell_angle_alpha   89.97386469
_cell_angle_beta   90.00000000
_cell_angle_gamma   90.00000000
_symmetry_Int_Tables_number   1
_chemical_formula_structural   Tm10In8Co3Rh
_chemical_formula_sum   'Tm10 In8 Co3 Rh1'
_cell_volume   493.79083364
_cell_formula_units_Z   1
loop_
 _symmetry_equiv_pos_site_id
 _symmetry_equiv_pos_as_xyz
  1  'x, y, z'
loop_
 _atom_site_type_symbol
 _atom_site_label
 _atom_site_symmetry_multiplicity
 _atom_site_fract_x
 _atom_site_fract_y
 _atom_site_fract_z
 _atom_site_occupancy
  Tm  Tm0  1  0.000000  0.115443  0.411665  1
  Tm  Tm1  1  0.000000  0.884671  0.591185  1
  Tm  Tm2  1  0.000000  0.383880  0.908333  1
  Tm  Tm3  1  0.000000  0.617490  0.086285  1
  Tm  Tm4  1  0.000000  0.240061  0.222805  1
  Tm  Tm5  1  0.000000  0.754151  0.777615  1
  Tm  Tm6  1  0.000000  0.253558  0.721699  1
  Tm  Tm7  1  0.000000  0.751498  0.280312  1
  Tm  Tm8  1  0.000000  0.999380  0.998473  1
  Tm  Tm9  1  0.000000  0.499994  0.501580  1
  In  In10  1  0.500000  0.427286  0.351380  1
  In  In11  1  0.500000  0.570425  0.652091  1
  In  In12  1  0.500000  0.070543  0.847390  1
  In  In13  1  0.500000  0.930032  0.150797  1
  In  In14  1  0.500000  0.292683  0.065725  1
  In  In15  1  0.500000  0.705195  0.929637  1
  In  In16  1  0.500000  0.205029  0.569326  1
  In  In17  1  0.500000  0.794485  0.433267  1
  Co  Co18  1  0.500000  0.022878  0.304771  1
  Co  Co19  1  0.500000  0.978831  0.696427  1
  Co  Co20  1  0.500000  0.478362  0.803131  1
  Rh  Rh21  1  0.500000  0.524124  0.196107  1
