# generated using pymatgen
data_Tm12Fe(TcHg)2
_symmetry_space_group_name_H-M   'P 1'
_cell_length_a   8.28221549
_cell_length_b   8.28221530
_cell_length_c   8.28221644
_cell_angle_alpha   108.66243498
_cell_angle_beta   108.66243301
_cell_angle_gamma   111.10119700
_symmetry_Int_Tables_number   1
_chemical_formula_structural   Tm12Fe(TcHg)2
_chemical_formula_sum   'Tm12 Fe1 Tc2 Hg2'
_cell_volume   437.07218523
_cell_formula_units_Z   1
loop_
 _symmetry_equiv_pos_site_id
 _symmetry_equiv_pos_as_xyz
  1  'x, y, z'
loop_
 _atom_site_type_symbol
 _atom_site_label
 _atom_site_symmetry_multiplicity
 _atom_site_fract_x
 _atom_site_fract_y
 _atom_site_fract_z
 _atom_site_occupancy
  Tm  Tm0  1  0.188574  0.431136  0.242561  1
  Tm  Tm1  1  0.808379  0.569471  0.761093  1
  Tm  Tm2  1  0.188574  0.946014  0.757439  1
  Tm  Tm3  1  0.946014  0.188574  0.757439  1
  Tm  Tm4  1  0.808379  0.047284  0.238907  1
  Tm  Tm5  1  0.047284  0.808379  0.238907  1
  Tm  Tm6  1  0.431136  0.188574  0.242561  1
  Tm  Tm7  1  0.569471  0.808379  0.761093  1
  Tm  Tm8  1  0.306265  0.306265  0.614875  1
  Tm  Tm9  1  0.691391  0.691391  0.385125  1
  Tm  Tm10  1  0.691391  0.306265  0.000000  1
  Tm  Tm11  1  0.306265  0.691391  0.000000  1
  Fe  Fe12  1  0.633110  0.633110  0.000000  1
  Tc  Tc13  1  0.386790  0.386790  0.000000  1
  Tc  Tc14  1  0.000787  0.000787  0.000000  1
  Hg  Hg15  1  0.998096  0.498096  0.500000  1
  Hg  Hg16  1  0.498096  0.998096  0.500000  1
