# generated using pymatgen
data_Er2MgZnIr2
_symmetry_space_group_name_H-M   'P 1'
_cell_length_a   4.02143700
_cell_length_b   7.03330000
_cell_length_c   8.30951900
_cell_angle_alpha   90.00000000
_cell_angle_beta   90.00000000
_cell_angle_gamma   90.00000000
_symmetry_Int_Tables_number   1
_chemical_formula_structural   Er2MgZnIr2
_chemical_formula_sum   'Er4 Mg2 Zn2 Ir4'
_cell_volume   235.02620981
_cell_formula_units_Z   2
loop_
 _symmetry_equiv_pos_site_id
 _symmetry_equiv_pos_as_xyz
  1  'x, y, z'
loop_
 _atom_site_type_symbol
 _atom_site_label
 _atom_site_symmetry_multiplicity
 _atom_site_fract_x
 _atom_site_fract_y
 _atom_site_fract_z
 _atom_site_occupancy
  Er  Er0  1  0.250000  0.042558  0.323149  1
  Er  Er1  1  0.250000  0.542558  0.176851  1
  Er  Er2  1  0.750000  0.960877  0.676368  1
  Er  Er3  1  0.750000  0.460877  0.823632  1
  Mg  Mg4  1  0.250000  0.631873  0.559143  1
  Mg  Mg5  1  0.250000  0.131873  0.940857  1
  Zn  Zn6  1  0.750000  0.364859  0.436385  1
  Zn  Zn7  1  0.750000  0.864859  0.063615  1
  Ir  Ir8  1  0.250000  0.251223  0.625249  1
  Ir  Ir9  1  0.250000  0.751223  0.874751  1
  Ir  Ir10  1  0.750000  0.748612  0.370029  1
  Ir  Ir11  1  0.750000  0.248612  0.129971  1
