# generated using pymatgen
data_Dy5Y13Ho2(CoBi2)4
_symmetry_space_group_name_H-M   'P 1'
_cell_length_a   8.02577102
_cell_length_b   8.84601366
_cell_length_c   12.43658535
_cell_angle_alpha   89.96435963
_cell_angle_beta   89.99569019
_cell_angle_gamma   90.00222951
_symmetry_Int_Tables_number   1
_chemical_formula_structural   Dy5Y13Ho2(CoBi2)4
_chemical_formula_sum   'Dy5 Y13 Ho2 Co4 Bi8'
_cell_volume   882.94863546
_cell_formula_units_Z   1
loop_
 _symmetry_equiv_pos_site_id
 _symmetry_equiv_pos_as_xyz
  1  'x, y, z'
loop_
 _atom_site_type_symbol
 _atom_site_label
 _atom_site_symmetry_multiplicity
 _atom_site_fract_x
 _atom_site_fract_y
 _atom_site_fract_z
 _atom_site_occupancy
  Dy  Dy0  1  0.324880  0.535058  0.436593  1
  Dy  Dy1  1  0.825226  0.034958  0.063265  1
  Dy  Dy2  1  0.674971  0.465258  0.563292  1
  Dy  Dy3  1  0.824872  0.465077  0.063296  1
  Dy  Dy4  1  0.175058  0.535155  0.936699  1
  Y  Y5  1  0.846912  0.750101  0.800746  1
  Y  Y6  1  0.153286  0.249950  0.199230  1
  Y  Y7  1  0.346510  0.250168  0.699339  1
  Y  Y8  1  0.653072  0.750066  0.300853  1
  Y  Y9  1  0.378287  0.750061  0.689611  1
  Y  Y10  1  0.621261  0.249895  0.310255  1
  Y  Y11  1  0.878704  0.249996  0.810270  1
  Y  Y12  1  0.121694  0.750202  0.189831  1
  Y  Y13  1  0.953926  0.749656  0.502047  1
  Y  Y14  1  0.047770  0.250251  0.497624  1
  Y  Y15  1  0.452758  0.249842  0.997782  1
  Y  Y16  1  0.546687  0.750149  0.002242  1
  Y  Y17  1  0.675763  0.035140  0.563845  1
  Ho  Ho18  1  0.326148  0.964628  0.436713  1
  Ho  Ho19  1  0.174115  0.964808  0.936739  1
  Co  Co20  1  0.559432  0.749244  0.507778  1
  Co  Co21  1  0.438469  0.250303  0.491701  1
  Co  Co22  1  0.060675  0.249755  0.991867  1
  Co  Co23  1  0.940151  0.750310  0.007992  1
  Bi  Bi24  1  0.569564  0.492294  0.825975  1
  Bi  Bi25  1  0.430427  0.507770  0.174010  1
  Bi  Bi26  1  0.069481  0.507806  0.674098  1
  Bi  Bi27  1  0.430488  0.992233  0.174163  1
  Bi  Bi28  1  0.930360  0.492201  0.325861  1
  Bi  Bi29  1  0.569033  0.007709  0.826043  1
  Bi  Bi30  1  0.930756  0.007708  0.326218  1
  Bi  Bi31  1  0.069265  0.992245  0.674020  1
