# generated using pymatgen
data_Zr4Si4Os3Pt
_symmetry_space_group_name_H-M   'P 1'
_cell_length_a   4.02548400
_cell_length_b   6.54631628
_cell_length_c   7.49635090
_cell_angle_alpha   89.79634998
_cell_angle_beta   90.00000000
_cell_angle_gamma   90.00000000
_symmetry_Int_Tables_number   1
_chemical_formula_structural   Zr4Si4Os3Pt
_chemical_formula_sum   'Zr4 Si4 Os3 Pt1'
_cell_volume   197.54327670
_cell_formula_units_Z   1
loop_
 _symmetry_equiv_pos_site_id
 _symmetry_equiv_pos_as_xyz
  1  'x, y, z'
loop_
 _atom_site_type_symbol
 _atom_site_label
 _atom_site_symmetry_multiplicity
 _atom_site_fract_x
 _atom_site_fract_y
 _atom_site_fract_z
 _atom_site_occupancy
  Zr  Zr0  1  0.250000  0.009342  0.813179  1
  Zr  Zr1  1  0.250000  0.520416  0.683155  1
  Zr  Zr2  1  0.750000  0.975641  0.179913  1
  Zr  Zr3  1  0.750000  0.488763  0.319295  1
  Si  Si4  1  0.250000  0.778081  0.381233  1
  Si  Si5  1  0.250000  0.285076  0.111708  1
  Si  Si6  1  0.750000  0.221069  0.629807  1
  Si  Si7  1  0.750000  0.712059  0.878802  1
  Os  Os8  1  0.250000  0.660142  0.063654  1
  Os  Os9  1  0.750000  0.847757  0.566246  1
  Os  Os10  1  0.750000  0.343816  0.941761  1
  Pt  Pt11  1  0.250000  0.157839  0.431247  1
