# generated using pymatgen
data_Sc4FeTc3Ge4
_symmetry_space_group_name_H-M   'P 1'
_cell_length_a   7.02065282
_cell_length_b   3.49724700
_cell_length_c   8.16091236
_cell_angle_alpha   90.00000000
_cell_angle_beta   90.26018187
_cell_angle_gamma   90.00000000
_symmetry_Int_Tables_number   1
_chemical_formula_structural   Sc4FeTc3Ge4
_chemical_formula_sum   'Sc4 Fe1 Tc3 Ge4'
_cell_volume   200.37246440
_cell_formula_units_Z   1
loop_
 _symmetry_equiv_pos_site_id
 _symmetry_equiv_pos_as_xyz
  1  'x, y, z'
loop_
 _atom_site_type_symbol
 _atom_site_label
 _atom_site_symmetry_multiplicity
 _atom_site_fract_x
 _atom_site_fract_y
 _atom_site_fract_z
 _atom_site_occupancy
  Sc  Sc0  1  0.455555  0.250001  0.170004  1
  Sc  Sc1  1  0.953608  0.250001  0.327815  1
  Sc  Sc2  1  0.044540  0.750000  0.672180  1
  Sc  Sc3  1  0.543924  0.750000  0.830889  1
  Fe  Fe4  1  0.869988  0.250001  0.932486  1
  Tc  Tc5  1  0.127636  0.750000  0.067251  1
  Tc  Tc6  1  0.635841  0.750000  0.431424  1
  Tc  Tc7  1  0.366004  0.250001  0.571500  1
  Ge  Ge8  1  0.760736  0.750000  0.122646  1
  Ge  Ge9  1  0.262660  0.750000  0.368125  1
  Ge  Ge10  1  0.740224  0.250001  0.634379  1
  Ge  Ge11  1  0.239286  0.250001  0.871298  1
