# generated using pymatgen
data_Hf5Co16Si7Os
_symmetry_space_group_name_H-M   'P 1'
_cell_length_a   7.95265118
_cell_length_b   7.97480461
_cell_length_c   7.97480589
_cell_angle_alpha   59.81629360
_cell_angle_beta   60.09186661
_cell_angle_gamma   60.09186226
_symmetry_Int_Tables_number   1
_chemical_formula_structural   Hf5Co16Si7Os
_chemical_formula_sum   'Hf5 Co16 Si7 Os1'
_cell_volume   357.62716224
_cell_formula_units_Z   1
loop_
 _symmetry_equiv_pos_site_id
 _symmetry_equiv_pos_as_xyz
  1  'x, y, z'
loop_
 _atom_site_type_symbol
 _atom_site_label
 _atom_site_symmetry_multiplicity
 _atom_site_fract_x
 _atom_site_fract_y
 _atom_site_fract_z
 _atom_site_occupancy
  Hf  Hf0  1  0.800520  0.792842  0.199480  1
  Hf  Hf1  1  0.787967  0.212033  0.212033  1
  Hf  Hf2  1  0.207158  0.199480  0.792842  1
  Hf  Hf3  1  0.800520  0.199480  0.792842  1
  Hf  Hf4  1  0.207158  0.792842  0.199480  1
  Co  Co5  1  0.620553  0.618817  0.140077  1
  Co  Co6  1  0.169189  0.484866  0.176758  1
  Co  Co7  1  0.859923  0.379447  0.379447  1
  Co  Co8  1  0.515134  0.830811  0.830811  1
  Co  Co9  1  0.497352  0.168546  0.168546  1
  Co  Co10  1  0.831454  0.834443  0.502648  1
  Co  Co11  1  0.169189  0.176758  0.484866  1
  Co  Co12  1  0.146299  0.620580  0.620580  1
  Co  Co13  1  0.165557  0.168546  0.168546  1
  Co  Co14  1  0.379420  0.387458  0.853701  1
  Co  Co15  1  0.612542  0.620580  0.620580  1
  Co  Co16  1  0.379420  0.853701  0.387458  1
  Co  Co17  1  0.381183  0.379447  0.379447  1
  Co  Co18  1  0.823242  0.830811  0.830811  1
  Co  Co19  1  0.620553  0.140077  0.618817  1
  Co  Co20  1  0.831454  0.502648  0.834443  1
  Si  Si21  1  0.492065  0.989760  0.507935  1
  Si  Si22  1  0.492065  0.507935  0.989760  1
  Si  Si23  1  0.504719  0.495281  0.495281  1
  Si  Si24  1  0.010240  0.989760  0.507935  1
  Si  Si25  1  0.010240  0.507935  0.989760  1
  Si  Si26  1  0.996783  0.503217  0.503217  1
  Si  Si27  1  0.496783  0.003217  0.003217  1
  Os  Os28  1  0.191321  0.808679  0.808679  1
