# generated using pymatgen
data_KCd30SbO32
_symmetry_space_group_name_H-M   'P 1'
_cell_length_a   9.59629100
_cell_length_b   9.59629100
_cell_length_c   9.67967000
_cell_angle_alpha   90.00000000
_cell_angle_beta   90.00000000
_cell_angle_gamma   90.00000000
_symmetry_Int_Tables_number   1
_chemical_formula_structural   KCd30SbO32
_chemical_formula_sum   'K1 Cd30 Sb1 O32'
_cell_volume   891.38920396
_cell_formula_units_Z   1
loop_
 _symmetry_equiv_pos_site_id
 _symmetry_equiv_pos_as_xyz
  1  'x, y, z'
loop_
 _atom_site_type_symbol
 _atom_site_label
 _atom_site_symmetry_multiplicity
 _atom_site_fract_x
 _atom_site_fract_y
 _atom_site_fract_z
 _atom_site_occupancy
  K  K0  1  0.000000  0.000000  0.000000  1
  Cd  Cd1  1  0.000000  0.500000  0.000000  1
  Cd  Cd2  1  0.000000  0.500000  0.500000  1
  Cd  Cd3  1  0.500000  0.000000  0.000000  1
  Cd  Cd4  1  0.500000  0.000000  0.500000  1
  Cd  Cd5  1  0.500000  0.500000  0.000000  1
  Cd  Cd6  1  0.500000  0.500000  0.500000  1
  Cd  Cd7  1  0.000000  0.254353  0.245610  1
  Cd  Cd8  1  0.000000  0.254353  0.754390  1
  Cd  Cd9  1  0.000000  0.745647  0.245610  1
  Cd  Cd10  1  0.000000  0.745647  0.754390  1
  Cd  Cd11  1  0.500000  0.251020  0.248276  1
  Cd  Cd12  1  0.500000  0.251020  0.751724  1
  Cd  Cd13  1  0.500000  0.748980  0.248276  1
  Cd  Cd14  1  0.500000  0.748980  0.751724  1
  Cd  Cd15  1  0.254353  0.000000  0.245610  1
  Cd  Cd16  1  0.254353  0.000000  0.754390  1
  Cd  Cd17  1  0.251020  0.500000  0.248276  1
  Cd  Cd18  1  0.251020  0.500000  0.751724  1
  Cd  Cd19  1  0.745647  0.000000  0.245610  1
  Cd  Cd20  1  0.745647  0.000000  0.754390  1
  Cd  Cd21  1  0.748980  0.500000  0.248276  1
  Cd  Cd22  1  0.748980  0.500000  0.751724  1
  Cd  Cd23  1  0.251179  0.251179  0.000000  1
  Cd  Cd24  1  0.253399  0.253399  0.500000  1
  Cd  Cd25  1  0.251179  0.748821  0.000000  1
  Cd  Cd26  1  0.253399  0.746601  0.500000  1
  Cd  Cd27  1  0.748821  0.251179  0.000000  1
  Cd  Cd28  1  0.746601  0.253399  0.500000  1
  Cd  Cd29  1  0.748821  0.748821  0.000000  1
  Cd  Cd30  1  0.746601  0.746601  0.500000  1
  Sb  Sb31  1  0.000000  0.000000  0.500000  1
  O  O32  1  0.267258  0.000000  0.000000  1
  O  O33  1  0.214435  0.000000  0.500000  1
  O  O34  1  0.253518  0.500000  0.000000  1
  O  O35  1  0.245644  0.500000  0.500000  1
  O  O36  1  0.732742  0.000000  0.000000  1
  O  O37  1  0.785565  0.000000  0.500000  1
  O  O38  1  0.746482  0.500000  0.000000  1
  O  O39  1  0.754356  0.500000  0.500000  1
  O  O40  1  0.247045  0.247045  0.252230  1
  O  O41  1  0.247045  0.247045  0.747770  1
  O  O42  1  0.247045  0.752955  0.252230  1
  O  O43  1  0.247045  0.752955  0.747770  1
  O  O44  1  0.752955  0.247045  0.252230  1
  O  O45  1  0.752955  0.247045  0.747770  1
  O  O46  1  0.752955  0.752955  0.252230  1
  O  O47  1  0.752955  0.752955  0.747770  1
  O  O48  1  0.000000  0.000000  0.288373  1
  O  O49  1  0.000000  0.000000  0.711627  1
  O  O50  1  0.000000  0.500000  0.263932  1
  O  O51  1  0.000000  0.500000  0.736068  1
  O  O52  1  0.500000  0.000000  0.263932  1
  O  O53  1  0.500000  0.000000  0.736068  1
  O  O54  1  0.500000  0.500000  0.255192  1
  O  O55  1  0.500000  0.500000  0.744808  1
  O  O56  1  0.000000  0.267258  0.000000  1
  O  O57  1  0.000000  0.214435  0.500000  1
  O  O58  1  0.000000  0.732742  0.000000  1
  O  O59  1  0.000000  0.785565  0.500000  1
  O  O60  1  0.500000  0.253518  0.000000  1
  O  O61  1  0.500000  0.245644  0.500000  1
  O  O62  1  0.500000  0.746482  0.000000  1
  O  O63  1  0.500000  0.754356  0.500000  1
