# generated using pymatgen
data_Zr10Ga4Ge2S
_symmetry_space_group_name_H-M   'P 1'
_cell_length_a   8.20603893
_cell_length_b   8.20429418
_cell_length_c   5.75723166
_cell_angle_alpha   90.08000930
_cell_angle_beta   89.84002231
_cell_angle_gamma   120.00705524
_symmetry_Int_Tables_number   1
_chemical_formula_structural   Zr10Ga4Ge2S
_chemical_formula_sum   'Zr10 Ga4 Ge2 S1'
_cell_volume   335.64993019
_cell_formula_units_Z   1
loop_
 _symmetry_equiv_pos_site_id
 _symmetry_equiv_pos_as_xyz
  1  'x, y, z'
loop_
 _atom_site_type_symbol
 _atom_site_label
 _atom_site_symmetry_multiplicity
 _atom_site_fract_x
 _atom_site_fract_y
 _atom_site_fract_z
 _atom_site_occupancy
  Zr  Zr0  1  0.998943  0.745621  0.239659  1
  Zr  Zr1  1  0.253323  0.254379  0.239659  1
  Zr  Zr2  1  0.748461  0.000000  0.240053  1
  Zr  Zr3  1  0.999848  0.254413  0.759587  1
  Zr  Zr4  1  0.745435  0.745587  0.759587  1
  Zr  Zr5  1  0.252367  0.000000  0.762215  1
  Zr  Zr6  1  0.333779  0.665807  0.499425  1
  Zr  Zr7  1  0.667974  0.334193  0.499425  1
  Zr  Zr8  1  0.666706  0.333088  0.999808  1
  Zr  Zr9  1  0.333617  0.666912  0.999808  1
  Ga  Ga10  1  0.391764  0.000000  0.249558  1
  Ga  Ga11  1  0.000246  0.609222  0.751310  1
  Ga  Ga12  1  0.391024  0.390778  0.751310  1
  Ga  Ga13  1  0.607308  0.000000  0.751626  1
  Ge  Ge14  1  0.000115  0.391703  0.247777  1
  Ge  Ge15  1  0.608412  0.608297  0.247777  1
  S  S16  1  0.000678  0.000000  0.501415  1
