# generated using pymatgen
data_K4USe5
_symmetry_space_group_name_H-M   'P 1'
_cell_length_a   7.97616753
_cell_length_b   11.94223277
_cell_length_c   8.01301304
_cell_angle_alpha   101.77010413
_cell_angle_beta   102.14727393
_cell_angle_gamma   109.20759220
_symmetry_Int_Tables_number   1
_chemical_formula_structural   K4USe5
_chemical_formula_sum   'K8 U2 Se10'
_cell_volume   673.07408811
_cell_formula_units_Z   2
loop_
 _symmetry_equiv_pos_site_id
 _symmetry_equiv_pos_as_xyz
  1  'x, y, z'
loop_
 _atom_site_type_symbol
 _atom_site_label
 _atom_site_symmetry_multiplicity
 _atom_site_fract_x
 _atom_site_fract_y
 _atom_site_fract_z
 _atom_site_occupancy
  K  K0  1  0.000014  0.500011  0.999993  1
  K  K1  1  0.423614  0.905269  0.208335  1
  K  K2  1  0.599108  0.597142  0.295521  1
  K  K3  1  0.797063  0.302559  0.417597  1
  K  K4  1  0.999997  0.999997  0.499997  1
  K  K5  1  0.202949  0.697454  0.582407  1
  K  K6  1  0.400911  0.402883  0.704489  1
  K  K7  1  0.576383  0.094721  0.791668  1
  U  U8  1  0.189508  0.196085  0.101045  1
  U  U9  1  0.810453  0.803877  0.898936  1
  Se  Se10  1  0.519131  0.313123  0.058883  1
  Se  Se11  1  0.843816  0.036578  0.110926  1
  Se  Se12  1  0.983654  0.761764  0.192191  1
  Se  Se13  1  0.178739  0.400136  0.308140  1
  Se  Se14  1  0.365979  0.155608  0.395139  1
  Se  Se15  1  0.633973  0.844416  0.604776  1
  Se  Se16  1  0.821277  0.599797  0.691781  1
  Se  Se17  1  0.016412  0.238230  0.807913  1
  Se  Se18  1  0.156272  0.963519  0.889123  1
  Se  Se19  1  0.480751  0.686830  0.941139  1
