# generated using pymatgen
data_HoZnNi3Ag
_symmetry_space_group_name_H-M   'P 1'
_cell_length_a   5.03364301
_cell_length_b   5.03364278
_cell_length_c   4.93115637
_cell_angle_alpha   59.31007838
_cell_angle_beta   59.31008338
_cell_angle_gamma   60.00000397
_symmetry_Int_Tables_number   1
_chemical_formula_structural   HoZnNi3Ag
_chemical_formula_sum   'Ho1 Zn1 Ni3 Ag1'
_cell_volume   87.41583546
_cell_formula_units_Z   1
loop_
 _symmetry_equiv_pos_site_id
 _symmetry_equiv_pos_as_xyz
  1  'x, y, z'
loop_
 _atom_site_type_symbol
 _atom_site_label
 _atom_site_symmetry_multiplicity
 _atom_site_fract_x
 _atom_site_fract_y
 _atom_site_fract_z
 _atom_site_occupancy
  Ho  Ho0  1  0.247204  0.247204  0.258387  1
  Zn  Zn1  1  0.626644  0.626644  0.120067  1
  Ni  Ni2  1  0.626642  0.124114  0.622605  1
  Ni  Ni3  1  0.124114  0.626642  0.622605  1
  Ni  Ni4  1  0.626642  0.626642  0.622605  1
  Ag  Ag5  1  0.998757  0.998757  0.003731  1
