# generated using pymatgen
data_Lu6Ta3Al13FeCo6
_symmetry_space_group_name_H-M   'P 1'
_cell_length_a   8.76134724
_cell_length_b   8.76134756
_cell_length_c   8.76134855
_cell_angle_alpha   59.65734083
_cell_angle_beta   59.65734919
_cell_angle_gamma   59.65734709
_symmetry_Int_Tables_number   1
_chemical_formula_structural   Lu6Ta3Al13FeCo6
_chemical_formula_sum   'Lu6 Ta3 Al13 Fe1 Co6'
_cell_volume   471.84936667
_cell_formula_units_Z   1
loop_
 _symmetry_equiv_pos_site_id
 _symmetry_equiv_pos_as_xyz
  1  'x, y, z'
loop_
 _atom_site_type_symbol
 _atom_site_label
 _atom_site_symmetry_multiplicity
 _atom_site_fract_x
 _atom_site_fract_y
 _atom_site_fract_z
 _atom_site_occupancy
  Lu  Lu0  1  0.709089  0.296908  0.296908  1
  Lu  Lu1  1  0.699080  0.299615  0.699080  1
  Lu  Lu2  1  0.699080  0.699080  0.299615  1
  Lu  Lu3  1  0.299615  0.699080  0.699080  1
  Lu  Lu4  1  0.296908  0.709089  0.296908  1
  Lu  Lu5  1  0.296908  0.296908  0.709089  1
  Ta  Ta6  1  0.643426  0.119427  0.119427  1
  Ta  Ta7  1  0.119427  0.643426  0.119427  1
  Ta  Ta8  1  0.119427  0.119427  0.643426  1
  Al  Al9  1  0.117396  0.117396  0.117396  1
  Al  Al10  1  0.355706  0.880127  0.880127  1
  Al  Al11  1  0.880127  0.355706  0.880127  1
  Al  Al12  1  0.880127  0.880127  0.355706  1
  Al  Al13  1  0.880364  0.880364  0.880364  1
  Al  Al14  1  0.006696  0.329759  0.329759  1
  Al  Al15  1  0.329759  0.006696  0.329759  1
  Al  Al16  1  0.329759  0.329759  0.006696  1
  Al  Al17  1  0.331588  0.331588  0.331588  1
  Al  Al18  1  0.988820  0.670160  0.670160  1
  Al  Al19  1  0.670160  0.988820  0.670160  1
  Al  Al20  1  0.670160  0.670160  0.988820  1
  Al  Al21  1  0.669708  0.669708  0.669708  1
  Fe  Fe22  1  0.997243  0.997243  0.997243  1
  Co  Co23  1  0.504082  0.002864  0.002864  1
  Co  Co24  1  0.496543  0.006531  0.496543  1
  Co  Co25  1  0.496543  0.496543  0.006531  1
  Co  Co26  1  0.006531  0.496543  0.496543  1
  Co  Co27  1  0.002864  0.504082  0.002864  1
  Co  Co28  1  0.002864  0.002864  0.504082  1
