# generated using pymatgen
data_CeSm3Sc4(ReB6)4
_symmetry_space_group_name_H-M   'P 1'
_cell_length_a   3.62891800
_cell_length_b   9.05197129
_cell_length_c   11.47300137
_cell_angle_alpha   89.97093835
_cell_angle_beta   90.00000000
_cell_angle_gamma   90.00000000
_symmetry_Int_Tables_number   1
_chemical_formula_structural   CeSm3Sc4(ReB6)4
_chemical_formula_sum   'Ce1 Sm3 Sc4 Re4 B24'
_cell_volume   376.87498510
_cell_formula_units_Z   1
loop_
 _symmetry_equiv_pos_site_id
 _symmetry_equiv_pos_as_xyz
  1  'x, y, z'
loop_
 _atom_site_type_symbol
 _atom_site_label
 _atom_site_symmetry_multiplicity
 _atom_site_fract_x
 _atom_site_fract_y
 _atom_site_fract_z
 _atom_site_occupancy
  Ce  Ce0  1  0.000000  0.178271  0.914521  1
  Sm  Sm1  1  0.000000  0.321857  0.414281  1
  Sm  Sm2  1  0.000000  0.678482  0.585460  1
  Sm  Sm3  1  0.000000  0.821116  0.085880  1
  Sc  Sc4  1  0.000000  0.944063  0.370292  1
  Sc  Sc5  1  0.000000  0.055785  0.629210  1
  Sc  Sc6  1  0.000000  0.444348  0.129839  1
  Sc  Sc7  1  0.000000  0.556124  0.870300  1
  Re  Re8  1  0.000000  0.641319  0.317902  1
  Re  Re9  1  0.000000  0.357779  0.683140  1
  Re  Re10  1  0.000000  0.141121  0.181171  1
  Re  Re11  1  0.000000  0.860017  0.818268  1
  B  B12  1  0.500000  0.554930  0.431138  1
  B  B13  1  0.500000  0.444651  0.569052  1
  B  B14  1  0.500000  0.055982  0.068612  1
  B  B15  1  0.500000  0.945407  0.930731  1
  B  B16  1  0.500000  0.754546  0.416846  1
  B  B17  1  0.500000  0.245720  0.583141  1
  B  B18  1  0.500000  0.254052  0.082709  1
  B  B19  1  0.500000  0.745418  0.916688  1
  B  B20  1  0.500000  0.794884  0.265399  1
  B  B21  1  0.500000  0.205347  0.734940  1
  B  B22  1  0.500000  0.294612  0.234336  1
  B  B23  1  0.500000  0.705236  0.765610  1
  B  B24  1  0.500000  0.628641  0.183461  1
  B  B25  1  0.500000  0.370624  0.816813  1
  B  B26  1  0.500000  0.128487  0.316484  1
  B  B27  1  0.500000  0.871245  0.683398  1
  B  B28  1  0.500000  0.982358  0.214912  1
  B  B29  1  0.500000  0.017722  0.785703  1
  B  B30  1  0.500000  0.482268  0.285372  1
  B  B31  1  0.500000  0.517429  0.714642  1
  B  B32  1  0.500000  0.595315  0.025908  1
  B  B33  1  0.500000  0.404742  0.974094  1
  B  B34  1  0.500000  0.094842  0.474112  1
  B  B35  1  0.500000  0.905260  0.525632  1
