# generated using pymatgen
data_Ho6Er2Ga3Fe
_symmetry_space_group_name_H-M   'P 1'
_cell_length_a   9.93106005
_cell_length_b   9.93106005
_cell_length_c   6.91476504
_cell_angle_alpha   90.01116310
_cell_angle_beta   89.98883290
_cell_angle_gamma   120.00408786
_symmetry_Int_Tables_number   1
_chemical_formula_structural   Ho6Er2Ga3Fe
_chemical_formula_sum   'Ho12 Er4 Ga6 Fe2'
_cell_volume   590.58358775
_cell_formula_units_Z   2
loop_
 _symmetry_equiv_pos_site_id
 _symmetry_equiv_pos_as_xyz
  1  'x, y, z'
loop_
 _atom_site_type_symbol
 _atom_site_label
 _atom_site_symmetry_multiplicity
 _atom_site_fract_x
 _atom_site_fract_y
 _atom_site_fract_z
 _atom_site_occupancy
  Ho  Ho0  1  0.346447  0.173269  0.010427  1
  Ho  Ho1  1  0.826731  0.653553  0.010427  1
  Ho  Ho2  1  0.333355  0.666645  0.829581  1
  Ho  Ho3  1  0.666797  0.333203  0.329997  1
  Ho  Ho4  1  0.463210  0.536790  0.207470  1
  Ho  Ho5  1  0.073388  0.536583  0.207407  1
  Ho  Ho6  1  0.463417  0.926612  0.207407  1
  Ho  Ho7  1  0.536584  0.463416  0.706876  1
  Ho  Ho8  1  0.926788  0.463203  0.707184  1
  Ho  Ho9  1  0.536797  0.073212  0.707184  1
  Ho  Ho10  1  0.999947  0.000053  0.230835  1
  Ho  Ho11  1  0.999924  0.000076  0.730535  1
  Er  Er12  1  0.173262  0.826738  0.510563  1
  Er  Er13  1  0.653536  0.826758  0.510567  1
  Er  Er14  1  0.173242  0.346464  0.510567  1
  Er  Er15  1  0.826632  0.173368  0.010641  1
  Ga  Ga16  1  0.163807  0.836193  0.958590  1
  Ga  Ga17  1  0.672728  0.836785  0.958793  1
  Ga  Ga18  1  0.163215  0.327272  0.958793  1
  Ga  Ga19  1  0.836497  0.163503  0.458907  1
  Ga  Ga20  1  0.326997  0.163469  0.459279  1
  Ga  Ga21  1  0.836531  0.673003  0.459279  1
  Fe  Fe22  1  0.333359  0.666641  0.446548  1
  Fe  Fe23  1  0.666807  0.333193  0.946184  1
