# generated using pymatgen
data_PrTm2U(ReB6)2
_symmetry_space_group_name_H-M   'P 1'
_cell_length_a   3.69564900
_cell_length_b   9.16637833
_cell_length_c   11.56650003
_cell_angle_alpha   90.35121804
_cell_angle_beta   90.00000000
_cell_angle_gamma   90.00000000
_symmetry_Int_Tables_number   1
_chemical_formula_structural   PrTm2U(ReB6)2
_chemical_formula_sum   'Pr2 Tm4 U2 Re4 B24'
_cell_volume   391.81611919
_cell_formula_units_Z   2
loop_
 _symmetry_equiv_pos_site_id
 _symmetry_equiv_pos_as_xyz
  1  'x, y, z'
loop_
 _atom_site_type_symbol
 _atom_site_label
 _atom_site_symmetry_multiplicity
 _atom_site_fract_x
 _atom_site_fract_y
 _atom_site_fract_z
 _atom_site_occupancy
  Pr  Pr0  1  0.000000  0.822726  0.086388  1
  Pr  Pr1  1  0.000000  0.177274  0.913612  1
  Tm  Tm2  1  0.000000  0.945017  0.374411  1
  Tm  Tm3  1  0.000000  0.054983  0.625589  1
  Tm  Tm4  1  0.000000  0.444233  0.128667  1
  Tm  Tm5  1  0.000000  0.555767  0.871333  1
  U  U6  1  0.000000  0.323056  0.414292  1
  U  U7  1  0.000000  0.676944  0.585708  1
  Re  Re8  1  0.000000  0.634216  0.327270  1
  Re  Re9  1  0.000000  0.365784  0.672730  1
  Re  Re10  1  0.000000  0.144077  0.186727  1
  Re  Re11  1  0.000000  0.855923  0.813273  1
  B  B12  1  0.500000  0.552676  0.434834  1
  B  B13  1  0.500000  0.447324  0.565166  1
  B  B14  1  0.500000  0.056156  0.071578  1
  B  B15  1  0.500000  0.943844  0.928422  1
  B  B16  1  0.500000  0.748028  0.421475  1
  B  B17  1  0.500000  0.251972  0.578525  1
  B  B18  1  0.500000  0.250758  0.084856  1
  B  B19  1  0.500000  0.749242  0.915144  1
  B  B20  1  0.500000  0.790612  0.269346  1
  B  B21  1  0.500000  0.209388  0.730654  1
  B  B22  1  0.500000  0.294520  0.237681  1
  B  B23  1  0.500000  0.705480  0.762319  1
  B  B24  1  0.500000  0.628893  0.188233  1
  B  B25  1  0.500000  0.371107  0.811767  1
  B  B26  1  0.500000  0.134236  0.317748  1
  B  B27  1  0.500000  0.865764  0.682252  1
  B  B28  1  0.500000  0.984758  0.216510  1
  B  B29  1  0.500000  0.015242  0.783490  1
  B  B30  1  0.500000  0.481590  0.289109  1
  B  B31  1  0.500000  0.518410  0.710891  1
  B  B32  1  0.500000  0.598056  0.027475  1
  B  B33  1  0.500000  0.401944  0.972525  1
  B  B34  1  0.500000  0.111797  0.469956  1
  B  B35  1  0.500000  0.888203  0.530044  1
