# generated using pymatgen
data_LiAl11Ru2
_symmetry_space_group_name_H-M   'P 1'
_cell_length_a   5.00454973
_cell_length_b   5.00454994
_cell_length_c   8.95517793
_cell_angle_alpha   89.25634129
_cell_angle_beta   89.25633902
_cell_angle_gamma   98.28531671
_symmetry_Int_Tables_number   1
_chemical_formula_structural   LiAl11Ru2
_chemical_formula_sum   'Li1 Al11 Ru2'
_cell_volume   221.90245292
_cell_formula_units_Z   1
loop_
 _symmetry_equiv_pos_site_id
 _symmetry_equiv_pos_as_xyz
  1  'x, y, z'
loop_
 _atom_site_type_symbol
 _atom_site_label
 _atom_site_symmetry_multiplicity
 _atom_site_fract_x
 _atom_site_fract_y
 _atom_site_fract_z
 _atom_site_occupancy
  Li  Li0  1  0.144233  0.144233  0.091264  1
  Al  Al1  1  0.669642  0.316650  0.001784  1
  Al  Al2  1  0.323038  0.676595  0.501111  1
  Al  Al3  1  0.316650  0.669642  0.001784  1
  Al  Al4  1  0.676595  0.323038  0.501111  1
  Al  Al5  1  0.869752  0.869752  0.603517  1
  Al  Al6  1  0.130273  0.130273  0.383753  1
  Al  Al7  1  0.860244  0.860244  0.908851  1
  Al  Al8  1  0.980345  0.615030  0.247131  1
  Al  Al9  1  0.021342  0.383934  0.753912  1
  Al  Al10  1  0.615030  0.980345  0.247131  1
  Al  Al11  1  0.383934  0.021342  0.753912  1
  Ru  Ru12  1  0.469721  0.469721  0.254269  1
  Ru  Ru13  1  0.539200  0.539200  0.750470  1
