# generated using pymatgen
data_Cu2AsRh3S8
_symmetry_space_group_name_H-M   'P 1'
_cell_length_a   7.04556091
_cell_length_b   7.00244103
_cell_length_c   7.04556000
_cell_angle_alpha   59.79609482
_cell_angle_beta   60.00000429
_cell_angle_gamma   59.79608791
_symmetry_Int_Tables_number   1
_chemical_formula_structural   Cu2AsRh3S8
_chemical_formula_sum   'Cu2 As1 Rh3 S8'
_cell_volume   245.03049658
_cell_formula_units_Z   1
loop_
 _symmetry_equiv_pos_site_id
 _symmetry_equiv_pos_as_xyz
  1  'x, y, z'
loop_
 _atom_site_type_symbol
 _atom_site_label
 _atom_site_symmetry_multiplicity
 _atom_site_fract_x
 _atom_site_fract_y
 _atom_site_fract_z
 _atom_site_occupancy
  Cu  Cu0  1  0.751294  0.746119  0.751294  1
  Cu  Cu1  1  0.498706  0.503881  0.498706  1
  As  As2  1  0.125000  0.625000  0.125000  1
  Rh  Rh3  1  0.125000  0.125000  0.625000  1
  Rh  Rh4  1  0.625000  0.125000  0.125000  1
  Rh  Rh5  1  0.125000  0.125000  0.125000  1
  S  S6  1  0.884819  0.345543  0.884819  1
  S  S7  1  0.369753  0.358054  0.902440  1
  S  S8  1  0.369753  0.358054  0.369753  1
  S  S9  1  0.902440  0.358054  0.369753  1
  S  S10  1  0.880247  0.891946  0.880247  1
  S  S11  1  0.347560  0.891946  0.880247  1
  S  S12  1  0.365181  0.904457  0.365181  1
  S  S13  1  0.880247  0.891946  0.347560  1
