# generated using pymatgen
data_Sr3(ZnIr)4
_symmetry_space_group_name_H-M   'P 1'
_cell_length_a   6.79798970
_cell_length_b   6.79799081
_cell_length_c   6.79799000
_cell_angle_alpha   109.47122119
_cell_angle_beta   109.47122451
_cell_angle_gamma   109.47122187
_symmetry_Int_Tables_number   1
_chemical_formula_structural   Sr3(ZnIr)4
_chemical_formula_sum   'Sr3 Zn4 Ir4'
_cell_volume   241.83528991
_cell_formula_units_Z   1
loop_
 _symmetry_equiv_pos_site_id
 _symmetry_equiv_pos_as_xyz
  1  'x, y, z'
loop_
 _atom_site_type_symbol
 _atom_site_label
 _atom_site_symmetry_multiplicity
 _atom_site_fract_x
 _atom_site_fract_y
 _atom_site_fract_z
 _atom_site_occupancy
  Sr  Sr0  1  0.500000  0.500000  0.000000  1
  Sr  Sr1  1  0.000000  0.500000  0.500000  1
  Sr  Sr2  1  0.500000  0.000000  0.500000  1
  Zn  Zn3  1  0.394056  0.000000  0.000000  1
  Zn  Zn4  1  0.000000  0.000000  0.394056  1
  Zn  Zn5  1  0.000000  0.394056  0.000000  1
  Zn  Zn6  1  0.605943  0.605943  0.605944  1
  Ir  Ir7  1  0.000000  0.758113  0.000000  1
  Ir  Ir8  1  0.000000  0.000000  0.758113  1
  Ir  Ir9  1  0.241887  0.241887  0.241887  1
  Ir  Ir10  1  0.758113  0.000000  0.000000  1
