# generated using pymatgen
data_Ba13Sr7(Bi2As)4
_symmetry_space_group_name_H-M   'P 1'
_cell_length_a   9.12495351
_cell_length_b   10.37779626
_cell_length_c   13.93447955
_cell_angle_alpha   89.97643050
_cell_angle_beta   90.06494971
_cell_angle_gamma   90.01100763
_symmetry_Int_Tables_number   1
_chemical_formula_structural   Ba13Sr7(Bi2As)4
_chemical_formula_sum   'Ba13 Sr7 Bi8 As4'
_cell_volume   1319.55114901
_cell_formula_units_Z   1
loop_
 _symmetry_equiv_pos_site_id
 _symmetry_equiv_pos_as_xyz
  1  'x, y, z'
loop_
 _atom_site_type_symbol
 _atom_site_label
 _atom_site_symmetry_multiplicity
 _atom_site_fract_x
 _atom_site_fract_y
 _atom_site_fract_z
 _atom_site_occupancy
  Ba  Ba0  1  0.857272  0.747491  0.799866  1
  Ba  Ba1  1  0.143673  0.252002  0.199427  1
  Ba  Ba2  1  0.356949  0.253550  0.699287  1
  Ba  Ba3  1  0.641856  0.747235  0.301930  1
  Ba  Ba4  1  0.312725  0.034195  0.425692  1
  Ba  Ba5  1  0.815847  0.534888  0.074161  1
  Ba  Ba6  1  0.686896  0.966162  0.574596  1
  Ba  Ba7  1  0.813500  0.966557  0.073946  1
  Ba  Ba8  1  0.187028  0.034933  0.924602  1
  Ba  Ba9  1  0.331065  0.746908  0.713671  1
  Ba  Ba10  1  0.668452  0.252550  0.287166  1
  Ba  Ba11  1  0.830779  0.252578  0.785593  1
  Ba  Ba12  1  0.171301  0.748073  0.214585  1
  Sr  Sr13  1  0.044309  0.745878  0.501339  1
  Sr  Sr14  1  0.955732  0.254149  0.499245  1
  Sr  Sr15  1  0.542452  0.252370  0.998536  1
  Sr  Sr16  1  0.452490  0.748288  0.000272  1
  Sr  Sr17  1  0.683575  0.533495  0.573835  1
  Sr  Sr18  1  0.316222  0.466539  0.426002  1
  Sr  Sr19  1  0.185904  0.466602  0.925006  1
  Bi  Bi20  1  0.559159  0.508383  0.832789  1
  Bi  Bi21  1  0.435808  0.490771  0.168218  1
  Bi  Bi22  1  0.059871  0.491034  0.667640  1
  Bi  Bi23  1  0.437303  0.008162  0.166407  1
  Bi  Bi24  1  0.940710  0.508800  0.335583  1
  Bi  Bi25  1  0.563350  0.992290  0.833601  1
  Bi  Bi26  1  0.936666  0.991727  0.334004  1
  Bi  Bi27  1  0.063232  0.007607  0.665405  1
  As  As28  1  0.080508  0.743691  0.985334  1
  As  As29  1  0.925815  0.252915  0.012022  1
  As  As30  1  0.576537  0.258640  0.514054  1
  As  As31  1  0.423011  0.741535  0.486186  1
