# generated using pymatgen
data_Tm2Ga5Co3
_symmetry_space_group_name_H-M   'P 1'
_cell_length_a   8.30289782
_cell_length_b   8.30289675
_cell_length_c   8.30289768
_cell_angle_alpha   141.78224306
_cell_angle_beta   109.59164107
_cell_angle_gamma   83.05137586
_symmetry_Int_Tables_number   1
_chemical_formula_structural   Tm2Ga5Co3
_chemical_formula_sum   'Tm4 Ga10 Co6'
_cell_volume   323.48740762
_cell_formula_units_Z   2
loop_
 _symmetry_equiv_pos_site_id
 _symmetry_equiv_pos_as_xyz
  1  'x, y, z'
loop_
 _atom_site_type_symbol
 _atom_site_label
 _atom_site_symmetry_multiplicity
 _atom_site_fract_x
 _atom_site_fract_y
 _atom_site_fract_z
 _atom_site_occupancy
  Tm  Tm0  1  0.371162  0.649004  0.722158  1
  Tm  Tm1  1  0.926847  0.149004  0.777842  1
  Tm  Tm2  1  0.073153  0.850996  0.222158  1
  Tm  Tm3  1  0.628838  0.350996  0.277842  1
  Ga  Ga4  1  0.299003  0.549003  0.250000  1
  Ga  Ga5  1  0.700997  0.950997  0.250000  1
  Ga  Ga6  1  0.000000  0.750000  0.750000  1
  Ga  Ga7  1  0.235090  0.419560  0.815530  1
  Ga  Ga8  1  0.764910  0.580440  0.184470  1
  Ga  Ga9  1  0.395972  0.080440  0.315530  1
  Ga  Ga10  1  0.000000  0.250000  0.250000  1
  Ga  Ga11  1  0.604028  0.919560  0.684470  1
  Ga  Ga12  1  0.700997  0.450997  0.750000  1
  Ga  Ga13  1  0.299003  0.049003  0.750000  1
  Co  Co14  1  0.069032  0.651882  0.417150  1
  Co  Co15  1  0.930968  0.348118  0.582850  1
  Co  Co16  1  0.500000  0.750000  0.250000  1
  Co  Co17  1  0.500000  0.250000  0.750000  1
  Co  Co18  1  0.234730  0.151882  0.082850  1
  Co  Co19  1  0.765270  0.848118  0.917150  1
