# generated using pymatgen
data_CrAg(SeO4)2
_symmetry_space_group_name_H-M   'P 1'
_cell_length_a   5.05068489
_cell_length_b   5.04750530
_cell_length_c   15.05978563
_cell_angle_alpha   88.75135116
_cell_angle_beta   88.74589158
_cell_angle_gamma   66.06142942
_symmetry_Int_Tables_number   1
_chemical_formula_structural   CrAg(SeO4)2
_chemical_formula_sum   'Cr2 Ag2 Se4 O16'
_cell_volume   350.78064620
_cell_formula_units_Z   2
loop_
 _symmetry_equiv_pos_site_id
 _symmetry_equiv_pos_as_xyz
  1  'x, y, z'
loop_
 _atom_site_type_symbol
 _atom_site_label
 _atom_site_symmetry_multiplicity
 _atom_site_fract_x
 _atom_site_fract_y
 _atom_site_fract_z
 _atom_site_occupancy
  Cr  Cr0  1  0.000324  0.000026  0.750028  1
  Cr  Cr1  1  0.999688  0.999999  0.250030  1
  Ag  Ag2  1  0.000023  0.999869  0.000015  1
  Ag  Ag3  1  0.000095  0.999777  0.500005  1
  Se  Se4  1  0.649460  0.649617  0.144218  1
  Se  Se5  1  0.350032  0.350311  0.355762  1
  Se  Se6  1  0.649987  0.649681  0.644218  1
  Se  Se7  1  0.350529  0.350394  0.855770  1
  O  O8  1  0.264469  0.264653  0.454896  1
  O  O9  1  0.264681  0.264526  0.954861  1
  O  O10  1  0.735307  0.735271  0.045093  1
  O  O11  1  0.735309  0.735337  0.545032  1
  O  O12  1  0.232798  0.232796  0.267682  1
  O  O13  1  0.233184  0.233154  0.767651  1
  O  O14  1  0.766919  0.766860  0.232299  1
  O  O15  1  0.767332  0.767295  0.732238  1
  O  O16  1  0.777163  0.281717  0.151975  1
  O  O17  1  0.777947  0.281821  0.652030  1
  O  O18  1  0.281640  0.777509  0.151973  1
  O  O19  1  0.282226  0.777598  0.652072  1
  O  O20  1  0.222272  0.718151  0.347991  1
  O  O21  1  0.222645  0.718311  0.848104  1
  O  O22  1  0.717736  0.222475  0.348009  1
  O  O23  1  0.718234  0.222856  0.848051  1
