# generated using pymatgen
data_Dy2Y8Ir5Pt
_symmetry_space_group_name_H-M   'P 1'
_cell_length_a   10.99142956
_cell_length_b   10.99653800
_cell_length_c   6.37666733
_cell_angle_alpha   90.00000000
_cell_angle_beta   89.96328402
_cell_angle_gamma   90.00000000
_symmetry_Int_Tables_number   1
_chemical_formula_structural   Dy2Y8Ir5Pt
_chemical_formula_sum   'Dy4 Y16 Ir10 Pt2'
_cell_volume   770.73278232
_cell_formula_units_Z   2
loop_
 _symmetry_equiv_pos_site_id
 _symmetry_equiv_pos_as_xyz
  1  'x, y, z'
loop_
 _atom_site_type_symbol
 _atom_site_label
 _atom_site_symmetry_multiplicity
 _atom_site_fract_x
 _atom_site_fract_y
 _atom_site_fract_z
 _atom_site_occupancy
  Dy  Dy0  1  0.002884  0.999777  0.499863  1
  Dy  Dy1  1  0.002884  0.000223  0.999863  1
  Dy  Dy2  1  0.499806  0.499815  0.999793  1
  Dy  Dy3  1  0.499806  0.500185  0.499793  1
  Y  Y4  1  0.291495  0.088592  0.377229  1
  Y  Y5  1  0.291495  0.911408  0.877229  1
  Y  Y6  1  0.705637  0.090146  0.875068  1
  Y  Y7  1  0.705637  0.909854  0.375068  1
  Y  Y8  1  0.585201  0.791043  0.879514  1
  Y  Y9  1  0.585201  0.208957  0.379514  1
  Y  Y10  1  0.410785  0.791387  0.378683  1
  Y  Y11  1  0.410785  0.208613  0.878683  1
  Y  Y12  1  0.208777  0.411244  0.621286  1
  Y  Y13  1  0.208777  0.588756  0.121286  1
  Y  Y14  1  0.790860  0.414175  0.121369  1
  Y  Y15  1  0.790860  0.585825  0.621369  1
  Y  Y16  1  0.912952  0.707083  0.125299  1
  Y  Y17  1  0.912952  0.292917  0.625299  1
  Y  Y18  1  0.091513  0.706939  0.621695  1
  Y  Y19  1  0.091513  0.293061  0.121695  1
  Ir  Ir20  1  0.151893  0.152787  0.750007  1
  Ir  Ir21  1  0.151893  0.847213  0.250007  1
  Ir  Ir22  1  0.654038  0.346557  0.749765  1
  Ir  Ir23  1  0.654038  0.653443  0.249765  1
  Ir  Ir24  1  0.347325  0.347103  0.250313  1
  Ir  Ir25  1  0.347325  0.652897  0.750313  1
  Ir  Ir26  1  0.500786  0.999840  0.126039  1
  Ir  Ir27  1  0.500786  0.000160  0.626039  1
  Ir  Ir28  1  0.999550  0.500176  0.874255  1
  Ir  Ir29  1  0.999550  0.499824  0.374255  1
  Pt  Pt30  1  0.846498  0.152434  0.249822  1
  Pt  Pt31  1  0.846498  0.847566  0.749822  1
