# generated using pymatgen
data_Nd2Er8In8Ir3Pt
_symmetry_space_group_name_H-M   'P 1'
_cell_length_a   3.65955700
_cell_length_b   8.05941555
_cell_length_c   18.31419452
_cell_angle_alpha   90.00749478
_cell_angle_beta   90.00000000
_cell_angle_gamma   90.00000000
_symmetry_Int_Tables_number   1
_chemical_formula_structural   Nd2Er8In8Ir3Pt
_chemical_formula_sum   'Nd2 Er8 In8 Ir3 Pt1'
_cell_volume   540.15684481
_cell_formula_units_Z   1
loop_
 _symmetry_equiv_pos_site_id
 _symmetry_equiv_pos_as_xyz
  1  'x, y, z'
loop_
 _atom_site_type_symbol
 _atom_site_label
 _atom_site_symmetry_multiplicity
 _atom_site_fract_x
 _atom_site_fract_y
 _atom_site_fract_z
 _atom_site_occupancy
  Nd  Nd0  1  0.000000  0.999484  0.999195  1
  Nd  Nd1  1  0.000000  0.500653  0.500318  1
  Er  Er2  1  0.000000  0.117621  0.410778  1
  Er  Er3  1  0.000000  0.881894  0.591318  1
  Er  Er4  1  0.000000  0.381404  0.908690  1
  Er  Er5  1  0.000000  0.618872  0.088007  1
  Er  Er6  1  0.000000  0.235222  0.221705  1
  Er  Er7  1  0.000000  0.756229  0.778503  1
  Er  Er8  1  0.000000  0.255903  0.722088  1
  Er  Er9  1  0.000000  0.752196  0.280062  1
  In  In10  1  0.500000  0.424281  0.348371  1
  In  In11  1  0.500000  0.571568  0.651624  1
  In  In12  1  0.500000  0.072397  0.848162  1
  In  In13  1  0.500000  0.926553  0.151020  1
  In  In14  1  0.500000  0.298828  0.067366  1
  In  In15  1  0.500000  0.698534  0.931529  1
  In  In16  1  0.500000  0.200429  0.568875  1
  In  In17  1  0.500000  0.800653  0.431734  1
  Ir  Ir18  1  0.500000  0.022209  0.304227  1
  Ir  Ir19  1  0.500000  0.981726  0.696081  1
  Ir  Ir20  1  0.500000  0.481663  0.804145  1
  Pt  Pt21  1  0.500000  0.521678  0.196201  1
