# generated using pymatgen
data_Nd(Eu2Tl)4
_symmetry_space_group_name_H-M   'P 1'
_cell_length_a   9.52191750
_cell_length_b   9.52191822
_cell_length_c   9.52191800
_cell_angle_alpha   94.90237372
_cell_angle_beta   94.90237409
_cell_angle_gamma   146.00470508
_symmetry_Int_Tables_number   1
_chemical_formula_structural   Nd(Eu2Tl)4
_chemical_formula_sum   'Nd1 Eu8 Tl4'
_cell_volume   461.61919828
_cell_formula_units_Z   1
loop_
 _symmetry_equiv_pos_site_id
 _symmetry_equiv_pos_as_xyz
  1  'x, y, z'
loop_
 _atom_site_type_symbol
 _atom_site_label
 _atom_site_symmetry_multiplicity
 _atom_site_fract_x
 _atom_site_fract_y
 _atom_site_fract_z
 _atom_site_occupancy
  Nd  Nd0  1  0.000000  0.000000  0.000000  1
  Eu  Eu1  1  0.892761  0.380363  0.273146  1
  Eu  Eu2  1  0.107239  0.619637  0.726854  1
  Eu  Eu3  1  0.380379  0.107182  0.487570  1
  Eu  Eu4  1  0.619621  0.892818  0.512430  1
  Eu  Eu5  1  0.603659  0.316498  0.920152  1
  Eu  Eu6  1  0.396341  0.683502  0.079848  1
  Eu  Eu7  1  0.316485  0.396307  0.712792  1
  Eu  Eu8  1  0.683515  0.603693  0.287208  1
  Tl  Tl9  1  0.767869  0.102571  0.870428  1
  Tl  Tl10  1  0.232131  0.897429  0.129572  1
  Tl  Tl11  1  0.102550  0.232156  0.334704  1
  Tl  Tl12  1  0.897450  0.767844  0.665296  1
