# generated using pymatgen
data_Lu2Mn14(BeC)3
_symmetry_space_group_name_H-M   'P 1'
_cell_length_a   6.30947314
_cell_length_b   6.30947240
_cell_length_c   6.30947107
_cell_angle_alpha   82.60163227
_cell_angle_beta   82.60163170
_cell_angle_gamma   82.60163592
_symmetry_Int_Tables_number   1
_chemical_formula_structural   Lu2Mn14(BeC)3
_chemical_formula_sum   'Lu2 Mn14 Be3 C3'
_cell_volume   245.39924873
_cell_formula_units_Z   1
loop_
 _symmetry_equiv_pos_site_id
 _symmetry_equiv_pos_as_xyz
  1  'x, y, z'
loop_
 _atom_site_type_symbol
 _atom_site_label
 _atom_site_symmetry_multiplicity
 _atom_site_fract_x
 _atom_site_fract_y
 _atom_site_fract_z
 _atom_site_occupancy
  Lu  Lu0  1  0.342893  0.342893  0.342893  1
  Lu  Lu1  1  0.657107  0.657107  0.657107  1
  Mn  Mn2  1  0.096922  0.096922  0.096922  1
  Mn  Mn3  1  0.903078  0.903078  0.903078  1
  Mn  Mn4  1  0.727387  0.272613  0.000000  1
  Mn  Mn5  1  0.272613  0.000000  0.727387  1
  Mn  Mn6  1  0.000000  0.727387  0.272613  1
  Mn  Mn7  1  0.272613  0.727387  0.000000  1
  Mn  Mn8  1  0.727387  0.000000  0.272613  1
  Mn  Mn9  1  0.000000  0.272613  0.727387  1
  Mn  Mn10  1  0.147235  0.654450  0.654450  1
  Mn  Mn11  1  0.654450  0.654450  0.147235  1
  Mn  Mn12  1  0.654450  0.147235  0.654450  1
  Mn  Mn13  1  0.345550  0.852765  0.345550  1
  Mn  Mn14  1  0.345550  0.345550  0.852765  1
  Mn  Mn15  1  0.852765  0.345550  0.345550  1
  Be  Be16  1  0.000000  0.000000  0.500000  1
  Be  Be17  1  0.000000  0.500000  0.000000  1
  Be  Be18  1  0.500000  0.000000  0.000000  1
  C  C19  1  0.500000  0.500000  0.000000  1
  C  C20  1  0.500000  0.000000  0.500000  1
  C  C21  1  0.000000  0.500000  0.500000  1
