# generated using pymatgen
data_Er5P12Pd(Ru8Pt)2
_symmetry_space_group_name_H-M   'P 1'
_cell_length_a   12.57728390
_cell_length_b   12.57728533
_cell_length_c   3.97279900
_cell_angle_alpha   90.00000000
_cell_angle_beta   90.00000000
_cell_angle_gamma   120.04330753
_symmetry_Int_Tables_number   1
_chemical_formula_structural   Er5P12Pd(Ru8Pt)2
_chemical_formula_sum   'Er5 P12 Pd1 Ru16 Pt2'
_cell_volume   544.01554856
_cell_formula_units_Z   1
loop_
 _symmetry_equiv_pos_site_id
 _symmetry_equiv_pos_as_xyz
  1  'x, y, z'
loop_
 _atom_site_type_symbol
 _atom_site_label
 _atom_site_symmetry_multiplicity
 _atom_site_fract_x
 _atom_site_fract_y
 _atom_site_fract_z
 _atom_site_occupancy
  Er  Er0  1  0.181808  0.181808  0.500000  1
  Er  Er1  1  0.818380  0.000064  0.500000  1
  Er  Er2  1  0.000064  0.818380  0.500000  1
  Er  Er3  1  0.333349  0.666739  0.000000  1
  Er  Er4  1  0.666739  0.333349  0.000000  1
  P  P5  1  0.814891  0.814891  0.000000  1
  P  P6  1  0.184247  0.000028  0.000000  1
  P  P7  1  0.000028  0.184247  0.000000  1
  P  P8  1  0.180204  0.480831  0.500000  1
  P  P9  1  0.519392  0.699164  0.500000  1
  P  P10  1  0.300517  0.819867  0.500000  1
  P  P11  1  0.699164  0.519392  0.500000  1
  P  P12  1  0.819867  0.300517  0.500000  1
  P  P13  1  0.480831  0.180204  0.500000  1
  P  P14  1  0.364906  0.364906  0.000000  1
  P  P15  1  0.634935  0.999838  0.000000  1
  P  P16  1  0.999838  0.634935  0.000000  1
  Pd  Pd17  1  0.552482  0.552482  0.000000  1
  Ru  Ru18  1  0.712621  0.712621  0.500000  1
  Ru  Ru19  1  0.288234  0.000055  0.500000  1
  Ru  Ru20  1  0.000055  0.288234  0.500000  1
  Ru  Ru21  1  0.184803  0.378107  0.000000  1
  Ru  Ru22  1  0.621926  0.807395  0.000000  1
  Ru  Ru23  1  0.193026  0.815032  0.000000  1
  Ru  Ru24  1  0.807395  0.621926  0.000000  1
  Ru  Ru25  1  0.815032  0.193026  0.000000  1
  Ru  Ru26  1  0.378107  0.184803  0.000000  1
  Ru  Ru27  1  0.368797  0.493509  0.500000  1
  Ru  Ru28  1  0.505758  0.874942  0.500000  1
  Ru  Ru29  1  0.125116  0.630854  0.500000  1
  Ru  Ru30  1  0.874942  0.505758  0.500000  1
  Ru  Ru31  1  0.630854  0.125116  0.500000  1
  Ru  Ru32  1  0.493509  0.368797  0.500000  1
  Ru  Ru33  1  0.999905  0.999905  0.000000  1
  Pt  Pt34  1  0.448354  0.999922  0.000000  1
  Pt  Pt35  1  0.999922  0.448354  0.000000  1
