# generated using pymatgen
data_Y6Ho5Tm5(CdIr)4
_symmetry_space_group_name_H-M   'P 1'
_cell_length_a   9.60065824
_cell_length_b   9.59322664
_cell_length_c   9.59322596
_cell_angle_alpha   59.98180210
_cell_angle_beta   59.97437273
_cell_angle_gamma   59.97436677
_symmetry_Int_Tables_number   1
_chemical_formula_structural   Y6Ho5Tm5(CdIr)4
_chemical_formula_sum   'Y6 Ho5 Tm5 Cd4 Ir4'
_cell_volume   624.43511580
_cell_formula_units_Z   1
loop_
 _symmetry_equiv_pos_site_id
 _symmetry_equiv_pos_as_xyz
  1  'x, y, z'
loop_
 _atom_site_type_symbol
 _atom_site_label
 _atom_site_symmetry_multiplicity
 _atom_site_fract_x
 _atom_site_fract_y
 _atom_site_fract_z
 _atom_site_occupancy
  Y  Y0  1  0.939062  0.560938  0.560938  1
  Y  Y1  1  0.560918  0.939082  0.939082  1
  Y  Y2  1  0.560764  0.939201  0.561115  1
  Y  Y3  1  0.938919  0.561115  0.939201  1
  Y  Y4  1  0.560764  0.561115  0.939201  1
  Y  Y5  1  0.938919  0.939201  0.561115  1
  Ho  Ho6  1  0.348214  0.348953  0.348953  1
  Ho  Ho7  1  0.348810  0.349173  0.953207  1
  Ho  Ho8  1  0.348810  0.953207  0.349173  1
  Ho  Ho9  1  0.953881  0.348953  0.348953  1
  Ho  Ho10  1  0.811447  0.188553  0.188553  1
  Tm  Tm11  1  0.188400  0.811600  0.811600  1
  Tm  Tm12  1  0.188998  0.810960  0.188129  1
  Tm  Tm13  1  0.811913  0.188129  0.810960  1
  Tm  Tm14  1  0.188998  0.188129  0.810960  1
  Tm  Tm15  1  0.811913  0.810960  0.188129  1
  Cd  Cd16  1  0.580538  0.580460  0.580460  1
  Cd  Cd17  1  0.580602  0.580684  0.258114  1
  Cd  Cd18  1  0.580602  0.258114  0.580684  1
  Cd  Cd19  1  0.258544  0.580460  0.580460  1
  Ir  Ir20  1  0.141404  0.141521  0.141521  1
  Ir  Ir21  1  0.141014  0.141763  0.576210  1
  Ir  Ir22  1  0.141014  0.576210  0.141763  1
  Ir  Ir23  1  0.575556  0.141521  0.141521  1
