# generated using pymatgen
data_Yb10Cu5Hg
_symmetry_space_group_name_H-M   'P 1'
_cell_length_a   8.91713112
_cell_length_b   8.91713245
_cell_length_c   8.91712998
_cell_angle_alpha   129.20563513
_cell_angle_beta   129.20563128
_cell_angle_gamma   74.67992194
_symmetry_Int_Tables_number   1
_chemical_formula_structural   Yb10Cu5Hg
_chemical_formula_sum   'Yb10 Cu5 Hg1'
_cell_volume   414.78549505
_cell_formula_units_Z   1
loop_
 _symmetry_equiv_pos_site_id
 _symmetry_equiv_pos_as_xyz
  1  'x, y, z'
loop_
 _atom_site_type_symbol
 _atom_site_label
 _atom_site_symmetry_multiplicity
 _atom_site_fract_x
 _atom_site_fract_y
 _atom_site_fract_z
 _atom_site_occupancy
  Yb  Yb0  1  0.508064  0.508064  0.000000  1
  Yb  Yb1  1  0.991936  0.991936  0.000000  1
  Yb  Yb2  1  0.520957  0.036930  0.838273  1
  Yb  Yb3  1  0.198660  0.682686  0.161727  1
  Yb  Yb4  1  0.036930  0.198660  0.515974  1
  Yb  Yb5  1  0.682686  0.520957  0.484026  1
  Yb  Yb6  1  0.463070  0.979043  0.161727  1
  Yb  Yb7  1  0.817314  0.301340  0.838273  1
  Yb  Yb8  1  0.979043  0.817314  0.515974  1
  Yb  Yb9  1  0.301340  0.463070  0.484026  1
  Cu  Cu10  1  0.117775  0.617775  0.735552  1
  Cu  Cu11  1  0.882225  0.382225  0.264448  1
  Cu  Cu12  1  0.617775  0.882225  0.500000  1
  Cu  Cu13  1  0.382225  0.117775  0.500000  1
  Cu  Cu14  1  0.250000  0.250000  0.000000  1
  Hg  Hg15  1  0.750000  0.750000  0.000000  1
