# generated using pymatgen
data_Zr10CdSb6
_symmetry_space_group_name_H-M   'P 1'
_cell_length_a   5.90793298
_cell_length_b   8.65461549
_cell_length_c   8.68110191
_cell_angle_alpha   119.90212056
_cell_angle_beta   90.13528300
_cell_angle_gamma   89.72594447
_symmetry_Int_Tables_number   1
_chemical_formula_structural   Zr10CdSb6
_chemical_formula_sum   'Zr10 Cd1 Sb6'
_cell_volume   384.77899462
_cell_formula_units_Z   1
loop_
 _symmetry_equiv_pos_site_id
 _symmetry_equiv_pos_as_xyz
  1  'x, y, z'
loop_
 _atom_site_type_symbol
 _atom_site_label
 _atom_site_symmetry_multiplicity
 _atom_site_fract_x
 _atom_site_fract_y
 _atom_site_fract_z
 _atom_site_occupancy
  Zr  Zr0  1  0.500743  0.328986  0.661731  1
  Zr  Zr1  1  0.500765  0.667213  0.338241  1
  Zr  Zr2  1  0.998595  0.667089  0.334856  1
  Zr  Zr3  1  0.998615  0.332279  0.665103  1
  Zr  Zr4  1  0.769890  0.270251  0.000016  1
  Zr  Zr5  1  0.775999  0.730076  0.729138  1
  Zr  Zr6  1  0.776038  0.000948  0.270889  1
  Zr  Zr7  1  0.211437  0.735805  0.999980  1
  Zr  Zr8  1  0.230155  0.267609  0.267511  1
  Zr  Zr9  1  0.230232  0.000113  0.732513  1
  Cd  Cd10  1  0.735219  0.615352  0.999967  1
  Sb  Sb11  1  0.747923  0.385441  0.385241  1
  Sb  Sb12  1  0.748110  0.000240  0.614806  1
  Sb  Sb13  1  0.255514  0.392907  0.999954  1
  Sb  Sb14  1  0.258303  0.612135  0.614474  1
  Sb  Sb15  1  0.258335  0.997554  0.385539  1
  Sb  Sb16  1  0.504124  0.996003  0.000043  1
