# generated using pymatgen
data_Pr4Er12Cd4RuPt3
_symmetry_space_group_name_H-M   'P 1'
_cell_length_a   9.71698009
_cell_length_b   9.69142414
_cell_length_c   9.69252754
_cell_angle_alpha   59.99063953
_cell_angle_beta   59.81990057
_cell_angle_gamma   59.82391741
_symmetry_Int_Tables_number   1
_chemical_formula_structural   Pr4Er12Cd4RuPt3
_chemical_formula_sum   'Pr4 Er12 Cd4 Ru1 Pt3'
_cell_volume   643.62970488
_cell_formula_units_Z   1
loop_
 _symmetry_equiv_pos_site_id
 _symmetry_equiv_pos_as_xyz
  1  'x, y, z'
loop_
 _atom_site_type_symbol
 _atom_site_label
 _atom_site_symmetry_multiplicity
 _atom_site_fract_x
 _atom_site_fract_y
 _atom_site_fract_z
 _atom_site_occupancy
  Pr  Pr0  1  0.566681  0.933671  0.566909  1
  Pr  Pr1  1  0.936668  0.562286  0.933527  1
  Pr  Pr2  1  0.566663  0.566884  0.933711  1
  Pr  Pr3  1  0.936652  0.933528  0.562295  1
  Er  Er4  1  0.353785  0.350302  0.350303  1
  Er  Er5  1  0.345595  0.351045  0.954930  1
  Er  Er6  1  0.345595  0.954932  0.351034  1
  Er  Er7  1  0.950711  0.347261  0.347249  1
  Er  Er8  1  0.818680  0.184391  0.184402  1
  Er  Er9  1  0.187535  0.812423  0.812419  1
  Er  Er10  1  0.188332  0.816028  0.187785  1
  Er  Er11  1  0.810771  0.184846  0.810483  1
  Er  Er12  1  0.188330  0.187787  0.816018  1
  Er  Er13  1  0.810769  0.810480  0.184848  1
  Er  Er14  1  0.945099  0.553740  0.553742  1
  Er  Er15  1  0.550136  0.946268  0.946265  1
  Cd  Cd16  1  0.584323  0.577001  0.577014  1
  Cd  Cd17  1  0.577710  0.584060  0.259130  1
  Cd  Cd18  1  0.577681  0.259136  0.584095  1
  Cd  Cd19  1  0.259418  0.578324  0.578323  1
  Ru  Ru20  1  0.145993  0.140648  0.140612  1
  Pt  Pt21  1  0.140068  0.149512  0.573900  1
  Pt  Pt22  1  0.140095  0.573905  0.149490  1
  Pt  Pt23  1  0.572705  0.141542  0.141512  1
