# generated using pymatgen
data_BaP12Os3Rh
_symmetry_space_group_name_H-M   'P 1'
_cell_length_a   7.08309785
_cell_length_b   7.08309739
_cell_length_c   7.07805100
_cell_angle_alpha   109.45679472
_cell_angle_beta   109.45679339
_cell_angle_gamma   109.48564941
_symmetry_Int_Tables_number   1
_chemical_formula_structural   BaP12Os3Rh
_chemical_formula_sum   'Ba1 P12 Os3 Rh1'
_cell_volume   273.41070274
_cell_formula_units_Z   1
loop_
 _symmetry_equiv_pos_site_id
 _symmetry_equiv_pos_as_xyz
  1  'x, y, z'
loop_
 _atom_site_type_symbol
 _atom_site_label
 _atom_site_symmetry_multiplicity
 _atom_site_fract_x
 _atom_site_fract_y
 _atom_site_fract_z
 _atom_site_occupancy
  Ba  Ba0  1  0.000000  0.000000  0.000000  1
  P  P1  1  0.854552  0.637143  0.496601  1
  P  P2  1  0.145448  0.362857  0.503399  1
  P  P3  1  0.143976  0.640785  0.785004  1
  P  P4  1  0.856024  0.359215  0.214996  1
  P  P5  1  0.640785  0.496810  0.855783  1
  P  P6  1  0.359215  0.503190  0.144217  1
  P  P7  1  0.637143  0.782593  0.140542  1
  P  P8  1  0.362857  0.217407  0.859458  1
  P  P9  1  0.496810  0.856024  0.641026  1
  P  P10  1  0.503190  0.143976  0.358974  1
  P  P11  1  0.782593  0.145448  0.642050  1
  P  P12  1  0.217407  0.854552  0.357950  1
  Os  Os13  1  0.500000  0.500000  0.500000  1
  Os  Os14  1  0.500000  0.000000  0.000000  1
  Os  Os15  1  0.000000  0.500000  0.000000  1
  Rh  Rh16  1  0.000000  0.000000  0.500000  1
