# generated using pymatgen
data_Y3ErGa18(PdRh2)2
_symmetry_space_group_name_H-M   'P 1'
_cell_length_a   7.61035278
_cell_length_b   7.61079583
_cell_length_c   9.51420800
_cell_angle_alpha   90.00000000
_cell_angle_beta   90.00000000
_cell_angle_gamma   119.84417334
_symmetry_Int_Tables_number   1
_chemical_formula_structural   Y3ErGa18(PdRh2)2
_chemical_formula_sum   'Y3 Er1 Ga18 Pd2 Rh4'
_cell_volume   477.98903038
_cell_formula_units_Z   1
loop_
 _symmetry_equiv_pos_site_id
 _symmetry_equiv_pos_as_xyz
  1  'x, y, z'
loop_
 _atom_site_type_symbol
 _atom_site_label
 _atom_site_symmetry_multiplicity
 _atom_site_fract_x
 _atom_site_fract_y
 _atom_site_fract_z
 _atom_site_occupancy
  Y  Y0  1  0.996644  0.669673  0.250000  1
  Y  Y1  1  0.003298  0.330371  0.750000  1
  Y  Y2  1  0.669539  0.996604  0.250000  1
  Er  Er3  1  0.330637  0.003267  0.750000  1
  Ga  Ga4  1  0.129299  0.129252  0.250000  1
  Ga  Ga5  1  0.871286  0.870887  0.750000  1
  Ga  Ga6  1  0.999387  0.337461  0.080430  1
  Ga  Ga7  1  0.001150  0.663134  0.919234  1
  Ga  Ga8  1  0.001150  0.663134  0.580766  1
  Ga  Ga9  1  0.337432  0.999390  0.419978  1
  Ga  Ga10  1  0.999387  0.337461  0.419570  1
  Ga  Ga11  1  0.662013  0.000612  0.580800  1
  Ga  Ga12  1  0.662013  0.000612  0.919200  1
  Ga  Ga13  1  0.337432  0.999390  0.080022  1
  Ga  Ga14  1  0.336240  0.335741  0.566805  1
  Ga  Ga15  1  0.663725  0.663732  0.433613  1
  Ga  Ga16  1  0.663725  0.663732  0.066387  1
  Ga  Ga17  1  0.336240  0.335741  0.933195  1
  Ga  Ga18  1  0.336933  0.546806  0.250000  1
  Ga  Ga19  1  0.662550  0.452656  0.750000  1
  Ga  Ga20  1  0.546773  0.336896  0.250000  1
  Ga  Ga21  1  0.453185  0.663425  0.750000  1
  Pd  Pd22  1  0.000084  0.000023  0.999879  1
  Pd  Pd23  1  0.000084  0.000023  0.500121  1
  Rh  Rh24  1  0.671140  0.328654  0.999777  1
  Rh  Rh25  1  0.328758  0.671334  0.999770  1
  Rh  Rh26  1  0.328758  0.671334  0.500230  1
  Rh  Rh27  1  0.671140  0.328654  0.500223  1
