# generated using pymatgen
data_Nd12(FeC3)5
_symmetry_space_group_name_H-M   'P 1'
_cell_length_a   10.73729101
_cell_length_b   10.73812472
_cell_length_c   5.33761700
_cell_angle_alpha   90.00000000
_cell_angle_beta   90.00000000
_cell_angle_gamma   120.00256448
_symmetry_Int_Tables_number   1
_chemical_formula_structural   Nd12(FeC3)5
_chemical_formula_sum   'Nd12 Fe5 C15'
_cell_volume   532.95431618
_cell_formula_units_Z   1
loop_
 _symmetry_equiv_pos_site_id
 _symmetry_equiv_pos_as_xyz
  1  'x, y, z'
loop_
 _atom_site_type_symbol
 _atom_site_label
 _atom_site_symmetry_multiplicity
 _atom_site_fract_x
 _atom_site_fract_y
 _atom_site_fract_z
 _atom_site_occupancy
  Nd  Nd0  1  0.790827  0.999981  0.500000  1
  Nd  Nd1  1  0.000000  0.790825  0.500000  1
  Nd  Nd2  1  0.209173  0.209154  0.500000  1
  Nd  Nd3  1  0.271778  0.456396  0.000000  1
  Nd  Nd4  1  0.543629  0.815376  0.000000  1
  Nd  Nd5  1  0.456371  0.271746  0.000000  1
  Nd  Nd6  1  0.184601  0.728239  0.000000  1
  Nd  Nd7  1  0.815399  0.543638  0.000000  1
  Nd  Nd8  1  0.728222  0.184617  0.000000  1
  Nd  Nd9  1  0.427898  0.999971  0.500000  1
  Nd  Nd10  1  0.000000  0.427896  0.500000  1
  Nd  Nd11  1  0.572102  0.572073  0.500000  1
  Fe  Fe12  1  0.155250  0.000050  0.000000  1
  Fe  Fe13  1  0.000000  0.155319  0.000000  1
  Fe  Fe14  1  0.844750  0.844799  0.000000  1
  Fe  Fe15  1  0.333322  0.666646  0.500000  1
  Fe  Fe16  1  0.666678  0.333322  0.500000  1
  C  C17  1  0.319942  0.999993  0.000000  1
  C  C18  1  0.000000  0.320028  0.000000  1
  C  C19  1  0.680058  0.680051  0.000000  1
  C  C20  1  0.810179  0.000043  0.000000  1
  C  C21  1  0.000000  0.810178  0.000000  1
  C  C22  1  0.189821  0.189864  0.000000  1
  C  C23  1  0.444810  0.999975  0.000000  1
  C  C24  1  0.000000  0.444815  0.000000  1
  C  C25  1  0.555190  0.555165  0.000000  1
  C  C26  1  0.289089  0.481719  0.500000  1
  C  C27  1  0.518280  0.807310  0.500000  1
  C  C28  1  0.481720  0.289030  0.500000  1
  C  C29  1  0.192648  0.710900  0.500000  1
  C  C30  1  0.807352  0.518252  0.500000  1
  C  C31  1  0.710911  0.192630  0.500000  1
