# generated using pymatgen
data_CeTmPt2F14
_symmetry_space_group_name_H-M   'P 1'
_cell_length_a   5.52087067
_cell_length_b   8.86621310
_cell_length_c   11.97603400
_cell_angle_alpha   62.38635844
_cell_angle_beta   90.08214216
_cell_angle_gamma   90.00602068
_symmetry_Int_Tables_number   1
_chemical_formula_structural   CeTmPt2F14
_chemical_formula_sum   'Ce2 Tm2 Pt4 F28'
_cell_volume   519.44270819
_cell_formula_units_Z   2
loop_
 _symmetry_equiv_pos_site_id
 _symmetry_equiv_pos_as_xyz
  1  'x, y, z'
loop_
 _atom_site_type_symbol
 _atom_site_label
 _atom_site_symmetry_multiplicity
 _atom_site_fract_x
 _atom_site_fract_y
 _atom_site_fract_z
 _atom_site_occupancy
  Ce  Ce0  1  0.760397  0.187401  0.234243  1
  Ce  Ce1  1  0.239603  0.812599  0.765757  1
  Tm  Tm2  1  0.261544  0.809632  0.263216  1
  Tm  Tm3  1  0.738456  0.190368  0.736784  1
  Pt  Pt4  1  0.757969  0.733172  0.045145  1
  Pt  Pt5  1  0.242031  0.266828  0.954855  1
  Pt  Pt6  1  0.257387  0.276507  0.460058  1
  Pt  Pt7  1  0.742613  0.723493  0.539942  1
  F  F8  1  0.934608  0.702726  0.409681  1
  F  F9  1  0.065392  0.297274  0.590319  1
  F  F10  1  0.429632  0.294303  0.085817  1
  F  F11  1  0.570368  0.705697  0.914183  1
  F  F12  1  0.454603  0.723804  0.139654  1
  F  F13  1  0.545397  0.276196  0.860346  1
  F  F14  1  0.958368  0.281225  0.368813  1
  F  F15  1  0.041632  0.718775  0.631187  1
  F  F16  1  0.943681  0.751594  0.180258  1
  F  F17  1  0.056319  0.248406  0.819742  1
  F  F18  1  0.437934  0.260481  0.324065  1
  F  F19  1  0.562066  0.739519  0.675935  1
  F  F20  1  0.777842  0.483078  0.142758  1
  F  F21  1  0.222158  0.516922  0.857242  1
  F  F22  1  0.275727  0.525847  0.361376  1
  F  F23  1  0.724273  0.474153  0.638624  1
  F  F24  1  0.932692  0.271555  0.039905  1
  F  F25  1  0.067308  0.728445  0.960095  1
  F  F26  1  0.434325  0.724520  0.454640  1
  F  F27  1  0.565675  0.275480  0.545360  1
  F  F28  1  0.746616  0.973879  0.450324  1
  F  F29  1  0.253384  0.026121  0.549676  1
  F  F30  1  0.246632  0.016828  0.051791  1
  F  F31  1  0.753368  0.983172  0.948209  1
  F  F32  1  0.587495  0.960700  0.231334  1
  F  F33  1  0.412505  0.039300  0.768666  1
  F  F34  1  0.101410  0.026891  0.269424  1
  F  F35  1  0.898590  0.973109  0.730576  1
