# generated using pymatgen
data_La4ErRh2
_symmetry_space_group_name_H-M   'P 1'
_cell_length_a   6.59812442
_cell_length_b   7.26074866
_cell_length_c   9.22757100
_cell_angle_alpha   95.91371052
_cell_angle_beta   110.94810397
_cell_angle_gamma   90.00000388
_symmetry_Int_Tables_number   1
_chemical_formula_structural   La4ErRh2
_chemical_formula_sum   'La8 Er2 Rh4'
_cell_volume   410.32947211
_cell_formula_units_Z   2
loop_
 _symmetry_equiv_pos_site_id
 _symmetry_equiv_pos_as_xyz
  1  'x, y, z'
loop_
 _atom_site_type_symbol
 _atom_site_label
 _atom_site_symmetry_multiplicity
 _atom_site_fract_x
 _atom_site_fract_y
 _atom_site_fract_z
 _atom_site_occupancy
  La  La0  1  0.799246  0.084396  0.817160  1
  La  La1  1  0.982087  0.415604  0.182840  1
  La  La2  1  0.200754  0.915604  0.182840  1
  La  La3  1  0.017913  0.584396  0.817160  1
  La  La4  1  0.213504  0.183875  0.575633  1
  La  La5  1  0.637872  0.316125  0.424367  1
  La  La6  1  0.786496  0.816125  0.424367  1
  La  La7  1  0.362128  0.683875  0.575633  1
  Er  Er8  1  0.429559  0.250000  0.000000  1
  Er  Er9  1  0.570441  0.750000  0.000000  1
  Rh  Rh10  1  0.593301  0.424767  0.790905  1
  Rh  Rh11  1  0.802395  0.075233  0.209095  1
  Rh  Rh12  1  0.406699  0.575233  0.209095  1
  Rh  Rh13  1  0.197605  0.924767  0.790905  1
