# generated using pymatgen
data_HoErTm4(Si3Ru)8
_symmetry_space_group_name_H-M   'P 1'
_cell_length_a   10.09839275
_cell_length_b   10.09839303
_cell_length_c   8.11131605
_cell_angle_alpha   89.98397109
_cell_angle_beta   90.01602711
_cell_angle_gamma   132.68511557
_symmetry_Int_Tables_number   1
_chemical_formula_structural   HoErTm4(Si3Ru)8
_chemical_formula_sum   'Ho1 Er1 Tm4 Si24 Ru8'
_cell_volume   608.04648825
_cell_formula_units_Z   1
loop_
 _symmetry_equiv_pos_site_id
 _symmetry_equiv_pos_as_xyz
  1  'x, y, z'
loop_
 _atom_site_type_symbol
 _atom_site_label
 _atom_site_symmetry_multiplicity
 _atom_site_fract_x
 _atom_site_fract_y
 _atom_site_fract_z
 _atom_site_occupancy
  Ho  Ho0  1  0.497500  0.997500  0.250000  1
  Er  Er1  1  0.997516  0.497516  0.250000  1
  Tm  Tm2  1  0.002489  0.502489  0.750000  1
  Tm  Tm3  1  0.502414  0.002414  0.750000  1
  Tm  Tm4  1  0.500008  0.499994  0.500045  1
  Tm  Tm5  1  0.999994  0.000008  0.999955  1
  Si  Si6  1  0.388232  0.154948  0.004792  1
  Si  Si7  1  0.654948  0.888232  0.495208  1
  Si  Si8  1  0.111842  0.345571  0.505146  1
  Si  Si9  1  0.845571  0.611842  0.994854  1
  Si  Si10  1  0.611716  0.845029  0.995034  1
  Si  Si11  1  0.345029  0.111716  0.504966  1
  Si  Si12  1  0.888141  0.654481  0.495095  1
  Si  Si13  1  0.154481  0.388141  0.004905  1
  Si  Si14  1  0.613081  0.378637  0.228793  1
  Si  Si15  1  0.878637  0.113081  0.271207  1
  Si  Si16  1  0.887577  0.122003  0.728393  1
  Si  Si17  1  0.622003  0.387577  0.771607  1
  Si  Si18  1  0.386911  0.621309  0.771457  1
  Si  Si19  1  0.121309  0.886911  0.728543  1
  Si  Si20  1  0.705223  0.295315  0.999718  1
  Si  Si21  1  0.795315  0.205223  0.500282  1
  Si  Si22  1  0.294746  0.704636  0.999642  1
  Si  Si23  1  0.204636  0.794746  0.500358  1
  Si  Si24  1  0.167676  0.167719  0.333261  1
  Si  Si25  1  0.667719  0.667676  0.166739  1
  Si  Si26  1  0.332277  0.332337  0.833297  1
  Si  Si27  1  0.832337  0.832277  0.666703  1
  Si  Si28  1  0.378002  0.612490  0.228631  1
  Si  Si29  1  0.112490  0.878002  0.271369  1
  Ru  Ru30  1  0.626516  0.626504  0.872263  1
  Ru  Ru31  1  0.126504  0.126516  0.627737  1
  Ru  Ru32  1  0.873573  0.873544  0.372186  1
  Ru  Ru33  1  0.373544  0.373573  0.127814  1
  Ru  Ru34  1  0.330846  0.670128  0.500560  1
  Ru  Ru35  1  0.170128  0.830846  0.999440  1
  Ru  Ru36  1  0.669195  0.329870  0.500847  1
  Ru  Ru37  1  0.829870  0.169195  0.999153  1
