# generated using pymatgen
data_Y2HoTm13(Ga3Co)2
_symmetry_space_group_name_H-M   'P 1'
_cell_length_a   9.91508501
_cell_length_b   9.91837811
_cell_length_c   6.89904600
_cell_angle_alpha   89.99809190
_cell_angle_beta   89.99756239
_cell_angle_gamma   119.98629369
_symmetry_Int_Tables_number   1
_chemical_formula_structural   Y2HoTm13(Ga3Co)2
_chemical_formula_sum   'Y2 Ho1 Tm13 Ga6 Co2'
_cell_volume   587.64729215
_cell_formula_units_Z   1
loop_
 _symmetry_equiv_pos_site_id
 _symmetry_equiv_pos_as_xyz
  1  'x, y, z'
loop_
 _atom_site_type_symbol
 _atom_site_label
 _atom_site_symmetry_multiplicity
 _atom_site_fract_x
 _atom_site_fract_y
 _atom_site_fract_z
 _atom_site_occupancy
  Y  Y0  1  0.000051  0.000101  0.269815  1
  Y  Y1  1  0.999983  0.999964  0.769682  1
  Ho  Ho2  1  0.536461  0.072912  0.792827  1
  Tm  Tm3  1  0.174066  0.825099  0.990184  1
  Tm  Tm4  1  0.825923  0.174658  0.489273  1
  Tm  Tm5  1  0.174589  0.349187  0.989830  1
  Tm  Tm6  1  0.651023  0.825098  0.990188  1
  Tm  Tm7  1  0.348737  0.174645  0.489265  1
  Tm  Tm8  1  0.825430  0.650883  0.489720  1
  Tm  Tm9  1  0.333113  0.666224  0.673698  1
  Tm  Tm10  1  0.666917  0.333848  0.174042  1
  Tm  Tm11  1  0.463212  0.536778  0.293120  1
  Tm  Tm12  1  0.536740  0.463477  0.793242  1
  Tm  Tm13  1  0.463044  0.926092  0.292987  1
  Tm  Tm14  1  0.073574  0.536776  0.293116  1
  Tm  Tm15  1  0.926738  0.463478  0.793247  1
  Ga  Ga16  1  0.163754  0.836238  0.541036  1
  Ga  Ga17  1  0.836626  0.163838  0.041671  1
  Ga  Ga18  1  0.163754  0.327502  0.541343  1
  Ga  Ga19  1  0.672493  0.836243  0.541028  1
  Ga  Ga20  1  0.327207  0.163839  0.041625  1
  Ga  Ga21  1  0.836184  0.672367  0.041162  1
  Co  Co22  1  0.333303  0.666602  0.057221  1
  Co  Co23  1  0.667077  0.334149  0.556797  1
