# generated using pymatgen
data_TbPa2Zn11
_symmetry_space_group_name_H-M   'P 1'
_cell_length_a   8.10506457
_cell_length_b   8.10506476
_cell_length_c   8.10506467
_cell_angle_alpha   148.37329321
_cell_angle_beta   113.22659250
_cell_angle_gamma   75.76786305
_symmetry_Int_Tables_number   1
_chemical_formula_structural   TbPa2Zn11
_chemical_formula_sum   'Tb1 Pa2 Zn11'
_cell_volume   252.06377163
_cell_formula_units_Z   1
loop_
 _symmetry_equiv_pos_site_id
 _symmetry_equiv_pos_as_xyz
  1  'x, y, z'
loop_
 _atom_site_type_symbol
 _atom_site_label
 _atom_site_symmetry_multiplicity
 _atom_site_fract_x
 _atom_site_fract_y
 _atom_site_fract_z
 _atom_site_occupancy
  Tb  Tb0  1  0.000000  0.000000  0.000000  1
  Pa  Pa1  1  0.293376  0.293376  0.000000  1
  Pa  Pa2  1  0.706624  0.706624  0.000000  1
  Zn  Zn3  1  0.500000  0.000000  0.500000  1
  Zn  Zn4  1  0.682792  0.500000  0.182792  1
  Zn  Zn5  1  0.317208  0.500000  0.817208  1
  Zn  Zn6  1  0.703553  0.342702  0.360852  1
  Zn  Zn7  1  0.296447  0.657298  0.639148  1
  Zn  Zn8  1  0.981850  0.342702  0.639148  1
  Zn  Zn9  1  0.018150  0.657298  0.360852  1
  Zn  Zn10  1  0.425603  0.142099  0.283504  1
  Zn  Zn11  1  0.574397  0.857901  0.716496  1
  Zn  Zn12  1  0.858595  0.142099  0.716496  1
  Zn  Zn13  1  0.141405  0.857901  0.283504  1
