# generated using pymatgen
data_Er7TmTi12Si15Sn
_symmetry_space_group_name_H-M   'P 1'
_cell_length_a   7.07740038
_cell_length_b   7.04084153
_cell_length_c   12.95444400
_cell_angle_alpha   89.98655756
_cell_angle_beta   89.74227961
_cell_angle_gamma   89.92326432
_symmetry_Int_Tables_number   1
_chemical_formula_structural   Er7TmTi12Si15Sn
_chemical_formula_sum   'Er7 Tm1 Ti12 Si15 Sn1'
_cell_volume   645.52388865
_cell_formula_units_Z   1
loop_
 _symmetry_equiv_pos_site_id
 _symmetry_equiv_pos_as_xyz
  1  'x, y, z'
loop_
 _atom_site_type_symbol
 _atom_site_label
 _atom_site_symmetry_multiplicity
 _atom_site_fract_x
 _atom_site_fract_y
 _atom_site_fract_z
 _atom_site_occupancy
  Er  Er0  1  0.505975  0.834976  0.718157  1
  Er  Er1  1  0.502215  0.159863  0.216926  1
  Er  Er2  1  0.840800  0.496980  0.282232  1
  Er  Er3  1  0.159466  0.510029  0.786107  1
  Er  Er4  1  0.661832  0.996605  0.968868  1
  Er  Er5  1  0.992048  0.348408  0.527388  1
  Er  Er6  1  0.999682  0.659268  0.034035  1
  Tm  Tm7  1  0.342956  0.998716  0.461266  1
  Ti  Ti8  1  0.326644  0.326571  0.001261  1
  Ti  Ti9  1  0.173885  0.826066  0.249714  1
  Ti  Ti10  1  0.816641  0.174961  0.751959  1
  Ti  Ti11  1  0.672085  0.673271  0.499462  1
  Ti  Ti12  1  0.152665  0.007679  0.883333  1
  Ti  Ti13  1  0.492986  0.649707  0.126839  1
  Ti  Ti14  1  0.514563  0.354526  0.626468  1
  Ti  Ti15  1  0.654068  0.493605  0.875846  1
  Ti  Ti16  1  0.347362  0.509018  0.372783  1
  Ti  Ti17  1  0.846908  0.992884  0.375557  1
  Ti  Ti18  1  0.009736  0.150864  0.123395  1
  Ti  Ti19  1  0.979198  0.835952  0.618605  1
  Si  Si20  1  0.371113  0.703132  0.935566  1
  Si  Si21  1  0.627777  0.297024  0.432366  1
  Si  Si22  1  0.704650  0.368850  0.067207  1
  Si  Si23  1  0.296097  0.631524  0.565974  1
  Si  Si24  1  0.797445  0.869156  0.183743  1
  Si  Si25  1  0.130360  0.202582  0.315454  1
  Si  Si26  1  0.870542  0.799915  0.816544  1
  Si  Si27  1  0.293822  0.951999  0.067011  1
  Si  Si28  1  0.549117  0.789983  0.313697  1
  Si  Si29  1  0.459481  0.209902  0.820172  1
  Si  Si30  1  0.794143  0.544673  0.686934  1
  Si  Si31  1  0.208894  0.452574  0.185081  1
  Si  Si32  1  0.705188  0.048456  0.564311  1
  Si  Si33  1  0.952999  0.292180  0.935328  1
  Si  Si34  1  0.047278  0.710611  0.432543  1
  Sn  Sn35  1  0.199379  0.127493  0.677869  1
