# generated using pymatgen
data_Er6Pa(Al3Co8)2
_symmetry_space_group_name_H-M   'P 1'
_cell_length_a   8.49313600
_cell_length_b   8.49845600
_cell_length_c   8.50401500
_cell_angle_alpha   120.02164432
_cell_angle_beta   90.00000000
_cell_angle_gamma   119.98784853
_symmetry_Int_Tables_number   1
_chemical_formula_structural   Er6Pa(Al3Co8)2
_chemical_formula_sum   'Er6 Pa1 Al6 Co16'
_cell_volume   433.96505996
_cell_formula_units_Z   1
loop_
 _symmetry_equiv_pos_site_id
 _symmetry_equiv_pos_as_xyz
  1  'x, y, z'
loop_
 _atom_site_type_symbol
 _atom_site_label
 _atom_site_symmetry_multiplicity
 _atom_site_fract_x
 _atom_site_fract_y
 _atom_site_fract_z
 _atom_site_occupancy
  Er  Er0  1  0.291109  0.000005  0.291026  1
  Er  Er1  1  0.291088  0.582162  0.291081  1
  Er  Er2  1  0.708892  0.999995  0.291020  1
  Er  Er3  1  0.708891  0.999995  0.708974  1
  Er  Er4  1  0.291109  0.000005  0.708981  1
  Er  Er5  1  0.708913  0.417839  0.708920  1
  Pa  Pa6  1  0.000000  0.000000  0.000000  1
  Al  Al7  1  0.500000  0.000000  0.000000  1
  Al  Al8  1  0.000000  0.500000  0.000000  1
  Al  Al9  1  0.500000  0.500000  0.000000  1
  Al  Al10  1  0.000000  0.000000  0.500000  1
  Al  Al11  1  0.000000  0.500000  0.500000  1
  Al  Al12  1  0.500000  0.500000  0.500000  1
  Co  Co13  1  0.678386  0.356707  0.035210  1
  Co  Co14  1  0.374866  0.249952  0.124976  1
  Co  Co15  1  0.875199  0.249686  0.124843  1
  Co  Co16  1  0.874991  0.749949  0.125095  1
  Co  Co17  1  0.678386  0.356707  0.321497  1
  Co  Co18  1  0.678500  0.642887  0.321445  1
  Co  Co19  1  0.964818  0.643096  0.321548  1
  Co  Co20  1  0.125009  0.250050  0.375145  1
  Co  Co21  1  0.874991  0.749949  0.624854  1
  Co  Co22  1  0.035183  0.356903  0.678452  1
  Co  Co23  1  0.321500  0.357112  0.678555  1
  Co  Co24  1  0.321614  0.643292  0.678503  1
  Co  Co25  1  0.125009  0.250050  0.874905  1
  Co  Co26  1  0.124801  0.750313  0.875157  1
  Co  Co27  1  0.625133  0.750047  0.875024  1
  Co  Co28  1  0.321614  0.643292  0.964791  1
