# generated using pymatgen
data_Sb8Pd5Se2
_symmetry_space_group_name_H-M   'P 1'
_cell_length_a   20.00045663
_cell_length_b   20.00045655
_cell_length_c   6.45665706
_cell_angle_alpha   70.65097403
_cell_angle_beta   70.65097434
_cell_angle_gamma   8.35653344
_symmetry_Int_Tables_number   1
_chemical_formula_structural   Sb8Pd5Se2
_chemical_formula_sum   'Sb8 Pd5 Se2'
_cell_volume   354.04413353
_cell_formula_units_Z   1
loop_
 _symmetry_equiv_pos_site_id
 _symmetry_equiv_pos_as_xyz
  1  'x, y, z'
loop_
 _atom_site_type_symbol
 _atom_site_label
 _atom_site_symmetry_multiplicity
 _atom_site_fract_x
 _atom_site_fract_y
 _atom_site_fract_z
 _atom_site_occupancy
  Sb  Sb0  1  0.676806  0.676806  0.713796  1
  Sb  Sb1  1  0.278140  0.278140  0.732703  1
  Sb  Sb2  1  0.877943  0.877943  0.742754  1
  Sb  Sb3  1  0.534035  0.534035  0.273191  1
  Sb  Sb4  1  0.133608  0.133608  0.251980  1
  Sb  Sb5  1  0.733413  0.733413  0.267618  1
  Sb  Sb6  1  0.335761  0.335761  0.279422  1
  Sb  Sb7  1  0.935245  0.935245  0.289374  1
  Pd  Pd8  1  0.004825  0.004825  0.994644  1
  Pd  Pd9  1  0.603502  0.603502  0.974227  1
  Pd  Pd10  1  0.205550  0.205550  0.988154  1
  Pd  Pd11  1  0.805970  0.805970  0.011324  1
  Pd  Pd12  1  0.407246  0.407246  0.013506  1
  Se  Se13  1  0.076635  0.076635  0.721827  1
  Se  Se14  1  0.477044  0.477044  0.745481  1
