# generated using pymatgen
data_NaCa21Ga11Sb3
_symmetry_space_group_name_H-M   'P 1'
_cell_length_a   11.40863568
_cell_length_b   11.41096444
_cell_length_c   11.40799924
_cell_angle_alpha   59.99510022
_cell_angle_beta   60.01534699
_cell_angle_gamma   59.98955536
_symmetry_Int_Tables_number   1
_chemical_formula_structural   NaCa21Ga11Sb3
_chemical_formula_sum   'Na1 Ca21 Ga11 Sb3'
_cell_volume   1050.14799937
_cell_formula_units_Z   1
loop_
 _symmetry_equiv_pos_site_id
 _symmetry_equiv_pos_as_xyz
  1  'x, y, z'
loop_
 _atom_site_type_symbol
 _atom_site_label
 _atom_site_symmetry_multiplicity
 _atom_site_fract_x
 _atom_site_fract_y
 _atom_site_fract_z
 _atom_site_occupancy
  Na  Na0  1  0.500650  0.499350  0.500650  1
  Ca  Ca1  1  0.996227  0.003773  0.996227  1
  Ca  Ca2  1  0.133143  0.134149  0.121507  1
  Ca  Ca3  1  0.388798  0.878493  0.865851  1
  Ca  Ca4  1  0.874956  0.385382  0.864498  1
  Ca  Ca5  1  0.865851  0.866857  0.388798  1
  Ca  Ca6  1  0.121507  0.611202  0.133143  1
  Ca  Ca7  1  0.124837  0.135502  0.614618  1
  Ca  Ca8  1  0.614618  0.125044  0.124837  1
  Ca  Ca9  1  0.864498  0.875163  0.874956  1
  Ca  Ca10  1  0.507040  0.831230  0.492584  1
  Ca  Ca11  1  0.830685  0.499073  0.500927  1
  Ca  Ca12  1  0.508072  0.831446  0.168554  1
  Ca  Ca13  1  0.168770  0.492960  0.830853  1
  Ca  Ca14  1  0.830853  0.507416  0.168770  1
  Ca  Ca15  1  0.508492  0.491508  0.830714  1
  Ca  Ca16  1  0.168144  0.831856  0.501154  1
  Ca  Ca17  1  0.500927  0.169315  0.830685  1
  Ca  Ca18  1  0.501154  0.498846  0.168144  1
  Ca  Ca19  1  0.830714  0.169286  0.508492  1
  Ca  Ca20  1  0.168554  0.491928  0.508072  1
  Ca  Ca21  1  0.492584  0.169147  0.507040  1
  Ga  Ga22  1  0.785632  0.783529  0.216471  1
  Ga  Ga23  1  0.216471  0.214368  0.785632  1
  Ga  Ga24  1  0.783419  0.216581  0.783419  1
  Ga  Ga25  1  0.309258  0.309751  0.308000  1
  Ga  Ga26  1  0.927009  0.692000  0.690249  1
  Ga  Ga27  1  0.690810  0.928744  0.689448  1
  Ga  Ga28  1  0.690249  0.690743  0.927009  1
  Ga  Ga29  1  0.308000  0.072991  0.309257  1
  Ga  Ga30  1  0.309002  0.310552  0.071256  1
  Ga  Ga31  1  0.071256  0.309190  0.309002  1
  Ga  Ga32  1  0.689448  0.690998  0.690809  1
  Sb  Sb33  1  0.214648  0.785352  0.214648  1
  Sb  Sb34  1  0.217633  0.782367  0.786093  1
  Sb  Sb35  1  0.786093  0.213907  0.217633  1
