# generated using pymatgen
data_Fe2MoP2W
_symmetry_space_group_name_H-M   'P 1'
_cell_length_a   3.67841300
_cell_length_b   5.92826500
_cell_length_c   6.75108000
_cell_angle_alpha   90.00000000
_cell_angle_beta   90.00000000
_cell_angle_gamma   90.00000000
_symmetry_Int_Tables_number   1
_chemical_formula_structural   Fe2MoP2W
_chemical_formula_sum   'Fe4 Mo2 P4 W2'
_cell_volume   147.21814868
_cell_formula_units_Z   2
loop_
 _symmetry_equiv_pos_site_id
 _symmetry_equiv_pos_as_xyz
  1  'x, y, z'
loop_
 _atom_site_type_symbol
 _atom_site_label
 _atom_site_symmetry_multiplicity
 _atom_site_fract_x
 _atom_site_fract_y
 _atom_site_fract_z
 _atom_site_occupancy
  Fe  Fe0  1  0.250000  0.859621  0.939891  1
  Fe  Fe1  1  0.250000  0.359621  0.560109  1
  Fe  Fe2  1  0.750000  0.140738  0.066180  1
  Fe  Fe3  1  0.750000  0.640738  0.433820  1
  Mo  Mo4  1  0.750000  0.027965  0.672136  1
  Mo  Mo5  1  0.750000  0.527965  0.827864  1
  P  P6  1  0.250000  0.228758  0.876008  1
  P  P7  1  0.250000  0.728758  0.623992  1
  P  P8  1  0.750000  0.770649  0.119179  1
  P  P9  1  0.750000  0.270649  0.380821  1
  W  W10  1  0.250000  0.972269  0.328987  1
  W  W11  1  0.250000  0.472269  0.171013  1
