# generated using pymatgen
data_Er4Si4IrRh3
_symmetry_space_group_name_H-M   'P 1'
_cell_length_a   4.22631300
_cell_length_b   6.84017916
_cell_length_c   7.39004341
_cell_angle_alpha   89.88991778
_cell_angle_beta   90.00000000
_cell_angle_gamma   90.00000000
_symmetry_Int_Tables_number   1
_chemical_formula_structural   Er4Si4IrRh3
_chemical_formula_sum   'Er4 Si4 Ir1 Rh3'
_cell_volume   213.63643511
_cell_formula_units_Z   1
loop_
 _symmetry_equiv_pos_site_id
 _symmetry_equiv_pos_as_xyz
  1  'x, y, z'
loop_
 _atom_site_type_symbol
 _atom_site_label
 _atom_site_symmetry_multiplicity
 _atom_site_fract_x
 _atom_site_fract_y
 _atom_site_fract_z
 _atom_site_occupancy
  Er  Er0  1  0.250000  0.502178  0.690255  1
  Er  Er1  1  0.750000  0.499504  0.309820  1
  Er  Er2  1  0.250000  0.000922  0.811247  1
  Er  Er3  1  0.750000  0.999253  0.188841  1
  Si  Si4  1  0.250000  0.295249  0.105909  1
  Si  Si5  1  0.750000  0.706112  0.892283  1
  Si  Si6  1  0.250000  0.795622  0.394801  1
  Si  Si7  1  0.750000  0.203575  0.606373  1
  Ir  Ir8  1  0.750000  0.842657  0.568632  1
  Rh  Rh9  1  0.250000  0.154951  0.430907  1
  Rh  Rh10  1  0.750000  0.344877  0.931182  1
  Rh  Rh11  1  0.250000  0.655102  0.069751  1
