# generated using pymatgen
data_Er4ZrIr3
_symmetry_space_group_name_H-M   'P 1'
_cell_length_a   10.77151100
_cell_length_b   10.77151100
_cell_length_c   6.23372800
_cell_angle_alpha   90.00000000
_cell_angle_beta   90.00000000
_cell_angle_gamma   90.00000000
_symmetry_Int_Tables_number   1
_chemical_formula_structural   Er4ZrIr3
_chemical_formula_sum   'Er16 Zr4 Ir12'
_cell_volume   723.27109153
_cell_formula_units_Z   4
loop_
 _symmetry_equiv_pos_site_id
 _symmetry_equiv_pos_as_xyz
  1  'x, y, z'
loop_
 _atom_site_type_symbol
 _atom_site_label
 _atom_site_symmetry_multiplicity
 _atom_site_fract_x
 _atom_site_fract_y
 _atom_site_fract_z
 _atom_site_occupancy
  Er  Er0  1  0.290088  0.086996  0.373668  1
  Er  Er1  1  0.290088  0.913004  0.873668  1
  Er  Er2  1  0.709912  0.086996  0.873668  1
  Er  Er3  1  0.709912  0.913004  0.373668  1
  Er  Er4  1  0.586996  0.790088  0.873668  1
  Er  Er5  1  0.586996  0.209912  0.373668  1
  Er  Er6  1  0.413004  0.790088  0.373668  1
  Er  Er7  1  0.413004  0.209912  0.873668  1
  Er  Er8  1  0.209912  0.413004  0.626332  1
  Er  Er9  1  0.209912  0.586996  0.126332  1
  Er  Er10  1  0.790088  0.413004  0.126332  1
  Er  Er11  1  0.790088  0.586996  0.626332  1
  Er  Er12  1  0.913004  0.709912  0.126332  1
  Er  Er13  1  0.913004  0.290088  0.626332  1
  Er  Er14  1  0.086996  0.709912  0.626332  1
  Er  Er15  1  0.086996  0.290088  0.126332  1
  Zr  Zr16  1  0.000000  0.000000  0.500000  1
  Zr  Zr17  1  0.000000  0.000000  0.000000  1
  Zr  Zr18  1  0.500000  0.500000  0.000000  1
  Zr  Zr19  1  0.500000  0.500000  0.500000  1
  Ir  Ir20  1  0.853465  0.146535  0.250000  1
  Ir  Ir21  1  0.853465  0.853465  0.750000  1
  Ir  Ir22  1  0.146535  0.146535  0.750000  1
  Ir  Ir23  1  0.146535  0.853465  0.250000  1
  Ir  Ir24  1  0.646535  0.353465  0.750000  1
  Ir  Ir25  1  0.646535  0.646535  0.250000  1
  Ir  Ir26  1  0.353465  0.353465  0.250000  1
  Ir  Ir27  1  0.353465  0.646535  0.750000  1
  Ir  Ir28  1  0.500000  0.000000  0.121083  1
  Ir  Ir29  1  0.500000  0.000000  0.621083  1
  Ir  Ir30  1  0.000000  0.500000  0.878917  1
  Ir  Ir31  1  0.000000  0.500000  0.378917  1
