# generated using pymatgen
data_Li5Pr7NdZn3Rh8
_symmetry_space_group_name_H-M   'P 1'
_cell_length_a   4.09795300
_cell_length_b   7.30631337
_cell_length_c   16.62734162
_cell_angle_alpha   89.78920077
_cell_angle_beta   90.00000000
_cell_angle_gamma   90.00000000
_symmetry_Int_Tables_number   1
_chemical_formula_structural   Li5Pr7NdZn3Rh8
_chemical_formula_sum   'Li5 Pr7 Nd1 Zn3 Rh8'
_cell_volume   497.83468202
_cell_formula_units_Z   1
loop_
 _symmetry_equiv_pos_site_id
 _symmetry_equiv_pos_as_xyz
  1  'x, y, z'
loop_
 _atom_site_type_symbol
 _atom_site_label
 _atom_site_symmetry_multiplicity
 _atom_site_fract_x
 _atom_site_fract_y
 _atom_site_fract_z
 _atom_site_occupancy
  Li  Li0  1  0.750000  0.007001  0.560818  1
  Li  Li1  1  0.250000  0.631842  0.351237  1
  Li  Li2  1  0.750000  0.370044  0.649038  1
  Li  Li3  1  0.250000  0.491184  0.062224  1
  Li  Li4  1  0.750000  0.509486  0.937314  1
  Pr  Pr5  1  0.250000  0.166166  0.939363  1
  Pr  Pr6  1  0.250000  0.663238  0.560658  1
  Pr  Pr7  1  0.750000  0.332455  0.439186  1
  Pr  Pr8  1  0.750000  0.955162  0.282666  1
  Pr  Pr9  1  0.750000  0.834916  0.060499  1
  Pr  Pr10  1  0.750000  0.452277  0.216095  1
  Pr  Pr11  1  0.250000  0.043919  0.718313  1
  Nd  Nd12  1  0.250000  0.547755  0.783797  1
  Zn  Zn13  1  0.250000  0.994113  0.438636  1
  Zn  Zn14  1  0.250000  0.128441  0.149730  1
  Zn  Zn15  1  0.750000  0.871501  0.850200  1
  Rh  Rh16  1  0.750000  0.757747  0.438765  1
  Rh  Rh17  1  0.250000  0.240994  0.311476  1
  Rh  Rh18  1  0.750000  0.245599  0.814789  1
  Rh  Rh19  1  0.750000  0.754200  0.690593  1
  Rh  Rh20  1  0.250000  0.247133  0.559840  1
  Rh  Rh21  1  0.250000  0.753947  0.184941  1
  Rh  Rh22  1  0.750000  0.244074  0.065499  1
  Rh  Rh23  1  0.250000  0.756808  0.934325  1
