# generated using pymatgen
data_Dy3Tm2Co19Si11P
_symmetry_space_group_name_H-M   'P 1'
_cell_length_a   12.12888840
_cell_length_b   12.15838559
_cell_length_c   3.72138900
_cell_angle_alpha   90.00000000
_cell_angle_beta   90.00000000
_cell_angle_gamma   120.09848034
_symmetry_Int_Tables_number   1
_chemical_formula_structural   Dy3Tm2Co19Si11P
_chemical_formula_sum   'Dy3 Tm2 Co19 Si11 P1'
_cell_volume   474.78914836
_cell_formula_units_Z   1
loop_
 _symmetry_equiv_pos_site_id
 _symmetry_equiv_pos_as_xyz
  1  'x, y, z'
loop_
 _atom_site_type_symbol
 _atom_site_label
 _atom_site_symmetry_multiplicity
 _atom_site_fract_x
 _atom_site_fract_y
 _atom_site_fract_z
 _atom_site_occupancy
  Dy  Dy0  1  0.667352  0.333662  0.000000  1
  Dy  Dy1  1  0.332722  0.666212  0.000000  1
  Dy  Dy2  1  0.184534  0.185508  0.500000  1
  Tm  Tm3  1  0.814979  0.000755  0.500000  1
  Tm  Tm4  1  0.999845  0.813679  0.500000  1
  Co  Co5  1  0.823671  0.197031  0.000000  1
  Co  Co6  1  0.802974  0.623104  0.000000  1
  Co  Co7  1  0.377296  0.179723  0.000000  1
  Co  Co8  1  0.197099  0.819845  0.000000  1
  Co  Co9  1  0.623263  0.803114  0.000000  1
  Co  Co10  1  0.175937  0.373632  0.000000  1
  Co  Co11  1  0.558710  0.559151  0.000000  1
  Co  Co12  1  0.441601  0.000413  0.000000  1
  Co  Co13  1  0.999983  0.441687  0.000000  1
  Co  Co14  1  0.645182  0.123489  0.500000  1
  Co  Co15  1  0.877314  0.520777  0.500000  1
  Co  Co16  1  0.479047  0.356479  0.500000  1
  Co  Co17  1  0.122714  0.643362  0.500000  1
  Co  Co18  1  0.521483  0.877607  0.500000  1
  Co  Co19  1  0.355119  0.478741  0.500000  1
  Co  Co20  1  0.719056  0.719019  0.500000  1
  Co  Co21  1  0.281186  0.999556  0.500000  1
  Co  Co22  1  0.999546  0.277812  0.500000  1
  Co  Co23  1  0.999406  0.004228  0.000000  1
  Si  Si24  1  0.371121  0.371406  0.000000  1
  Si  Si25  1  0.629661  0.000308  0.000000  1
  Si  Si26  1  0.000002  0.629192  0.000000  1
  Si  Si27  1  0.840726  0.318508  0.500000  1
  Si  Si28  1  0.682515  0.522464  0.500000  1
  Si  Si29  1  0.478138  0.160444  0.500000  1
  Si  Si30  1  0.317678  0.839736  0.500000  1
  Si  Si31  1  0.522026  0.682454  0.500000  1
  Si  Si32  1  0.159124  0.477566  0.500000  1
  Si  Si33  1  0.817469  0.817256  0.000000  1
  Si  Si34  1  0.182347  0.998937  0.000000  1
  P  P35  1  0.999174  0.183141  0.000000  1
