# generated using pymatgen
data_BaVFe2(PO4)3
_symmetry_space_group_name_H-M   'P 1'
_cell_length_a   9.32873737
_cell_length_b   9.32873712
_cell_length_c   9.32873774
_cell_angle_alpha   137.69211562
_cell_angle_beta   110.15158498
_cell_angle_gamma   85.17897586
_symmetry_Int_Tables_number   1
_chemical_formula_structural   BaVFe2(PO4)3
_chemical_formula_sum   'Ba2 V2 Fe4 P6 O24'
_cell_volume   493.92774341
_cell_formula_units_Z   2
loop_
 _symmetry_equiv_pos_site_id
 _symmetry_equiv_pos_as_xyz
  1  'x, y, z'
loop_
 _atom_site_type_symbol
 _atom_site_label
 _atom_site_symmetry_multiplicity
 _atom_site_fract_x
 _atom_site_fract_y
 _atom_site_fract_z
 _atom_site_occupancy
  Ba  Ba0  1  0.750000  0.141487  0.391487  1
  Ba  Ba1  1  0.250000  0.858513  0.608513  1
  V  V2  1  0.000000  0.000000  0.000000  1
  V  V3  1  0.500000  0.500000  0.000000  1
  Fe  Fe4  1  0.617822  0.617822  0.500000  1
  Fe  Fe5  1  0.882178  0.382178  0.000000  1
  Fe  Fe6  1  0.117822  0.617822  0.000000  1
  Fe  Fe7  1  0.382178  0.382178  0.500000  1
  P  P8  1  0.822035  0.822035  0.500000  1
  P  P9  1  0.677965  0.177965  0.000000  1
  P  P10  1  0.322035  0.822035  0.000000  1
  P  P11  1  0.177965  0.177965  0.500000  1
  P  P12  1  0.750000  0.648279  0.898279  1
  P  P13  1  0.250000  0.351721  0.101721  1
  O  O14  1  0.632575  0.509605  0.642181  1
  O  O15  1  0.132575  0.490395  0.122969  1
  O  O16  1  0.367425  0.490395  0.357819  1
  O  O17  1  0.867425  0.509605  0.877031  1
  O  O18  1  0.157314  0.129273  0.971958  1
  O  O19  1  0.842686  0.870727  0.028042  1
  O  O20  1  0.657314  0.685356  0.028042  1
  O  O21  1  0.342686  0.314644  0.971958  1
  O  O22  1  0.859949  0.794686  0.657150  1
  O  O23  1  0.862465  0.205314  0.065262  1
  O  O24  1  0.359949  0.702798  0.065262  1
  O  O25  1  0.362465  0.297202  0.657150  1
  O  O26  1  0.140051  0.205314  0.342850  1
  O  O27  1  0.137535  0.794686  0.934738  1
  O  O28  1  0.640051  0.297202  0.934738  1
  O  O29  1  0.637535  0.702798  0.342850  1
  O  O30  1  0.847844  0.065397  0.646723  1
  O  O31  1  0.581327  0.934603  0.782448  1
  O  O32  1  0.347844  0.701121  0.782448  1
  O  O33  1  0.081327  0.298879  0.646723  1
  O  O34  1  0.152156  0.934603  0.353277  1
  O  O35  1  0.418673  0.065397  0.217552  1
  O  O36  1  0.652156  0.298879  0.217552  1
  O  O37  1  0.918673  0.701121  0.353277  1
