# generated using pymatgen
data_KRb3(PtI6)2
_symmetry_space_group_name_H-M   'P 1'
_cell_length_a   7.87763379
_cell_length_b   7.87763379
_cell_length_c   12.29117900
_cell_angle_alpha   90.00000000
_cell_angle_beta   90.00000000
_cell_angle_gamma   89.75649234
_symmetry_Int_Tables_number   1
_chemical_formula_structural   KRb3(PtI6)2
_chemical_formula_sum   'K1 Rb3 Pt2 I12'
_cell_volume   762.74820862
_cell_formula_units_Z   1
loop_
 _symmetry_equiv_pos_site_id
 _symmetry_equiv_pos_as_xyz
  1  'x, y, z'
loop_
 _atom_site_type_symbol
 _atom_site_label
 _atom_site_symmetry_multiplicity
 _atom_site_fract_x
 _atom_site_fract_y
 _atom_site_fract_z
 _atom_site_occupancy
  K  K0  1  0.000000  0.500000  0.250000  1
  Rb  Rb1  1  0.500000  0.000000  0.750000  1
  Rb  Rb2  1  0.000000  0.500000  0.750000  1
  Rb  Rb3  1  0.500000  0.000000  0.250000  1
  Pt  Pt4  1  0.500000  0.500000  0.498889  1
  Pt  Pt5  1  0.000000  0.000000  0.001111  1
  I  I6  1  0.714585  0.195880  0.000041  1
  I  I7  1  0.695880  0.214585  0.499959  1
  I  I8  1  0.304120  0.785415  0.499959  1
  I  I9  1  0.285415  0.804120  0.000041  1
  I  I10  1  0.785272  0.692693  0.497583  1
  I  I11  1  0.214728  0.307307  0.497583  1
  I  I12  1  0.000000  0.000000  0.221644  1
  I  I13  1  0.500000  0.500000  0.278356  1
  I  I14  1  0.000000  0.000000  0.779770  1
  I  I15  1  0.500000  0.500000  0.720230  1
  I  I16  1  0.807307  0.714728  0.002417  1
  I  I17  1  0.192693  0.285272  0.002417  1
