# generated using pymatgen
data_CaTh2(SnIr)3
_symmetry_space_group_name_H-M   'P 1'
_cell_length_a   7.57136637
_cell_length_b   7.57136579
_cell_length_c   4.14287600
_cell_angle_alpha   90.00000000
_cell_angle_beta   90.00000000
_cell_angle_gamma   121.02546912
_symmetry_Int_Tables_number   1
_chemical_formula_structural   CaTh2(SnIr)3
_chemical_formula_sum   'Ca1 Th2 Sn3 Ir3'
_cell_volume   203.51665854
_cell_formula_units_Z   1
loop_
 _symmetry_equiv_pos_site_id
 _symmetry_equiv_pos_as_xyz
  1  'x, y, z'
loop_
 _atom_site_type_symbol
 _atom_site_label
 _atom_site_symmetry_multiplicity
 _atom_site_fract_x
 _atom_site_fract_y
 _atom_site_fract_z
 _atom_site_occupancy
  Ca  Ca0  1  0.407973  0.407973  0.500000  1
  Th  Th1  1  0.586559  0.999793  0.500000  1
  Th  Th2  1  0.999793  0.586559  0.500000  1
  Sn  Sn3  1  0.735494  0.735494  0.000000  1
  Sn  Sn4  1  0.251643  0.013764  0.000000  1
  Sn  Sn5  1  0.013764  0.251643  0.000000  1
  Ir  Ir6  1  0.688652  0.329952  0.000000  1
  Ir  Ir7  1  0.329952  0.688652  0.000000  1
  Ir  Ir8  1  0.986170  0.986170  0.500000  1
