# generated using pymatgen
data_Y8Sc11Si16Tc
_symmetry_space_group_name_H-M   'P 1'
_cell_length_a   7.03658720
_cell_length_b   7.36689820
_cell_length_c   13.92658900
_cell_angle_alpha   90.00000000
_cell_angle_beta   90.00000000
_cell_angle_gamma   90.12610838
_symmetry_Int_Tables_number   1
_chemical_formula_structural   Y8Sc11Si16Tc
_chemical_formula_sum   'Y8 Sc11 Si16 Tc1'
_cell_volume   721.92228656
_cell_formula_units_Z   1
loop_
 _symmetry_equiv_pos_site_id
 _symmetry_equiv_pos_as_xyz
  1  'x, y, z'
loop_
 _atom_site_type_symbol
 _atom_site_label
 _atom_site_symmetry_multiplicity
 _atom_site_fract_x
 _atom_site_fract_y
 _atom_site_fract_z
 _atom_site_occupancy
  Y  Y0  1  0.012014  0.176995  0.093754  1
  Y  Y1  1  0.992728  0.818800  0.900361  1
  Y  Y2  1  0.487039  0.672043  0.901576  1
  Y  Y3  1  0.992728  0.818800  0.599639  1
  Y  Y4  1  0.511580  0.324015  0.095581  1
  Y  Y5  1  0.012014  0.176995  0.406246  1
  Y  Y6  1  0.511580  0.324015  0.404419  1
  Y  Y7  1  0.487039  0.672043  0.598424  1
  Sc  Sc8  1  0.841562  0.496963  0.250000  1
  Sc  Sc9  1  0.341803  0.002828  0.250000  1
  Sc  Sc10  1  0.657428  0.996865  0.750000  1
  Sc  Sc11  1  0.326106  0.178694  0.627274  1
  Sc  Sc12  1  0.672165  0.823880  0.374655  1
  Sc  Sc13  1  0.172058  0.674969  0.376758  1
  Sc  Sc14  1  0.672165  0.823880  0.125345  1
  Sc  Sc15  1  0.827951  0.330424  0.628083  1
  Sc  Sc16  1  0.326106  0.178694  0.872726  1
  Sc  Sc17  1  0.827951  0.330424  0.871917  1
  Sc  Sc18  1  0.172058  0.674969  0.123242  1
  Si  Si19  1  0.029704  0.121684  0.750000  1
  Si  Si20  1  0.972047  0.884344  0.250000  1
  Si  Si21  1  0.468443  0.617262  0.250000  1
  Si  Si22  1  0.520135  0.392567  0.750000  1
  Si  Si23  1  0.285239  0.865498  0.750000  1
  Si  Si24  1  0.717191  0.127942  0.250000  1
  Si  Si25  1  0.214804  0.372686  0.250000  1
  Si  Si26  1  0.794258  0.627890  0.750000  1
  Si  Si27  1  0.155332  0.465674  0.547333  1
  Si  Si28  1  0.843176  0.536036  0.463037  1
  Si  Si29  1  0.346163  0.964558  0.462902  1
  Si  Si30  1  0.843176  0.536036  0.036963  1
  Si  Si31  1  0.657267  0.034586  0.540132  1
  Si  Si32  1  0.155332  0.465674  0.952667  1
  Si  Si33  1  0.657267  0.034586  0.959868  1
  Si  Si34  1  0.346163  0.964558  0.037098  1
  Tc  Tc35  1  0.150229  0.492125  0.750000  1
