# generated using pymatgen
data_Na2S5O16
_symmetry_space_group_name_H-M   'P 1'
_cell_length_a   8.98044000
_cell_length_b   10.58449100
_cell_length_c   14.11903700
_cell_angle_alpha   90.00000000
_cell_angle_beta   90.00000000
_cell_angle_gamma   90.00000000
_symmetry_Int_Tables_number   1
_chemical_formula_structural   Na2S5O16
_chemical_formula_sum   'Na8 S20 O64'
_cell_volume   1342.06227894
_cell_formula_units_Z   4
loop_
 _symmetry_equiv_pos_site_id
 _symmetry_equiv_pos_as_xyz
  1  'x, y, z'
loop_
 _atom_site_type_symbol
 _atom_site_label
 _atom_site_symmetry_multiplicity
 _atom_site_fract_x
 _atom_site_fract_y
 _atom_site_fract_z
 _atom_site_occupancy
  Na  Na0  1  0.227754  0.001687  0.051580  1
  Na  Na1  1  0.727754  0.498313  0.948420  1
  Na  Na2  1  0.772246  0.001687  0.448420  1
  Na  Na3  1  0.272246  0.498313  0.551580  1
  Na  Na4  1  0.772246  0.998313  0.948420  1
  Na  Na5  1  0.272246  0.501687  0.051580  1
  Na  Na6  1  0.227754  0.998313  0.551580  1
  Na  Na7  1  0.727754  0.501687  0.448420  1
  S  S8  1  0.000000  0.164127  0.250000  1
  S  S9  1  0.500000  0.335873  0.750000  1
  S  S10  1  0.000000  0.835873  0.750000  1
  S  S11  1  0.500000  0.664127  0.250000  1
  S  S12  1  0.227045  0.353623  0.298078  1
  S  S13  1  0.727045  0.146377  0.701922  1
  S  S14  1  0.772955  0.353623  0.201922  1
  S  S15  1  0.272955  0.146377  0.798078  1
  S  S16  1  0.948423  0.742099  0.063928  1
  S  S17  1  0.448423  0.757901  0.936072  1
  S  S18  1  0.051577  0.742099  0.436072  1
  S  S19  1  0.551577  0.757901  0.563928  1
  S  S20  1  0.051577  0.257901  0.936072  1
  S  S21  1  0.551577  0.242099  0.063928  1
  S  S22  1  0.948423  0.257901  0.563928  1
  S  S23  1  0.448423  0.242099  0.436072  1
  S  S24  1  0.727045  0.853623  0.201922  1
  S  S25  1  0.227045  0.646377  0.798078  1
  S  S26  1  0.272955  0.853623  0.298078  1
  S  S27  1  0.772955  0.646377  0.701922  1
  O  O28  1  0.606526  0.598608  0.306535  1
  O  O29  1  0.106526  0.901392  0.693465  1
  O  O30  1  0.393474  0.598608  0.193465  1
  O  O31  1  0.893474  0.901392  0.806535  1
  O  O32  1  0.393474  0.401392  0.693465  1
  O  O33  1  0.893474  0.098608  0.306535  1
  O  O34  1  0.606526  0.401392  0.806535  1
  O  O35  1  0.106526  0.098608  0.193465  1
  O  O36  1  0.712364  0.883291  0.300161  1
  O  O37  1  0.212364  0.616709  0.699839  1
  O  O38  1  0.287636  0.883291  0.199839  1
  O  O39  1  0.787636  0.616709  0.800161  1
  O  O40  1  0.287636  0.116709  0.699839  1
  O  O41  1  0.787636  0.383291  0.300161  1
  O  O42  1  0.712364  0.116709  0.800161  1
  O  O43  1  0.212364  0.383291  0.199839  1
  O  O44  1  0.710418  0.947670  0.129876  1
  O  O45  1  0.210418  0.552330  0.870124  1
  O  O46  1  0.289582  0.947670  0.370124  1
  O  O47  1  0.789582  0.552330  0.629876  1
  O  O48  1  0.289582  0.052330  0.870124  1
  O  O49  1  0.789582  0.447670  0.129876  1
  O  O50  1  0.942040  0.349331  0.907972  1
  O  O51  1  0.710418  0.052330  0.629876  1
  O  O52  1  0.057960  0.650669  0.092028  1
  O  O53  1  0.557960  0.849331  0.907972  1
  O  O54  1  0.942040  0.650669  0.407972  1
  O  O55  1  0.442040  0.849331  0.592028  1
  O  O56  1  0.079818  0.256662  0.324143  1
  O  O57  1  0.579818  0.243338  0.675857  1
  O  O58  1  0.920182  0.256662  0.175857  1
  O  O59  1  0.420182  0.243338  0.824143  1
  O  O60  1  0.920182  0.743338  0.675857  1
  O  O61  1  0.420182  0.756662  0.324143  1
  O  O62  1  0.079818  0.743338  0.824143  1
  O  O63  1  0.579818  0.756662  0.175857  1
  O  O64  1  0.360688  0.266814  0.313197  1
  O  O65  1  0.860688  0.233186  0.686803  1
  O  O66  1  0.639312  0.266814  0.186803  1
  O  O67  1  0.139312  0.233186  0.813197  1
  O  O68  1  0.639312  0.733186  0.686803  1
  O  O69  1  0.139312  0.766814  0.313197  1
  O  O70  1  0.360688  0.733186  0.813197  1
  O  O71  1  0.860688  0.766814  0.186803  1
  O  O72  1  0.497133  0.369710  0.456418  1
  O  O73  1  0.997133  0.130290  0.543582  1
  O  O74  1  0.502867  0.369710  0.043582  1
  O  O75  1  0.002867  0.130290  0.956418  1
  O  O76  1  0.502867  0.630290  0.543582  1
  O  O77  1  0.002867  0.869710  0.456418  1
  O  O78  1  0.497133  0.630290  0.956418  1
  O  O79  1  0.997133  0.869710  0.043582  1
  O  O80  1  0.320903  0.198850  0.489367  1
  O  O81  1  0.820903  0.301150  0.510633  1
  O  O82  1  0.679097  0.198850  0.010633  1
  O  O83  1  0.179097  0.301150  0.989367  1
  O  O84  1  0.679097  0.801150  0.510633  1
  O  O85  1  0.179097  0.698850  0.489367  1
  O  O86  1  0.320903  0.801150  0.989367  1
  O  O87  1  0.820903  0.698850  0.010633  1
  O  O88  1  0.557960  0.150669  0.407972  1
  O  O89  1  0.057960  0.349331  0.592028  1
  O  O90  1  0.442040  0.150669  0.092028  1
  O  O91  1  0.210418  0.447670  0.370124  1
