# generated using pymatgen
data_Tm4Al4Pd3Rh
_symmetry_space_group_name_H-M   'P 1'
_cell_length_a   4.36655300
_cell_length_b   6.76802929
_cell_length_c   7.83098231
_cell_angle_alpha   90.03276183
_cell_angle_beta   90.00000000
_cell_angle_gamma   90.00000000
_symmetry_Int_Tables_number   1
_chemical_formula_structural   Tm4Al4Pd3Rh
_chemical_formula_sum   'Tm4 Al4 Pd3 Rh1'
_cell_volume   231.42865802
_cell_formula_units_Z   1
loop_
 _symmetry_equiv_pos_site_id
 _symmetry_equiv_pos_as_xyz
  1  'x, y, z'
loop_
 _atom_site_type_symbol
 _atom_site_label
 _atom_site_symmetry_multiplicity
 _atom_site_fract_x
 _atom_site_fract_y
 _atom_site_fract_z
 _atom_site_occupancy
  Tm  Tm0  1  0.250000  0.960633  0.324434  1
  Tm  Tm1  1  0.750000  0.539541  0.818576  1
  Tm  Tm2  1  0.250000  0.464288  0.179035  1
  Tm  Tm3  1  0.750000  0.028771  0.677809  1
  Al  Al4  1  0.750000  0.639146  0.442860  1
  Al  Al5  1  0.750000  0.137744  0.058508  1
  Al  Al6  1  0.250000  0.366905  0.559845  1
  Al  Al7  1  0.250000  0.860809  0.939051  1
  Pd  Pd8  1  0.750000  0.763909  0.124630  1
  Pd  Pd9  1  0.750000  0.264313  0.375973  1
  Pd  Pd10  1  0.250000  0.235266  0.876362  1
  Rh  Rh11  1  0.250000  0.738675  0.622916  1
