# generated using pymatgen
data_NdLu2Ir8Rh
_symmetry_space_group_name_H-M   'P 1'
_cell_length_a   5.31181500
_cell_length_b   5.31181548
_cell_length_c   17.39147400
_cell_angle_alpha   90.00000000
_cell_angle_beta   90.00000000
_cell_angle_gamma   120.00000322
_symmetry_Int_Tables_number   1
_chemical_formula_structural   NdLu2Ir8Rh
_chemical_formula_sum   'Nd2 Lu4 Ir16 Rh2'
_cell_volume   424.96477285
_cell_formula_units_Z   2
loop_
 _symmetry_equiv_pos_site_id
 _symmetry_equiv_pos_as_xyz
  1  'x, y, z'
loop_
 _atom_site_type_symbol
 _atom_site_label
 _atom_site_symmetry_multiplicity
 _atom_site_fract_x
 _atom_site_fract_y
 _atom_site_fract_z
 _atom_site_occupancy
  Nd  Nd0  1  0.333333  0.666667  0.750000  1
  Nd  Nd1  1  0.666667  0.333333  0.250000  1
  Lu  Lu2  1  0.333333  0.666667  0.540330  1
  Lu  Lu3  1  0.666667  0.333333  0.040330  1
  Lu  Lu4  1  0.666667  0.333333  0.459670  1
  Lu  Lu5  1  0.333333  0.666667  0.959670  1
  Ir  Ir6  1  0.168181  0.336360  0.124352  1
  Ir  Ir7  1  0.831819  0.663640  0.624352  1
  Ir  Ir8  1  0.663640  0.831819  0.124352  1
  Ir  Ir9  1  0.168181  0.831819  0.124352  1
  Ir  Ir10  1  0.831819  0.168181  0.624352  1
  Ir  Ir11  1  0.336360  0.168181  0.624352  1
  Ir  Ir12  1  0.831819  0.663640  0.875648  1
  Ir  Ir13  1  0.831819  0.168181  0.875648  1
  Ir  Ir14  1  0.336360  0.168181  0.875648  1
  Ir  Ir15  1  0.663640  0.831819  0.375648  1
  Ir  Ir16  1  0.168181  0.831819  0.375648  1
  Ir  Ir17  1  0.168181  0.336360  0.375648  1
  Ir  Ir18  1  0.000000  0.000000  0.250000  1
  Ir  Ir19  1  0.000000  0.000000  0.750000  1
  Ir  Ir20  1  0.000000  0.000000  0.000000  1
  Ir  Ir21  1  0.000000  0.000000  0.500000  1
  Rh  Rh22  1  0.333333  0.666667  0.250000  1
  Rh  Rh23  1  0.666667  0.333333  0.750000  1
