# generated using pymatgen
data_Er3CdIn3CuRu
_symmetry_space_group_name_H-M   'P 1'
_cell_length_a   7.70115500
_cell_length_b   7.70115486
_cell_length_c   3.89478800
_cell_angle_alpha   90.00000000
_cell_angle_beta   90.00000000
_cell_angle_gamma   119.99999629
_symmetry_Int_Tables_number   1
_chemical_formula_structural   Er3CdIn3CuRu
_chemical_formula_sum   'Er3 Cd1 In3 Cu1 Ru1'
_cell_volume   200.04430516
_cell_formula_units_Z   1
loop_
 _symmetry_equiv_pos_site_id
 _symmetry_equiv_pos_as_xyz
  1  'x, y, z'
loop_
 _atom_site_type_symbol
 _atom_site_label
 _atom_site_symmetry_multiplicity
 _atom_site_fract_x
 _atom_site_fract_y
 _atom_site_fract_z
 _atom_site_occupancy
  Er  Er0  1  0.034269  0.609219  0.500000  1
  Er  Er1  1  0.390781  0.425050  0.500000  1
  Er  Er2  1  0.574950  0.965731  0.500000  1
  Cd  Cd3  1  0.666667  0.333333  0.000000  1
  In  In4  1  0.747886  0.753108  0.000000  1
  In  In5  1  0.005222  0.252114  0.000000  1
  In  In6  1  0.246892  0.994778  0.000000  1
  Cu  Cu7  1  0.000000  0.000000  0.500000  1
  Ru  Ru8  1  0.333333  0.666667  0.000000  1
