# generated using pymatgen
data_Tb5TmAl17Si7Os8
_symmetry_space_group_name_H-M   'P 1'
_cell_length_a   8.71329506
_cell_length_b   8.70237718
_cell_length_c   9.50244100
_cell_angle_alpha   90.00000000
_cell_angle_beta   90.00000000
_cell_angle_gamma   120.10947702
_symmetry_Int_Tables_number   1
_chemical_formula_structural   Tb5TmAl17Si7Os8
_chemical_formula_sum   'Tb5 Tm1 Al17 Si7 Os8'
_cell_volume   623.31270816
_cell_formula_units_Z   1
loop_
 _symmetry_equiv_pos_site_id
 _symmetry_equiv_pos_as_xyz
  1  'x, y, z'
loop_
 _atom_site_type_symbol
 _atom_site_label
 _atom_site_symmetry_multiplicity
 _atom_site_fract_x
 _atom_site_fract_y
 _atom_site_fract_z
 _atom_site_occupancy
  Tb  Tb0  1  0.192203  0.386733  0.250000  1
  Tb  Tb1  1  0.807624  0.615552  0.750000  1
  Tb  Tb2  1  0.612211  0.807848  0.250000  1
  Tb  Tb3  1  0.386563  0.190736  0.750000  1
  Tb  Tb4  1  0.803126  0.191253  0.750000  1
  Tm  Tm5  1  0.197075  0.803830  0.250000  1
  Al  Al6  1  0.164544  0.330015  0.577816  1
  Al  Al7  1  0.834462  0.671095  0.421263  1
  Al  Al8  1  0.670918  0.834747  0.577308  1
  Al  Al9  1  0.834462  0.671095  0.078737  1
  Al  Al10  1  0.329769  0.165635  0.422496  1
  Al  Al11  1  0.164544  0.330015  0.922184  1
  Al  Al12  1  0.163683  0.834242  0.575614  1
  Al  Al13  1  0.329769  0.165635  0.077504  1
  Al  Al14  1  0.835197  0.164501  0.422008  1
  Al  Al15  1  0.670918  0.834747  0.922692  1
  Al  Al16  1  0.835197  0.164501  0.077992  1
  Al  Al17  1  0.163683  0.834242  0.924386  1
  Al  Al18  1  0.125939  0.566050  0.750000  1
  Al  Al19  1  0.564938  0.434654  0.250000  1
  Al  Al20  1  0.438668  0.566666  0.750000  1
  Al  Al21  1  0.000863  0.997866  0.250000  1
  Al  Al22  1  0.999939  0.000984  0.750000  1
  Si  Si23  1  0.333090  0.664921  0.039063  1
  Si  Si24  1  0.666360  0.335956  0.960847  1
  Si  Si25  1  0.666360  0.335956  0.539153  1
  Si  Si26  1  0.333090  0.664921  0.460937  1
  Si  Si27  1  0.563852  0.124026  0.250000  1
  Si  Si28  1  0.436004  0.872938  0.750000  1
  Si  Si29  1  0.875064  0.435624  0.250000  1
  Os  Os30  1  0.500296  0.000669  0.001593  1
  Os  Os31  1  0.998768  0.500057  0.007234  1
  Os  Os32  1  0.500296  0.000669  0.498407  1
  Os  Os33  1  0.500437  0.500324  0.000537  1
  Os  Os34  1  0.998768  0.500057  0.492766  1
  Os  Os35  1  0.500437  0.500324  0.499463  1
  Os  Os36  1  0.000442  0.000458  0.000090  1
  Os  Os37  1  0.000442  0.000458  0.499910  1
