# generated using pymatgen
data_Tb2Y2Al12Pd
_symmetry_space_group_name_H-M   'P 1'
_cell_length_a   7.50766749
_cell_length_b   7.50468351
_cell_length_c   7.50766808
_cell_angle_alpha   109.47074191
_cell_angle_beta   109.48828607
_cell_angle_gamma   109.47074636
_symmetry_Int_Tables_number   1
_chemical_formula_structural   Tb2Y2Al12Pd
_chemical_formula_sum   'Tb2 Y2 Al12 Pd1'
_cell_volume   325.56235838
_cell_formula_units_Z   1
loop_
 _symmetry_equiv_pos_site_id
 _symmetry_equiv_pos_as_xyz
  1  'x, y, z'
loop_
 _atom_site_type_symbol
 _atom_site_label
 _atom_site_symmetry_multiplicity
 _atom_site_fract_x
 _atom_site_fract_y
 _atom_site_fract_z
 _atom_site_occupancy
  Tb  Tb0  1  0.000000  0.500000  0.000000  1
  Tb  Tb1  1  0.500000  0.500000  0.500000  1
  Y  Y2  1  0.000000  0.000000  0.500000  1
  Y  Y3  1  0.500000  0.000000  0.000000  1
  Al  Al4  1  0.749999  0.249929  0.499930  1
  Al  Al5  1  0.750000  0.500000  0.250000  1
  Al  Al6  1  0.499930  0.249929  0.749999  1
  Al  Al7  1  0.250000  0.500000  0.750000  1
  Al  Al8  1  0.250001  0.750071  0.500070  1
  Al  Al9  1  0.500070  0.750071  0.250001  1
  Al  Al10  1  0.705902  0.705925  0.000024  1
  Al  Al11  1  0.294099  0.000000  0.294099  1
  Al  Al12  1  0.999976  0.294075  0.294098  1
  Al  Al13  1  0.294098  0.294075  0.999976  1
  Al  Al14  1  0.705901  0.000000  0.705901  1
  Al  Al15  1  0.000024  0.705925  0.705902  1
  Pd  Pd16  1  0.000000  0.000000  0.000000  1
