# generated using pymatgen
data_Sm12Ta7Mo12WN48
_symmetry_space_group_name_H-M   'P 1'
_cell_length_a   11.22816146
_cell_length_b   11.22816158
_cell_length_c   11.19662600
_cell_angle_alpha   109.41433256
_cell_angle_beta   109.41433278
_cell_angle_gamma   109.52805086
_symmetry_Int_Tables_number   1
_chemical_formula_structural   Sm12Ta7Mo12WN48
_chemical_formula_sum   'Sm12 Ta7 Mo12 W1 N48'
_cell_volume   1087.39416293
_cell_formula_units_Z   1
loop_
 _symmetry_equiv_pos_site_id
 _symmetry_equiv_pos_as_xyz
  1  'x, y, z'
loop_
 _atom_site_type_symbol
 _atom_site_label
 _atom_site_symmetry_multiplicity
 _atom_site_fract_x
 _atom_site_fract_y
 _atom_site_fract_z
 _atom_site_occupancy
  Sm  Sm0  1  0.249918  0.375354  0.124784  1
  Sm  Sm1  1  0.374974  0.750240  0.126446  1
  Sm  Sm2  1  0.375265  0.125025  0.251471  1
  Sm  Sm3  1  0.875354  0.625436  0.250570  1
  Sm  Sm4  1  0.749760  0.124735  0.376205  1
  Sm  Sm5  1  0.125436  0.250082  0.374866  1
  Sm  Sm6  1  0.874564  0.749918  0.625134  1
  Sm  Sm7  1  0.250240  0.875265  0.623794  1
  Sm  Sm8  1  0.124646  0.374563  0.749430  1
  Sm  Sm9  1  0.624735  0.874975  0.748529  1
  Sm  Sm10  1  0.625025  0.249760  0.873554  1
  Sm  Sm11  1  0.750082  0.624646  0.875216  1
  Ta  Ta12  1  0.000000  0.000000  0.000000  1
  Ta  Ta13  1  0.500000  0.000000  0.000000  1
  Ta  Ta14  1  0.000000  0.500000  0.000000  1
  Ta  Ta15  1  0.500000  0.500000  0.000000  1
  Ta  Ta16  1  0.000000  0.000000  0.500000  1
  Ta  Ta17  1  0.000000  0.500000  0.500000  1
  Ta  Ta18  1  0.500000  0.500000  0.500000  1
  Mo  Mo19  1  0.874867  0.249731  0.124397  1
  Mo  Mo20  1  0.749731  0.874866  0.125334  1
  Mo  Mo21  1  0.625135  0.374867  0.250469  1
  Mo  Mo22  1  0.125001  0.874965  0.250029  1
  Mo  Mo23  1  0.250036  0.625001  0.374972  1
  Mo  Mo24  1  0.625035  0.750036  0.375064  1
  Mo  Mo25  1  0.374965  0.249964  0.624936  1
  Mo  Mo26  1  0.749964  0.374999  0.625028  1
  Mo  Mo27  1  0.875000  0.125035  0.749971  1
  Mo  Mo28  1  0.374865  0.625133  0.749531  1
  Mo  Mo29  1  0.250269  0.125135  0.874666  1
  Mo  Mo30  1  0.125133  0.750269  0.875604  1
  W  W31  1  0.500000  0.000000  0.500000  1
  N  N32  1  0.317309  0.900841  0.018553  1
  N  N33  1  0.201488  0.117312  0.017608  1
  N  N34  1  0.882475  0.400521  0.083646  1
  N  N35  1  0.700664  0.683248  0.084208  1
  N  N36  1  0.981852  0.682119  0.098255  1
  N  N37  1  0.617312  0.415825  0.099705  1
  N  N38  1  0.599158  0.916467  0.117711  1
  N  N39  1  0.017416  0.200664  0.116456  1
  N  N40  1  0.201359  0.584169  0.183327  1
  N  N41  1  0.481710  0.599061  0.182201  1
  N  N42  1  0.583532  0.182691  0.201244  1
  N  N43  1  0.117350  0.018290  0.200491  1
  N  N44  1  0.481954  0.382475  0.298829  1
  N  N45  1  0.318213  0.918291  0.304533  1
  N  N46  1  0.900520  0.018046  0.316876  1
  N  N47  1  0.915824  0.298512  0.316121  1
  N  N48  1  0.299733  0.481852  0.383597  1
  N  N49  1  0.581709  0.899921  0.386242  1
  N  N50  1  0.084170  0.882811  0.400843  1
  N  N51  1  0.816752  0.517416  0.400960  1
  N  N52  1  0.817881  0.799733  0.416136  1
  N  N53  1  0.099061  0.617350  0.416860  1
  N  N54  1  0.382811  0.298641  0.481967  1
  N  N55  1  0.600079  0.181788  0.486320  1
  N  N56  1  0.617189  0.701358  0.518032  1
  N  N57  1  0.399921  0.818212  0.513680  1
  N  N58  1  0.182119  0.200267  0.583863  1
  N  N59  1  0.900939  0.382650  0.583141  1
  N  N60  1  0.915830  0.117189  0.599157  1
  N  N61  1  0.183248  0.482584  0.599040  1
  N  N62  1  0.418292  0.100079  0.613758  1
  N  N63  1  0.700266  0.518147  0.616403  1
  N  N64  1  0.084176  0.701488  0.683880  1
  N  N65  1  0.099479  0.981954  0.683124  1
  N  N66  1  0.681788  0.081709  0.695467  1
  N  N67  1  0.518045  0.617525  0.701170  1
  N  N68  1  0.416467  0.817309  0.798756  1
  N  N69  1  0.882650  0.981710  0.799509  1
  N  N70  1  0.518290  0.400939  0.817799  1
  N  N71  1  0.798641  0.415830  0.816673  1
  N  N72  1  0.400842  0.083533  0.882289  1
  N  N73  1  0.982584  0.799336  0.883544  1
  N  N74  1  0.018148  0.317881  0.901744  1
  N  N75  1  0.382688  0.584176  0.900295  1
  N  N76  1  0.299336  0.316753  0.915792  1
  N  N77  1  0.117525  0.599479  0.916354  1
  N  N78  1  0.682691  0.099158  0.981447  1
  N  N79  1  0.798512  0.882688  0.982392  1
