# generated using pymatgen
data_CaPrInRh2
_symmetry_space_group_name_H-M   'P 1'
_cell_length_a   5.73897811
_cell_length_b   5.73897689
_cell_length_c   5.73897720
_cell_angle_alpha   135.35257167
_cell_angle_beta   116.61188286
_cell_angle_gamma   80.82856698
_symmetry_Int_Tables_number   1
_chemical_formula_structural   CaPrInRh2
_chemical_formula_sum   'Ca1 Pr1 In1 Rh2'
_cell_volume   114.87859447
_cell_formula_units_Z   1
loop_
 _symmetry_equiv_pos_site_id
 _symmetry_equiv_pos_as_xyz
  1  'x, y, z'
loop_
 _atom_site_type_symbol
 _atom_site_label
 _atom_site_symmetry_multiplicity
 _atom_site_fract_x
 _atom_site_fract_y
 _atom_site_fract_z
 _atom_site_occupancy
  Ca  Ca0  1  0.295592  0.795592  0.500000  1
  Pr  Pr1  1  0.701089  0.201088  0.500001  1
  In  In2  1  0.001403  0.001403  0.000000  1
  Rh  Rh3  1  0.725674  0.500959  0.224717  1
  Rh  Rh4  1  0.276243  0.500959  0.775285  1
