# generated using pymatgen
data_YEr7(SiPt)8
_symmetry_space_group_name_H-M   'P 1'
_cell_length_a   4.28237400
_cell_length_b   7.45125800
_cell_length_c   14.03489000
_cell_angle_alpha   90.00000000
_cell_angle_beta   90.00000000
_cell_angle_gamma   90.00000000
_symmetry_Int_Tables_number   1
_chemical_formula_structural   YEr7(SiPt)8
_chemical_formula_sum   'Y1 Er7 Si8 Pt8'
_cell_volume   447.84033695
_cell_formula_units_Z   1
loop_
 _symmetry_equiv_pos_site_id
 _symmetry_equiv_pos_as_xyz
  1  'x, y, z'
loop_
 _atom_site_type_symbol
 _atom_site_label
 _atom_site_symmetry_multiplicity
 _atom_site_fract_x
 _atom_site_fract_y
 _atom_site_fract_z
 _atom_site_occupancy
  Y  Y0  1  0.000000  0.300700  0.000000  1
  Er  Er1  1  0.500000  0.795338  0.748981  1
  Er  Er2  1  0.000000  0.204338  0.750391  1
  Er  Er3  1  0.500000  0.795338  0.251019  1
  Er  Er4  1  0.000000  0.204338  0.249609  1
  Er  Er5  1  0.500000  0.706127  0.000000  1
  Er  Er6  1  0.000000  0.294252  0.500000  1
  Er  Er7  1  0.500000  0.699843  0.500000  1
  Si  Si8  1  0.500000  0.406885  0.648266  1
  Si  Si9  1  0.000000  0.593370  0.851338  1
  Si  Si10  1  0.500000  0.406885  0.351734  1
  Si  Si11  1  0.000000  0.593370  0.148662  1
  Si  Si12  1  0.500000  0.092070  0.092673  1
  Si  Si13  1  0.000000  0.907362  0.407975  1
  Si  Si14  1  0.500000  0.092070  0.907327  1
  Si  Si15  1  0.000000  0.907362  0.592025  1
  Pt  Pt16  1  0.500000  0.076433  0.608422  1
  Pt  Pt17  1  0.000000  0.922860  0.891185  1
  Pt  Pt18  1  0.500000  0.076433  0.391578  1
  Pt  Pt19  1  0.000000  0.922860  0.108815  1
  Pt  Pt20  1  0.500000  0.420799  0.154829  1
  Pt  Pt21  1  0.000000  0.580084  0.346888  1
  Pt  Pt22  1  0.500000  0.420799  0.845171  1
  Pt  Pt23  1  0.000000  0.580084  0.653112  1
