# generated using pymatgen
data_Th4MnIr13
_symmetry_space_group_name_H-M   'P 1'
_cell_length_a   5.38051668
_cell_length_b   5.38051711
_cell_length_c   13.52944522
_cell_angle_alpha   78.53059287
_cell_angle_beta   78.53059201
_cell_angle_gamma   59.99999526
_symmetry_Int_Tables_number   1
_chemical_formula_structural   Th4MnIr13
_chemical_formula_sum   'Th4 Mn1 Ir13'
_cell_volume   330.13990683
_cell_formula_units_Z   1
loop_
 _symmetry_equiv_pos_site_id
 _symmetry_equiv_pos_as_xyz
  1  'x, y, z'
loop_
 _atom_site_type_symbol
 _atom_site_label
 _atom_site_symmetry_multiplicity
 _atom_site_fract_x
 _atom_site_fract_y
 _atom_site_fract_z
 _atom_site_occupancy
  Th  Th0  1  0.949557  0.949557  0.151330  1
  Th  Th1  1  0.048468  0.048468  0.854594  1
  Th  Th2  1  0.852934  0.852934  0.441200  1
  Th  Th3  1  0.146185  0.146185  0.561445  1
  Mn  Mn4  1  0.389038  0.389038  0.832884  1
  Ir  Ir5  1  0.389725  0.389725  0.328745  1
  Ir  Ir6  1  0.891806  0.389725  0.328745  1
  Ir  Ir7  1  0.389725  0.891806  0.328745  1
  Ir  Ir8  1  0.609226  0.609226  0.671875  1
  Ir  Ir9  1  0.109673  0.609226  0.671875  1
  Ir  Ir10  1  0.609226  0.109673  0.671875  1
  Ir  Ir11  1  0.001243  0.500430  0.997896  1
  Ir  Ir12  1  0.500430  0.001243  0.997896  1
  Ir  Ir13  1  0.500430  0.500430  0.997896  1
  Ir  Ir14  1  0.722230  0.722230  0.833309  1
  Ir  Ir15  1  0.278516  0.278516  0.164453  1
  Ir  Ir16  1  0.611801  0.611801  0.164600  1
  Ir  Ir17  1  0.499787  0.499787  0.500640  1
