# generated using pymatgen
data_PrNd2Cd3Sn2Au
_symmetry_space_group_name_H-M   'P 1'
_cell_length_a   7.60840100
_cell_length_b   7.61247615
_cell_length_c   4.69361500
_cell_angle_alpha   90.00000000
_cell_angle_beta   90.00000000
_cell_angle_gamma   119.98228880
_symmetry_Int_Tables_number   1
_chemical_formula_structural   PrNd2Cd3Sn2Au
_chemical_formula_sum   'Pr1 Nd2 Cd3 Sn2 Au1'
_cell_volume   235.46963730
_cell_formula_units_Z   1
loop_
 _symmetry_equiv_pos_site_id
 _symmetry_equiv_pos_as_xyz
  1  'x, y, z'
loop_
 _atom_site_type_symbol
 _atom_site_label
 _atom_site_symmetry_multiplicity
 _atom_site_fract_x
 _atom_site_fract_y
 _atom_site_fract_z
 _atom_site_occupancy
  Pr  Pr0  1  0.593089  0.000000  0.000000  1
  Nd  Nd1  1  0.999945  0.593381  0.000000  1
  Nd  Nd2  1  0.406565  0.406619  0.000000  1
  Cd  Cd3  1  0.237045  0.000000  0.500000  1
  Cd  Cd4  1  0.000197  0.237347  0.500000  1
  Cd  Cd5  1  0.762850  0.762653  0.500000  1
  Sn  Sn6  1  0.332771  0.665867  0.500000  1
  Sn  Sn7  1  0.666905  0.334133  0.500000  1
  Au  Au8  1  0.000632  0.000000  0.000000  1
