# generated using pymatgen
data_Nd6Al4Pt13
_symmetry_space_group_name_H-M   'P 1'
_cell_length_a   8.40816923
_cell_length_b   8.40816886
_cell_length_c   8.40817000
_cell_angle_alpha   109.47122097
_cell_angle_beta   109.47122008
_cell_angle_gamma   109.47122208
_symmetry_Int_Tables_number   1
_chemical_formula_structural   Nd6Al4Pt13
_chemical_formula_sum   'Nd6 Al4 Pt13'
_cell_volume   457.59624886
_cell_formula_units_Z   1
loop_
 _symmetry_equiv_pos_site_id
 _symmetry_equiv_pos_as_xyz
  1  'x, y, z'
loop_
 _atom_site_type_symbol
 _atom_site_label
 _atom_site_symmetry_multiplicity
 _atom_site_fract_x
 _atom_site_fract_y
 _atom_site_fract_z
 _atom_site_occupancy
  Nd  Nd0  1  0.699416  0.699416  0.000000  1
  Nd  Nd1  1  0.300584  0.000000  0.300584  1
  Nd  Nd2  1  0.000000  0.300584  0.300584  1
  Nd  Nd3  1  0.300584  0.300584  0.000000  1
  Nd  Nd4  1  0.699416  0.000000  0.699416  1
  Nd  Nd5  1  0.000000  0.699416  0.699416  1
  Al  Al6  1  0.000000  0.000000  0.500000  1
  Al  Al7  1  0.000000  0.500000  0.000000  1
  Al  Al8  1  0.500000  0.000000  0.000000  1
  Al  Al9  1  0.500000  0.500000  0.500000  1
  Pt  Pt10  1  0.319175  0.319175  0.638348  1
  Pt  Pt11  1  0.680825  0.000000  0.319175  1
  Pt  Pt12  1  0.000000  0.680825  0.319175  1
  Pt  Pt13  1  0.680825  0.319175  0.000000  1
  Pt  Pt14  1  0.319175  0.638348  0.319175  1
  Pt  Pt15  1  0.000000  0.319175  0.680825  1
  Pt  Pt16  1  0.319175  0.680825  0.000000  1
  Pt  Pt17  1  0.319175  0.000000  0.680825  1
  Pt  Pt18  1  0.638348  0.319175  0.319175  1
  Pt  Pt19  1  0.680825  0.680825  0.361652  1
  Pt  Pt20  1  0.680825  0.361652  0.680825  1
  Pt  Pt21  1  0.361652  0.680825  0.680825  1
  Pt  Pt22  1  0.000000  0.000000  0.000000  1
