# generated using pymatgen
data_SmY6IrI12
_symmetry_space_group_name_H-M   'P 1'
_cell_length_a   9.81892779
_cell_length_b   9.81339685
_cell_length_c   9.81432200
_cell_angle_alpha   106.84624862
_cell_angle_beta   106.87992536
_cell_angle_gamma   106.88531280
_symmetry_Int_Tables_number   1
_chemical_formula_structural   SmY6IrI12
_chemical_formula_sum   'Sm1 Y6 Ir1 I12'
_cell_volume   790.33618410
_cell_formula_units_Z   1
loop_
 _symmetry_equiv_pos_site_id
 _symmetry_equiv_pos_as_xyz
  1  'x, y, z'
loop_
 _atom_site_type_symbol
 _atom_site_label
 _atom_site_symmetry_multiplicity
 _atom_site_fract_x
 _atom_site_fract_y
 _atom_site_fract_z
 _atom_site_occupancy
  Sm  Sm0  1  0.300722  0.096490  0.022022  1
  Y  Y1  1  0.499456  0.499859  0.500093  1
  Y  Y2  1  0.903563  0.977436  0.702907  1
  Y  Y3  1  0.976787  0.702759  0.905057  1
  Y  Y4  1  0.703817  0.905052  0.977794  1
  Y  Y5  1  0.093967  0.021818  0.296521  1
  Y  Y6  1  0.021910  0.296725  0.094929  1
  Ir  Ir7  1  0.999851  0.999848  0.999734  1
  I  I8  1  0.536811  0.837877  0.613999  1
  I  I9  1  0.837578  0.613919  0.537135  1
  I  I10  1  0.613846  0.536861  0.837869  1
  I  I11  1  0.463396  0.162540  0.389568  1
  I  I12  1  0.161589  0.385918  0.462844  1
  I  I13  1  0.386138  0.467541  0.164205  1
  I  I14  1  0.679413  0.226151  0.071203  1
  I  I15  1  0.221842  0.068906  0.670604  1
  I  I16  1  0.069762  0.674868  0.224199  1
  I  I17  1  0.324229  0.770390  0.928334  1
  I  I18  1  0.775335  0.930028  0.325290  1
  I  I19  1  0.929985  0.325014  0.775690  1
