# generated using pymatgen
data_Er9Sc(SiB4)4
_symmetry_space_group_name_H-M   'P 1'
_cell_length_a   7.15569000
_cell_length_b   7.15569000
_cell_length_c   7.93386500
_cell_angle_alpha   90.00000000
_cell_angle_beta   90.00000000
_cell_angle_gamma   90.00000000
_symmetry_Int_Tables_number   1
_chemical_formula_structural   Er9Sc(SiB4)4
_chemical_formula_sum   'Er9 Sc1 Si4 B16'
_cell_volume   406.24482512
_cell_formula_units_Z   1
loop_
 _symmetry_equiv_pos_site_id
 _symmetry_equiv_pos_as_xyz
  1  'x, y, z'
loop_
 _atom_site_type_symbol
 _atom_site_label
 _atom_site_symmetry_multiplicity
 _atom_site_fract_x
 _atom_site_fract_y
 _atom_site_fract_z
 _atom_site_occupancy
  Er  Er0  1  0.680997  0.179683  0.225917  1
  Er  Er1  1  0.319003  0.820317  0.774083  1
  Er  Er2  1  0.319003  0.820317  0.225917  1
  Er  Er3  1  0.820317  0.680997  0.225917  1
  Er  Er4  1  0.820317  0.680997  0.774083  1
  Er  Er5  1  0.680997  0.179683  0.774083  1
  Er  Er6  1  0.179683  0.319003  0.774083  1
  Er  Er7  1  0.179683  0.319003  0.225917  1
  Er  Er8  1  0.500000  0.500000  0.500000  1
  Sc  Sc9  1  0.000000  0.000000  0.500000  1
  Si  Si10  1  0.111011  0.622813  0.500000  1
  Si  Si11  1  0.888989  0.377187  0.500000  1
  Si  Si12  1  0.377187  0.111011  0.500000  1
  Si  Si13  1  0.622813  0.888989  0.500000  1
  B  B14  1  0.173165  0.039009  0.000000  1
  B  B15  1  0.826835  0.960991  0.000000  1
  B  B16  1  0.960991  0.173165  0.000000  1
  B  B17  1  0.327136  0.539234  0.000000  1
  B  B18  1  0.039009  0.826835  0.000000  1
  B  B19  1  0.672864  0.460766  0.000000  1
  B  B20  1  0.539234  0.672864  0.000000  1
  B  B21  1  0.460766  0.327136  0.000000  1
  B  B22  1  0.089223  0.589135  0.000000  1
  B  B23  1  0.910777  0.410865  0.000000  1
  B  B24  1  0.410865  0.089223  0.000000  1
  B  B25  1  0.589135  0.910777  0.000000  1
  B  B26  1  0.000000  0.000000  0.166524  1
  B  B27  1  0.000000  0.000000  0.833476  1
  B  B28  1  0.500000  0.500000  0.834097  1
  B  B29  1  0.500000  0.500000  0.165903  1
