# generated using pymatgen
data_Ti16Ir7AuO4
_symmetry_space_group_name_H-M   'P 1'
_cell_length_a   8.28830877
_cell_length_b   8.26792585
_cell_length_c   8.26792600
_cell_angle_alpha   59.99999941
_cell_angle_beta   60.08131705
_cell_angle_gamma   60.08131665
_symmetry_Int_Tables_number   1
_chemical_formula_structural   Ti16Ir7AuO4
_chemical_formula_sum   'Ti16 Ir7 Au1 O4'
_cell_volume   401.12227264
_cell_formula_units_Z   1
loop_
 _symmetry_equiv_pos_site_id
 _symmetry_equiv_pos_as_xyz
  1  'x, y, z'
loop_
 _atom_site_type_symbol
 _atom_site_label
 _atom_site_symmetry_multiplicity
 _atom_site_fract_x
 _atom_site_fract_y
 _atom_site_fract_z
 _atom_site_occupancy
  Ti  Ti0  1  0.818575  0.180896  0.819634  1
  Ti  Ti1  1  0.181080  0.818270  0.182379  1
  Ti  Ti2  1  0.433592  0.066892  0.432625  1
  Ti  Ti3  1  0.433592  0.066892  0.066892  1
  Ti  Ti4  1  0.073501  0.433822  0.433822  1
  Ti  Ti5  1  0.073501  0.433822  0.058854  1
  Ti  Ti6  1  0.181080  0.182379  0.818270  1
  Ti  Ti7  1  0.433592  0.432625  0.066892  1
  Ti  Ti8  1  0.128613  0.623795  0.623795  1
  Ti  Ti9  1  0.619798  0.630034  0.120134  1
  Ti  Ti10  1  0.619798  0.630034  0.630034  1
  Ti  Ti11  1  0.619798  0.120134  0.630034  1
  Ti  Ti12  1  0.181080  0.818270  0.818270  1
  Ti  Ti13  1  0.818575  0.180896  0.180896  1
  Ti  Ti14  1  0.073501  0.058854  0.433822  1
  Ti  Ti15  1  0.818575  0.819634  0.180896  1
  Ir  Ir16  1  0.406373  0.779800  0.406913  1
  Ir  Ir17  1  0.843247  0.840563  0.475627  1
  Ir  Ir18  1  0.843247  0.840563  0.840563  1
  Ir  Ir19  1  0.474302  0.841899  0.841899  1
  Ir  Ir20  1  0.406373  0.406913  0.406913  1
  Ir  Ir21  1  0.406373  0.406913  0.779800  1
  Ir  Ir22  1  0.843247  0.475627  0.840563  1
  Au  Au23  1  0.770190  0.409937  0.409937  1
  O  O24  1  0.124671  0.125288  0.624752  1
  O  O25  1  0.624383  0.125205  0.125205  1
  O  O26  1  0.124671  0.125288  0.125288  1
  O  O27  1  0.124671  0.624752  0.125288  1
