# generated using pymatgen
data_Tm20(Ir3Os)3
_symmetry_space_group_name_H-M   'P 1'
_cell_length_a   10.71161700
_cell_length_b   10.71161700
_cell_length_c   6.34001300
_cell_angle_alpha   90.00000000
_cell_angle_beta   90.00000000
_cell_angle_gamma   90.00000000
_symmetry_Int_Tables_number   1
_chemical_formula_structural   Tm20(Ir3Os)3
_chemical_formula_sum   'Tm20 Ir9 Os3'
_cell_volume   727.44509531
_cell_formula_units_Z   1
loop_
 _symmetry_equiv_pos_site_id
 _symmetry_equiv_pos_as_xyz
  1  'x, y, z'
loop_
 _atom_site_type_symbol
 _atom_site_label
 _atom_site_symmetry_multiplicity
 _atom_site_fract_x
 _atom_site_fract_y
 _atom_site_fract_z
 _atom_site_occupancy
  Tm  Tm0  1  0.293881  0.086071  0.376200  1
  Tm  Tm1  1  0.293883  0.914066  0.876176  1
  Tm  Tm2  1  0.706117  0.085934  0.876176  1
  Tm  Tm3  1  0.706119  0.913929  0.376200  1
  Tm  Tm4  1  0.585934  0.793883  0.876176  1
  Tm  Tm5  1  0.586071  0.206119  0.376200  1
  Tm  Tm6  1  0.413929  0.793881  0.376200  1
  Tm  Tm7  1  0.414066  0.206117  0.876176  1
  Tm  Tm8  1  0.207913  0.413434  0.625267  1
  Tm  Tm9  1  0.207529  0.586665  0.121410  1
  Tm  Tm10  1  0.792471  0.413335  0.121410  1
  Tm  Tm11  1  0.792087  0.586566  0.625267  1
  Tm  Tm12  1  0.913335  0.707529  0.121410  1
  Tm  Tm13  1  0.913434  0.292087  0.625267  1
  Tm  Tm14  1  0.086566  0.707913  0.625267  1
  Tm  Tm15  1  0.086665  0.292471  0.121410  1
  Tm  Tm16  1  0.000000  0.000000  0.500051  1
  Tm  Tm17  1  0.000000  0.000000  0.000126  1
  Tm  Tm18  1  0.500000  0.500000  0.000126  1
  Tm  Tm19  1  0.500000  0.500000  0.500051  1
  Ir  Ir20  1  0.848064  0.153094  0.250418  1
  Ir  Ir21  1  0.847924  0.847074  0.749875  1
  Ir  Ir22  1  0.152076  0.152926  0.749875  1
  Ir  Ir23  1  0.151936  0.846906  0.250418  1
  Ir  Ir24  1  0.652926  0.347924  0.749875  1
  Ir  Ir25  1  0.653094  0.651936  0.250418  1
  Ir  Ir26  1  0.346906  0.348064  0.250418  1
  Ir  Ir27  1  0.347074  0.652076  0.749875  1
  Ir  Ir28  1  0.000000  0.500000  0.378231  1
  Os  Os29  1  0.500000  0.000000  0.123720  1
  Os  Os30  1  0.500000  0.000000  0.623514  1
  Os  Os31  1  0.000000  0.500000  0.876796  1
