# generated using pymatgen
data_Hf4BeS
_symmetry_space_group_name_H-M   'P 1'
_cell_length_a   5.16865072
_cell_length_b   5.16865141
_cell_length_c   5.16865100
_cell_angle_alpha   103.87648802
_cell_angle_beta   103.87646706
_cell_angle_gamma   121.35513594
_symmetry_Int_Tables_number   1
_chemical_formula_structural   Hf4BeS
_chemical_formula_sum   'Hf4 Be1 S1'
_cell_volume   102.80728504
_cell_formula_units_Z   1
loop_
 _symmetry_equiv_pos_site_id
 _symmetry_equiv_pos_as_xyz
  1  'x, y, z'
loop_
 _atom_site_type_symbol
 _atom_site_label
 _atom_site_symmetry_multiplicity
 _atom_site_fract_x
 _atom_site_fract_y
 _atom_site_fract_z
 _atom_site_occupancy
  Hf  Hf0  1  0.657725  0.157725  0.815448  1
  Hf  Hf1  1  0.842275  0.657725  0.500000  1
  Hf  Hf2  1  0.157725  0.342275  0.500000  1
  Hf  Hf3  1  0.342275  0.842275  0.184552  1
  Be  Be4  1  0.250000  0.250000  0.000000  1
  S  S5  1  0.750000  0.750000  0.000000  1
