# generated using pymatgen
data_Tm5HgIr2
_symmetry_space_group_name_H-M   'P 1'
_cell_length_a   7.62309100
_cell_length_b   7.62309100
_cell_length_c   12.99241000
_cell_angle_alpha   90.00000000
_cell_angle_beta   90.00000000
_cell_angle_gamma   90.00000000
_symmetry_Int_Tables_number   1
_chemical_formula_structural   Tm5HgIr2
_chemical_formula_sum   'Tm20 Hg4 Ir8'
_cell_volume   755.00864672
_cell_formula_units_Z   4
loop_
 _symmetry_equiv_pos_site_id
 _symmetry_equiv_pos_as_xyz
  1  'x, y, z'
loop_
 _atom_site_type_symbol
 _atom_site_label
 _atom_site_symmetry_multiplicity
 _atom_site_fract_x
 _atom_site_fract_y
 _atom_site_fract_z
 _atom_site_occupancy
  Tm  Tm0  1  0.842668  0.841529  0.886639  1
  Tm  Tm1  1  0.158471  0.157332  0.613361  1
  Tm  Tm2  1  0.842668  0.158471  0.386639  1
  Tm  Tm3  1  0.157332  0.841529  0.386639  1
  Tm  Tm4  1  0.341529  0.342668  0.386639  1
  Tm  Tm5  1  0.841529  0.157332  0.113361  1
  Tm  Tm6  1  0.341529  0.657332  0.886639  1
  Tm  Tm7  1  0.158471  0.842668  0.113361  1
  Tm  Tm8  1  0.500000  0.000000  0.750945  1
  Tm  Tm9  1  0.000000  0.500000  0.249055  1
  Tm  Tm10  1  0.342668  0.658471  0.613361  1
  Tm  Tm11  1  0.657332  0.658471  0.113361  1
  Tm  Tm12  1  0.657332  0.341529  0.613361  1
  Tm  Tm13  1  0.000000  0.500000  0.749055  1
  Tm  Tm14  1  0.841529  0.842668  0.613361  1
  Tm  Tm15  1  0.658471  0.342668  0.886639  1
  Tm  Tm16  1  0.157332  0.158471  0.886639  1
  Tm  Tm17  1  0.500000  0.000000  0.250945  1
  Tm  Tm18  1  0.658471  0.657332  0.386639  1
  Tm  Tm19  1  0.342668  0.341529  0.113361  1
  Hg  Hg20  1  0.000000  0.500000  0.999990  1
  Hg  Hg21  1  0.500000  0.000000  0.000010  1
  Hg  Hg22  1  0.500000  0.000000  0.500010  1
  Hg  Hg23  1  0.000000  0.500000  0.499990  1
  Ir  Ir24  1  0.642195  0.357805  0.250000  1
  Ir  Ir25  1  0.357805  0.642195  0.250000  1
  Ir  Ir26  1  0.142195  0.142195  0.250000  1
  Ir  Ir27  1  0.357805  0.357805  0.750000  1
  Ir  Ir28  1  0.142195  0.857805  0.750000  1
  Ir  Ir29  1  0.857805  0.857805  0.250000  1
  Ir  Ir30  1  0.642195  0.642195  0.750000  1
  Ir  Ir31  1  0.857805  0.142195  0.750000  1
