# generated using pymatgen
data_Dy3In4CuRu
_symmetry_space_group_name_H-M   'P 1'
_cell_length_a   8.00882900
_cell_length_b   8.00882893
_cell_length_c   3.67789800
_cell_angle_alpha   90.00000000
_cell_angle_beta   90.00000000
_cell_angle_gamma   120.00000442
_symmetry_Int_Tables_number   1
_chemical_formula_structural   Dy3In4CuRu
_chemical_formula_sum   'Dy3 In4 Cu1 Ru1'
_cell_volume   204.29998333
_cell_formula_units_Z   1
loop_
 _symmetry_equiv_pos_site_id
 _symmetry_equiv_pos_as_xyz
  1  'x, y, z'
loop_
 _atom_site_type_symbol
 _atom_site_label
 _atom_site_symmetry_multiplicity
 _atom_site_fract_x
 _atom_site_fract_y
 _atom_site_fract_z
 _atom_site_occupancy
  Dy  Dy0  1  0.048353  0.295326  0.500000  1
  Dy  Dy1  1  0.704674  0.753027  0.500000  1
  Dy  Dy2  1  0.246973  0.951647  0.500000  1
  In  In3  1  0.666545  0.075875  0.000000  1
  In  In4  1  0.924125  0.590670  0.000000  1
  In  In5  1  0.409330  0.333455  0.000000  1
  In  In6  1  0.333333  0.666667  0.000000  1
  Cu  Cu7  1  0.666667  0.333333  0.500000  1
  Ru  Ru8  1  0.000000  0.000000  0.000000  1
