# generated using pymatgen
data_YTm3(InRh2)4
_symmetry_space_group_name_H-M   'P 1'
_cell_length_a   6.32504800
_cell_length_b   6.32496700
_cell_length_c   7.21238200
_cell_angle_alpha   89.99823381
_cell_angle_beta   90.00118176
_cell_angle_gamma   90.00112330
_symmetry_Int_Tables_number   1
_chemical_formula_structural   YTm3(InRh2)4
_chemical_formula_sum   'Y1 Tm3 In4 Rh8'
_cell_volume   288.53653393
_cell_formula_units_Z   1
loop_
 _symmetry_equiv_pos_site_id
 _symmetry_equiv_pos_as_xyz
  1  'x, y, z'
loop_
 _atom_site_type_symbol
 _atom_site_label
 _atom_site_symmetry_multiplicity
 _atom_site_fract_x
 _atom_site_fract_y
 _atom_site_fract_z
 _atom_site_occupancy
  Y  Y0  1  0.249963  0.749990  0.499994  1
  Tm  Tm1  1  0.749965  0.250005  0.000011  1
  Tm  Tm2  1  0.250031  0.749994  0.000003  1
  Tm  Tm3  1  0.750035  0.250002  0.499984  1
  In  In4  1  0.249984  0.249998  0.999905  1
  In  In5  1  0.750015  0.749999  0.000096  1
  In  In6  1  0.250001  0.250000  0.499816  1
  In  In7  1  0.750001  0.749996  0.500187  1
  Rh  Rh8  1  0.998555  0.001434  0.248020  1
  Rh  Rh9  1  0.998552  0.498568  0.248028  1
  Rh  Rh10  1  0.501449  0.001436  0.248045  1
  Rh  Rh11  1  0.501458  0.498555  0.248041  1
  Rh  Rh12  1  0.501456  0.001466  0.751957  1
  Rh  Rh13  1  0.501435  0.498555  0.751930  1
  Rh  Rh14  1  0.998546  0.001460  0.751997  1
  Rh  Rh15  1  0.998554  0.498542  0.751988  1
