# generated using pymatgen
data_LiAg3(PtO3)2
_symmetry_space_group_name_H-M   'P 1'
_cell_length_a   5.38451461
_cell_length_b   5.38459577
_cell_length_c   6.54044881
_cell_angle_alpha   74.06631845
_cell_angle_beta   97.88956982
_cell_angle_gamma   120.00050589
_symmetry_Int_Tables_number   1
_chemical_formula_structural   LiAg3(PtO3)2
_chemical_formula_sum   'Li1 Ag3 Pt2 O6'
_cell_volume   157.91416892
_cell_formula_units_Z   1
loop_
 _symmetry_equiv_pos_site_id
 _symmetry_equiv_pos_as_xyz
  1  'x, y, z'
loop_
 _atom_site_type_symbol
 _atom_site_label
 _atom_site_symmetry_multiplicity
 _atom_site_fract_x
 _atom_site_fract_y
 _atom_site_fract_z
 _atom_site_occupancy
  Li  Li0  1  0.333333  0.166667  0.500000  1
  Ag  Ag1  1  0.678018  0.339008  0.000000  1
  Ag  Ag2  1  0.333333  0.666667  0.000000  1
  Ag  Ag3  1  0.988649  0.994325  0.000000  1
  Pt  Pt4  1  0.000053  0.500026  0.500000  1
  Pt  Pt5  1  0.666614  0.833307  0.500000  1
  O  O6  1  0.333333  0.770894  0.662393  1
  O  O7  1  0.992298  0.112755  0.662409  1
  O  O8  1  0.674369  0.453791  0.662409  1
  O  O9  1  0.674369  0.220578  0.337591  1
  O  O10  1  0.333333  0.562440  0.337607  1
  O  O11  1  0.992298  0.879542  0.337591  1
