# generated using pymatgen
data_Lu4Al2Ga2IrPt3
_symmetry_space_group_name_H-M   'P 1'
_cell_length_a   4.35930400
_cell_length_b   6.71385816
_cell_length_c   7.73952243
_cell_angle_alpha   89.86521827
_cell_angle_beta   90.00000000
_cell_angle_gamma   90.00000000
_symmetry_Int_Tables_number   1
_chemical_formula_structural   Lu4Al2Ga2IrPt3
_chemical_formula_sum   'Lu4 Al2 Ga2 Ir1 Pt3'
_cell_volume   226.51777124
_cell_formula_units_Z   1
loop_
 _symmetry_equiv_pos_site_id
 _symmetry_equiv_pos_as_xyz
  1  'x, y, z'
loop_
 _atom_site_type_symbol
 _atom_site_label
 _atom_site_symmetry_multiplicity
 _atom_site_fract_x
 _atom_site_fract_y
 _atom_site_fract_z
 _atom_site_occupancy
  Lu  Lu0  1  0.250000  0.031859  0.682405  1
  Lu  Lu1  1  0.250000  0.528339  0.821092  1
  Lu  Lu2  1  0.750000  0.974706  0.315712  1
  Lu  Lu3  1  0.750000  0.471326  0.181127  1
  Al  Al4  1  0.250000  0.639515  0.439310  1
  Al  Al5  1  0.750000  0.353994  0.559025  1
  Ga  Ga6  1  0.250000  0.155414  0.064318  1
  Ga  Ga7  1  0.750000  0.847184  0.937647  1
  Ir  Ir8  1  0.250000  0.263928  0.383717  1
  Pt  Pt9  1  0.250000  0.766128  0.123590  1
  Pt  Pt10  1  0.750000  0.731960  0.616089  1
  Pt  Pt11  1  0.750000  0.235645  0.875968  1
