# generated using pymatgen
data_SrPr(Ga3Pt)2
_symmetry_space_group_name_H-M   'P 1'
_cell_length_a   6.18123096
_cell_length_b   6.18123023
_cell_length_c   5.99361700
_cell_angle_alpha   90.00000000
_cell_angle_beta   90.00000000
_cell_angle_gamma   117.69643019
_symmetry_Int_Tables_number   1
_chemical_formula_structural   SrPr(Ga3Pt)2
_chemical_formula_sum   'Sr1 Pr1 Ga6 Pt2'
_cell_volume   202.76335781
_cell_formula_units_Z   1
loop_
 _symmetry_equiv_pos_site_id
 _symmetry_equiv_pos_as_xyz
  1  'x, y, z'
loop_
 _atom_site_type_symbol
 _atom_site_label
 _atom_site_symmetry_multiplicity
 _atom_site_fract_x
 _atom_site_fract_y
 _atom_site_fract_z
 _atom_site_occupancy
  Sr  Sr0  1  0.766191  0.233809  0.250000  1
  Pr  Pr1  1  0.229542  0.770458  0.750000  1
  Ga  Ga2  1  0.661580  0.338420  0.750000  1
  Ga  Ga3  1  0.340400  0.659600  0.250000  1
  Ga  Ga4  1  0.722887  0.722624  0.997973  1
  Ga  Ga5  1  0.722887  0.722624  0.502027  1
  Ga  Ga6  1  0.277376  0.277113  0.997973  1
  Ga  Ga7  1  0.277376  0.277113  0.502027  1
  Pt  Pt8  1  0.897368  0.102632  0.750000  1
  Pt  Pt9  1  0.104391  0.895609  0.250000  1
