# generated using pymatgen
data_DyY5(Ho2Si3)2
_symmetry_space_group_name_H-M   'P 1'
_cell_length_a   8.43789100
_cell_length_b   8.43850913
_cell_length_c   6.34589200
_cell_angle_alpha   90.00000000
_cell_angle_beta   90.00000000
_cell_angle_gamma   119.99757297
_symmetry_Int_Tables_number   1
_chemical_formula_structural   DyY5(Ho2Si3)2
_chemical_formula_sum   'Dy1 Y5 Ho4 Si6'
_cell_volume   391.32136954
_cell_formula_units_Z   1
loop_
 _symmetry_equiv_pos_site_id
 _symmetry_equiv_pos_as_xyz
  1  'x, y, z'
loop_
 _atom_site_type_symbol
 _atom_site_label
 _atom_site_symmetry_multiplicity
 _atom_site_fract_x
 _atom_site_fract_y
 _atom_site_fract_z
 _atom_site_occupancy
  Dy  Dy0  1  0.243358  0.000000  0.250000  1
  Y  Y1  1  0.000068  0.756723  0.750000  1
  Y  Y2  1  0.000030  0.243270  0.250000  1
  Y  Y3  1  0.756760  0.756730  0.250000  1
  Y  Y4  1  0.756654  0.000000  0.750000  1
  Y  Y5  1  0.243345  0.243277  0.750000  1
  Ho  Ho6  1  0.333327  0.666705  0.499981  1
  Ho  Ho7  1  0.666623  0.333295  0.000019  1
  Ho  Ho8  1  0.666623  0.333295  0.499981  1
  Ho  Ho9  1  0.333327  0.666705  0.000019  1
  Si  Si10  1  0.394639  0.000000  0.750000  1
  Si  Si11  1  0.394657  0.394626  0.250000  1
  Si  Si12  1  0.000031  0.605374  0.250000  1
  Si  Si13  1  0.999969  0.394654  0.750000  1
  Si  Si14  1  0.605315  0.605346  0.750000  1
  Si  Si15  1  0.605273  0.000000  0.250000  1
