# generated using pymatgen
data_Lu4Tc5Mo3
_symmetry_space_group_name_H-M   'P 1'
_cell_length_a   5.43980581
_cell_length_b   5.43980596
_cell_length_c   8.63990900
_cell_angle_alpha   90.00000000
_cell_angle_beta   90.00000000
_cell_angle_gamma   119.93750859
_symmetry_Int_Tables_number   1
_chemical_formula_structural   Lu4Tc5Mo3
_chemical_formula_sum   'Lu4 Tc5 Mo3'
_cell_volume   221.55407289
_cell_formula_units_Z   1
loop_
 _symmetry_equiv_pos_site_id
 _symmetry_equiv_pos_as_xyz
  1  'x, y, z'
loop_
 _atom_site_type_symbol
 _atom_site_label
 _atom_site_symmetry_multiplicity
 _atom_site_fract_x
 _atom_site_fract_y
 _atom_site_fract_z
 _atom_site_occupancy
  Lu  Lu0  1  0.333474  0.666526  0.439315  1
  Lu  Lu1  1  0.666415  0.333585  0.563846  1
  Lu  Lu2  1  0.666415  0.333585  0.936154  1
  Lu  Lu3  1  0.333474  0.666526  0.060685  1
  Tc  Tc4  1  0.826405  0.655400  0.250000  1
  Tc  Tc5  1  0.344600  0.173595  0.250000  1
  Tc  Tc6  1  0.171313  0.828687  0.750000  1
  Tc  Tc7  1  0.172991  0.346400  0.750000  1
  Tc  Tc8  1  0.653600  0.827009  0.750000  1
  Mo  Mo9  1  0.001093  0.998907  0.503108  1
  Mo  Mo10  1  0.001093  0.998907  0.996892  1
  Mo  Mo11  1  0.829126  0.170874  0.250000  1
