# generated using pymatgen
data_Hf12FeCo5Tc6
_symmetry_space_group_name_H-M   'P 1'
_cell_length_a   4.54106200
_cell_length_b   6.43440100
_cell_length_c   13.64485800
_cell_angle_alpha   89.99996539
_cell_angle_beta   89.99913851
_cell_angle_gamma   89.99988349
_symmetry_Int_Tables_number   1
_chemical_formula_structural   Hf12FeCo5Tc6
_chemical_formula_sum   'Hf12 Fe1 Co5 Tc6'
_cell_volume   398.68929519
_cell_formula_units_Z   1
loop_
 _symmetry_equiv_pos_site_id
 _symmetry_equiv_pos_as_xyz
  1  'x, y, z'
loop_
 _atom_site_type_symbol
 _atom_site_label
 _atom_site_symmetry_multiplicity
 _atom_site_fract_x
 _atom_site_fract_y
 _atom_site_fract_z
 _atom_site_occupancy
  Hf  Hf0  1  0.500000  0.247521  0.000000  1
  Hf  Hf1  1  0.500002  0.752479  0.000000  1
  Hf  Hf2  1  0.999733  0.249605  0.165510  1
  Hf  Hf3  1  0.999734  0.750396  0.165510  1
  Hf  Hf4  1  0.499725  0.249652  0.333196  1
  Hf  Hf5  1  0.499725  0.750349  0.333196  1
  Hf  Hf6  1  0.999999  0.250524  0.500000  1
  Hf  Hf7  1  0.000001  0.749477  0.500000  1
  Hf  Hf8  1  0.500275  0.249652  0.666804  1
  Hf  Hf9  1  0.500275  0.750349  0.666804  1
  Hf  Hf10  1  0.000265  0.249605  0.834489  1
  Hf  Hf11  1  0.000266  0.750396  0.834489  1
  Fe  Fe12  1  0.000000  0.000000  0.000000  1
  Co  Co13  1  0.499509  0.500000  0.167102  1
  Co  Co14  1  0.999518  0.000000  0.333389  1
  Co  Co15  1  0.500001  0.500000  0.500000  1
  Co  Co16  1  0.000482  0.000000  0.666611  1
  Co  Co17  1  0.500491  0.500000  0.832898  1
  Tc  Tc18  1  0.000000  0.500000  0.000000  1
  Tc  Tc19  1  0.499723  0.000000  0.167573  1
  Tc  Tc20  1  0.999721  0.500000  0.333670  1
  Tc  Tc21  1  0.500001  0.000000  0.500000  1
  Tc  Tc22  1  0.000279  0.500000  0.666330  1
  Tc  Tc23  1  0.500277  0.000000  0.832427  1
