# generated using pymatgen
data_Nd4DyP12Ru16Pt3
_symmetry_space_group_name_H-M   'P 1'
_cell_length_a   12.70415900
_cell_length_b   12.70415888
_cell_length_c   4.00379800
_cell_angle_alpha   90.00000000
_cell_angle_beta   90.00000000
_cell_angle_gamma   120.00000292
_symmetry_Int_Tables_number   1
_chemical_formula_structural   Nd4DyP12Ru16Pt3
_chemical_formula_sum   'Nd4 Dy1 P12 Ru16 Pt3'
_cell_volume   559.62178737
_cell_formula_units_Z   1
loop_
 _symmetry_equiv_pos_site_id
 _symmetry_equiv_pos_as_xyz
  1  'x, y, z'
loop_
 _atom_site_type_symbol
 _atom_site_label
 _atom_site_symmetry_multiplicity
 _atom_site_fract_x
 _atom_site_fract_y
 _atom_site_fract_z
 _atom_site_occupancy
  Nd  Nd0  1  0.666667  0.333333  0.000000  1
  Nd  Nd1  1  0.815465  0.999355  0.500000  1
  Nd  Nd2  1  0.183889  0.184535  0.500000  1
  Nd  Nd3  1  0.000645  0.816111  0.500000  1
  Dy  Dy4  1  0.333333  0.666667  0.000000  1
  P  P5  1  0.624631  0.985715  0.000000  1
  P  P6  1  0.361084  0.375369  0.000000  1
  P  P7  1  0.014285  0.638916  0.000000  1
  P  P8  1  0.696279  0.529123  0.500000  1
  P  P9  1  0.832846  0.303721  0.500000  1
  P  P10  1  0.307732  0.827590  0.500000  1
  P  P11  1  0.519857  0.692268  0.500000  1
  P  P12  1  0.185774  0.000231  0.000000  1
  P  P13  1  0.814458  0.814226  0.000000  1
  P  P14  1  0.999769  0.185542  0.000000  1
  P  P15  1  0.470877  0.167154  0.500000  1
  P  P16  1  0.172410  0.480143  0.500000  1
  Ru  Ru17  1  0.617527  0.797169  0.000000  1
  Ru  Ru18  1  0.179643  0.382473  0.000000  1
  Ru  Ru19  1  0.379645  0.186986  0.000000  1
  Ru  Ru20  1  0.202831  0.820357  0.000000  1
  Ru  Ru21  1  0.807341  0.620355  0.000000  1
  Ru  Ru22  1  0.127138  0.635184  0.500000  1
  Ru  Ru23  1  0.364816  0.491955  0.500000  1
  Ru  Ru24  1  0.508045  0.872862  0.500000  1
  Ru  Ru25  1  0.000000  0.000000  0.000000  1
  Ru  Ru26  1  0.713895  0.713546  0.500000  1
  Ru  Ru27  1  0.999651  0.286105  0.500000  1
  Ru  Ru28  1  0.452918  0.005090  0.000000  1
  Ru  Ru29  1  0.552172  0.547082  0.000000  1
  Ru  Ru30  1  0.994910  0.447828  0.000000  1
  Ru  Ru31  1  0.813014  0.192659  0.000000  1
  Ru  Ru32  1  0.286454  0.000349  0.500000  1
  Pt  Pt33  1  0.870896  0.504048  0.500000  1
  Pt  Pt34  1  0.495952  0.366848  0.500000  1
  Pt  Pt35  1  0.633152  0.129104  0.500000  1
