# generated using pymatgen
data_Th2Cr3Fe9P7
_symmetry_space_group_name_H-M   'P 1'
_cell_length_a   9.11342800
_cell_length_b   9.11342872
_cell_length_c   3.68353400
_cell_angle_alpha   90.00000000
_cell_angle_beta   90.00000000
_cell_angle_gamma   119.99999737
_symmetry_Int_Tables_number   1
_chemical_formula_structural   Th2Cr3Fe9P7
_chemical_formula_sum   'Th2 Cr3 Fe9 P7'
_cell_volume   264.94693159
_cell_formula_units_Z   1
loop_
 _symmetry_equiv_pos_site_id
 _symmetry_equiv_pos_as_xyz
  1  'x, y, z'
loop_
 _atom_site_type_symbol
 _atom_site_label
 _atom_site_symmetry_multiplicity
 _atom_site_fract_x
 _atom_site_fract_y
 _atom_site_fract_z
 _atom_site_occupancy
  Th  Th0  1  0.333333  0.666667  0.000000  1
  Th  Th1  1  0.000000  0.000000  0.500000  1
  Cr  Cr2  1  0.775579  0.229323  0.500000  1
  Cr  Cr3  1  0.770677  0.546257  0.500000  1
  Cr  Cr4  1  0.453743  0.224421  0.500000  1
  Fe  Fe5  1  0.036028  0.273257  0.000000  1
  Fe  Fe6  1  0.726743  0.762770  0.000000  1
  Fe  Fe7  1  0.237230  0.963972  0.000000  1
  Fe  Fe8  1  0.542867  0.060537  0.000000  1
  Fe  Fe9  1  0.939463  0.482330  0.000000  1
  Fe  Fe10  1  0.517670  0.457133  0.000000  1
  Fe  Fe11  1  0.614966  0.899019  0.500000  1
  Fe  Fe12  1  0.100981  0.715944  0.500000  1
  Fe  Fe13  1  0.284056  0.385034  0.500000  1
  P  P14  1  0.768866  0.033192  0.000000  1
  P  P15  1  0.966808  0.735675  0.000000  1
  P  P16  1  0.264325  0.231134  0.000000  1
  P  P17  1  0.374973  0.936378  0.500000  1
  P  P18  1  0.063622  0.438595  0.500000  1
  P  P19  1  0.561405  0.625027  0.500000  1
  P  P20  1  0.666667  0.333333  0.000000  1
