# generated using pymatgen
data_OsPbBr6
_symmetry_space_group_name_H-M   'P 1'
_cell_length_a   7.25399860
_cell_length_b   7.28588611
_cell_length_c   7.69317484
_cell_angle_alpha   90.25952647
_cell_angle_beta   116.83356008
_cell_angle_gamma   119.81082701
_symmetry_Int_Tables_number   1
_chemical_formula_structural   OsPbBr6
_chemical_formula_sum   'Os1 Pb1 Br6'
_cell_volume   300.72828338
_cell_formula_units_Z   1
loop_
 _symmetry_equiv_pos_site_id
 _symmetry_equiv_pos_as_xyz
  1  'x, y, z'
loop_
 _atom_site_type_symbol
 _atom_site_label
 _atom_site_symmetry_multiplicity
 _atom_site_fract_x
 _atom_site_fract_y
 _atom_site_fract_z
 _atom_site_occupancy
  Os  Os0  1  0.579245  0.289685  0.869541  1
  Pb  Pb1  1  0.238790  0.620593  0.858230  1
  Br  Br2  1  0.455698  0.078930  0.097435  1
  Br  Br3  1  0.149633  0.205391  0.646681  1
  Br  Br4  1  0.704314  0.499857  0.642525  1
  Br  Br5  1  0.447643  0.945493  0.644561  1
  Br  Br6  1  0.712528  0.634879  0.094867  1
  Br  Br7  1  0.011151  0.374672  0.094661  1
