# generated using pymatgen
data_Ac2Y(InPd)3
_symmetry_space_group_name_H-M   'P 1'
_cell_length_a   7.82837600
_cell_length_b   7.88788988
_cell_length_c   4.19908300
_cell_angle_alpha   90.00000000
_cell_angle_beta   90.00000000
_cell_angle_gamma   119.75072672
_symmetry_Int_Tables_number   1
_chemical_formula_structural   Ac2Y(InPd)3
_chemical_formula_sum   'Ac2 Y1 In3 Pd3'
_cell_volume   225.11426447
_cell_formula_units_Z   1
loop_
 _symmetry_equiv_pos_site_id
 _symmetry_equiv_pos_as_xyz
  1  'x, y, z'
loop_
 _atom_site_type_symbol
 _atom_site_label
 _atom_site_symmetry_multiplicity
 _atom_site_fract_x
 _atom_site_fract_y
 _atom_site_fract_z
 _atom_site_occupancy
  Ac  Ac0  1  0.998353  0.587426  0.000000  1
  Ac  Ac1  1  0.410927  0.412574  0.000000  1
  Y  Y2  1  0.591981  0.000000  0.000000  1
  In  In3  1  0.751861  0.766096  0.500000  1
  In  In4  1  0.985765  0.233904  0.500000  1
  In  In5  1  0.258613  0.000000  0.500000  1
  Pd  Pd6  1  0.343393  0.681173  0.500000  1
  Pd  Pd7  1  0.996886  0.000000  0.000000  1
  Pd  Pd8  1  0.662221  0.318827  0.500000  1
