# generated using pymatgen
data_Tb4Dy2PtI10
_symmetry_space_group_name_H-M   'P 1'
_cell_length_a   7.77815585
_cell_length_b   9.82973863
_cell_length_c   9.79248888
_cell_angle_alpha   107.04219833
_cell_angle_beta   104.44452672
_cell_angle_gamma   96.90597342
_symmetry_Int_Tables_number   1
_chemical_formula_structural   Tb4Dy2PtI10
_chemical_formula_sum   'Tb4 Dy2 Pt1 I10'
_cell_volume   677.91933627
_cell_formula_units_Z   1
loop_
 _symmetry_equiv_pos_site_id
 _symmetry_equiv_pos_as_xyz
  1  'x, y, z'
loop_
 _atom_site_type_symbol
 _atom_site_label
 _atom_site_symmetry_multiplicity
 _atom_site_fract_x
 _atom_site_fract_y
 _atom_site_fract_z
 _atom_site_occupancy
  Tb  Tb0  1  0.030579  0.913485  0.713546  1
  Tb  Tb1  1  0.969421  0.086515  0.286454  1
  Tb  Tb2  1  0.116734  0.760232  0.043099  1
  Tb  Tb3  1  0.883266  0.239768  0.956901  1
  Dy  Dy4  1  0.653746  0.834089  0.876455  1
  Dy  Dy5  1  0.346254  0.165911  0.123545  1
  Pt  Pt6  1  0.000000  0.000000  0.000000  1
  I  I7  1  0.648072  0.728671  0.550507  1
  I  I8  1  0.351928  0.271329  0.449493  1
  I  I9  1  0.225169  0.655277  0.745666  1
  I  I10  1  0.774831  0.344723  0.254334  1
  I  I11  1  0.455029  0.091323  0.817628  1
  I  I12  1  0.544971  0.908677  0.182372  1
  I  I13  1  0.254596  0.460170  0.086215  1
  I  I14  1  0.745404  0.539830  0.913785  1
  I  I15  1  0.086166  0.820443  0.372797  1
  I  I16  1  0.913834  0.179557  0.627203  1
