# generated using pymatgen
data_Sm10C4Br17
_symmetry_space_group_name_H-M   'P 1'
_cell_length_a   8.97894715
_cell_length_b   9.69844436
_cell_length_c   12.12430800
_cell_angle_alpha   104.85849428
_cell_angle_beta   96.06095450
_cell_angle_gamma   110.05857165
_symmetry_Int_Tables_number   1
_chemical_formula_structural   Sm10C4Br17
_chemical_formula_sum   'Sm10 C4 Br17'
_cell_volume   936.56975904
_cell_formula_units_Z   1
loop_
 _symmetry_equiv_pos_site_id
 _symmetry_equiv_pos_as_xyz
  1  'x, y, z'
loop_
 _atom_site_type_symbol
 _atom_site_label
 _atom_site_symmetry_multiplicity
 _atom_site_fract_x
 _atom_site_fract_y
 _atom_site_fract_z
 _atom_site_occupancy
  Sm  Sm0  1  0.648310  0.487924  0.439372  1
  Sm  Sm1  1  0.351690  0.512076  0.560629  1
  Sm  Sm2  1  0.091363  0.426043  0.273057  1
  Sm  Sm3  1  0.908638  0.573958  0.726943  1
  Sm  Sm4  1  0.411694  0.375188  0.143435  1
  Sm  Sm5  1  0.588306  0.624812  0.856565  1
  Sm  Sm6  1  0.484601  0.773486  0.345696  1
  Sm  Sm7  1  0.515399  0.226514  0.654303  1
  Sm  Sm8  1  0.222244  0.110333  0.310446  1
  Sm  Sm9  1  0.777756  0.889667  0.689554  1
  C  C10  1  0.397748  0.526897  0.346449  1
  C  C11  1  0.602252  0.473103  0.653550  1
  C  C12  1  0.333325  0.368459  0.340279  1
  C  C13  1  0.666676  0.631542  0.659721  1
  Br  Br14  1  0.100591  0.349962  0.035038  1
  Br  Br15  1  0.899409  0.650039  0.964963  1
  Br  Br16  1  0.815260  0.818616  0.442199  1
  Br  Br17  1  0.184740  0.181382  0.557800  1
  Br  Br18  1  0.000000  0.499999  0.500000  1
  Br  Br19  1  0.303771  0.043595  0.089058  1
  Br  Br20  1  0.696230  0.956405  0.910942  1
  Br  Br21  1  0.907132  0.103015  0.246174  1
  Br  Br22  1  0.092869  0.896986  0.753826  1
  Br  Br23  1  0.559786  0.134568  0.407694  1
  Br  Br24  1  0.440213  0.865433  0.592307  1
  Br  Br25  1  0.743322  0.412955  0.209249  1
  Br  Br26  1  0.256677  0.587045  0.790751  1
  Br  Br27  1  0.157307  0.756268  0.283850  1
  Br  Br28  1  0.842692  0.243732  0.716150  1
  Br  Br29  1  0.535802  0.690081  0.112029  1
  Br  Br30  1  0.464200  0.309919  0.887971  1
