# generated using pymatgen
data_Tb3Dy2(FeO6)2
_symmetry_space_group_name_H-M   'P 1'
_cell_length_a   6.78873590
_cell_length_b   6.78873499
_cell_length_c   7.29141847
_cell_angle_alpha   74.35905672
_cell_angle_beta   74.35905911
_cell_angle_gamma   51.10818849
_symmetry_Int_Tables_number   1
_chemical_formula_structural   Tb3Dy2(FeO6)2
_chemical_formula_sum   'Tb3 Dy2 Fe2 O12'
_cell_volume   249.59817726
_cell_formula_units_Z   1
loop_
 _symmetry_equiv_pos_site_id
 _symmetry_equiv_pos_as_xyz
  1  'x, y, z'
loop_
 _atom_site_type_symbol
 _atom_site_label
 _atom_site_symmetry_multiplicity
 _atom_site_fract_x
 _atom_site_fract_y
 _atom_site_fract_z
 _atom_site_occupancy
  Tb  Tb0  1  0.307050  0.307050  0.832429  1
  Tb  Tb1  1  0.692950  0.692950  0.167571  1
  Tb  Tb2  1  0.000000  0.000000  0.500000  1
  Dy  Dy3  1  0.304982  0.304982  0.358690  1
  Dy  Dy4  1  0.695018  0.695018  0.641310  1
  Fe  Fe5  1  0.756805  0.243195  0.000000  1
  Fe  Fe6  1  0.243195  0.756805  0.000000  1
  O  O7  1  0.898171  0.421098  0.920970  1
  O  O8  1  0.421098  0.898171  0.920970  1
  O  O9  1  0.101829  0.578902  0.079030  1
  O  O10  1  0.578902  0.101829  0.079030  1
  O  O11  1  0.095825  0.595412  0.576840  1
  O  O12  1  0.595412  0.095825  0.576840  1
  O  O13  1  0.904175  0.404588  0.423160  1
  O  O14  1  0.404588  0.904175  0.423160  1
  O  O15  1  0.001314  0.001314  0.818590  1
  O  O16  1  0.998686  0.998686  0.181410  1
  O  O17  1  0.500362  0.500362  0.817709  1
  O  O18  1  0.499638  0.499638  0.182291  1
