# generated using pymatgen
data_CaHoAl20(FeRh)2
_symmetry_space_group_name_H-M   'P 1'
_cell_length_a   6.80864223
_cell_length_b   6.80864346
_cell_length_c   9.07539439
_cell_angle_alpha   90.14025383
_cell_angle_beta   90.14025136
_cell_angle_gamma   96.91959206
_symmetry_Int_Tables_number   1
_chemical_formula_structural   CaHoAl20(FeRh)2
_chemical_formula_sum   'Ca1 Ho1 Al20 Fe2 Rh2'
_cell_volume   417.64642298
_cell_formula_units_Z   1
loop_
 _symmetry_equiv_pos_site_id
 _symmetry_equiv_pos_as_xyz
  1  'x, y, z'
loop_
 _atom_site_type_symbol
 _atom_site_label
 _atom_site_symmetry_multiplicity
 _atom_site_fract_x
 _atom_site_fract_y
 _atom_site_fract_z
 _atom_site_occupancy
  Ca  Ca0  1  0.875500  0.124500  0.750000  1
  Ho  Ho1  1  0.125915  0.874085  0.250000  1
  Al  Al2  1  0.619952  0.372788  0.547403  1
  Al  Al3  1  0.380057  0.626226  0.446629  1
  Al  Al4  1  0.373774  0.619943  0.053371  1
  Al  Al5  1  0.627212  0.380048  0.952597  1
  Al  Al6  1  0.229369  0.222657  0.495023  1
  Al  Al7  1  0.769604  0.777863  0.502994  1
  Al  Al8  1  0.777343  0.770631  0.004977  1
  Al  Al9  1  0.222137  0.230396  0.997006  1
  Al  Al10  1  0.848231  0.160540  0.100156  1
  Al  Al11  1  0.154915  0.836082  0.901117  1
  Al  Al12  1  0.163918  0.845085  0.598883  1
  Al  Al13  1  0.839460  0.151769  0.399844  1
  Al  Al14  1  0.860226  0.587087  0.754149  1
  Al  Al15  1  0.137472  0.413894  0.246190  1
  Al  Al16  1  0.412913  0.139774  0.745851  1
  Al  Al17  1  0.586106  0.862528  0.253810  1
  Al  Al18  1  0.222179  0.478690  0.754766  1
  Al  Al19  1  0.777443  0.520283  0.245405  1
  Al  Al20  1  0.521310  0.777821  0.745234  1
  Al  Al21  1  0.479717  0.222557  0.254595  1
  Fe  Fe22  1  0.000162  0.502473  0.001562  1
  Fe  Fe23  1  0.497527  0.999838  0.498438  1
  Rh  Rh24  1  0.999551  0.501992  0.499005  1
  Rh  Rh25  1  0.498008  0.000449  0.000995  1
