# generated using pymatgen
data_Nd8Pd19Pt5W
_symmetry_space_group_name_H-M   'P 1'
_cell_length_a   8.51611800
_cell_length_b   8.51611800
_cell_length_c   8.52628000
_cell_angle_alpha   90.00000000
_cell_angle_beta   90.00000000
_cell_angle_gamma   90.00000000
_symmetry_Int_Tables_number   1
_chemical_formula_structural   Nd8Pd19Pt5W
_chemical_formula_sum   'Nd8 Pd19 Pt5 W1'
_cell_volume   618.36219692
_cell_formula_units_Z   1
loop_
 _symmetry_equiv_pos_site_id
 _symmetry_equiv_pos_as_xyz
  1  'x, y, z'
loop_
 _atom_site_type_symbol
 _atom_site_label
 _atom_site_symmetry_multiplicity
 _atom_site_fract_x
 _atom_site_fract_y
 _atom_site_fract_z
 _atom_site_occupancy
  Nd  Nd0  1  0.250075  0.250075  0.249979  1
  Nd  Nd1  1  0.748841  0.748841  0.749251  1
  Nd  Nd2  1  0.749925  0.749925  0.249979  1
  Nd  Nd3  1  0.748841  0.251159  0.749251  1
  Nd  Nd4  1  0.251159  0.251159  0.749251  1
  Nd  Nd5  1  0.250075  0.749925  0.249979  1
  Nd  Nd6  1  0.251159  0.748841  0.749251  1
  Nd  Nd7  1  0.749925  0.250075  0.249979  1
  Pd  Pd8  1  0.263290  0.500000  0.999861  1
  Pd  Pd9  1  0.736710  0.500000  0.999861  1
  Pd  Pd10  1  0.000000  0.264307  0.500459  1
  Pd  Pd11  1  0.500000  0.263290  0.999861  1
  Pd  Pd12  1  0.000000  0.735693  0.500459  1
  Pd  Pd13  1  0.500000  0.736710  0.999861  1
  Pd  Pd14  1  0.500000  0.000000  0.261907  1
  Pd  Pd15  1  0.264307  0.000000  0.500459  1
  Pd  Pd16  1  0.500000  0.000000  0.735795  1
  Pd  Pd17  1  0.735693  0.000000  0.500459  1
  Pd  Pd18  1  0.000000  0.500000  0.261907  1
  Pd  Pd19  1  0.000000  0.500000  0.735795  1
  Pd  Pd20  1  0.254492  0.500000  0.499389  1
  Pd  Pd21  1  0.745508  0.500000  0.499389  1
  Pd  Pd22  1  0.500000  0.254492  0.499389  1
  Pd  Pd23  1  0.500000  0.745508  0.499389  1
  Pd  Pd24  1  0.500000  0.500000  0.254265  1
  Pd  Pd25  1  0.500000  0.500000  0.745566  1
  Pd  Pd26  1  0.000000  0.000000  0.701517  1
  Pt  Pt27  1  0.299843  0.000000  0.997886  1
  Pt  Pt28  1  0.700157  0.000000  0.997886  1
  Pt  Pt29  1  0.000000  0.299843  0.997886  1
  Pt  Pt30  1  0.000000  0.700157  0.997886  1
  Pt  Pt31  1  0.000000  0.000000  0.306418  1
  W  W32  1  0.000000  0.000000  0.009520  1
