# generated using pymatgen
data_Ba2NaLi3S5
_symmetry_space_group_name_H-M   'P 1'
_cell_length_a   8.91143598
_cell_length_b   8.91143574
_cell_length_c   10.59345166
_cell_angle_alpha   81.88509364
_cell_angle_beta   81.88509442
_cell_angle_gamma   36.79477803
_symmetry_Int_Tables_number   1
_chemical_formula_structural   Ba2NaLi3S5
_chemical_formula_sum   'Ba4 Na2 Li6 S10'
_cell_volume   498.26962377
_cell_formula_units_Z   2
loop_
 _symmetry_equiv_pos_site_id
 _symmetry_equiv_pos_as_xyz
  1  'x, y, z'
loop_
 _atom_site_type_symbol
 _atom_site_label
 _atom_site_symmetry_multiplicity
 _atom_site_fract_x
 _atom_site_fract_y
 _atom_site_fract_z
 _atom_site_occupancy
  Ba  Ba0  1  0.761640  0.761640  0.695403  1
  Ba  Ba1  1  0.238360  0.238360  0.304597  1
  Ba  Ba2  1  0.458882  0.458882  0.707799  1
  Ba  Ba3  1  0.541118  0.541118  0.292201  1
  Na  Na4  1  0.105976  0.105976  0.763846  1
  Na  Na5  1  0.894024  0.894024  0.236154  1
  Li  Li6  1  0.754355  0.245645  0.000000  1
  Li  Li7  1  0.245645  0.754355  0.000000  1
  Li  Li8  1  0.919779  0.415528  0.008968  1
  Li  Li9  1  0.415528  0.919779  0.008968  1
  Li  Li10  1  0.080221  0.584472  0.991032  1
  Li  Li11  1  0.584472  0.080221  0.991032  1
  S  S12  1  0.435305  0.812411  0.529730  1
  S  S13  1  0.812411  0.435305  0.529730  1
  S  S14  1  0.564695  0.187589  0.470270  1
  S  S15  1  0.187589  0.564695  0.470270  1
  S  S16  1  0.597220  0.597220  0.881195  1
  S  S17  1  0.402780  0.402780  0.118805  1
  S  S18  1  0.069705  0.069705  0.146168  1
  S  S19  1  0.930295  0.930295  0.853832  1
  S  S20  1  0.260822  0.260822  0.855356  1
  S  S21  1  0.739178  0.739178  0.144644  1
