# generated using pymatgen
data_Y8Cd2NiOs
_symmetry_space_group_name_H-M   'P 1'
_cell_length_a   9.62795806
_cell_length_b   9.62795835
_cell_length_c   9.71583900
_cell_angle_alpha   59.69759411
_cell_angle_beta   59.69759313
_cell_angle_gamma   59.50806126
_symmetry_Int_Tables_number   1
_chemical_formula_structural   Y8Cd2NiOs
_chemical_formula_sum   'Y16 Cd4 Ni2 Os2'
_cell_volume   631.54967209
_cell_formula_units_Z   2
loop_
 _symmetry_equiv_pos_site_id
 _symmetry_equiv_pos_as_xyz
  1  'x, y, z'
loop_
 _atom_site_type_symbol
 _atom_site_label
 _atom_site_symmetry_multiplicity
 _atom_site_fract_x
 _atom_site_fract_y
 _atom_site_fract_z
 _atom_site_occupancy
  Y  Y0  1  0.599990  0.599990  0.594113  1
  Y  Y1  1  0.599990  0.599990  0.205906  1
  Y  Y2  1  0.601657  0.204954  0.596694  1
  Y  Y3  1  0.204954  0.601657  0.596694  1
  Y  Y4  1  0.060833  0.437000  0.440308  1
  Y  Y5  1  0.437000  0.060833  0.061859  1
  Y  Y6  1  0.437000  0.060833  0.440308  1
  Y  Y7  1  0.060833  0.437000  0.061859  1
  Y  Y8  1  0.438591  0.438591  0.061409  1
  Y  Y9  1  0.060049  0.060049  0.439951  1
  Y  Y10  1  0.188806  0.807191  0.816022  1
  Y  Y11  1  0.807191  0.188806  0.187981  1
  Y  Y12  1  0.807191  0.188806  0.816022  1
  Y  Y13  1  0.188806  0.807191  0.187981  1
  Y  Y14  1  0.814764  0.814764  0.185236  1
  Y  Y15  1  0.191433  0.191433  0.808567  1
  Cd  Cd16  1  0.829424  0.829424  0.832074  1
  Cd  Cd17  1  0.829424  0.829424  0.509077  1
  Cd  Cd18  1  0.830022  0.506898  0.831539  1
  Cd  Cd19  1  0.506898  0.830022  0.831539  1
  Ni  Ni20  1  0.392369  0.826057  0.390788  1
  Ni  Ni21  1  0.826057  0.392369  0.390788  1
  Os  Os22  1  0.393359  0.393359  0.388734  1
  Os  Os23  1  0.393359  0.393359  0.824550  1
