# generated using pymatgen
data_PrGd2F11
_symmetry_space_group_name_H-M   'P 1'
_cell_length_a   8.89270633
_cell_length_b   8.89270629
_cell_length_c   8.89270675
_cell_angle_alpha   122.60061692
_cell_angle_beta   108.17635650
_cell_angle_gamma   98.58504373
_symmetry_Int_Tables_number   1
_chemical_formula_structural   PrGd2F11
_chemical_formula_sum   'Pr2 Gd4 F22'
_cell_volume   516.74618036
_cell_formula_units_Z   2
loop_
 _symmetry_equiv_pos_site_id
 _symmetry_equiv_pos_as_xyz
  1  'x, y, z'
loop_
 _atom_site_type_symbol
 _atom_site_label
 _atom_site_symmetry_multiplicity
 _atom_site_fract_x
 _atom_site_fract_y
 _atom_site_fract_z
 _atom_site_occupancy
  Pr  Pr0  1  0.250000  0.250000  0.000000  1
  Pr  Pr1  1  0.750000  0.750000  0.000000  1
  Gd  Gd2  1  0.812611  0.654455  0.467067  1
  Gd  Gd3  1  0.187389  0.345545  0.532933  1
  Gd  Gd4  1  0.312611  0.845545  0.158155  1
  Gd  Gd5  1  0.687389  0.154455  0.841845  1
  F  F6  1  0.312886  0.039485  0.074734  1
  F  F7  1  0.698068  0.884788  0.582856  1
  F  F8  1  0.964751  0.238152  0.925266  1
  F  F9  1  0.944702  0.081161  0.291178  1
  F  F10  1  0.198068  0.615212  0.813281  1
  F  F11  1  0.789984  0.653524  0.708822  1
  F  F12  1  0.535249  0.460515  0.273401  1
  F  F13  1  0.444702  0.153524  0.863540  1
  F  F14  1  0.801932  0.384788  0.186719  1
  F  F15  1  0.289984  0.581161  0.136460  1
  F  F16  1  0.464751  0.539485  0.726599  1
  F  F17  1  0.710016  0.418839  0.863540  1
  F  F18  1  0.555298  0.846476  0.136460  1
  F  F19  1  0.035249  0.761848  0.074734  1
  F  F20  1  0.000000  0.500000  0.500000  1
  F  F21  1  0.812886  0.738152  0.273401  1
  F  F22  1  0.210016  0.346476  0.291178  1
  F  F23  1  0.687114  0.960515  0.925266  1
  F  F24  1  0.187114  0.261848  0.726599  1
  F  F25  1  0.301932  0.115212  0.417144  1
  F  F26  1  0.055298  0.918839  0.708822  1
  F  F27  1  0.500000  0.000000  0.500000  1
