# generated using pymatgen
data_Sc4NiRu2Rh
_symmetry_space_group_name_H-M   'P 1'
_cell_length_a   6.33488300
_cell_length_b   4.56093200
_cell_length_c   9.13681700
_cell_angle_alpha   90.00000000
_cell_angle_beta   90.00000000
_cell_angle_gamma   90.00000000
_symmetry_Int_Tables_number   1
_chemical_formula_structural   Sc4NiRu2Rh
_chemical_formula_sum   'Sc8 Ni2 Ru4 Rh2'
_cell_volume   263.98978488
_cell_formula_units_Z   2
loop_
 _symmetry_equiv_pos_site_id
 _symmetry_equiv_pos_as_xyz
  1  'x, y, z'
loop_
 _atom_site_type_symbol
 _atom_site_label
 _atom_site_symmetry_multiplicity
 _atom_site_fract_x
 _atom_site_fract_y
 _atom_site_fract_z
 _atom_site_occupancy
  Sc  Sc0  1  0.000649  0.750000  0.124252  1
  Sc  Sc1  1  0.499588  0.750000  0.124277  1
  Sc  Sc2  1  0.999588  0.249999  0.375723  1
  Sc  Sc3  1  0.500648  0.249999  0.375749  1
  Sc  Sc4  1  0.500861  0.750000  0.625691  1
  Sc  Sc5  1  0.998899  0.750000  0.625714  1
  Sc  Sc6  1  0.498898  0.249999  0.874285  1
  Sc  Sc7  1  0.000861  0.249999  0.874310  1
  Ni  Ni8  1  0.749930  0.249999  0.625387  1
  Ni  Ni9  1  0.249930  0.750000  0.874613  1
  Ru  Ru10  1  0.250079  0.249999  0.123527  1
  Ru  Ru11  1  0.750080  0.750000  0.376473  1
  Ru  Ru12  1  0.249926  0.249999  0.626717  1
  Ru  Ru13  1  0.749925  0.750000  0.873283  1
  Rh  Rh14  1  0.750069  0.249999  0.124343  1
  Rh  Rh15  1  0.250068  0.750000  0.375657  1
