# generated using pymatgen
data_Y2Ho5Er3(CoSb2)2
_symmetry_space_group_name_H-M   'P 1'
_cell_length_a   7.83761500
_cell_length_b   8.74931522
_cell_length_c   12.14646231
_cell_angle_alpha   90.02580405
_cell_angle_beta   90.00000000
_cell_angle_gamma   90.00000000
_symmetry_Int_Tables_number   1
_chemical_formula_structural   Y2Ho5Er3(CoSb2)2
_chemical_formula_sum   'Y4 Ho10 Er6 Co4 Sb8'
_cell_volume   832.92855797
_cell_formula_units_Z   2
loop_
 _symmetry_equiv_pos_site_id
 _symmetry_equiv_pos_as_xyz
  1  'x, y, z'
loop_
 _atom_site_type_symbol
 _atom_site_label
 _atom_site_symmetry_multiplicity
 _atom_site_fract_x
 _atom_site_fract_y
 _atom_site_fract_z
 _atom_site_occupancy
  Y  Y0  1  0.156652  0.750114  0.204470  1
  Y  Y1  1  0.656652  0.249886  0.295530  1
  Y  Y2  1  0.843457  0.249938  0.795464  1
  Y  Y3  1  0.343457  0.750062  0.704536  1
  Ho  Ho4  1  0.453603  0.750076  0.998111  1
  Ho  Ho5  1  0.953603  0.249924  0.501889  1
  Ho  Ho6  1  0.546048  0.249883  0.001858  1
  Ho  Ho7  1  0.046048  0.750117  0.498142  1
  Ho  Ho8  1  0.623333  0.750075  0.307205  1
  Ho  Ho9  1  0.123333  0.249925  0.192795  1
  Ho  Ho10  1  0.376906  0.249856  0.692858  1
  Ho  Ho11  1  0.876906  0.750144  0.807142  1
  Ho  Ho12  1  0.822188  0.535978  0.065150  1
  Ho  Ho13  1  0.322188  0.464022  0.434850  1
  Er  Er14  1  0.822806  0.963972  0.065084  1
  Er  Er15  1  0.322806  0.036028  0.434916  1
  Er  Er16  1  0.177350  0.463867  0.934825  1
  Er  Er17  1  0.677350  0.536133  0.565175  1
  Er  Er18  1  0.177154  0.036145  0.934879  1
  Er  Er19  1  0.677154  0.963855  0.565121  1
  Co  Co20  1  0.433760  0.750176  0.489742  1
  Co  Co21  1  0.933760  0.249824  0.010258  1
  Co  Co22  1  0.566805  0.249768  0.510389  1
  Co  Co23  1  0.066805  0.750232  0.989611  1
  Sb  Sb24  1  0.930109  0.991789  0.327313  1
  Sb  Sb25  1  0.430109  0.008211  0.172687  1
  Sb  Sb26  1  0.069986  0.491792  0.672684  1
  Sb  Sb27  1  0.569986  0.508208  0.827316  1
  Sb  Sb28  1  0.069924  0.008202  0.672662  1
  Sb  Sb29  1  0.569924  0.991798  0.827338  1
  Sb  Sb30  1  0.929918  0.508245  0.327341  1
  Sb  Sb31  1  0.429918  0.491755  0.172659  1
