# generated using pymatgen
data_ErHf2(Ni3P2)3
_symmetry_space_group_name_H-M   'P 1'
_cell_length_a   3.67371200
_cell_length_b   10.35631400
_cell_length_c   12.13702000
_cell_angle_alpha   90.00000000
_cell_angle_beta   90.00000000
_cell_angle_gamma   90.00000000
_symmetry_Int_Tables_number   1
_chemical_formula_structural   ErHf2(Ni3P2)3
_chemical_formula_sum   'Er2 Hf4 Ni18 P12'
_cell_volume   461.76645889
_cell_formula_units_Z   2
loop_
 _symmetry_equiv_pos_site_id
 _symmetry_equiv_pos_as_xyz
  1  'x, y, z'
loop_
 _atom_site_type_symbol
 _atom_site_label
 _atom_site_symmetry_multiplicity
 _atom_site_fract_x
 _atom_site_fract_y
 _atom_site_fract_z
 _atom_site_occupancy
  Er  Er0  1  0.752254  0.000000  0.474396  1
  Er  Er1  1  0.252254  0.500000  0.525604  1
  Hf  Hf2  1  0.251725  0.678340  0.795256  1
  Hf  Hf3  1  0.251725  0.321660  0.795256  1
  Hf  Hf4  1  0.751725  0.821660  0.204744  1
  Hf  Hf5  1  0.751725  0.178340  0.204744  1
  Ni  Ni6  1  0.751373  0.000000  0.013135  1
  Ni  Ni7  1  0.251373  0.500000  0.986865  1
  Ni  Ni8  1  0.252203  0.198871  0.571524  1
  Ni  Ni9  1  0.252203  0.801129  0.571524  1
  Ni  Ni10  1  0.752203  0.301129  0.428476  1
  Ni  Ni11  1  0.752203  0.698871  0.428476  1
  Ni  Ni12  1  0.252083  0.624819  0.289165  1
  Ni  Ni13  1  0.252083  0.375181  0.289165  1
  Ni  Ni14  1  0.752083  0.875181  0.710835  1
  Ni  Ni15  1  0.752083  0.124819  0.710835  1
  Ni  Ni16  1  0.251450  0.168967  0.003585  1
  Ni  Ni17  1  0.251450  0.831033  0.003585  1
  Ni  Ni18  1  0.751450  0.331033  0.996415  1
  Ni  Ni19  1  0.751450  0.668967  0.996415  1
  Ni  Ni20  1  0.251777  0.000000  0.838107  1
  Ni  Ni21  1  0.751777  0.500000  0.161893  1
  Ni  Ni22  1  0.251458  0.000000  0.296275  1
  Ni  Ni23  1  0.751458  0.500000  0.703725  1
  P  P24  1  0.252162  0.184877  0.382153  1
  P  P25  1  0.252162  0.815123  0.382153  1
  P  P26  1  0.752162  0.315123  0.617847  1
  P  P27  1  0.752162  0.684877  0.617847  1
  P  P28  1  0.251511  0.000000  0.121537  1
  P  P29  1  0.751511  0.500000  0.878463  1
  P  P30  1  0.251595  0.656972  0.111892  1
  P  P31  1  0.251595  0.343028  0.111892  1
  P  P32  1  0.751595  0.843028  0.888108  1
  P  P33  1  0.751595  0.156972  0.888108  1
  P  P34  1  0.251998  0.000000  0.652874  1
  P  P35  1  0.751998  0.500000  0.347126  1
