# generated using pymatgen
data_V2Si3Mo3H
_symmetry_space_group_name_H-M   'P 1'
_cell_length_a   4.88642700
_cell_length_b   7.26191133
_cell_length_c   7.26165701
_cell_angle_alpha   120.00154168
_cell_angle_beta   90.00013347
_cell_angle_gamma   89.99996935
_symmetry_Int_Tables_number   1
_chemical_formula_structural   V2Si3Mo3H
_chemical_formula_sum   'V4 Si6 Mo6 H2'
_cell_volume   223.15261162
_cell_formula_units_Z   2
loop_
 _symmetry_equiv_pos_site_id
 _symmetry_equiv_pos_as_xyz
  1  'x, y, z'
loop_
 _atom_site_type_symbol
 _atom_site_label
 _atom_site_symmetry_multiplicity
 _atom_site_fract_x
 _atom_site_fract_y
 _atom_site_fract_z
 _atom_site_occupancy
  V  V0  1  0.499999  0.333329  0.666676  1
  V  V1  1  0.500000  0.666671  0.333323  1
  V  V2  1  0.000002  0.666672  0.333325  1
  V  V3  1  0.000004  0.333331  0.666679  1
  Si  Si4  1  0.749787  0.598529  0.000010  1
  Si  Si5  1  0.749789  0.401396  0.401391  1
  Si  Si6  1  0.749786  0.000054  0.598577  1
  Si  Si7  1  0.250211  0.401458  0.999995  1
  Si  Si8  1  0.250212  0.598535  0.598575  1
  Si  Si9  1  0.250210  0.999996  0.401409  1
  Mo  Mo10  1  0.750013  0.246247  0.000004  1
  Mo  Mo11  1  0.750012  0.753773  0.753794  1
  Mo  Mo12  1  0.750013  0.000011  0.246223  1
  Mo  Mo13  1  0.249991  0.753754  0.000000  1
  Mo  Mo14  1  0.249992  0.246214  0.246216  1
  Mo  Mo15  1  0.249988  0.000023  0.753791  1
  H  H16  1  0.499995  0.000006  0.000006  1
  H  H17  1  0.000001  0.000002  0.000006  1
