# generated using pymatgen
data_HoErCuNi2
_symmetry_space_group_name_H-M   'P 1'
_cell_length_a   4.11455140
_cell_length_b   5.25876038
_cell_length_c   5.25876104
_cell_angle_alpha   60.62689897
_cell_angle_beta   66.97568174
_cell_angle_gamma   66.97569137
_symmetry_Int_Tables_number   1
_chemical_formula_structural   HoErCuNi2
_chemical_formula_sum   'Ho1 Er1 Cu1 Ni2'
_cell_volume   88.39729114
_cell_formula_units_Z   1
loop_
 _symmetry_equiv_pos_site_id
 _symmetry_equiv_pos_as_xyz
  1  'x, y, z'
loop_
 _atom_site_type_symbol
 _atom_site_label
 _atom_site_symmetry_multiplicity
 _atom_site_fract_x
 _atom_site_fract_y
 _atom_site_fract_z
 _atom_site_occupancy
  Ho  Ho0  1  0.797367  0.702610  0.702610  1
  Er  Er1  1  0.202636  0.297388  0.297388  1
  Cu  Cu2  1  0.000006  0.999998  0.999998  1
  Ni  Ni3  1  0.499996  0.269194  0.730810  1
  Ni  Ni4  1  0.499996  0.730810  0.269194  1
