# generated using pymatgen
data_Nd17Tm3Si15P
_symmetry_space_group_name_H-M   'P 1'
_cell_length_a   7.62757200
_cell_length_b   7.96213335
_cell_length_c   15.05474600
_cell_angle_alpha   90.00000000
_cell_angle_beta   90.00000000
_cell_angle_gamma   89.82925946
_symmetry_Int_Tables_number   1
_chemical_formula_structural   Nd17Tm3Si15P
_chemical_formula_sum   'Nd17 Tm3 Si15 P1'
_cell_volume   914.29694186
_cell_formula_units_Z   1
loop_
 _symmetry_equiv_pos_site_id
 _symmetry_equiv_pos_as_xyz
  1  'x, y, z'
loop_
 _atom_site_type_symbol
 _atom_site_label
 _atom_site_symmetry_multiplicity
 _atom_site_fract_x
 _atom_site_fract_y
 _atom_site_fract_z
 _atom_site_occupancy
  Nd  Nd0  1  0.810234  0.321984  0.620885  1
  Nd  Nd1  1  0.463452  0.688563  0.901250  1
  Nd  Nd2  1  0.962562  0.812520  0.900627  1
  Nd  Nd3  1  0.198758  0.671204  0.126229  1
  Nd  Nd4  1  0.693239  0.822945  0.123599  1
  Nd  Nd5  1  0.310536  0.180437  0.878837  1
  Nd  Nd6  1  0.198758  0.671204  0.373771  1
  Nd  Nd7  1  0.032128  0.182497  0.098797  1
  Nd  Nd8  1  0.310536  0.180437  0.621163  1
  Nd  Nd9  1  0.533013  0.316486  0.394446  1
  Nd  Nd10  1  0.810234  0.321984  0.879115  1
  Nd  Nd11  1  0.962562  0.812520  0.599373  1
  Nd  Nd12  1  0.463452  0.688563  0.598750  1
  Nd  Nd13  1  0.032128  0.182497  0.401203  1
  Nd  Nd14  1  0.693239  0.822945  0.376401  1
  Nd  Nd15  1  0.636466  0.989354  0.750000  1
  Nd  Nd16  1  0.533013  0.316486  0.105554  1
  Tm  Tm17  1  0.139883  0.516034  0.750000  1
  Tm  Tm18  1  0.860312  0.487709  0.250000  1
  Tm  Tm19  1  0.357983  0.013595  0.250000  1
  Si  Si20  1  0.222301  0.351635  0.250000  1
  Si  Si21  1  0.865365  0.525943  0.456516  1
  Si  Si22  1  0.512270  0.405895  0.750000  1
  Si  Si23  1  0.636177  0.029708  0.961850  1
  Si  Si24  1  0.015876  0.099712  0.750000  1
  Si  Si25  1  0.756372  0.621410  0.750000  1
  Si  Si26  1  0.741495  0.129079  0.250000  1
  Si  Si27  1  0.362861  0.973614  0.455972  1
  Si  Si28  1  0.992461  0.896306  0.250000  1
  Si  Si29  1  0.362861  0.973614  0.044028  1
  Si  Si30  1  0.636177  0.029708  0.538150  1
  Si  Si31  1  0.136958  0.476111  0.958589  1
  Si  Si32  1  0.136958  0.476111  0.541411  1
  Si  Si33  1  0.865365  0.525943  0.043484  1
  Si  Si34  1  0.247644  0.872664  0.750000  1
  P  P35  1  0.506367  0.612576  0.250000  1
