# generated using pymatgen
data_La3Pr2Sn2BiBr
_symmetry_space_group_name_H-M   'P 1'
_cell_length_a   9.75350800
_cell_length_b   9.75350787
_cell_length_c   6.86868900
_cell_angle_alpha   90.00000000
_cell_angle_beta   90.00000000
_cell_angle_gamma   120.38168994
_symmetry_Int_Tables_number   1
_chemical_formula_structural   La3Pr2Sn2BiBr
_chemical_formula_sum   'La6 Pr4 Sn4 Bi2 Br2'
_cell_volume   563.69336054
_cell_formula_units_Z   2
loop_
 _symmetry_equiv_pos_site_id
 _symmetry_equiv_pos_as_xyz
  1  'x, y, z'
loop_
 _atom_site_type_symbol
 _atom_site_label
 _atom_site_symmetry_multiplicity
 _atom_site_fract_x
 _atom_site_fract_y
 _atom_site_fract_z
 _atom_site_occupancy
  La  La0  1  0.269635  0.995633  0.750000  1
  La  La1  1  0.730365  0.004367  0.250000  1
  La  La2  1  0.995633  0.269635  0.750000  1
  La  La3  1  0.004367  0.730365  0.250000  1
  La  La4  1  0.733638  0.733638  0.750000  1
  La  La5  1  0.266362  0.266362  0.250000  1
  Pr  Pr6  1  0.330465  0.669535  0.500000  1
  Pr  Pr7  1  0.669535  0.330465  0.500000  1
  Pr  Pr8  1  0.669535  0.330465  0.000000  1
  Pr  Pr9  1  0.330465  0.669535  0.000000  1
  Sn  Sn10  1  0.614099  0.999032  0.750000  1
  Sn  Sn11  1  0.385901  0.000968  0.250000  1
  Sn  Sn12  1  0.999032  0.614099  0.750000  1
  Sn  Sn13  1  0.000968  0.385901  0.250000  1
  Bi  Bi14  1  0.384473  0.384473  0.750000  1
  Bi  Bi15  1  0.615527  0.615527  0.250000  1
  Br  Br16  1  0.000000  0.000000  0.500000  1
  Br  Br17  1  0.000000  0.000000  0.000000  1
