# generated using pymatgen
data_Nd4Co4AuI
_symmetry_space_group_name_H-M   'P 1'
_cell_length_a   3.99272700
_cell_length_b   3.99272537
_cell_length_c   16.99430900
_cell_angle_alpha   90.00000000
_cell_angle_beta   90.00000000
_cell_angle_gamma   119.99998862
_symmetry_Int_Tables_number   1
_chemical_formula_structural   Nd4Co4AuI
_chemical_formula_sum   'Nd4 Co4 Au1 I1'
_cell_volume   234.62443962
_cell_formula_units_Z   1
loop_
 _symmetry_equiv_pos_site_id
 _symmetry_equiv_pos_as_xyz
  1  'x, y, z'
loop_
 _atom_site_type_symbol
 _atom_site_label
 _atom_site_symmetry_multiplicity
 _atom_site_fract_x
 _atom_site_fract_y
 _atom_site_fract_z
 _atom_site_occupancy
  Nd  Nd0  1  0.000000  0.000000  0.125642  1
  Nd  Nd1  1  0.000000  0.000000  0.900377  1
  Nd  Nd2  1  0.000000  0.000000  0.599623  1
  Nd  Nd3  1  0.000000  0.000000  0.374358  1
  Co  Co4  1  0.333333  0.666667  0.490621  1
  Co  Co5  1  0.666667  0.333333  0.490628  1
  Co  Co6  1  0.666667  0.333333  0.009372  1
  Co  Co7  1  0.333333  0.666667  0.009379  1
  Au  Au8  1  0.333333  0.666667  0.250000  1
  I  I9  1  0.666667  0.333333  0.750000  1
