# generated using pymatgen
data_Sr8NdFe(PO4)7
_symmetry_space_group_name_H-M   'P 1'
_cell_length_a   9.06009990
_cell_length_b   9.06133991
_cell_length_c   18.16657996
_cell_angle_alpha   72.35664971
_cell_angle_beta   72.43315519
_cell_angle_gamma   72.84329062
_symmetry_Int_Tables_number   1
_chemical_formula_structural   Sr8NdFe(PO4)7
_chemical_formula_sum   'Sr16 Nd2 Fe2 P14 O56'
_cell_volume   1320.55070231
_cell_formula_units_Z   2
loop_
 _symmetry_equiv_pos_site_id
 _symmetry_equiv_pos_as_xyz
  1  'x, y, z'
loop_
 _atom_site_type_symbol
 _atom_site_label
 _atom_site_symmetry_multiplicity
 _atom_site_fract_x
 _atom_site_fract_y
 _atom_site_fract_z
 _atom_site_occupancy
  Sr  Sr0  1  0.723469  0.162179  0.364065  1
  Sr  Sr1  1  0.840372  0.276252  0.133710  1
  Sr  Sr2  1  0.727389  0.715931  0.584718  1
  Sr  Sr3  1  0.283147  0.270185  0.913854  1
  Sr  Sr4  1  0.275512  0.285221  0.414167  1
  Sr  Sr5  1  0.714413  0.722082  0.087549  1
  Sr  Sr6  1  0.265224  0.848042  0.138728  1
  Sr  Sr7  1  0.150125  0.735617  0.360617  1
  Sr  Sr8  1  0.732517  0.152437  0.861630  1
  Sr  Sr9  1  0.844046  0.268344  0.636927  1
  Sr  Sr10  1  0.499467  0.041584  0.746250  1
  Sr  Sr11  1  0.961444  0.499061  0.751372  1
  Sr  Sr12  1  0.500139  0.964276  0.250845  1
  Sr  Sr13  1  0.043150  0.495848  0.247459  1
  Sr  Sr14  1  0.513226  0.506883  0.473404  1
  Sr  Sr15  1  0.501016  0.495232  0.002827  1
  Nd  Nd16  1  0.279783  0.836769  0.629843  1
  Nd  Nd17  1  0.163868  0.718194  0.869143  1
  Fe  Fe18  1  0.996397  0.001168  0.498896  1
  Fe  Fe19  1  0.998256  0.001981  0.000258  1
  P  P20  1  0.107892  0.587010  0.054344  1
  P  P21  1  0.412437  0.894405  0.444195  1
  P  P22  1  0.897247  0.416274  0.942183  1
  P  P23  1  0.585544  0.102109  0.556665  1
  P  P24  1  0.882154  0.897401  0.205441  1
  P  P25  1  0.101556  0.117215  0.293650  1
  P  P26  1  0.117799  0.093458  0.791645  1
  P  P27  1  0.905623  0.881740  0.707437  1
  P  P28  1  0.113982  0.595160  0.551874  1
  P  P29  1  0.405496  0.884313  0.948353  1
  P  P30  1  0.888540  0.408445  0.448789  1
  P  P31  1  0.590644  0.115563  0.048880  1
  P  P32  1  0.472921  0.529752  0.253840  1
  P  P33  1  0.518076  0.481938  0.752007  1
  O  O34  1  0.501856  0.780288  0.508435  1
  O  O35  1  0.217668  0.496356  0.989756  1
  O  O36  1  0.492928  0.218257  0.495348  1
  O  O37  1  0.783997  0.509908  0.003621  1
  O  O38  1  0.407075  0.532573  0.829135  1
  O  O39  1  0.457929  0.604168  0.679760  1
  O  O40  1  0.594414  0.469043  0.182413  1
  O  O41  1  0.516635  0.429735  0.334368  1
  O  O42  1  0.016672  0.756836  0.509170  1
  O  O43  1  0.243594  0.981928  0.990122  1
  O  O44  1  0.980611  0.243323  0.492096  1
  O  O45  1  0.756319  0.020754  0.007496  1
  O  O46  1  0.027102  0.506950  0.883492  1
  O  O47  1  0.492511  0.973164  0.614301  1
  O  O48  1  0.977758  0.503817  0.112954  1
  O  O49  1  0.496677  0.024901  0.386615  1
  O  O50  1  0.014292  0.502363  0.394231  1
  O  O51  1  0.497196  0.990910  0.105524  1
  O  O52  1  0.992187  0.496942  0.608018  1
  O  O53  1  0.502492  0.005009  0.890191  1
  O  O54  1  0.791515  0.006048  0.752828  1
  O  O55  1  0.992741  0.206080  0.746256  1
  O  O56  1  0.211271  0.991707  0.247374  1
  O  O57  1  0.008040  0.786084  0.251469  1
  O  O58  1  0.513692  0.305704  0.764235  1
  O  O59  1  0.696928  0.481286  0.735530  1
  O  O60  1  0.468511  0.710310  0.236443  1
  O  O61  1  0.297944  0.522515  0.263785  1
  O  O62  1  0.976016  0.986027  0.123969  1
  O  O63  1  0.012105  0.023813  0.375019  1
  O  O64  1  0.027250  0.999070  0.872828  1
  O  O65  1  0.999397  0.973555  0.626466  1
  O  O66  1  0.490377  0.772287  0.014090  1
  O  O67  1  0.227789  0.511877  0.486171  1
  O  O68  1  0.508483  0.223832  0.980682  1
  O  O69  1  0.772655  0.491453  0.514920  1
  O  O70  1  0.216459  0.191356  0.804558  1
  O  O71  1  0.810037  0.781360  0.694104  1
  O  O72  1  0.784332  0.796845  0.193185  1
  O  O73  1  0.204121  0.212578  0.306429  1
  O  O74  1  0.800362  0.389193  0.892019  1
  O  O75  1  0.616656  0.192885  0.608095  1
  O  O76  1  0.211804  0.611883  0.101035  1
  O  O77  1  0.387727  0.794108  0.395328  1
  O  O78  1  0.766888  0.027627  0.248059  1
  O  O79  1  0.972463  0.233857  0.250688  1
  O  O80  1  0.232867  0.959527  0.749536  1
  O  O81  1  0.039721  0.768431  0.750148  1
  O  O82  1  0.790088  0.386725  0.398362  1
  O  O83  1  0.610344  0.223442  0.094914  1
  O  O84  1  0.209722  0.626559  0.601151  1
  O  O85  1  0.374933  0.782603  0.901580  1
  O  O86  1  0.023398  0.748777  0.004181  1
  O  O87  1  0.250537  0.978001  0.493960  1
  O  O88  1  0.987628  0.254938  0.987228  1
  O  O89  1  0.745215  0.011161  0.510567  1
