# generated using pymatgen
data_Hf5(Re5Tc3)3
_symmetry_space_group_name_H-M   'P 1'
_cell_length_a   8.46008935
_cell_length_b   8.46008984
_cell_length_c   8.46008900
_cell_angle_alpha   109.52358913
_cell_angle_beta   109.52359450
_cell_angle_gamma   109.52359332
_symmetry_Int_Tables_number   1
_chemical_formula_structural   Hf5(Re5Tc3)3
_chemical_formula_sum   'Hf5 Re15 Tc9'
_cell_volume   465.21959385
_cell_formula_units_Z   1
loop_
 _symmetry_equiv_pos_site_id
 _symmetry_equiv_pos_as_xyz
  1  'x, y, z'
loop_
 _atom_site_type_symbol
 _atom_site_label
 _atom_site_symmetry_multiplicity
 _atom_site_fract_x
 _atom_site_fract_y
 _atom_site_fract_z
 _atom_site_occupancy
  Hf  Hf0  1  0.999175  0.999175  0.999175  1
  Hf  Hf1  1  0.625486  0.999627  0.999627  1
  Hf  Hf2  1  0.999627  0.625486  0.999627  1
  Hf  Hf3  1  0.999627  0.999627  0.625486  1
  Hf  Hf4  1  0.372709  0.372709  0.372709  1
  Re  Re5  1  0.604438  0.604438  0.279360  1
  Re  Re6  1  0.279360  0.604438  0.604438  1
  Re  Re7  1  0.604438  0.279360  0.604438  1
  Re  Re8  1  0.376187  0.194903  0.000908  1
  Re  Re9  1  0.180224  0.806001  0.806001  1
  Re  Re10  1  0.376187  0.000908  0.194903  1
  Re  Re11  1  0.194903  0.376187  0.000908  1
  Re  Re12  1  0.000908  0.376187  0.194903  1
  Re  Re13  1  0.806001  0.180224  0.806001  1
  Re  Re14  1  0.806001  0.806001  0.180224  1
  Re  Re15  1  0.000908  0.194903  0.376187  1
  Re  Re16  1  0.194903  0.000908  0.376187  1
  Re  Re17  1  0.622980  0.622980  0.816402  1
  Re  Re18  1  0.816402  0.622980  0.622980  1
  Re  Re19  1  0.622980  0.816402  0.622980  1
  Tc  Tc20  1  0.396424  0.677737  0.001132  1
  Tc  Tc21  1  0.720331  0.322819  0.322819  1
  Tc  Tc22  1  0.396424  0.001132  0.677737  1
  Tc  Tc23  1  0.677737  0.396424  0.001132  1
  Tc  Tc24  1  0.001132  0.396424  0.677737  1
  Tc  Tc25  1  0.322819  0.720331  0.322819  1
  Tc  Tc26  1  0.322819  0.322819  0.720331  1
  Tc  Tc27  1  0.001132  0.677737  0.396424  1
  Tc  Tc28  1  0.677737  0.001132  0.396424  1
