# generated using pymatgen
data_LiLaPt3Rh
_symmetry_space_group_name_H-M   'P 1'
_cell_length_a   5.40326144
_cell_length_b   5.40326241
_cell_length_c   5.40326269
_cell_angle_alpha   59.92506133
_cell_angle_beta   59.92505402
_cell_angle_gamma   59.92505724
_symmetry_Int_Tables_number   1
_chemical_formula_structural   LiLaPt3Rh
_chemical_formula_sum   'Li1 La1 Pt3 Rh1'
_cell_volume   111.35615486
_cell_formula_units_Z   1
loop_
 _symmetry_equiv_pos_site_id
 _symmetry_equiv_pos_as_xyz
  1  'x, y, z'
loop_
 _atom_site_type_symbol
 _atom_site_label
 _atom_site_symmetry_multiplicity
 _atom_site_fract_x
 _atom_site_fract_y
 _atom_site_fract_z
 _atom_site_occupancy
  Li  Li0  1  0.499509  0.499509  0.499509  1
  La  La1  1  0.750657  0.750657  0.750657  1
  Pt  Pt2  1  0.623244  0.125648  0.125648  1
  Pt  Pt3  1  0.125648  0.623244  0.125648  1
  Pt  Pt4  1  0.125648  0.125648  0.623244  1
  Rh  Rh5  1  0.125293  0.125293  0.125293  1
