# generated using pymatgen
data_TbHo5Th2(MgRh)2
_symmetry_space_group_name_H-M   'P 1'
_cell_length_a   9.77428114
_cell_length_b   9.77428114
_cell_length_c   9.77010800
_cell_angle_alpha   60.01412920
_cell_angle_beta   60.01412919
_cell_angle_gamma   59.97175839
_symmetry_Int_Tables_number   1
_chemical_formula_structural   TbHo5Th2(MgRh)2
_chemical_formula_sum   'Tb2 Ho10 Th4 Mg4 Rh4'
_cell_volume   660.01516864
_cell_formula_units_Z   2
loop_
 _symmetry_equiv_pos_site_id
 _symmetry_equiv_pos_as_xyz
  1  'x, y, z'
loop_
 _atom_site_type_symbol
 _atom_site_label
 _atom_site_symmetry_multiplicity
 _atom_site_fract_x
 _atom_site_fract_y
 _atom_site_fract_z
 _atom_site_occupancy
  Tb  Tb0  1  0.566133  0.566133  0.933867  1
  Tb  Tb1  1  0.933867  0.933867  0.566133  1
  Ho  Ho2  1  0.812985  0.187015  0.187015  1
  Ho  Ho3  1  0.187015  0.812985  0.812985  1
  Ho  Ho4  1  0.187015  0.812985  0.187015  1
  Ho  Ho5  1  0.812985  0.187015  0.812985  1
  Ho  Ho6  1  0.187108  0.187108  0.812892  1
  Ho  Ho7  1  0.812892  0.812892  0.187108  1
  Ho  Ho8  1  0.934168  0.565832  0.565832  1
  Ho  Ho9  1  0.565832  0.934168  0.934168  1
  Ho  Ho10  1  0.565832  0.934168  0.565832  1
  Ho  Ho11  1  0.934168  0.565832  0.934168  1
  Th  Th12  1  0.348483  0.348483  0.348642  1
  Th  Th13  1  0.348483  0.348483  0.954393  1
  Th  Th14  1  0.348642  0.954393  0.348483  1
  Th  Th15  1  0.954393  0.348642  0.348483  1
  Mg  Mg16  1  0.580420  0.580420  0.580504  1
  Mg  Mg17  1  0.580420  0.580420  0.258656  1
  Mg  Mg18  1  0.580504  0.258656  0.580420  1
  Mg  Mg19  1  0.258656  0.580504  0.580420  1
  Rh  Rh20  1  0.144096  0.144096  0.143909  1
  Rh  Rh21  1  0.144096  0.144096  0.567897  1
  Rh  Rh22  1  0.143909  0.567897  0.144096  1
  Rh  Rh23  1  0.567897  0.143909  0.144096  1
