# generated using pymatgen
data_Pr2GeP3(IrRh)2
_symmetry_space_group_name_H-M   'P 1'
_cell_length_a   4.25934200
_cell_length_b   4.25934200
_cell_length_c   9.67053800
_cell_angle_alpha   90.00000000
_cell_angle_beta   90.00000000
_cell_angle_gamma   90.00000000
_symmetry_Int_Tables_number   1
_chemical_formula_structural   Pr2GeP3(IrRh)2
_chemical_formula_sum   'Pr2 Ge1 P3 Ir2 Rh2'
_cell_volume   175.44284501
_cell_formula_units_Z   1
loop_
 _symmetry_equiv_pos_site_id
 _symmetry_equiv_pos_as_xyz
  1  'x, y, z'
loop_
 _atom_site_type_symbol
 _atom_site_label
 _atom_site_symmetry_multiplicity
 _atom_site_fract_x
 _atom_site_fract_y
 _atom_site_fract_z
 _atom_site_occupancy
  Pr  Pr0  1  0.000000  0.500000  0.266305  1
  Pr  Pr1  1  0.500000  0.000000  0.737992  1
  Ge  Ge2  1  0.500000  0.000000  0.135974  1
  P  P3  1  0.000000  0.500000  0.862248  1
  P  P4  1  0.000000  0.000000  0.503169  1
  P  P5  1  0.500000  0.500000  0.503169  1
  Ir  Ir6  1  0.000000  0.500000  0.611931  1
  Ir  Ir7  1  0.500000  0.000000  0.398154  1
  Rh  Rh8  1  0.000000  0.000000  0.990529  1
  Rh  Rh9  1  0.500000  0.500000  0.990529  1
