# generated using pymatgen
data_RbInPH
_symmetry_space_group_name_H-M   'P 1'
_cell_length_a   4.19698900
_cell_length_b   4.19698867
_cell_length_c   6.65758900
_cell_angle_alpha   90.00000000
_cell_angle_beta   90.00000000
_cell_angle_gamma   119.99999473
_symmetry_Int_Tables_number   1
_chemical_formula_structural   RbInPH
_chemical_formula_sum   'Rb1 In1 P1 H1'
_cell_volume   101.56013356
_cell_formula_units_Z   1
loop_
 _symmetry_equiv_pos_site_id
 _symmetry_equiv_pos_as_xyz
  1  'x, y, z'
loop_
 _atom_site_type_symbol
 _atom_site_label
 _atom_site_symmetry_multiplicity
 _atom_site_fract_x
 _atom_site_fract_y
 _atom_site_fract_z
 _atom_site_occupancy
  Rb  Rb0  1  0.000000  0.000000  0.046131  1
  In  In1  1  0.666667  0.333333  0.556343  1
  P  P2  1  0.333333  0.666667  0.420028  1
  H  H3  1  0.666667  0.333333  0.834598  1
