# generated using pymatgen
data_Yb2YSi6Pd19Pt
_symmetry_space_group_name_H-M   'P 1'
_cell_length_a   8.71207761
_cell_length_b   8.71207847
_cell_length_c   8.71207782
_cell_angle_alpha   59.84400193
_cell_angle_beta   59.84399984
_cell_angle_gamma   59.84400341
_symmetry_Int_Tables_number   1
_chemical_formula_structural   Yb2YSi6Pd19Pt
_chemical_formula_sum   'Yb2 Y1 Si6 Pd19 Pt1'
_cell_volume   465.91853743
_cell_formula_units_Z   1
loop_
 _symmetry_equiv_pos_site_id
 _symmetry_equiv_pos_as_xyz
  1  'x, y, z'
loop_
 _atom_site_type_symbol
 _atom_site_label
 _atom_site_symmetry_multiplicity
 _atom_site_fract_x
 _atom_site_fract_y
 _atom_site_fract_z
 _atom_site_occupancy
  Yb  Yb0  1  0.749815  0.749815  0.749815  1
  Yb  Yb1  1  0.999958  0.999958  0.999958  1
  Y  Y2  1  0.250297  0.250297  0.250297  1
  Si  Si3  1  0.730810  0.268775  0.268775  1
  Si  Si4  1  0.267563  0.732585  0.732585  1
  Si  Si5  1  0.268775  0.730810  0.268775  1
  Si  Si6  1  0.732585  0.267563  0.732585  1
  Si  Si7  1  0.268775  0.268775  0.730810  1
  Si  Si8  1  0.732585  0.732585  0.267563  1
  Pd  Pd9  1  0.616711  0.616711  0.616711  1
  Pd  Pd10  1  0.383378  0.383378  0.849353  1
  Pd  Pd11  1  0.383378  0.849353  0.383378  1
  Pd  Pd12  1  0.618080  0.618080  0.149358  1
  Pd  Pd13  1  0.618080  0.149358  0.618080  1
  Pd  Pd14  1  0.849353  0.383378  0.383378  1
  Pd  Pd15  1  0.149358  0.618080  0.618080  1
  Pd  Pd16  1  0.344072  0.999888  0.999888  1
  Pd  Pd17  1  0.654717  0.000103  0.000103  1
  Pd  Pd18  1  0.000256  0.343466  0.655139  1
  Pd  Pd19  1  0.000256  0.655139  0.343466  1
  Pd  Pd20  1  0.999888  0.344072  0.999888  1
  Pd  Pd21  1  0.655139  0.000256  0.343466  1
  Pd  Pd22  1  0.000103  0.654717  0.000103  1
  Pd  Pd23  1  0.343466  0.000256  0.655139  1
  Pd  Pd24  1  0.999888  0.999888  0.344072  1
  Pd  Pd25  1  0.000103  0.000103  0.654717  1
  Pd  Pd26  1  0.655139  0.343466  0.000256  1
  Pd  Pd27  1  0.343466  0.655139  0.000256  1
  Pt  Pt28  1  0.384002  0.384002  0.384002  1
