# generated using pymatgen
data_Na12Nb(FeSe4)3
_symmetry_space_group_name_H-M   'P 1'
_cell_length_a   7.29806523
_cell_length_b   7.51730216
_cell_length_c   15.11955782
_cell_angle_alpha   61.30457495
_cell_angle_beta   89.94138453
_cell_angle_gamma   91.82343346
_symmetry_Int_Tables_number   1
_chemical_formula_structural   Na12Nb(FeSe4)3
_chemical_formula_sum   'Na12 Nb1 Fe3 Se12'
_cell_volume   727.11773848
_cell_formula_units_Z   1
loop_
 _symmetry_equiv_pos_site_id
 _symmetry_equiv_pos_as_xyz
  1  'x, y, z'
loop_
 _atom_site_type_symbol
 _atom_site_label
 _atom_site_symmetry_multiplicity
 _atom_site_fract_x
 _atom_site_fract_y
 _atom_site_fract_z
 _atom_site_occupancy
  Na  Na0  1  0.021479  0.091896  0.609666  1
  Na  Na1  1  0.517814  0.855623  0.914712  1
  Na  Na2  1  0.472697  0.166845  0.072892  1
  Na  Na3  1  0.998189  0.885138  0.404425  1
  Na  Na4  1  0.004829  0.500456  0.261375  1
  Na  Na5  1  0.493907  0.516623  0.203540  1
  Na  Na6  1  0.011236  0.500069  0.734807  1
  Na  Na7  1  0.505855  0.021618  0.632766  1
  Na  Na8  1  0.990700  0.069924  0.099941  1
  Na  Na9  1  0.468594  0.971107  0.382086  1
  Na  Na10  1  0.014721  0.942322  0.891392  1
  Na  Na11  1  0.499933  0.479190  0.785921  1
  Nb  Nb12  1  0.627287  0.498820  0.427489  1
  Fe  Fe13  1  0.372028  0.501223  0.576664  1
  Fe  Fe14  1  0.122953  0.502315  0.072773  1
  Fe  Fe15  1  0.875100  0.498323  0.925088  1
  Se  Se16  1  0.218305  0.198178  0.224841  1
  Se  Se17  1  0.291929  0.477799  0.425211  1
  Se  Se18  1  0.214460  0.500601  0.919178  1
  Se  Se19  1  0.709744  0.526847  0.576522  1
  Se  Se20  1  0.785539  0.496795  0.080714  1
  Se  Se21  1  0.726546  0.802064  0.274664  1
  Se  Se22  1  0.777815  0.795821  0.774898  1
  Se  Se23  1  0.277296  0.203459  0.726229  1
  Se  Se24  1  0.752886  0.196231  0.433239  1
  Se  Se25  1  0.240522  0.803937  0.075786  1
  Se  Se26  1  0.251359  0.801257  0.568995  1
  Se  Se27  1  0.756276  0.195517  0.924186  1
