# generated using pymatgen
data_Ge2PClO4
_symmetry_space_group_name_H-M   'P 1'
_cell_length_a   4.68901900
_cell_length_b   4.94397158
_cell_length_c   12.95109400
_cell_angle_alpha   90.00000000
_cell_angle_beta   90.00000000
_cell_angle_gamma   61.69168950
_symmetry_Int_Tables_number   1
_chemical_formula_structural   Ge2PClO4
_chemical_formula_sum   'Ge4 P2 Cl2 O8'
_cell_volume   264.33135371
_cell_formula_units_Z   2
loop_
 _symmetry_equiv_pos_site_id
 _symmetry_equiv_pos_as_xyz
  1  'x, y, z'
loop_
 _atom_site_type_symbol
 _atom_site_label
 _atom_site_symmetry_multiplicity
 _atom_site_fract_x
 _atom_site_fract_y
 _atom_site_fract_z
 _atom_site_occupancy
  Ge  Ge0  1  0.152197  0.593012  0.115332  1
  Ge  Ge1  1  0.152197  0.593012  0.384669  1
  Ge  Ge2  1  0.745208  0.406989  0.615332  1
  Ge  Ge3  1  0.745208  0.406989  0.884669  1
  P  P4  1  0.812131  0.269072  0.250000  1
  P  P5  1  0.081204  0.730928  0.750000  1
  Cl  Cl6  1  0.577557  0.000000  0.000000  1
  Cl  Cl7  1  0.577557  0.000000  0.500000  1
  O  O8  1  0.883107  0.403049  0.151363  1
  O  O9  1  0.444450  0.356304  0.250000  1
  O  O10  1  0.005738  0.911541  0.250000  1
  O  O11  1  0.883107  0.403049  0.348637  1
  O  O12  1  0.286155  0.596951  0.651364  1
  O  O13  1  0.917281  0.088457  0.750000  1
  O  O14  1  0.800753  0.643696  0.750000  1
  O  O15  1  0.286155  0.596951  0.848637  1
