# generated using pymatgen
data_Cs4CrSbCl12
_symmetry_space_group_name_H-M   'P 1'
_cell_length_a   10.73832892
_cell_length_b   10.77387057
_cell_length_c   13.01931162
_cell_angle_alpha   114.43710186
_cell_angle_beta   114.34737061
_cell_angle_gamma   90.00129771
_symmetry_Int_Tables_number   1
_chemical_formula_structural   Cs4CrSbCl12
_chemical_formula_sum   'Cs8 Cr2 Sb2 Cl24'
_cell_volume   1222.64739395
_cell_formula_units_Z   2
loop_
 _symmetry_equiv_pos_site_id
 _symmetry_equiv_pos_as_xyz
  1  'x, y, z'
loop_
 _atom_site_type_symbol
 _atom_site_label
 _atom_site_symmetry_multiplicity
 _atom_site_fract_x
 _atom_site_fract_y
 _atom_site_fract_z
 _atom_site_occupancy
  Cs  Cs0  1  0.215723  0.000056  0.000051  1
  Cs  Cs1  1  0.784277  0.999944  0.999949  1
  Cs  Cs2  1  0.215749  0.499997  0.000040  1
  Cs  Cs3  1  0.784251  0.500003  0.999960  1
  Cs  Cs4  1  0.000002  0.284754  0.499965  1
  Cs  Cs5  1  0.999998  0.715245  0.500033  1
  Cs  Cs6  1  0.499974  0.284880  0.499984  1
  Cs  Cs7  1  0.500026  0.715119  0.500014  1
  Cr  Cr8  1  0.124557  0.375103  0.249961  1
  Cr  Cr9  1  0.875443  0.624897  0.750040  1
  Sb  Sb10  1  0.625004  0.874997  0.250024  1
  Sb  Sb11  1  0.374996  0.125003  0.749977  1
  Cl  Cl12  1  0.012234  0.262413  0.024733  1
  Cl  Cl13  1  0.510222  0.760228  0.020505  1
  Cl  Cl14  1  0.344396  0.373503  0.246842  1
  Cl  Cl15  1  0.902306  0.373507  0.246890  1
  Cl  Cl16  1  0.624185  0.099798  0.248374  1
  Cl  Cl17  1  0.624199  0.648551  0.248384  1
  Cl  Cl18  1  0.399322  0.875756  0.251577  1
  Cl  Cl19  1  0.852224  0.875759  0.251536  1
  Cl  Cl20  1  0.126479  0.156498  0.253226  1
  Cl  Cl21  1  0.126482  0.596902  0.253221  1
  Cl  Cl22  1  0.739757  0.989766  0.479512  1
  Cl  Cl23  1  0.237527  0.487696  0.475240  1
  Cl  Cl24  1  0.762473  0.512304  0.524760  1
  Cl  Cl25  1  0.260244  0.010235  0.520488  1
  Cl  Cl26  1  0.873518  0.403098  0.746778  1
  Cl  Cl27  1  0.873521  0.843501  0.746773  1
  Cl  Cl28  1  0.147776  0.124241  0.748465  1
  Cl  Cl29  1  0.600678  0.124244  0.748424  1
  Cl  Cl30  1  0.375801  0.351448  0.751615  1
  Cl  Cl31  1  0.375815  0.900202  0.751625  1
  Cl  Cl32  1  0.097695  0.626493  0.753110  1
  Cl  Cl33  1  0.655604  0.626497  0.753158  1
  Cl  Cl34  1  0.489778  0.239772  0.979494  1
  Cl  Cl35  1  0.987766  0.737587  0.975267  1
