# generated using pymatgen
data_CaNd2(BPt2)3
_symmetry_space_group_name_H-M   'P 1'
_cell_length_a   5.53324800
_cell_length_b   5.49334861
_cell_length_c   7.82833300
_cell_angle_alpha   90.00000000
_cell_angle_beta   90.00000000
_cell_angle_gamma   120.24056964
_symmetry_Int_Tables_number   1
_chemical_formula_structural   CaNd2(BPt2)3
_chemical_formula_sum   'Ca1 Nd2 B3 Pt6'
_cell_volume   205.56980153
_cell_formula_units_Z   1
loop_
 _symmetry_equiv_pos_site_id
 _symmetry_equiv_pos_as_xyz
  1  'x, y, z'
loop_
 _atom_site_type_symbol
 _atom_site_label
 _atom_site_symmetry_multiplicity
 _atom_site_fract_x
 _atom_site_fract_y
 _atom_site_fract_z
 _atom_site_occupancy
  Ca  Ca0  1  0.500000  0.000000  0.000000  1
  Nd  Nd1  1  0.000000  0.500000  0.671994  1
  Nd  Nd2  1  0.500000  0.500000  0.328006  1
  B  B3  1  0.500000  0.500000  0.837392  1
  B  B4  1  0.000000  0.500000  0.162608  1
  B  B5  1  0.500000  0.000000  0.500000  1
  Pt  Pt6  1  0.147574  0.295147  0.000000  1
  Pt  Pt7  1  0.849668  0.153123  0.332942  1
  Pt  Pt8  1  0.852426  0.704853  0.000000  1
  Pt  Pt9  1  0.696546  0.846877  0.667058  1
  Pt  Pt10  1  0.303454  0.153123  0.667058  1
  Pt  Pt11  1  0.150332  0.846877  0.332942  1
