# generated using pymatgen
data_Ca3Sn2IrPd
_symmetry_space_group_name_H-M   'P 1'
_cell_length_a   5.91650100
_cell_length_b   8.39703900
_cell_length_c   14.10121600
_cell_angle_alpha   90.00000000
_cell_angle_beta   90.00000000
_cell_angle_gamma   90.00000000
_symmetry_Int_Tables_number   1
_chemical_formula_structural   Ca3Sn2IrPd
_chemical_formula_sum   'Ca12 Sn8 Ir4 Pd4'
_cell_volume   700.56377614
_cell_formula_units_Z   4
loop_
 _symmetry_equiv_pos_site_id
 _symmetry_equiv_pos_as_xyz
  1  'x, y, z'
loop_
 _atom_site_type_symbol
 _atom_site_label
 _atom_site_symmetry_multiplicity
 _atom_site_fract_x
 _atom_site_fract_y
 _atom_site_fract_z
 _atom_site_occupancy
  Ca  Ca0  1  0.151131  0.390418  0.592525  1
  Ca  Ca1  1  0.848869  0.609582  0.092525  1
  Ca  Ca2  1  0.151131  0.109582  0.407475  1
  Ca  Ca3  1  0.848869  0.890418  0.907475  1
  Ca  Ca4  1  0.845101  0.597841  0.401928  1
  Ca  Ca5  1  0.154899  0.402159  0.901928  1
  Ca  Ca6  1  0.845101  0.902159  0.598072  1
  Ca  Ca7  1  0.154899  0.097841  0.098072  1
  Ca  Ca8  1  0.629669  0.251459  0.750725  1
  Ca  Ca9  1  0.370331  0.748541  0.250725  1
  Ca  Ca10  1  0.629669  0.248541  0.249275  1
  Ca  Ca11  1  0.370331  0.751459  0.749275  1
  Sn  Sn12  1  0.632968  0.250000  0.500000  1
  Sn  Sn13  1  0.367032  0.750000  0.000000  1
  Sn  Sn14  1  0.350525  0.750000  0.500000  1
  Sn  Sn15  1  0.649475  0.250000  0.000000  1
  Sn  Sn16  1  0.134609  0.099624  0.749015  1
  Sn  Sn17  1  0.865391  0.900376  0.249015  1
  Sn  Sn18  1  0.134609  0.400376  0.250985  1
  Sn  Sn19  1  0.865391  0.599624  0.750985  1
  Ir  Ir20  1  0.369128  0.032947  0.591515  1
  Ir  Ir21  1  0.630872  0.967053  0.091515  1
  Ir  Ir22  1  0.369128  0.467053  0.408485  1
  Ir  Ir23  1  0.630872  0.532947  0.908485  1
  Pd  Pd24  1  0.630726  0.961212  0.407986  1
  Pd  Pd25  1  0.369274  0.038788  0.907986  1
  Pd  Pd26  1  0.630726  0.538788  0.592014  1
  Pd  Pd27  1  0.369274  0.461212  0.092014  1
