# generated using pymatgen
data_Hf18MnRe7BMo
_symmetry_space_group_name_H-M   'P 1'
_cell_length_a   8.52264200
_cell_length_b   8.52264195
_cell_length_c   8.51694100
_cell_angle_alpha   90.00000000
_cell_angle_beta   90.00000000
_cell_angle_gamma   119.99999243
_symmetry_Int_Tables_number   1
_chemical_formula_structural   Hf18MnRe7BMo
_chemical_formula_sum   'Hf18 Mn1 Re7 B1 Mo1'
_cell_volume   535.75075654
_cell_formula_units_Z   1
loop_
 _symmetry_equiv_pos_site_id
 _symmetry_equiv_pos_as_xyz
  1  'x, y, z'
loop_
 _atom_site_type_symbol
 _atom_site_label
 _atom_site_symmetry_multiplicity
 _atom_site_fract_x
 _atom_site_fract_y
 _atom_site_fract_z
 _atom_site_occupancy
  Hf  Hf0  1  0.202061  0.797939  0.444231  1
  Hf  Hf1  1  0.202061  0.404122  0.444231  1
  Hf  Hf2  1  0.595878  0.797939  0.444231  1
  Hf  Hf3  1  0.798062  0.201938  0.556014  1
  Hf  Hf4  1  0.798062  0.596123  0.556014  1
  Hf  Hf5  1  0.403877  0.201938  0.556014  1
  Hf  Hf6  1  0.799589  0.200411  0.944006  1
  Hf  Hf7  1  0.799589  0.599178  0.944006  1
  Hf  Hf8  1  0.400822  0.200411  0.944006  1
  Hf  Hf9  1  0.201199  0.798801  0.056475  1
  Hf  Hf10  1  0.201199  0.402398  0.056475  1
  Hf  Hf11  1  0.597602  0.798801  0.056475  1
  Hf  Hf12  1  0.540092  0.459908  0.249538  1
  Hf  Hf13  1  0.540092  0.080184  0.249538  1
  Hf  Hf14  1  0.919816  0.459908  0.249538  1
  Hf  Hf15  1  0.460491  0.539509  0.750826  1
  Hf  Hf16  1  0.460491  0.920981  0.750826  1
  Hf  Hf17  1  0.079019  0.539509  0.750826  1
  Mn  Mn18  1  0.333333  0.666667  0.250016  1
  Re  Re19  1  0.888456  0.111544  0.250062  1
  Re  Re20  1  0.888456  0.776913  0.250062  1
  Re  Re21  1  0.223087  0.111544  0.250062  1
  Re  Re22  1  0.110618  0.889382  0.749049  1
  Re  Re23  1  0.110618  0.221235  0.749049  1
  Re  Re24  1  0.778765  0.889382  0.749049  1
  Re  Re25  1  0.000000  0.000000  0.999994  1
  B  B26  1  0.666667  0.333333  0.751172  1
  Mo  Mo27  1  0.000000  0.000000  0.498218  1
