# generated using pymatgen
data_La4SiI6
_symmetry_space_group_name_H-M   'P 1'
_cell_length_a   4.46464000
_cell_length_b   14.70454800
_cell_length_c   15.51320400
_cell_angle_alpha   90.00000000
_cell_angle_beta   90.00000000
_cell_angle_gamma   90.00000000
_symmetry_Int_Tables_number   1
_chemical_formula_structural   La4SiI6
_chemical_formula_sum   'La8 Si2 I12'
_cell_volume   1018.44980371
_cell_formula_units_Z   2
loop_
 _symmetry_equiv_pos_site_id
 _symmetry_equiv_pos_as_xyz
  1  'x, y, z'
loop_
 _atom_site_type_symbol
 _atom_site_label
 _atom_site_symmetry_multiplicity
 _atom_site_fract_x
 _atom_site_fract_y
 _atom_site_fract_z
 _atom_site_occupancy
  La  La0  1  0.500000  0.116009  0.344435  1
  La  La1  1  0.500000  0.883991  0.655565  1
  La  La2  1  0.500000  0.616009  0.155565  1
  La  La3  1  0.500000  0.383991  0.844435  1
  La  La4  1  0.000000  0.114353  0.576157  1
  La  La5  1  0.000000  0.885647  0.423843  1
  La  La6  1  0.000000  0.614353  0.923843  1
  La  La7  1  0.000000  0.385647  0.076157  1
  Si  Si8  1  0.500000  0.000000  0.500000  1
  Si  Si9  1  0.500000  0.500000  0.000000  1
  I  I10  1  0.500000  0.243796  0.161838  1
  I  I11  1  0.500000  0.756204  0.838162  1
  I  I12  1  0.500000  0.743796  0.338162  1
  I  I13  1  0.500000  0.256204  0.661838  1
  I  I14  1  0.000000  0.258418  0.413020  1
  I  I15  1  0.000000  0.741582  0.586980  1
  I  I16  1  0.000000  0.758418  0.086980  1
  I  I17  1  0.000000  0.241582  0.913020  1
  I  I18  1  0.000000  0.999239  0.240662  1
  I  I19  1  0.000000  0.000761  0.759338  1
  I  I20  1  0.000000  0.499239  0.259338  1
  I  I21  1  0.000000  0.500761  0.740662  1
