# generated using pymatgen
data_CsScZnF6
_symmetry_space_group_name_H-M   'P 1'
_cell_length_a   7.65819858
_cell_length_b   7.65819862
_cell_length_c   7.65819867
_cell_angle_alpha   121.20956947
_cell_angle_beta   119.08469331
_cell_angle_gamma   89.75524421
_symmetry_Int_Tables_number   1
_chemical_formula_structural   CsScZnF6
_chemical_formula_sum   'Cs2 Sc2 Zn2 F12'
_cell_volume   316.74223567
_cell_formula_units_Z   2
loop_
 _symmetry_equiv_pos_site_id
 _symmetry_equiv_pos_as_xyz
  1  'x, y, z'
loop_
 _atom_site_type_symbol
 _atom_site_label
 _atom_site_symmetry_multiplicity
 _atom_site_fract_x
 _atom_site_fract_y
 _atom_site_fract_z
 _atom_site_occupancy
  Cs  Cs0  1  0.365360  0.615360  0.750000  1
  Cs  Cs1  1  0.634640  0.384640  0.250000  1
  Sc  Sc2  1  0.000000  0.000000  0.000000  1
  Sc  Sc3  1  0.500000  0.000000  0.500000  1
  Zn  Zn4  1  0.000000  0.000000  0.500000  1
  Zn  Zn5  1  0.000000  0.500000  0.000000  1
  F  F6  1  0.316276  0.066276  0.250000  1
  F  F7  1  0.932858  0.682858  0.250000  1
  F  F8  1  0.322863  0.683707  0.251697  1
  F  F9  1  0.932010  0.071166  0.248303  1
  F  F10  1  0.322863  0.071166  0.639156  1
  F  F11  1  0.932010  0.683707  0.860844  1
  F  F12  1  0.683724  0.933724  0.750000  1
  F  F13  1  0.067142  0.317142  0.750000  1
  F  F14  1  0.677137  0.316293  0.748303  1
  F  F15  1  0.067990  0.928834  0.751697  1
  F  F16  1  0.677137  0.928834  0.360844  1
  F  F17  1  0.067990  0.316293  0.139156  1
