# generated using pymatgen
data_Pr12Sn(GeI4)3
_symmetry_space_group_name_H-M   'P 1'
_cell_length_a   11.00735555
_cell_length_b   11.00735555
_cell_length_c   11.00735511
_cell_angle_alpha   109.62544957
_cell_angle_beta   109.62545324
_cell_angle_gamma   109.62545405
_symmetry_Int_Tables_number   1
_chemical_formula_structural   Pr12Sn(GeI4)3
_chemical_formula_sum   'Pr12 Sn1 Ge3 I12'
_cell_volume   1020.75642836
_cell_formula_units_Z   1
loop_
 _symmetry_equiv_pos_site_id
 _symmetry_equiv_pos_as_xyz
  1  'x, y, z'
loop_
 _atom_site_type_symbol
 _atom_site_label
 _atom_site_symmetry_multiplicity
 _atom_site_fract_x
 _atom_site_fract_y
 _atom_site_fract_z
 _atom_site_occupancy
  Pr  Pr0  1  0.474488  0.493934  0.231403  1
  Pr  Pr1  1  0.750000  0.232576  0.267424  1
  Pr  Pr2  1  0.750000  0.016812  0.483188  1
  Pr  Pr3  1  0.231403  0.474488  0.493934  1
  Pr  Pr4  1  0.267424  0.750000  0.232576  1
  Pr  Pr5  1  0.025512  0.268597  0.006066  1
  Pr  Pr6  1  0.006066  0.025512  0.268597  1
  Pr  Pr7  1  0.483188  0.750000  0.016812  1
  Pr  Pr8  1  0.493934  0.231403  0.474488  1
  Pr  Pr9  1  0.016812  0.483188  0.750000  1
  Pr  Pr10  1  0.268597  0.006066  0.025512  1
  Pr  Pr11  1  0.232576  0.267424  0.750000  1
  Sn  Sn12  1  0.250000  0.250000  0.250000  1
  Ge  Ge13  1  0.500146  0.999854  0.250000  1
  Ge  Ge14  1  0.999854  0.250000  0.500146  1
  Ge  Ge15  1  0.250000  0.500146  0.999854  1
  I  I16  1  0.250000  0.756848  0.743152  1
  I  I17  1  0.512899  0.506636  0.757008  1
  I  I18  1  0.987101  0.742992  0.993364  1
  I  I19  1  0.743152  0.250000  0.756848  1
  I  I20  1  0.993364  0.987101  0.742992  1
  I  I21  1  0.250000  0.993266  0.506734  1
  I  I22  1  0.757008  0.512899  0.506636  1
  I  I23  1  0.506734  0.250000  0.993266  1
  I  I24  1  0.756848  0.743152  0.250000  1
  I  I25  1  0.742992  0.993364  0.987101  1
  I  I26  1  0.993266  0.506734  0.250000  1
  I  I27  1  0.506636  0.757008  0.512899  1
