# generated using pymatgen
data_Li12Si4Ni3Ru
_symmetry_space_group_name_H-M   'P 1'
_cell_length_a   6.41641246
_cell_length_b   6.41641246
_cell_length_c   6.41641246
_cell_angle_alpha   89.63907298
_cell_angle_beta   89.63907298
_cell_angle_gamma   89.63907298
_symmetry_Int_Tables_number   1
_chemical_formula_structural   Li12Si4Ni3Ru
_chemical_formula_sum   'Li12 Si4 Ni3 Ru1'
_cell_volume   264.15028060
_cell_formula_units_Z   1
loop_
 _symmetry_equiv_pos_site_id
 _symmetry_equiv_pos_as_xyz
  1  'x, y, z'
loop_
 _atom_site_type_symbol
 _atom_site_label
 _atom_site_symmetry_multiplicity
 _atom_site_fract_x
 _atom_site_fract_y
 _atom_site_fract_z
 _atom_site_occupancy
  Li  Li0  1  0.127734  0.198761  0.453444  1
  Li  Li1  1  0.369308  0.800835  0.956263  1
  Li  Li2  1  0.875156  0.703304  0.047564  1
  Li  Li3  1  0.453444  0.127734  0.198761  1
  Li  Li4  1  0.625555  0.296776  0.544521  1
  Li  Li5  1  0.956263  0.369308  0.800835  1
  Li  Li6  1  0.047564  0.875156  0.703304  1
  Li  Li7  1  0.544521  0.625555  0.296776  1
  Li  Li8  1  0.198761  0.453444  0.127734  1
  Li  Li9  1  0.703304  0.047564  0.875156  1
  Li  Li10  1  0.296776  0.544521  0.625555  1
  Li  Li11  1  0.800835  0.956263  0.369308  1
  Si  Si12  1  0.070367  0.070367  0.070367  1
  Si  Si13  1  0.427451  0.932661  0.568036  1
  Si  Si14  1  0.932661  0.568036  0.427451  1
  Si  Si15  1  0.568036  0.427451  0.932661  1
  Ni  Ni16  1  0.823551  0.319154  0.177067  1
  Ni  Ni17  1  0.319154  0.177067  0.823551  1
  Ni  Ni18  1  0.177067  0.823551  0.319154  1
  Ru  Ru19  1  0.682492  0.682492  0.682492  1
