# generated using pymatgen
data_Dy4YEr(B7W)2
_symmetry_space_group_name_H-M   'P 1'
_cell_length_a   8.15977675
_cell_length_b   8.15977655
_cell_length_c   9.49519013
_cell_angle_alpha   89.92503485
_cell_angle_beta   90.07496528
_cell_angle_gamma   155.55704946
_symmetry_Int_Tables_number   1
_chemical_formula_structural   Dy4YEr(B7W)2
_chemical_formula_sum   'Dy4 Y1 Er1 B14 W2'
_cell_volume   261.59934264
_cell_formula_units_Z   1
loop_
 _symmetry_equiv_pos_site_id
 _symmetry_equiv_pos_as_xyz
  1  'x, y, z'
loop_
 _atom_site_type_symbol
 _atom_site_label
 _atom_site_symmetry_multiplicity
 _atom_site_fract_x
 _atom_site_fract_y
 _atom_site_fract_z
 _atom_site_occupancy
  Dy  Dy0  1  0.892892  0.107108  0.939919  1
  Dy  Dy1  1  0.107307  0.892693  0.060357  1
  Dy  Dy2  1  0.754384  0.245616  0.250083  1
  Dy  Dy3  1  0.892677  0.107323  0.559927  1
  Y  Y4  1  0.245464  0.754536  0.749843  1
  Er  Er5  1  0.106783  0.893217  0.440747  1
  B  B6  1  0.545335  0.454665  0.250927  1
  B  B7  1  0.455363  0.544637  0.749776  1
  B  B8  1  0.519739  0.480261  0.908157  1
  B  B9  1  0.480561  0.519439  0.092218  1
  B  B10  1  0.480793  0.519207  0.408473  1
  B  B11  1  0.519901  0.480099  0.591342  1
  B  B12  1  0.635140  0.364860  0.852863  1
  B  B13  1  0.364813  0.635187  0.147899  1
  B  B14  1  0.727533  0.272467  0.967541  1
  B  B15  1  0.272410  0.727590  0.033251  1
  B  B16  1  0.271810  0.728190  0.466403  1
  B  B17  1  0.727009  0.272991  0.531859  1
  B  B18  1  0.634947  0.365053  0.646220  1
  B  B19  1  0.364696  0.635304  0.352106  1
  W  W20  1  0.053378  0.946622  0.749758  1
  W  W21  1  0.947063  0.052937  0.250328  1
