# generated using pymatgen
data_Lu4Si10IrOs5
_symmetry_space_group_name_H-M   'P 1'
_cell_length_a   8.07728391
_cell_length_b   8.06634452
_cell_length_c   5.75536286
_cell_angle_alpha   70.92375077
_cell_angle_beta   70.95432835
_cell_angle_gamma   94.39536646
_symmetry_Int_Tables_number   1
_chemical_formula_structural   Lu4Si10IrOs5
_chemical_formula_sum   'Lu4 Si10 Ir1 Os5'
_cell_volume   327.86677159
_cell_formula_units_Z   1
loop_
 _symmetry_equiv_pos_site_id
 _symmetry_equiv_pos_as_xyz
  1  'x, y, z'
loop_
 _atom_site_type_symbol
 _atom_site_label
 _atom_site_symmetry_multiplicity
 _atom_site_fract_x
 _atom_site_fract_y
 _atom_site_fract_z
 _atom_site_occupancy
  Lu  Lu0  1  0.866886  0.599062  0.754722  1
  Lu  Lu1  1  0.401069  0.130677  0.746412  1
  Lu  Lu2  1  0.130486  0.399413  0.249238  1
  Lu  Lu3  1  0.599398  0.869917  0.253396  1
  Si  Si4  1  0.066724  0.259884  0.835194  1
  Si  Si5  1  0.738135  0.930144  0.666571  1
  Si  Si6  1  0.930013  0.737546  0.167326  1
  Si  Si7  1  0.262835  0.068509  0.332076  1
  Si  Si8  1  0.208580  0.796891  0.745225  1
  Si  Si9  1  0.795497  0.206636  0.248034  1
  Si  Si10  1  0.515506  0.486652  0.750126  1
  Si  Si11  1  0.487164  0.513753  0.248720  1
  Si  Si12  1  0.774928  0.225825  0.751122  1
  Si  Si13  1  0.225394  0.777526  0.248919  1
  Ir  Ir14  1  0.254049  0.543002  0.631964  1
  Os  Os15  1  0.454902  0.744204  0.870521  1
  Os  Os16  1  0.743651  0.455567  0.369739  1
  Os  Os17  1  0.543876  0.256059  0.131901  1
  Os  Os18  1  0.004127  0.995246  0.749352  1
  Os  Os19  1  0.996779  0.003488  0.249442  1
