# generated using pymatgen
data_CaBe3Cd2(SiO4)3
_symmetry_space_group_name_H-M   'P 1'
_cell_length_a   7.83666300
_cell_length_b   8.27843377
_cell_length_c   16.61889470
_cell_angle_alpha   60.14752210
_cell_angle_beta   90.00000000
_cell_angle_gamma   90.00000000
_symmetry_Int_Tables_number   1
_chemical_formula_structural   CaBe3Cd2(SiO4)3
_chemical_formula_sum   'Ca4 Be12 Cd8 Si12 O48'
_cell_volume   935.09512326
_cell_formula_units_Z   4
loop_
 _symmetry_equiv_pos_site_id
 _symmetry_equiv_pos_as_xyz
  1  'x, y, z'
loop_
 _atom_site_type_symbol
 _atom_site_label
 _atom_site_symmetry_multiplicity
 _atom_site_fract_x
 _atom_site_fract_y
 _atom_site_fract_z
 _atom_site_occupancy
  Ca  Ca0  1  0.001585  0.496974  0.751447  1
  Ca  Ca1  1  0.501585  0.503026  0.748553  1
  Ca  Ca2  1  0.998415  0.503026  0.248553  1
  Ca  Ca3  1  0.498415  0.496974  0.251448  1
  Be  Be4  1  0.665297  0.159401  0.262483  1
  Be  Be5  1  0.835262  0.526835  0.907876  1
  Be  Be6  1  0.335262  0.473165  0.592124  1
  Be  Be7  1  0.164738  0.473165  0.092124  1
  Be  Be8  1  0.664738  0.526835  0.407877  1
  Be  Be9  1  0.336105  0.182281  0.919483  1
  Be  Be10  1  0.836105  0.817719  0.580517  1
  Be  Be11  1  0.663895  0.817719  0.080517  1
  Be  Be12  1  0.163895  0.182281  0.419483  1
  Be  Be13  1  0.834703  0.159401  0.762483  1
  Be  Be14  1  0.334703  0.840599  0.737517  1
  Be  Be15  1  0.165297  0.840599  0.237517  1
  Cd  Cd16  1  0.033975  0.171112  0.590247  1
  Cd  Cd17  1  0.466025  0.171112  0.090248  1
  Cd  Cd18  1  0.966025  0.828888  0.409753  1
  Cd  Cd19  1  0.533975  0.828888  0.909753  1
  Cd  Cd20  1  0.968496  0.837485  0.928208  1
  Cd  Cd21  1  0.468496  0.162515  0.571792  1
  Cd  Cd22  1  0.031504  0.162515  0.071792  1
  Cd  Cd23  1  0.531504  0.837485  0.428208  1
  Si  Si24  1  0.275263  0.157267  0.264633  1
  Si  Si25  1  0.775263  0.842733  0.235367  1
  Si  Si26  1  0.724737  0.842733  0.735367  1
  Si  Si27  1  0.224737  0.157267  0.764633  1
  Si  Si28  1  0.779957  0.187056  0.421077  1
  Si  Si29  1  0.279957  0.812944  0.078923  1
  Si  Si30  1  0.220043  0.812944  0.578923  1
  Si  Si31  1  0.720043  0.187056  0.921077  1
  Si  Si32  1  0.276789  0.528357  0.407049  1
  Si  Si33  1  0.776789  0.471643  0.092951  1
  Si  Si34  1  0.723211  0.471643  0.592951  1
  Si  Si35  1  0.223211  0.528357  0.907049  1
  O  O36  1  0.355525  0.698993  0.549578  1
  O  O37  1  0.470188  0.122068  0.308089  1
  O  O38  1  0.970188  0.877932  0.191911  1
  O  O39  1  0.529812  0.877932  0.691911  1
  O  O40  1  0.029812  0.122068  0.808089  1
  O  O41  1  0.973165  0.231862  0.442610  1
  O  O42  1  0.473165  0.768138  0.057390  1
  O  O43  1  0.026835  0.768138  0.557390  1
  O  O44  1  0.526835  0.231862  0.942610  1
  O  O45  1  0.470665  0.616177  0.385402  1
  O  O46  1  0.970665  0.383823  0.114598  1
  O  O47  1  0.529335  0.383823  0.614598  1
  O  O48  1  0.357737  0.701591  0.849603  1
  O  O49  1  0.857737  0.298409  0.650397  1
  O  O50  1  0.642263  0.298409  0.150397  1
  O  O51  1  0.142263  0.701591  0.349603  1
  O  O52  1  0.855525  0.301007  0.950422  1
  O  O53  1  0.029335  0.616177  0.885402  1
  O  O54  1  0.144475  0.698993  0.049578  1
  O  O55  1  0.644475  0.301007  0.450422  1
  O  O56  1  0.742334  0.584093  0.979646  1
  O  O57  1  0.859580  0.906271  0.649046  1
  O  O58  1  0.640420  0.906271  0.149046  1
  O  O59  1  0.140420  0.093729  0.350954  1
  O  O60  1  0.760230  0.617296  0.307622  1
  O  O61  1  0.260230  0.382704  0.192378  1
  O  O62  1  0.239770  0.382704  0.692378  1
  O  O63  1  0.739770  0.617296  0.807622  1
  O  O64  1  0.763921  0.266316  0.308981  1
  O  O65  1  0.263921  0.733684  0.191019  1
  O  O66  1  0.236079  0.733684  0.691019  1
  O  O67  1  0.736079  0.266316  0.808981  1
  O  O68  1  0.262206  0.383593  0.366409  1
  O  O69  1  0.762206  0.616407  0.133591  1
  O  O70  1  0.737794  0.616407  0.633591  1
  O  O71  1  0.237794  0.383593  0.866409  1
  O  O72  1  0.749121  0.955594  0.292931  1
  O  O73  1  0.249121  0.044406  0.207069  1
  O  O74  1  0.250879  0.044406  0.707069  1
  O  O75  1  0.750879  0.955594  0.792931  1
  O  O76  1  0.742477  0.960516  0.480248  1
  O  O77  1  0.242477  0.039484  0.019752  1
  O  O78  1  0.257523  0.039484  0.519752  1
  O  O79  1  0.757523  0.960516  0.980248  1
  O  O80  1  0.757666  0.584093  0.479646  1
  O  O81  1  0.257666  0.415907  0.020354  1
  O  O82  1  0.242334  0.415907  0.520354  1
  O  O83  1  0.359580  0.093729  0.850954  1
