# generated using pymatgen
data_YHo2AlSiRh2
_symmetry_space_group_name_H-M   'P 1'
_cell_length_a   5.53075800
_cell_length_b   7.90806900
_cell_length_c   13.25049500
_cell_angle_alpha   90.00000000
_cell_angle_beta   90.00000000
_cell_angle_gamma   90.00000000
_symmetry_Int_Tables_number   1
_chemical_formula_structural   YHo2AlSiRh2
_chemical_formula_sum   'Y4 Ho8 Al4 Si4 Rh8'
_cell_volume   579.54506061
_cell_formula_units_Z   4
loop_
 _symmetry_equiv_pos_site_id
 _symmetry_equiv_pos_as_xyz
  1  'x, y, z'
loop_
 _atom_site_type_symbol
 _atom_site_label
 _atom_site_symmetry_multiplicity
 _atom_site_fract_x
 _atom_site_fract_y
 _atom_site_fract_z
 _atom_site_occupancy
  Y  Y0  1  0.367344  0.243697  0.250000  1
  Y  Y1  1  0.367344  0.256303  0.750000  1
  Y  Y2  1  0.632656  0.743697  0.250000  1
  Y  Y3  1  0.632656  0.756303  0.750000  1
  Ho  Ho4  1  0.144045  0.602252  0.102850  1
  Ho  Ho5  1  0.144045  0.897748  0.897150  1
  Ho  Ho6  1  0.855955  0.102252  0.397150  1
  Ho  Ho7  1  0.855955  0.397748  0.602850  1
  Ho  Ho8  1  0.855955  0.397748  0.897150  1
  Ho  Ho9  1  0.855955  0.102252  0.102850  1
  Ho  Ho10  1  0.144045  0.897748  0.602850  1
  Ho  Ho11  1  0.144045  0.602252  0.397150  1
  Al  Al12  1  0.375888  0.250000  0.000000  1
  Al  Al13  1  0.624112  0.750000  0.500000  1
  Al  Al14  1  0.624112  0.750000  0.000000  1
  Al  Al15  1  0.375888  0.250000  0.500000  1
  Si  Si16  1  0.864293  0.389500  0.250000  1
  Si  Si17  1  0.864293  0.110500  0.750000  1
  Si  Si18  1  0.135707  0.889500  0.250000  1
  Si  Si19  1  0.135707  0.610500  0.750000  1
  Rh  Rh20  1  0.644908  0.470044  0.093298  1
  Rh  Rh21  1  0.644908  0.029956  0.906702  1
  Rh  Rh22  1  0.355092  0.970044  0.406702  1
  Rh  Rh23  1  0.355092  0.529956  0.593298  1
  Rh  Rh24  1  0.355092  0.529956  0.906702  1
  Rh  Rh25  1  0.355092  0.970044  0.093298  1
  Rh  Rh26  1  0.644908  0.029956  0.593298  1
  Rh  Rh27  1  0.644908  0.470044  0.406702  1
