# generated using pymatgen
data_CeTh(MnAl5)4
_symmetry_space_group_name_H-M   'P 1'
_cell_length_a   6.82164275
_cell_length_b   6.82555516
_cell_length_c   9.06229500
_cell_angle_alpha   90.00000000
_cell_angle_beta   90.00000000
_cell_angle_gamma   97.46959507
_symmetry_Int_Tables_number   1
_chemical_formula_structural   CeTh(MnAl5)4
_chemical_formula_sum   'Ce1 Th1 Mn4 Al20'
_cell_volume   418.37333153
_cell_formula_units_Z   1
loop_
 _symmetry_equiv_pos_site_id
 _symmetry_equiv_pos_as_xyz
  1  'x, y, z'
loop_
 _atom_site_type_symbol
 _atom_site_label
 _atom_site_symmetry_multiplicity
 _atom_site_fract_x
 _atom_site_fract_y
 _atom_site_fract_z
 _atom_site_occupancy
  Ce  Ce0  1  0.875528  0.124796  0.750000  1
  Th  Th1  1  0.125275  0.875259  0.250000  1
  Mn  Mn2  1  0.999930  0.500725  0.499664  1
  Mn  Mn3  1  0.999930  0.500725  0.000336  1
  Mn  Mn4  1  0.498330  0.999603  0.000691  1
  Mn  Mn5  1  0.498330  0.999603  0.499309  1
  Al  Al6  1  0.523870  0.781121  0.750000  1
  Al  Al7  1  0.477914  0.220904  0.250000  1
  Al  Al8  1  0.593156  0.869020  0.250000  1
  Al  Al9  1  0.770155  0.771018  0.998820  1
  Al  Al10  1  0.159011  0.840775  0.599065  1
  Al  Al11  1  0.229136  0.230135  0.998780  1
  Al  Al12  1  0.131134  0.407283  0.250000  1
  Al  Al13  1  0.624693  0.375208  0.951895  1
  Al  Al14  1  0.840079  0.159779  0.096458  1
  Al  Al15  1  0.376136  0.623798  0.455983  1
  Al  Al16  1  0.159011  0.840775  0.900935  1
  Al  Al17  1  0.219014  0.476309  0.750000  1
  Al  Al18  1  0.376136  0.623798  0.044017  1
  Al  Al19  1  0.840079  0.159779  0.403542  1
  Al  Al20  1  0.624693  0.375208  0.548105  1
  Al  Al21  1  0.410959  0.131680  0.750000  1
  Al  Al22  1  0.779665  0.522190  0.250000  1
  Al  Al23  1  0.770155  0.771018  0.501180  1
  Al  Al24  1  0.229136  0.230135  0.501220  1
  Al  Al25  1  0.868546  0.589353  0.750000  1
