# generated using pymatgen
data_Ca4Eu4Si3Sb
_symmetry_space_group_name_H-M   'P 1'
_cell_length_a   4.84754900
_cell_length_b   7.96516359
_cell_length_c   9.32048722
_cell_angle_alpha   90.69975383
_cell_angle_beta   90.00000000
_cell_angle_gamma   90.00000000
_symmetry_Int_Tables_number   1
_chemical_formula_structural   Ca4Eu4Si3Sb
_chemical_formula_sum   'Ca4 Eu4 Si3 Sb1'
_cell_volume   359.85134713
_cell_formula_units_Z   1
loop_
 _symmetry_equiv_pos_site_id
 _symmetry_equiv_pos_as_xyz
  1  'x, y, z'
loop_
 _atom_site_type_symbol
 _atom_site_label
 _atom_site_symmetry_multiplicity
 _atom_site_fract_x
 _atom_site_fract_y
 _atom_site_fract_z
 _atom_site_occupancy
  Ca  Ca0  1  0.750000  0.351869  0.072390  1
  Ca  Ca1  1  0.250000  0.641876  0.940536  1
  Ca  Ca2  1  0.750000  0.859857  0.413059  1
  Ca  Ca3  1  0.250000  0.158385  0.570200  1
  Eu  Eu4  1  0.250000  0.028653  0.167610  1
  Eu  Eu5  1  0.750000  0.979976  0.832006  1
  Eu  Eu6  1  0.250000  0.514182  0.321199  1
  Eu  Eu7  1  0.750000  0.464153  0.679905  1
  Si  Si8  1  0.750000  0.245096  0.389000  1
  Si  Si9  1  0.250000  0.255914  0.888773  1
  Si  Si10  1  0.750000  0.743548  0.109707  1
  Sb  Sb11  1  0.250000  0.756490  0.615616  1
