# generated using pymatgen
data_Ho3MgCd2Si2Au
_symmetry_space_group_name_H-M   'P 1'
_cell_length_a   7.16430700
_cell_length_b   7.23563224
_cell_length_c   4.32950500
_cell_angle_alpha   90.00000000
_cell_angle_beta   90.00000000
_cell_angle_gamma   119.67445334
_symmetry_Int_Tables_number   1
_chemical_formula_structural   Ho3MgCd2Si2Au
_chemical_formula_sum   'Ho3 Mg1 Cd2 Si2 Au1'
_cell_volume   195.00012658
_cell_formula_units_Z   1
loop_
 _symmetry_equiv_pos_site_id
 _symmetry_equiv_pos_as_xyz
  1  'x, y, z'
loop_
 _atom_site_type_symbol
 _atom_site_label
 _atom_site_symmetry_multiplicity
 _atom_site_fract_x
 _atom_site_fract_y
 _atom_site_fract_z
 _atom_site_occupancy
  Ho  Ho0  1  0.583861  0.000000  0.000000  1
  Ho  Ho1  1  0.999062  0.580946  0.000000  1
  Ho  Ho2  1  0.418116  0.419054  0.000000  1
  Mg  Mg3  1  0.242173  0.000000  0.500000  1
  Cd  Cd4  1  0.001463  0.255543  0.500000  1
  Cd  Cd5  1  0.745920  0.744457  0.500000  1
  Si  Si6  1  0.333047  0.671021  0.500000  1
  Si  Si7  1  0.662027  0.328979  0.500000  1
  Au  Au8  1  0.014330  0.000000  0.000000  1
