# generated using pymatgen
data_Nd8HoTmPb6
_symmetry_space_group_name_H-M   'P 1'
_cell_length_a   9.31698200
_cell_length_b   9.31698328
_cell_length_c   6.82110900
_cell_angle_alpha   90.00000000
_cell_angle_beta   90.00000000
_cell_angle_gamma   120.00000255
_symmetry_Int_Tables_number   1
_chemical_formula_structural   Nd8HoTmPb6
_chemical_formula_sum   'Nd8 Ho1 Tm1 Pb6'
_cell_volume   512.78602717
_cell_formula_units_Z   1
loop_
 _symmetry_equiv_pos_site_id
 _symmetry_equiv_pos_as_xyz
  1  'x, y, z'
loop_
 _atom_site_type_symbol
 _atom_site_label
 _atom_site_symmetry_multiplicity
 _atom_site_fract_x
 _atom_site_fract_y
 _atom_site_fract_z
 _atom_site_occupancy
  Nd  Nd0  1  0.666667  0.333333  0.500000  1
  Nd  Nd1  1  0.666667  0.333333  0.000000  1
  Nd  Nd2  1  0.239103  0.999636  0.249972  1
  Nd  Nd3  1  0.239103  0.239465  0.750028  1
  Nd  Nd4  1  0.000364  0.760897  0.750028  1
  Nd  Nd5  1  0.000364  0.239465  0.249972  1
  Nd  Nd6  1  0.760535  0.760897  0.249972  1
  Nd  Nd7  1  0.760535  0.999636  0.750028  1
  Ho  Ho8  1  0.333333  0.666667  0.500000  1
  Tm  Tm9  1  0.333333  0.666667  0.000000  1
  Pb  Pb10  1  0.599886  0.994003  0.250522  1
  Pb  Pb11  1  0.599886  0.605882  0.749478  1
  Pb  Pb12  1  0.005997  0.400114  0.749478  1
  Pb  Pb13  1  0.005997  0.605882  0.250522  1
  Pb  Pb14  1  0.394118  0.400114  0.250522  1
  Pb  Pb15  1  0.394118  0.994003  0.749478  1
