# generated using pymatgen
data_NdSm(IO4)2
_symmetry_space_group_name_H-M   'P 1'
_cell_length_a   5.73472376
_cell_length_b   5.74970000
_cell_length_c   11.16148713
_cell_angle_alpha   90.00000000
_cell_angle_beta   89.51365014
_cell_angle_gamma   90.00000000
_symmetry_Int_Tables_number   1
_chemical_formula_structural   NdSm(IO4)2
_chemical_formula_sum   'Nd2 Sm2 I4 O16'
_cell_volume   368.01380005
_cell_formula_units_Z   2
loop_
 _symmetry_equiv_pos_site_id
 _symmetry_equiv_pos_as_xyz
  1  'x, y, z'
loop_
 _atom_site_type_symbol
 _atom_site_label
 _atom_site_symmetry_multiplicity
 _atom_site_fract_x
 _atom_site_fract_y
 _atom_site_fract_z
 _atom_site_occupancy
  Nd  Nd0  1  0.493004  0.315650  0.893119  1
  Nd  Nd1  1  0.506996  0.815650  0.106881  1
  Sm  Sm2  1  0.011580  0.816964  0.897981  1
  Sm  Sm3  1  0.988420  0.316964  0.102019  1
  I  I4  1  0.003113  0.325419  0.638465  1
  I  I5  1  0.996887  0.825419  0.361535  1
  I  I6  1  0.491805  0.825107  0.636639  1
  I  I7  1  0.508195  0.325107  0.363361  1
  O  O8  1  0.242609  0.066417  0.008655  1
  O  O9  1  0.757391  0.566417  0.991345  1
  O  O10  1  0.252476  0.565660  0.007912  1
  O  O11  1  0.747524  0.065660  0.992088  1
  O  O12  1  0.129699  0.435324  0.779156  1
  O  O13  1  0.870301  0.935324  0.220844  1
  O  O14  1  0.361467  0.931131  0.778543  1
  O  O15  1  0.638533  0.431131  0.221457  1
  O  O16  1  0.847675  0.082912  0.717557  1
  O  O17  1  0.152325  0.582912  0.282443  1
  O  O18  1  0.644789  0.580401  0.713184  1
  O  O19  1  0.355211  0.080401  0.286816  1
  O  O20  1  0.245535  0.165754  0.565825  1
  O  O21  1  0.754465  0.665754  0.434175  1
  O  O22  1  0.252712  0.666083  0.563269  1
  O  O23  1  0.747288  0.166083  0.436731  1
