# generated using pymatgen
data_Nd3Ag3RhAu2
_symmetry_space_group_name_H-M   'P 1'
_cell_length_a   7.78709100
_cell_length_b   7.78709107
_cell_length_c   4.01470900
_cell_angle_alpha   90.00000000
_cell_angle_beta   90.00000000
_cell_angle_gamma   119.99999544
_symmetry_Int_Tables_number   1
_chemical_formula_structural   Nd3Ag3RhAu2
_chemical_formula_sum   'Nd3 Ag3 Rh1 Au2'
_cell_volume   210.83136816
_cell_formula_units_Z   1
loop_
 _symmetry_equiv_pos_site_id
 _symmetry_equiv_pos_as_xyz
  1  'x, y, z'
loop_
 _atom_site_type_symbol
 _atom_site_label
 _atom_site_symmetry_multiplicity
 _atom_site_fract_x
 _atom_site_fract_y
 _atom_site_fract_z
 _atom_site_occupancy
  Nd  Nd0  1  0.587683  0.981022  0.000000  1
  Nd  Nd1  1  0.018978  0.606662  0.000000  1
  Nd  Nd2  1  0.393338  0.412317  0.000000  1
  Ag  Ag3  1  0.259600  0.999094  0.500000  1
  Ag  Ag4  1  0.000906  0.260505  0.500000  1
  Ag  Ag5  1  0.739495  0.740400  0.500000  1
  Rh  Rh6  1  0.333333  0.666667  0.500000  1
  Au  Au7  1  0.666667  0.333333  0.500000  1
  Au  Au8  1  0.000000  0.000000  0.000000  1
