# generated using pymatgen
data_Er4Sn6Ir5Rh2
_symmetry_space_group_name_H-M   'P 1'
_cell_length_a   7.57691204
_cell_length_b   7.57689765
_cell_length_c   7.57689700
_cell_angle_alpha   109.47220384
_cell_angle_beta   109.47149695
_cell_angle_gamma   109.47150103
_symmetry_Int_Tables_number   1
_chemical_formula_structural   Er4Sn6Ir5Rh2
_chemical_formula_sum   'Er4 Sn6 Ir5 Rh2'
_cell_volume   334.84583812
_cell_formula_units_Z   1
loop_
 _symmetry_equiv_pos_site_id
 _symmetry_equiv_pos_as_xyz
  1  'x, y, z'
loop_
 _atom_site_type_symbol
 _atom_site_label
 _atom_site_symmetry_multiplicity
 _atom_site_fract_x
 _atom_site_fract_y
 _atom_site_fract_z
 _atom_site_occupancy
  Er  Er0  1  0.000769  0.000388  0.500388  1
  Er  Er1  1  0.999231  0.499612  0.999612  1
  Er  Er2  1  0.500000  0.000385  0.999615  1
  Er  Er3  1  0.500000  0.499618  0.500382  1
  Sn  Sn4  1  0.686471  0.686894  0.000378  1
  Sn  Sn5  1  0.313529  0.999622  0.313106  1
  Sn  Sn6  1  0.000072  0.312880  0.312886  1
  Sn  Sn7  1  0.313535  0.313978  0.000477  1
  Sn  Sn8  1  0.686465  0.999523  0.686022  1
  Sn  Sn9  1  0.999928  0.687114  0.687120  1
  Ir  Ir10  1  0.749944  0.250054  0.500110  1
  Ir  Ir11  1  0.749944  0.499904  0.249871  1
  Ir  Ir12  1  0.500000  0.250010  0.749990  1
  Ir  Ir13  1  0.250056  0.499890  0.749946  1
  Ir  Ir14  1  0.250056  0.750129  0.500096  1
  Rh  Rh15  1  0.500000  0.749990  0.250010  1
  Rh  Rh16  1  0.000000  0.000010  0.999990  1
