# generated using pymatgen
data_CeNd4ThIr18
_symmetry_space_group_name_H-M   'P 1'
_cell_length_a   5.37259700
_cell_length_b   5.37259546
_cell_length_c   17.67596500
_cell_angle_alpha   90.00000000
_cell_angle_beta   90.00000000
_cell_angle_gamma   120.00000331
_symmetry_Int_Tables_number   1
_chemical_formula_structural   CeNd4ThIr18
_chemical_formula_sum   'Ce1 Nd4 Th1 Ir18'
_cell_volume   441.85742408
_cell_formula_units_Z   1
loop_
 _symmetry_equiv_pos_site_id
 _symmetry_equiv_pos_as_xyz
  1  'x, y, z'
loop_
 _atom_site_type_symbol
 _atom_site_label
 _atom_site_symmetry_multiplicity
 _atom_site_fract_x
 _atom_site_fract_y
 _atom_site_fract_z
 _atom_site_occupancy
  Ce  Ce0  1  0.333333  0.666667  0.542737  1
  Nd  Nd1  1  0.333333  0.666667  0.959210  1
  Nd  Nd2  1  0.666667  0.333333  0.039043  1
  Nd  Nd3  1  0.666667  0.333333  0.460917  1
  Nd  Nd4  1  0.333333  0.666667  0.751658  1
  Th  Th5  1  0.666667  0.333333  0.249850  1
  Ir  Ir6  1  0.166904  0.833096  0.373174  1
  Ir  Ir7  1  0.166904  0.333808  0.373174  1
  Ir  Ir8  1  0.666192  0.833096  0.373174  1
  Ir  Ir9  1  0.832967  0.167033  0.626868  1
  Ir  Ir10  1  0.832967  0.665931  0.626868  1
  Ir  Ir11  1  0.334069  0.167033  0.626868  1
  Ir  Ir12  1  0.833402  0.166598  0.871465  1
  Ir  Ir13  1  0.833402  0.666801  0.871465  1
  Ir  Ir14  1  0.333199  0.166598  0.871465  1
  Ir  Ir15  1  0.166370  0.833630  0.127679  1
  Ir  Ir16  1  0.166370  0.332740  0.127679  1
  Ir  Ir17  1  0.667260  0.833630  0.127679  1
  Ir  Ir18  1  0.333333  0.666667  0.250285  1
  Ir  Ir19  1  0.666667  0.333333  0.749345  1
  Ir  Ir20  1  0.000000  0.000000  0.250415  1
  Ir  Ir21  1  0.000000  0.000000  0.749513  1
  Ir  Ir22  1  0.000000  0.000000  0.499603  1
  Ir  Ir23  1  0.000000  0.000000  0.999865  1
