# generated using pymatgen
data_TbSmTi2Cr2O10
_symmetry_space_group_name_H-M   'P 1'
_cell_length_a   5.86078300
_cell_length_b   7.47649414
_cell_length_c   8.61846200
_cell_angle_alpha   89.98889565
_cell_angle_beta   90.00000000
_cell_angle_gamma   90.00000000
_symmetry_Int_Tables_number   1
_chemical_formula_structural   TbSmTi2Cr2O10
_chemical_formula_sum   'Tb2 Sm2 Ti4 Cr4 O20'
_cell_volume   377.64470677
_cell_formula_units_Z   2
loop_
 _symmetry_equiv_pos_site_id
 _symmetry_equiv_pos_as_xyz
  1  'x, y, z'
loop_
 _atom_site_type_symbol
 _atom_site_label
 _atom_site_symmetry_multiplicity
 _atom_site_fract_x
 _atom_site_fract_y
 _atom_site_fract_z
 _atom_site_occupancy
  Tb  Tb0  1  0.500000  0.361073  0.329972  1
  Tb  Tb1  1  0.500000  0.638927  0.670028  1
  Sm  Sm2  1  0.500000  0.138272  0.829087  1
  Sm  Sm3  1  0.500000  0.861728  0.170913  1
  Ti  Ti4  1  0.000000  0.119105  0.146626  1
  Ti  Ti5  1  0.000000  0.880895  0.853374  1
  Ti  Ti6  1  0.000000  0.382708  0.645781  1
  Ti  Ti7  1  0.000000  0.617292  0.354219  1
  Cr  Cr8  1  0.253480  0.000000  0.500000  1
  Cr  Cr9  1  0.746520  0.000000  0.500000  1
  Cr  Cr10  1  0.746112  0.500000  0.000000  1
  Cr  Cr11  1  0.253888  0.500000  0.000000  1
  O  O12  1  0.251149  0.111991  0.288314  1
  O  O13  1  0.748851  0.888009  0.711686  1
  O  O14  1  0.251149  0.888009  0.711686  1
  O  O15  1  0.749090  0.393090  0.787002  1
  O  O16  1  0.748851  0.111991  0.288314  1
  O  O17  1  0.250910  0.606910  0.212998  1
  O  O18  1  0.749090  0.606910  0.212998  1
  O  O19  1  0.250910  0.393090  0.787002  1
  O  O20  1  0.000000  0.342351  0.076158  1
  O  O21  1  0.000000  0.657649  0.923842  1
  O  O22  1  0.000000  0.157582  0.577922  1
  O  O23  1  0.000000  0.842418  0.422078  1
  O  O24  1  0.500000  0.333802  0.060985  1
  O  O25  1  0.500000  0.666198  0.939015  1
  O  O26  1  0.500000  0.167770  0.556588  1
  O  O27  1  0.500000  0.832230  0.443412  1
  O  O28  1  0.216977  0.000000  0.000000  1
  O  O29  1  0.783023  0.000000  0.000000  1
  O  O30  1  0.779993  0.500000  0.500000  1
  O  O31  1  0.220007  0.500000  0.500000  1
