# generated using pymatgen
data_Zr10Si2Sn5Bi
_symmetry_space_group_name_H-M   'P 1'
_cell_length_a   8.72384840
_cell_length_b   8.72384863
_cell_length_c   5.91064900
_cell_angle_alpha   90.00000000
_cell_angle_beta   90.00000000
_cell_angle_gamma   119.93512169
_symmetry_Int_Tables_number   1
_chemical_formula_structural   Zr10Si2Sn5Bi
_chemical_formula_sum   'Zr10 Si2 Sn5 Bi1'
_cell_volume   389.82131713
_cell_formula_units_Z   1
loop_
 _symmetry_equiv_pos_site_id
 _symmetry_equiv_pos_as_xyz
  1  'x, y, z'
loop_
 _atom_site_type_symbol
 _atom_site_label
 _atom_site_symmetry_multiplicity
 _atom_site_fract_x
 _atom_site_fract_y
 _atom_site_fract_z
 _atom_site_occupancy
  Zr  Zr0  1  0.668464  0.332900  0.001566  1
  Zr  Zr1  1  0.332900  0.668464  0.001566  1
  Zr  Zr2  1  0.332900  0.668464  0.498434  1
  Zr  Zr3  1  0.668464  0.332900  0.498434  1
  Zr  Zr4  1  0.745079  0.745079  0.750000  1
  Zr  Zr5  1  0.255929  0.996397  0.750000  1
  Zr  Zr6  1  0.996397  0.255929  0.750000  1
  Zr  Zr7  1  0.256163  0.256163  0.250000  1
  Zr  Zr8  1  0.742105  0.999935  0.250000  1
  Zr  Zr9  1  0.999935  0.742105  0.250000  1
  Si  Si10  1  0.999950  0.999950  0.000234  1
  Si  Si11  1  0.999950  0.999950  0.499766  1
  Sn  Sn12  1  0.604901  0.999778  0.750000  1
  Sn  Sn13  1  0.999778  0.604901  0.750000  1
  Sn  Sn14  1  0.606891  0.606891  0.250000  1
  Sn  Sn15  1  0.394733  0.000200  0.250000  1
  Sn  Sn16  1  0.000200  0.394733  0.250000  1
  Bi  Bi17  1  0.395260  0.395260  0.750000  1
