# generated using pymatgen
data_Hf4CrSi4Ir2Pt
_symmetry_space_group_name_H-M   'P 1'
_cell_length_a   3.93974800
_cell_length_b   6.48081126
_cell_length_c   7.49353001
_cell_angle_alpha   89.66540046
_cell_angle_beta   90.00000000
_cell_angle_gamma   90.00000000
_symmetry_Int_Tables_number   1
_chemical_formula_structural   Hf4CrSi4Ir2Pt
_chemical_formula_sum   'Hf4 Cr1 Si4 Ir2 Pt1'
_cell_volume   191.32726473
_cell_formula_units_Z   1
loop_
 _symmetry_equiv_pos_site_id
 _symmetry_equiv_pos_as_xyz
  1  'x, y, z'
loop_
 _atom_site_type_symbol
 _atom_site_label
 _atom_site_symmetry_multiplicity
 _atom_site_fract_x
 _atom_site_fract_y
 _atom_site_fract_z
 _atom_site_occupancy
  Hf  Hf0  1  0.750000  0.468935  0.180754  1
  Hf  Hf1  1  0.750000  0.983453  0.318055  1
  Hf  Hf2  1  0.250000  0.510365  0.820432  1
  Hf  Hf3  1  0.250000  0.027790  0.679718  1
  Cr  Cr4  1  0.250000  0.159117  0.062352  1
  Si  Si5  1  0.750000  0.218104  0.880564  1
  Si  Si6  1  0.750000  0.728234  0.627688  1
  Si  Si7  1  0.250000  0.780830  0.116260  1
  Si  Si8  1  0.250000  0.271367  0.373194  1
  Ir  Ir9  1  0.750000  0.348005  0.567210  1
  Ir  Ir10  1  0.750000  0.845425  0.939341  1
  Pt  Pt11  1  0.250000  0.658375  0.434433  1
