# generated using pymatgen
data_HoMg3Ge4P2Ir7
_symmetry_space_group_name_H-M   'P 1'
_cell_length_a   7.07475867
_cell_length_b   7.10845171
_cell_length_c   6.97112926
_cell_angle_alpha   108.51914381
_cell_angle_beta   109.45758309
_cell_angle_gamma   110.23654204
_symmetry_Int_Tables_number   1
_chemical_formula_structural   HoMg3Ge4P2Ir7
_chemical_formula_sum   'Ho1 Mg3 Ge4 P2 Ir7'
_cell_volume   270.49792183
_cell_formula_units_Z   1
loop_
 _symmetry_equiv_pos_site_id
 _symmetry_equiv_pos_as_xyz
  1  'x, y, z'
loop_
 _atom_site_type_symbol
 _atom_site_label
 _atom_site_symmetry_multiplicity
 _atom_site_fract_x
 _atom_site_fract_y
 _atom_site_fract_z
 _atom_site_occupancy
  Ho  Ho0  1  0.000000  0.000258  0.477751  1
  Mg  Mg1  1  0.000000  0.517550  0.999301  1
  Mg  Mg2  1  0.497753  0.000922  0.000062  1
  Mg  Mg3  1  0.502247  0.503169  0.502308  1
  Ge  Ge4  1  0.000000  0.320165  0.305427  1
  Ge  Ge5  1  0.303146  0.304652  0.004631  1
  Ge  Ge6  1  0.696854  0.001507  0.701487  1
  Ge  Ge7  1  0.000000  0.686616  0.688054  1
  P  P8  1  0.669874  0.668220  0.993709  1
  P  P9  1  0.330126  0.998346  0.323834  1
  Ir  Ir10  1  0.742183  0.249846  0.496430  1
  Ir  Ir11  1  0.741835  0.496022  0.242331  1
  Ir  Ir12  1  0.505969  0.255979  0.750183  1
  Ir  Ir13  1  0.257817  0.507664  0.754248  1
  Ir  Ir14  1  0.258165  0.754187  0.500496  1
  Ir  Ir15  1  0.494031  0.750010  0.244213  1
  Ir  Ir16  1  0.000000  0.984889  0.015534  1
