# generated using pymatgen
data_BaB(PdPt)2
_symmetry_space_group_name_H-M   'P 1'
_cell_length_a   6.19198700
_cell_length_b   5.70249000
_cell_length_c   12.19404600
_cell_angle_alpha   90.00000000
_cell_angle_beta   90.00000000
_cell_angle_gamma   90.00000000
_symmetry_Int_Tables_number   1
_chemical_formula_structural   BaB(PdPt)2
_chemical_formula_sum   'Ba4 B4 Pd8 Pt8'
_cell_volume   430.56864195
_cell_formula_units_Z   4
loop_
 _symmetry_equiv_pos_site_id
 _symmetry_equiv_pos_as_xyz
  1  'x, y, z'
loop_
 _atom_site_type_symbol
 _atom_site_label
 _atom_site_symmetry_multiplicity
 _atom_site_fract_x
 _atom_site_fract_y
 _atom_site_fract_z
 _atom_site_occupancy
  Ba  Ba0  1  0.182316  0.250000  0.334438  1
  Ba  Ba1  1  0.682316  0.250000  0.165562  1
  Ba  Ba2  1  0.817684  0.750000  0.665562  1
  Ba  Ba3  1  0.317684  0.750000  0.834438  1
  B  B4  1  0.091239  0.250000  0.952898  1
  B  B5  1  0.591239  0.250000  0.547102  1
  B  B6  1  0.908761  0.750000  0.047102  1
  B  B7  1  0.408761  0.750000  0.452898  1
  Pd  Pd8  1  0.107521  0.250000  0.765874  1
  Pd  Pd9  1  0.607521  0.250000  0.734126  1
  Pd  Pd10  1  0.892479  0.750000  0.234126  1
  Pd  Pd11  1  0.392479  0.750000  0.265874  1
  Pd  Pd12  1  0.434925  0.250000  0.940424  1
  Pd  Pd13  1  0.934925  0.250000  0.559576  1
  Pd  Pd14  1  0.565075  0.750000  0.059576  1
  Pd  Pd15  1  0.065075  0.750000  0.440424  1
  Pt  Pt16  1  0.330827  0.007449  0.582556  1
  Pt  Pt17  1  0.830827  0.492551  0.917444  1
  Pt  Pt18  1  0.669173  0.507449  0.417444  1
  Pt  Pt19  1  0.169173  0.992551  0.082556  1
  Pt  Pt20  1  0.669173  0.992551  0.417444  1
  Pt  Pt21  1  0.169173  0.507449  0.082556  1
  Pt  Pt22  1  0.330827  0.492551  0.582556  1
  Pt  Pt23  1  0.830827  0.007449  0.917444  1
