# generated using pymatgen
data_Dy5Tc3P12Ir9Ru7
_symmetry_space_group_name_H-M   'P 1'
_cell_length_a   12.62401785
_cell_length_b   12.63344369
_cell_length_c   3.97507700
_cell_angle_alpha   90.00000000
_cell_angle_beta   90.00000000
_cell_angle_gamma   120.30334414
_symmetry_Int_Tables_number   1
_chemical_formula_structural   Dy5Tc3P12Ir9Ru7
_chemical_formula_sum   'Dy5 Tc3 P12 Ir9 Ru7'
_cell_volume   547.34340230
_cell_formula_units_Z   1
loop_
 _symmetry_equiv_pos_site_id
 _symmetry_equiv_pos_as_xyz
  1  'x, y, z'
loop_
 _atom_site_type_symbol
 _atom_site_label
 _atom_site_symmetry_multiplicity
 _atom_site_fract_x
 _atom_site_fract_y
 _atom_site_fract_z
 _atom_site_occupancy
  Dy  Dy0  1  0.333816  0.667913  0.500000  1
  Dy  Dy1  1  0.666135  0.332773  0.500000  1
  Dy  Dy2  1  0.000296  0.811047  0.000000  1
  Dy  Dy3  1  0.188219  0.188696  0.000000  1
  Dy  Dy4  1  0.811546  0.000297  0.000000  1
  Tc  Tc5  1  0.000201  0.450259  0.500000  1
  Tc  Tc6  1  0.550043  0.548289  0.500000  1
  Tc  Tc7  1  0.448608  0.000757  0.500000  1
  P  P8  1  0.000314  0.634616  0.500000  1
  P  P9  1  0.363914  0.364554  0.500000  1
  P  P10  1  0.629548  0.995153  0.500000  1
  P  P11  1  0.521199  0.694434  0.000000  1
  P  P12  1  0.314005  0.832933  0.000000  1
  P  P13  1  0.171619  0.480526  0.000000  1
  P  P14  1  0.478497  0.169849  0.000000  1
  P  P15  1  0.691120  0.519715  0.000000  1
  P  P16  1  0.829976  0.308847  0.000000  1
  P  P17  1  0.999649  0.181759  0.500000  1
  P  P18  1  0.818322  0.816851  0.500000  1
  P  P19  1  0.180013  0.998913  0.500000  1
  Ir  Ir20  1  0.132375  0.638201  0.000000  1
  Ir  Ir21  1  0.364116  0.495028  0.000000  1
  Ir  Ir22  1  0.493235  0.362351  0.000000  1
  Ir  Ir23  1  0.870167  0.506710  0.000000  1
  Ir  Ir24  1  0.636586  0.131365  0.000000  1
  Ir  Ir25  1  0.999932  0.283703  0.000000  1
  Ir  Ir26  1  0.716906  0.715297  0.000000  1
  Ir  Ir27  1  0.281634  0.999521  0.000000  1
  Ir  Ir28  1  0.998720  0.999933  0.500000  1
  Ru  Ru29  1  0.512858  0.875410  0.000000  1
  Ru  Ru30  1  0.622808  0.801658  0.500000  1
  Ru  Ru31  1  0.194575  0.818066  0.500000  1
  Ru  Ru32  1  0.181855  0.378026  0.500000  1
  Ru  Ru33  1  0.376032  0.181402  0.500000  1
  Ru  Ru34  1  0.804269  0.621509  0.500000  1
  Ru  Ru35  1  0.816892  0.193640  0.500000  1
