# generated using pymatgen
data_Ac(MgGe)2
_symmetry_space_group_name_H-M   'P 1'
_cell_length_a   4.48460318
_cell_length_b   4.48460424
_cell_length_c   6.70378055
_cell_angle_alpha   109.54111473
_cell_angle_beta   109.54111429
_cell_angle_gamma   90.00000532
_symmetry_Int_Tables_number   1
_chemical_formula_structural   Ac(MgGe)2
_chemical_formula_sum   'Ac1 Mg2 Ge2'
_cell_volume   118.78633713
_cell_formula_units_Z   1
loop_
 _symmetry_equiv_pos_site_id
 _symmetry_equiv_pos_as_xyz
  1  'x, y, z'
loop_
 _atom_site_type_symbol
 _atom_site_label
 _atom_site_symmetry_multiplicity
 _atom_site_fract_x
 _atom_site_fract_y
 _atom_site_fract_z
 _atom_site_occupancy
  Ac  Ac0  1  0.000000  0.000000  0.000000  1
  Mg  Mg1  1  0.749999  0.249999  0.500000  1
  Mg  Mg2  1  0.249999  0.749999  0.500000  1
  Ge  Ge3  1  0.612477  0.612477  0.224952  1
  Ge  Ge4  1  0.387524  0.387524  0.775048  1
