# generated using pymatgen
data_Th(S8Cl)3
_symmetry_space_group_name_H-M   'P 1'
_cell_length_a   15.58192587
_cell_length_b   15.58192504
_cell_length_c   15.58192617
_cell_angle_alpha   119.23770142
_cell_angle_beta   119.23770228
_cell_angle_gamma   119.23769498
_symmetry_Int_Tables_number   1
_chemical_formula_structural   Th(S8Cl)3
_chemical_formula_sum   'Th1 S24 Cl3'
_cell_volume   856.44807675
_cell_formula_units_Z   1
loop_
 _symmetry_equiv_pos_site_id
 _symmetry_equiv_pos_as_xyz
  1  'x, y, z'
loop_
 _atom_site_type_symbol
 _atom_site_label
 _atom_site_symmetry_multiplicity
 _atom_site_fract_x
 _atom_site_fract_y
 _atom_site_fract_z
 _atom_site_occupancy
  Th  Th0  1  0.433756  0.433756  0.433756  1
  S  S1  1  0.012367  0.598660  0.598660  1
  S  S2  1  0.598660  0.598660  0.012367  1
  S  S3  1  0.598660  0.012367  0.598660  1
  S  S4  1  0.267758  0.866800  0.741808  1
  S  S5  1  0.866800  0.741808  0.267758  1
  S  S6  1  0.741808  0.267758  0.866800  1
  S  S7  1  0.866800  0.267758  0.741808  1
  S  S8  1  0.267758  0.741808  0.866800  1
  S  S9  1  0.741808  0.866800  0.267758  1
  S  S10  1  0.083953  0.602095  0.426604  1
  S  S11  1  0.602095  0.426604  0.083953  1
  S  S12  1  0.426604  0.083953  0.602095  1
  S  S13  1  0.602095  0.083953  0.426604  1
  S  S14  1  0.083953  0.426604  0.602095  1
  S  S15  1  0.426604  0.602095  0.083953  1
  S  S16  1  0.380019  0.762299  0.635759  1
  S  S17  1  0.762299  0.635759  0.380019  1
  S  S18  1  0.635759  0.380019  0.762299  1
  S  S19  1  0.762299  0.380019  0.635759  1
  S  S20  1  0.380019  0.635759  0.762299  1
  S  S21  1  0.635759  0.762299  0.380019  1
  S  S22  1  0.175090  0.449344  0.449344  1
  S  S23  1  0.449344  0.449344  0.175090  1
  S  S24  1  0.449344  0.175090  0.449344  1
  Cl  Cl25  1  0.017222  0.889233  0.889233  1
  Cl  Cl26  1  0.889233  0.889233  0.017222  1
  Cl  Cl27  1  0.889233  0.017222  0.889233  1
