# generated using pymatgen
data_CeHo6Tm(WC2)4
_symmetry_space_group_name_H-M   'P 1'
_cell_length_a   5.72687080
_cell_length_b   5.72687068
_cell_length_c   9.89186393
_cell_angle_alpha   89.69931592
_cell_angle_beta   89.69931487
_cell_angle_gamma   90.06684052
_symmetry_Int_Tables_number   1
_chemical_formula_structural   CeHo6Tm(WC2)4
_chemical_formula_sum   'Ce1 Ho6 Tm1 W4 C8'
_cell_volume   324.41477488
_cell_formula_units_Z   1
loop_
 _symmetry_equiv_pos_site_id
 _symmetry_equiv_pos_as_xyz
  1  'x, y, z'
loop_
 _atom_site_type_symbol
 _atom_site_label
 _atom_site_symmetry_multiplicity
 _atom_site_fract_x
 _atom_site_fract_y
 _atom_site_fract_z
 _atom_site_occupancy
  Ce  Ce0  1  0.802071  0.802071  0.658795  1
  Ho  Ho1  1  0.301816  0.700421  0.842946  1
  Ho  Ho2  1  0.700421  0.301816  0.842946  1
  Ho  Ho3  1  0.701581  0.300375  0.158368  1
  Ho  Ho4  1  0.300375  0.701581  0.158368  1
  Ho  Ho5  1  0.198854  0.198854  0.656981  1
  Ho  Ho6  1  0.798431  0.798431  0.342825  1
  Tm  Tm7  1  0.199984  0.199984  0.341933  1
  W  W8  1  0.318463  0.675948  0.497662  1
  W  W9  1  0.823011  0.823011  0.002426  1
  W  W10  1  0.180309  0.180309  0.001910  1
  W  W11  1  0.675948  0.318463  0.497662  1
  C  C12  1  0.001125  0.001125  0.156708  1
  C  C13  1  0.497897  0.497897  0.652154  1
  C  C14  1  0.493178  0.000347  0.495998  1
  C  C15  1  0.497635  0.497635  0.343709  1
  C  C16  1  0.004608  0.004608  0.849618  1
  C  C17  1  0.501776  0.002171  0.001493  1
  C  C18  1  0.002171  0.501776  0.001493  1
  C  C19  1  0.000347  0.493178  0.495998  1
