# generated using pymatgen
data_Tb2Tm4TiAl23Os8
_symmetry_space_group_name_H-M   'P 1'
_cell_length_a   8.81878100
_cell_length_b   8.81661098
_cell_length_c   9.55139358
_cell_angle_alpha   89.94292811
_cell_angle_beta   90.00000000
_cell_angle_gamma   120.00814595
_symmetry_Int_Tables_number   1
_chemical_formula_structural   Tb2Tm4TiAl23Os8
_chemical_formula_sum   'Tb2 Tm4 Ti1 Al23 Os8'
_cell_volume   643.08986837
_cell_formula_units_Z   1
loop_
 _symmetry_equiv_pos_site_id
 _symmetry_equiv_pos_as_xyz
  1  'x, y, z'
loop_
 _atom_site_type_symbol
 _atom_site_label
 _atom_site_symmetry_multiplicity
 _atom_site_fract_x
 _atom_site_fract_y
 _atom_site_fract_z
 _atom_site_occupancy
  Tb  Tb0  1  0.192232  0.384463  0.249603  1
  Tb  Tb1  1  0.808283  0.616565  0.748263  1
  Tm  Tm2  1  0.611184  0.806658  0.249394  1
  Tm  Tm3  1  0.389288  0.194316  0.748535  1
  Tm  Tm4  1  0.195475  0.806658  0.249394  1
  Tm  Tm5  1  0.805027  0.194316  0.748535  1
  Ti  Ti6  1  0.332538  0.665077  0.995737  1
  Al  Al7  1  0.666352  0.332703  0.977285  1
  Al  Al8  1  0.666687  0.333372  0.521413  1
  Al  Al9  1  0.333412  0.666824  0.478458  1
  Al  Al10  1  0.162699  0.325399  0.575928  1
  Al  Al11  1  0.836304  0.672609  0.423262  1
  Al  Al12  1  0.672996  0.836688  0.574349  1
  Al  Al13  1  0.836387  0.672774  0.078337  1
  Al  Al14  1  0.327296  0.163582  0.425226  1
  Al  Al15  1  0.159888  0.319776  0.923925  1
  Al  Al16  1  0.163692  0.836688  0.574349  1
  Al  Al17  1  0.327530  0.163677  0.076864  1
  Al  Al18  1  0.836286  0.163582  0.425226  1
  Al  Al19  1  0.679616  0.840405  0.926219  1
  Al  Al20  1  0.836146  0.163677  0.076864  1
  Al  Al21  1  0.160789  0.840405  0.926219  1
  Al  Al22  1  0.561760  0.123521  0.252543  1
  Al  Al23  1  0.440628  0.881258  0.751020  1
  Al  Al24  1  0.876906  0.439295  0.252379  1
  Al  Al25  1  0.119040  0.559029  0.750582  1
  Al  Al26  1  0.562388  0.439295  0.252379  1
  Al  Al27  1  0.439988  0.559029  0.750582  1
  Al  Al28  1  0.998688  0.997376  0.250766  1
  Al  Al29  1  0.001909  0.003817  0.750633  1
  Os  Os30  1  0.498399  0.996799  0.003400  1
  Os  Os31  1  0.002131  0.501063  0.002129  1
  Os  Os32  1  0.499455  0.998911  0.501955  1
  Os  Os33  1  0.498931  0.501063  0.002129  1
  Os  Os34  1  0.001364  0.500124  0.502305  1
  Os  Os35  1  0.498761  0.500124  0.502305  1
  Os  Os36  1  0.999976  0.999951  0.001838  1
  Os  Os37  1  0.999567  0.999134  0.499674  1
