# generated using pymatgen
data_Yb3Al12IrOs3
_symmetry_space_group_name_H-M   'P 1'
_cell_length_a   8.84079042
_cell_length_b   8.84079017
_cell_length_c   9.62879200
_cell_angle_alpha   90.00000000
_cell_angle_beta   90.00000000
_cell_angle_gamma   119.89690601
_symmetry_Int_Tables_number   1
_chemical_formula_structural   Yb3Al12IrOs3
_chemical_formula_sum   'Yb6 Al24 Ir2 Os6'
_cell_volume   652.43138228
_cell_formula_units_Z   2
loop_
 _symmetry_equiv_pos_site_id
 _symmetry_equiv_pos_as_xyz
  1  'x, y, z'
loop_
 _atom_site_type_symbol
 _atom_site_label
 _atom_site_symmetry_multiplicity
 _atom_site_fract_x
 _atom_site_fract_y
 _atom_site_fract_z
 _atom_site_occupancy
  Yb  Yb0  1  0.191553  0.388797  0.250000  1
  Yb  Yb1  1  0.808447  0.611203  0.750000  1
  Yb  Yb2  1  0.611203  0.808447  0.250000  1
  Yb  Yb3  1  0.388797  0.191553  0.750000  1
  Yb  Yb4  1  0.195779  0.804221  0.250000  1
  Yb  Yb5  1  0.804221  0.195779  0.750000  1
  Al  Al6  1  0.332819  0.667181  0.003608  1
  Al  Al7  1  0.667181  0.332819  0.996392  1
  Al  Al8  1  0.667181  0.332819  0.503608  1
  Al  Al9  1  0.332819  0.667181  0.496392  1
  Al  Al10  1  0.161342  0.322947  0.575899  1
  Al  Al11  1  0.838658  0.677053  0.424101  1
  Al  Al12  1  0.677053  0.838658  0.575899  1
  Al  Al13  1  0.838658  0.677053  0.075899  1
  Al  Al14  1  0.322947  0.161342  0.424101  1
  Al  Al15  1  0.161342  0.322947  0.924101  1
  Al  Al16  1  0.162089  0.837911  0.573168  1
  Al  Al17  1  0.322947  0.161342  0.075899  1
  Al  Al18  1  0.837911  0.162089  0.426832  1
  Al  Al19  1  0.677053  0.838658  0.924101  1
  Al  Al20  1  0.837911  0.162089  0.073168  1
  Al  Al21  1  0.162089  0.837911  0.926832  1
  Al  Al22  1  0.559277  0.123442  0.250000  1
  Al  Al23  1  0.440723  0.876558  0.750000  1
  Al  Al24  1  0.876558  0.440723  0.250000  1
  Al  Al25  1  0.123442  0.559277  0.750000  1
  Al  Al26  1  0.561015  0.438985  0.250000  1
  Al  Al27  1  0.438985  0.561015  0.750000  1
  Al  Al28  1  0.000286  0.999714  0.250000  1
  Al  Al29  1  0.999714  0.000286  0.750000  1
  Ir  Ir30  1  0.500000  0.500000  0.000000  1
  Ir  Ir31  1  0.500000  0.500000  0.500000  1
  Os  Os32  1  0.500000  0.000000  0.000000  1
  Os  Os33  1  0.000000  0.500000  0.000000  1
  Os  Os34  1  0.500000  0.000000  0.500000  1
  Os  Os35  1  0.000000  0.500000  0.500000  1
  Os  Os36  1  0.000000  0.000000  0.000000  1
  Os  Os37  1  0.000000  0.000000  0.500000  1
