# generated using pymatgen
data_La2Tb5LuSb20
_symmetry_space_group_name_H-M   'P 1'
_cell_length_a   4.21177100
_cell_length_b   13.36832834
_cell_length_c   14.87418700
_cell_angle_alpha   78.41367979
_cell_angle_beta   90.00000000
_cell_angle_gamma   90.00000000
_symmetry_Int_Tables_number   1
_chemical_formula_structural   La2Tb5LuSb20
_chemical_formula_sum   'La2 Tb5 Lu1 Sb20'
_cell_volume   820.41608468
_cell_formula_units_Z   1
loop_
 _symmetry_equiv_pos_site_id
 _symmetry_equiv_pos_as_xyz
  1  'x, y, z'
loop_
 _atom_site_type_symbol
 _atom_site_label
 _atom_site_symmetry_multiplicity
 _atom_site_fract_x
 _atom_site_fract_y
 _atom_site_fract_z
 _atom_site_occupancy
  La  La0  1  0.250000  0.953850  0.359500  1
  La  La1  1  0.750000  0.046927  0.640181  1
  Tb  Tb2  1  0.250000  0.660691  0.857845  1
  Tb  Tb3  1  0.250000  0.665036  0.576861  1
  Tb  Tb4  1  0.750000  0.334591  0.422687  1
  Tb  Tb5  1  0.250000  0.396478  0.772690  1
  Tb  Tb6  1  0.750000  0.602210  0.227985  1
  Lu  Lu7  1  0.750000  0.339823  0.142592  1
  Sb  Sb8  1  0.750000  0.844580  0.828369  1
  Sb  Sb9  1  0.250000  0.852955  0.679495  1
  Sb  Sb10  1  0.250000  0.151303  0.476279  1
  Sb  Sb11  1  0.750000  0.281628  0.938890  1
  Sb  Sb12  1  0.250000  0.147130  0.784183  1
  Sb  Sb13  1  0.750000  0.571698  0.444699  1
  Sb  Sb14  1  0.750000  0.148486  0.318977  1
  Sb  Sb15  1  0.250000  0.708940  0.349663  1
  Sb  Sb16  1  0.750000  0.291009  0.650233  1
  Sb  Sb17  1  0.750000  0.853017  0.216069  1
  Sb  Sb18  1  0.250000  0.420385  0.976858  1
  Sb  Sb19  1  0.250000  0.428039  0.555162  1
  Sb  Sb20  1  0.750000  0.575846  0.735388  1
  Sb  Sb21  1  0.250000  0.421871  0.262225  1
  Sb  Sb22  1  0.750000  0.848623  0.523321  1
  Sb  Sb23  1  0.750000  0.028199  0.900962  1
  Sb  Sb24  1  0.250000  0.717288  0.063733  1
  Sb  Sb25  1  0.250000  0.972465  0.099656  1
  Sb  Sb26  1  0.250000  0.158643  0.170130  1
  Sb  Sb27  1  0.750000  0.578287  0.025367  1
