# generated using pymatgen
data_Y4Lu(AlTe)2
_symmetry_space_group_name_H-M   'P 1'
_cell_length_a   8.68781400
_cell_length_b   8.68781510
_cell_length_c   7.92078900
_cell_angle_alpha   90.00000000
_cell_angle_beta   90.00000000
_cell_angle_gamma   126.04202085
_symmetry_Int_Tables_number   1
_chemical_formula_structural   Y4Lu(AlTe)2
_chemical_formula_sum   'Y8 Lu2 Al4 Te4'
_cell_volume   483.40994564
_cell_formula_units_Z   2
loop_
 _symmetry_equiv_pos_site_id
 _symmetry_equiv_pos_as_xyz
  1  'x, y, z'
loop_
 _atom_site_type_symbol
 _atom_site_label
 _atom_site_symmetry_multiplicity
 _atom_site_fract_x
 _atom_site_fract_y
 _atom_site_fract_z
 _atom_site_occupancy
  Y  Y0  1  0.797911  0.538005  0.168082  1
  Y  Y1  1  0.461995  0.202089  0.831918  1
  Y  Y2  1  0.961995  0.702089  0.668082  1
  Y  Y3  1  0.297911  0.038005  0.331918  1
  Y  Y4  1  0.202089  0.461995  0.831918  1
  Y  Y5  1  0.538005  0.797911  0.168082  1
  Y  Y6  1  0.038005  0.297911  0.331918  1
  Y  Y7  1  0.702089  0.961995  0.668082  1
  Lu  Lu8  1  0.000000  0.000000  0.000000  1
  Lu  Lu9  1  0.500000  0.500000  0.500000  1
  Al  Al10  1  0.874575  0.874575  0.375541  1
  Al  Al11  1  0.125425  0.125425  0.624459  1
  Al  Al12  1  0.625425  0.625425  0.875541  1
  Al  Al13  1  0.374575  0.374575  0.124459  1
  Te  Te14  1  0.204086  0.795914  0.000000  1
  Te  Te15  1  0.704086  0.295914  0.500000  1
  Te  Te16  1  0.795914  0.204086  0.000000  1
  Te  Te17  1  0.295914  0.704086  0.500000  1
