# generated using pymatgen
data_La2YbSi2(AsPd5)4
_symmetry_space_group_name_H-M   'P 1'
_cell_length_a   8.90364913
_cell_length_b   8.82327000
_cell_length_c   8.82326900
_cell_angle_alpha   60.60361763
_cell_angle_beta   59.69818838
_cell_angle_gamma   59.69818760
_symmetry_Int_Tables_number   1
_chemical_formula_structural   La2YbSi2(AsPd5)4
_chemical_formula_sum   'La2 Yb1 Si2 As4 Pd20'
_cell_volume   490.04882717
_cell_formula_units_Z   1
loop_
 _symmetry_equiv_pos_site_id
 _symmetry_equiv_pos_as_xyz
  1  'x, y, z'
loop_
 _atom_site_type_symbol
 _atom_site_label
 _atom_site_symmetry_multiplicity
 _atom_site_fract_x
 _atom_site_fract_y
 _atom_site_fract_z
 _atom_site_occupancy
  La  La0  1  0.750000  0.750000  0.750000  1
  La  La1  1  0.250000  0.250000  0.250000  1
  Yb  Yb2  1  0.000000  0.000000  0.000000  1
  Si  Si3  1  0.265971  0.734029  0.734029  1
  Si  Si4  1  0.734029  0.265971  0.265971  1
  As  As5  1  0.737793  0.737793  0.262207  1
  As  As6  1  0.262207  0.262207  0.737793  1
  As  As7  1  0.737793  0.262207  0.737793  1
  As  As8  1  0.262207  0.737793  0.262207  1
  Pd  Pd9  1  0.610401  0.617397  0.617397  1
  Pd  Pd10  1  0.389599  0.382603  0.382603  1
  Pd  Pd11  1  0.154802  0.617397  0.617397  1
  Pd  Pd12  1  0.617397  0.154802  0.610401  1
  Pd  Pd13  1  0.845198  0.382603  0.382603  1
  Pd  Pd14  1  0.382603  0.845198  0.389599  1
  Pd  Pd15  1  0.617397  0.610401  0.154802  1
  Pd  Pd16  1  0.382603  0.389599  0.845198  1
  Pd  Pd17  1  0.008749  0.991251  0.652326  1
  Pd  Pd18  1  0.991251  0.008749  0.347674  1
  Pd  Pd19  1  0.347674  0.652326  0.991251  1
  Pd  Pd20  1  0.652326  0.347674  0.008749  1
  Pd  Pd21  1  0.008749  0.652326  0.991251  1
  Pd  Pd22  1  0.652326  0.008749  0.347674  1
  Pd  Pd23  1  0.991251  0.347674  0.008749  1
  Pd  Pd24  1  0.347674  0.991251  0.652326  1
  Pd  Pd25  1  0.652020  0.000000  0.000000  1
  Pd  Pd26  1  0.347980  0.000000  0.000000  1
  Pd  Pd27  1  0.000000  0.652020  0.347980  1
  Pd  Pd28  1  0.000000  0.347980  0.652020  1
