# generated using pymatgen
data_Ac3Zn9NiIr5
_symmetry_space_group_name_H-M   'P 1'
_cell_length_a   9.50113100
_cell_length_b   9.55599543
_cell_length_c   4.25273100
_cell_angle_alpha   90.00000000
_cell_angle_beta   90.00000000
_cell_angle_gamma   119.81026178
_symmetry_Int_Tables_number   1
_chemical_formula_structural   Ac3Zn9NiIr5
_chemical_formula_sum   'Ac3 Zn9 Ni1 Ir5'
_cell_volume   335.02479697
_cell_formula_units_Z   1
loop_
 _symmetry_equiv_pos_site_id
 _symmetry_equiv_pos_as_xyz
  1  'x, y, z'
loop_
 _atom_site_type_symbol
 _atom_site_label
 _atom_site_symmetry_multiplicity
 _atom_site_fract_x
 _atom_site_fract_y
 _atom_site_fract_z
 _atom_site_occupancy
  Ac  Ac0  1  0.000431  0.000862  0.500000  1
  Ac  Ac1  1  0.332417  0.664836  0.000000  1
  Ac  Ac2  1  0.664571  0.329141  0.000000  1
  Zn  Zn3  1  0.498896  0.997793  0.500000  1
  Zn  Zn4  1  0.504730  0.502096  0.500000  1
  Zn  Zn5  1  0.997365  0.502096  0.500000  1
  Zn  Zn6  1  0.288002  0.999070  0.000000  1
  Zn  Zn7  1  0.290990  0.290794  0.000000  1
  Zn  Zn8  1  0.994295  0.709095  0.000000  1
  Zn  Zn9  1  0.999804  0.290794  0.000000  1
  Zn  Zn10  1  0.714801  0.709095  0.000000  1
  Zn  Zn11  1  0.711068  0.999070  0.000000  1
  Ni  Ni12  1  0.819348  0.638697  0.500000  1
  Ir  Ir13  1  0.183434  0.366867  0.500000  1
  Ir  Ir14  1  0.814161  0.187280  0.500000  1
  Ir  Ir15  1  0.373118  0.187280  0.500000  1
  Ir  Ir16  1  0.632732  0.812568  0.500000  1
  Ir  Ir17  1  0.179836  0.812568  0.500000  1
