# generated using pymatgen
data_Ti12Sn9Pd
_symmetry_space_group_name_H-M   'P 1'
_cell_length_a   9.23509500
_cell_length_b   9.23509536
_cell_length_c   5.69681400
_cell_angle_alpha   90.00000000
_cell_angle_beta   90.00000000
_cell_angle_gamma   120.00000230
_symmetry_Int_Tables_number   1
_chemical_formula_structural   Ti12Sn9Pd
_chemical_formula_sum   'Ti12 Sn9 Pd1'
_cell_volume   420.77062502
_cell_formula_units_Z   1
loop_
 _symmetry_equiv_pos_site_id
 _symmetry_equiv_pos_as_xyz
  1  'x, y, z'
loop_
 _atom_site_type_symbol
 _atom_site_label
 _atom_site_symmetry_multiplicity
 _atom_site_fract_x
 _atom_site_fract_y
 _atom_site_fract_z
 _atom_site_occupancy
  Ti  Ti0  1  0.845468  0.690937  0.748972  1
  Ti  Ti1  1  0.154532  0.845468  0.251028  1
  Ti  Ti2  1  0.690937  0.845468  0.251028  1
  Ti  Ti3  1  0.309063  0.154532  0.748972  1
  Ti  Ti4  1  0.845468  0.154532  0.748972  1
  Ti  Ti5  1  0.154532  0.309063  0.251028  1
  Ti  Ti6  1  0.500000  0.000000  0.500000  1
  Ti  Ti7  1  0.500000  0.500000  0.000000  1
  Ti  Ti8  1  0.000000  0.500000  0.000000  1
  Ti  Ti9  1  0.000000  0.500000  0.500000  1
  Ti  Ti10  1  0.500000  0.000000  0.000000  1
  Ti  Ti11  1  0.500000  0.500000  0.500000  1
  Sn  Sn12  1  0.200381  0.400763  0.750160  1
  Sn  Sn13  1  0.799619  0.200381  0.249840  1
  Sn  Sn14  1  0.400763  0.200381  0.249840  1
  Sn  Sn15  1  0.599237  0.799619  0.750160  1
  Sn  Sn16  1  0.200381  0.799619  0.750160  1
  Sn  Sn17  1  0.799619  0.599237  0.249840  1
  Sn  Sn18  1  0.666667  0.333333  0.749253  1
  Sn  Sn19  1  0.333333  0.666667  0.250747  1
  Sn  Sn20  1  0.000000  0.000000  0.000000  1
  Pd  Pd21  1  0.000000  0.000000  0.500000  1
