# generated using pymatgen
data_Sr5As4
_symmetry_space_group_name_H-M   'P 1'
_cell_length_a   8.20532834
_cell_length_b   8.25234100
_cell_length_c   9.12010823
_cell_angle_alpha   90.00000000
_cell_angle_beta   116.73393249
_cell_angle_gamma   90.00000000
_symmetry_Int_Tables_number   1
_chemical_formula_structural   Sr5As4
_chemical_formula_sum   'Sr10 As8'
_cell_volume   551.53833710
_cell_formula_units_Z   2
loop_
 _symmetry_equiv_pos_site_id
 _symmetry_equiv_pos_as_xyz
  1  'x, y, z'
loop_
 _atom_site_type_symbol
 _atom_site_label
 _atom_site_symmetry_multiplicity
 _atom_site_fract_x
 _atom_site_fract_y
 _atom_site_fract_z
 _atom_site_occupancy
  Sr  Sr0  1  0.184312  0.163723  0.706370  1
  Sr  Sr1  1  0.522058  0.836277  0.706370  1
  Sr  Sr2  1  0.022058  0.663723  0.706370  1
  Sr  Sr3  1  0.684312  0.336277  0.706370  1
  Sr  Sr4  1  0.815688  0.836277  0.293630  1
  Sr  Sr5  1  0.477942  0.163723  0.293630  1
  Sr  Sr6  1  0.977942  0.336277  0.293630  1
  Sr  Sr7  1  0.315688  0.663723  0.293630  1
  Sr  Sr8  1  0.500000  0.500000  0.000000  1
  Sr  Sr9  1  0.000000  0.000000  0.000000  1
  As  As10  1  0.302904  0.500000  0.605808  1
  As  As11  1  0.802904  0.000000  0.605808  1
  As  As12  1  0.697096  0.500000  0.394192  1
  As  As13  1  0.197096  0.000000  0.394192  1
  As  As14  1  0.610502  0.110443  0.000000  1
  As  As15  1  0.389498  0.889557  0.000000  1
  As  As16  1  0.889498  0.610443  0.000000  1
  As  As17  1  0.110502  0.389557  0.000000  1
