# generated using pymatgen
data_LaPaNi12P5
_symmetry_space_group_name_H-M   'P 1'
_cell_length_a   3.68969600
_cell_length_b   10.71256509
_cell_length_c   13.15462476
_cell_angle_alpha   71.84983297
_cell_angle_beta   90.00000000
_cell_angle_gamma   90.00000000
_symmetry_Int_Tables_number   1
_chemical_formula_structural   LaPaNi12P5
_chemical_formula_sum   'La2 Pa2 Ni24 P10'
_cell_volume   494.08009736
_cell_formula_units_Z   2
loop_
 _symmetry_equiv_pos_site_id
 _symmetry_equiv_pos_as_xyz
  1  'x, y, z'
loop_
 _atom_site_type_symbol
 _atom_site_label
 _atom_site_symmetry_multiplicity
 _atom_site_fract_x
 _atom_site_fract_y
 _atom_site_fract_z
 _atom_site_occupancy
  La  La0  1  0.250000  0.247529  0.187935  1
  La  La1  1  0.750000  0.752471  0.812065  1
  Pa  Pa2  1  0.250000  0.280475  0.681591  1
  Pa  Pa3  1  0.750000  0.719525  0.318409  1
  Ni  Ni4  1  0.250000  0.830412  0.145750  1
  Ni  Ni5  1  0.750000  0.169588  0.854250  1
  Ni  Ni6  1  0.250000  0.286482  0.442756  1
  Ni  Ni7  1  0.750000  0.713518  0.557244  1
  Ni  Ni8  1  0.250000  0.066866  0.019118  1
  Ni  Ni9  1  0.750000  0.933134  0.980882  1
  Ni  Ni10  1  0.250000  0.062507  0.445592  1
  Ni  Ni11  1  0.750000  0.937493  0.554408  1
  Ni  Ni12  1  0.250000  0.594050  0.695843  1
  Ni  Ni13  1  0.750000  0.405950  0.304157  1
  Ni  Ni14  1  0.250000  0.583434  0.009600  1
  Ni  Ni15  1  0.750000  0.416566  0.990400  1
  Ni  Ni16  1  0.250000  0.580981  0.506543  1
  Ni  Ni17  1  0.750000  0.419019  0.493457  1
  Ni  Ni18  1  0.250000  0.295268  0.915205  1
  Ni  Ni19  1  0.750000  0.704732  0.084795  1
  Ni  Ni20  1  0.250000  0.998103  0.657901  1
  Ni  Ni21  1  0.750000  0.001897  0.342099  1
  Ni  Ni22  1  0.250000  0.833637  0.434404  1
  Ni  Ni23  1  0.750000  0.166363  0.565596  1
  Ni  Ni24  1  0.250000  0.993376  0.846603  1
  Ni  Ni25  1  0.750000  0.006624  0.153397  1
  Ni  Ni26  1  0.250000  0.571348  0.203842  1
  Ni  Ni27  1  0.750000  0.428652  0.796158  1
  P  P28  1  0.250000  0.507343  0.872099  1
  P  P29  1  0.750000  0.492657  0.127901  1
  P  P30  1  0.250000  0.804915  0.985289  1
  P  P31  1  0.750000  0.195085  0.014711  1
  P  P32  1  0.250000  0.496332  0.376323  1
  P  P33  1  0.750000  0.503668  0.623677  1
  P  P34  1  0.250000  0.812966  0.608241  1
  P  P35  1  0.750000  0.187034  0.391759  1
  P  P36  1  0.250000  0.948744  0.259620  1
  P  P37  1  0.750000  0.051256  0.740380  1
