# generated using pymatgen
data_HoTm10ThCo4
_symmetry_space_group_name_H-M   'P 1'
_cell_length_a   6.14903293
_cell_length_b   6.85264557
_cell_length_c   9.32702100
_cell_angle_alpha   90.00000000
_cell_angle_beta   90.00000000
_cell_angle_gamma   91.09001585
_symmetry_Int_Tables_number   1
_chemical_formula_structural   HoTm10ThCo4
_chemical_formula_sum   'Ho1 Tm10 Th1 Co4'
_cell_volume   392.94290109
_cell_formula_units_Z   1
loop_
 _symmetry_equiv_pos_site_id
 _symmetry_equiv_pos_as_xyz
  1  'x, y, z'
loop_
 _atom_site_type_symbol
 _atom_site_label
 _atom_site_symmetry_multiplicity
 _atom_site_fract_x
 _atom_site_fract_y
 _atom_site_fract_z
 _atom_site_occupancy
  Ho  Ho0  1  0.642644  0.456787  0.750000  1
  Tm  Tm1  1  0.674524  0.174932  0.067886  1
  Tm  Tm2  1  0.139406  0.041687  0.250000  1
  Tm  Tm3  1  0.827608  0.676105  0.433847  1
  Tm  Tm4  1  0.323086  0.827727  0.930480  1
  Tm  Tm5  1  0.176113  0.323368  0.568895  1
  Tm  Tm6  1  0.674524  0.174932  0.432114  1
  Tm  Tm7  1  0.176113  0.323368  0.931105  1
  Tm  Tm8  1  0.323086  0.827727  0.569520  1
  Tm  Tm9  1  0.859131  0.957755  0.750000  1
  Tm  Tm10  1  0.827608  0.676105  0.066153  1
  Th  Th11  1  0.348807  0.551966  0.250000  1
  Co  Co12  1  0.963401  0.388234  0.250000  1
  Co  Co13  1  0.453012  0.113765  0.750000  1
  Co  Co14  1  0.543614  0.872290  0.250000  1
  Co  Co15  1  0.047320  0.613256  0.750000  1
