# generated using pymatgen
data_La3CdSn2Pt3
_symmetry_space_group_name_H-M   'P 1'
_cell_length_a   7.68800920
_cell_length_b   7.76172969
_cell_length_c   4.23156400
_cell_angle_alpha   90.00000000
_cell_angle_beta   90.00000000
_cell_angle_gamma   120.31771542
_symmetry_Int_Tables_number   1
_chemical_formula_structural   La3CdSn2Pt3
_chemical_formula_sum   'La3 Cd1 Sn2 Pt3'
_cell_volume   217.97396949
_cell_formula_units_Z   1
loop_
 _symmetry_equiv_pos_site_id
 _symmetry_equiv_pos_as_xyz
  1  'x, y, z'
loop_
 _atom_site_type_symbol
 _atom_site_label
 _atom_site_symmetry_multiplicity
 _atom_site_fract_x
 _atom_site_fract_y
 _atom_site_fract_z
 _atom_site_occupancy
  La  La0  1  0.410646  0.411508  0.000000  1
  La  La1  1  0.589354  0.000862  0.000000  1
  La  La2  1  0.000000  0.584519  0.000000  1
  Cd  Cd3  1  0.000000  0.249716  0.500000  1
  Sn  Sn4  1  0.753110  0.754981  0.500000  1
  Sn  Sn5  1  0.246890  0.001871  0.500000  1
  Pt  Pt6  1  0.337290  0.672349  0.500000  1
  Pt  Pt7  1  0.000000  0.989138  0.000000  1
  Pt  Pt8  1  0.662710  0.335058  0.500000  1
