# generated using pymatgen
data_AcNdCr3O12
_symmetry_space_group_name_H-M   'P 1'
_cell_length_a   10.18594085
_cell_length_b   10.18594201
_cell_length_c   10.18594300
_cell_angle_alpha   57.95430740
_cell_angle_beta   57.95430331
_cell_angle_gamma   57.95431088
_symmetry_Int_Tables_number   1
_chemical_formula_structural   AcNdCr3O12
_chemical_formula_sum   'Ac2 Nd2 Cr6 O24'
_cell_volume   712.21321205
_cell_formula_units_Z   2
loop_
 _symmetry_equiv_pos_site_id
 _symmetry_equiv_pos_as_xyz
  1  'x, y, z'
loop_
 _atom_site_type_symbol
 _atom_site_label
 _atom_site_symmetry_multiplicity
 _atom_site_fract_x
 _atom_site_fract_y
 _atom_site_fract_z
 _atom_site_occupancy
  Ac  Ac0  1  0.135592  0.135578  0.135587  1
  Ac  Ac1  1  0.864409  0.864424  0.864415  1
  Nd  Nd2  1  0.637288  0.637290  0.637285  1
  Nd  Nd3  1  0.362712  0.362715  0.362714  1
  Cr  Cr4  1  0.740741  0.037431  0.465830  1
  Cr  Cr5  1  0.962583  0.534182  0.259251  1
  Cr  Cr6  1  0.534167  0.259258  0.962577  1
  Cr  Cr7  1  0.465844  0.740734  0.037414  1
  Cr  Cr8  1  0.037409  0.465815  0.740757  1
  Cr  Cr9  1  0.259256  0.962571  0.534171  1
  O  O10  1  0.875580  0.080881  0.274926  1
  O  O11  1  0.820757  0.990128  0.597632  1
  O  O12  1  0.009885  0.402362  0.179253  1
  O  O13  1  0.725047  0.124438  0.919118  1
  O  O14  1  0.570103  0.202541  0.478626  1
  O  O15  1  0.881321  0.507828  0.696290  1
  O  O16  1  0.492178  0.303728  0.118669  1
  O  O17  1  0.797472  0.521354  0.429905  1
  O  O18  1  0.919111  0.725060  0.124441  1
  O  O19  1  0.521343  0.429925  0.797459  1
  O  O20  1  0.402370  0.179242  0.009876  1
  O  O21  1  0.303709  0.118681  0.492176  1
  O  O22  1  0.696288  0.881314  0.507827  1
  O  O23  1  0.597632  0.820763  0.990119  1
  O  O24  1  0.478655  0.570083  0.202533  1
  O  O25  1  0.080891  0.274932  0.875568  1
  O  O26  1  0.202522  0.478645  0.570104  1
  O  O27  1  0.507825  0.696272  0.881320  1
  O  O28  1  0.118679  0.492172  0.303713  1
  O  O29  1  0.429896  0.797461  0.521377  1
  O  O30  1  0.274959  0.875562  0.080878  1
  O  O31  1  0.990116  0.597631  0.820749  1
  O  O32  1  0.179238  0.009876  0.402363  1
  O  O33  1  0.124420  0.919119  0.725076  1
