# generated using pymatgen
data_Dy4Al2FeRu5
_symmetry_space_group_name_H-M   'P 1'
_cell_length_a   5.39779034
_cell_length_b   5.20434893
_cell_length_c   8.84391600
_cell_angle_alpha   90.00000000
_cell_angle_beta   90.00000000
_cell_angle_gamma   120.31989603
_symmetry_Int_Tables_number   1
_chemical_formula_structural   Dy4Al2FeRu5
_chemical_formula_sum   'Dy4 Al2 Fe1 Ru5'
_cell_volume   214.46117082
_cell_formula_units_Z   1
loop_
 _symmetry_equiv_pos_site_id
 _symmetry_equiv_pos_as_xyz
  1  'x, y, z'
loop_
 _atom_site_type_symbol
 _atom_site_label
 _atom_site_symmetry_multiplicity
 _atom_site_fract_x
 _atom_site_fract_y
 _atom_site_fract_z
 _atom_site_occupancy
  Dy  Dy0  1  0.667599  0.333910  0.563417  1
  Dy  Dy1  1  0.330516  0.660113  0.437172  1
  Dy  Dy2  1  0.330516  0.660113  0.062828  1
  Dy  Dy3  1  0.667599  0.333910  0.936583  1
  Al  Al4  1  0.169005  0.830594  0.750000  1
  Al  Al5  1  0.837028  0.673583  0.250000  1
  Fe  Fe6  1  0.159518  0.322105  0.750000  1
  Ru  Ru7  1  0.005614  0.012395  0.503675  1
  Ru  Ru8  1  0.005614  0.012395  0.996325  1
  Ru  Ru9  1  0.649343  0.820370  0.750000  1
  Ru  Ru10  1  0.828717  0.170778  0.250000  1
  Ru  Ru11  1  0.348932  0.169736  0.250000  1
