# generated using pymatgen
data_NaHoNiPt3
_symmetry_space_group_name_H-M   'P 1'
_cell_length_a   5.17823716
_cell_length_b   5.17823776
_cell_length_c   5.17823750
_cell_angle_alpha   62.95880179
_cell_angle_beta   62.95879053
_cell_angle_gamma   62.95880411
_symmetry_Int_Tables_number   1
_chemical_formula_structural   NaHoNiPt3
_chemical_formula_sum   'Na1 Ho1 Ni1 Pt3'
_cell_volume   104.63308843
_cell_formula_units_Z   1
loop_
 _symmetry_equiv_pos_site_id
 _symmetry_equiv_pos_as_xyz
  1  'x, y, z'
loop_
 _atom_site_type_symbol
 _atom_site_label
 _atom_site_symmetry_multiplicity
 _atom_site_fract_x
 _atom_site_fract_y
 _atom_site_fract_z
 _atom_site_occupancy
  Na  Na0  1  0.998360  0.998360  0.998360  1
  Ho  Ho1  1  0.249694  0.249694  0.249694  1
  Ni  Ni2  1  0.625556  0.625556  0.625556  1
  Pt  Pt3  1  0.625830  0.625830  0.124731  1
  Pt  Pt4  1  0.625830  0.124731  0.625830  1
  Pt  Pt5  1  0.124731  0.625830  0.625830  1
