# generated using pymatgen
data_Y17Tm3Cd6NiRh
_symmetry_space_group_name_H-M   'P 1'
_cell_length_a   9.65500598
_cell_length_b   9.65499224
_cell_length_c   9.80264695
_cell_angle_alpha   90.06274721
_cell_angle_beta   89.93718329
_cell_angle_gamma   120.03776807
_symmetry_Int_Tables_number   1
_chemical_formula_structural   Y17Tm3Cd6NiRh
_chemical_formula_sum   'Y17 Tm3 Cd6 Ni1 Rh1'
_cell_volume   791.06599078
_cell_formula_units_Z   1
loop_
 _symmetry_equiv_pos_site_id
 _symmetry_equiv_pos_as_xyz
  1  'x, y, z'
loop_
 _atom_site_type_symbol
 _atom_site_label
 _atom_site_symmetry_multiplicity
 _atom_site_fract_x
 _atom_site_fract_y
 _atom_site_fract_z
 _atom_site_occupancy
  Y  Y0  1  0.542958  0.457041  0.249989  1
  Y  Y1  1  0.541693  0.084427  0.250694  1
  Y  Y2  1  0.915575  0.458308  0.250695  1
  Y  Y3  1  0.457031  0.542969  0.750103  1
  Y  Y4  1  0.456270  0.913289  0.748869  1
  Y  Y5  1  0.086711  0.543730  0.748869  1
  Y  Y6  1  0.208007  0.417104  0.439865  1
  Y  Y7  1  0.582898  0.791993  0.439863  1
  Y  Y8  1  0.790697  0.209303  0.563224  1
  Y  Y9  1  0.791117  0.580984  0.562919  1
  Y  Y10  1  0.419016  0.208884  0.562919  1
  Y  Y11  1  0.790162  0.209837  0.937044  1
  Y  Y12  1  0.790627  0.580936  0.936881  1
  Y  Y13  1  0.419065  0.209373  0.936880  1
  Y  Y14  1  0.208035  0.791964  0.060862  1
  Y  Y15  1  0.208229  0.416051  0.060160  1
  Y  Y16  1  0.583951  0.791771  0.060160  1
  Tm  Tm17  1  0.000927  0.999074  0.499655  1
  Tm  Tm18  1  0.999929  0.000072  0.999879  1
  Tm  Tm19  1  0.208705  0.791295  0.438913  1
  Cd  Cd20  1  0.886065  0.113935  0.250297  1
  Cd  Cd21  1  0.886220  0.772192  0.250082  1
  Cd  Cd22  1  0.227808  0.113780  0.250082  1
  Cd  Cd23  1  0.114340  0.885660  0.749860  1
  Cd  Cd24  1  0.114191  0.228443  0.749965  1
  Cd  Cd25  1  0.771557  0.885809  0.749965  1
  Ni  Ni26  1  0.666700  0.333298  0.749733  1
  Rh  Rh27  1  0.331517  0.668482  0.251572  1
