# generated using pymatgen
data_Zr4Al3OsN
_symmetry_space_group_name_H-M   'P 1'
_cell_length_a   8.02229800
_cell_length_b   8.02229898
_cell_length_c   5.49063500
_cell_angle_alpha   90.00000000
_cell_angle_beta   90.00000000
_cell_angle_gamma   119.99999595
_symmetry_Int_Tables_number   1
_chemical_formula_structural   Zr4Al3OsN
_chemical_formula_sum   'Zr8 Al6 Os2 N2'
_cell_volume   306.02073768
_cell_formula_units_Z   2
loop_
 _symmetry_equiv_pos_site_id
 _symmetry_equiv_pos_as_xyz
  1  'x, y, z'
loop_
 _atom_site_type_symbol
 _atom_site_label
 _atom_site_symmetry_multiplicity
 _atom_site_fract_x
 _atom_site_fract_y
 _atom_site_fract_z
 _atom_site_occupancy
  Zr  Zr0  1  0.229099  0.000000  0.253935  1
  Zr  Zr1  1  0.770901  0.000000  0.746065  1
  Zr  Zr2  1  0.000000  0.229099  0.253935  1
  Zr  Zr3  1  0.000000  0.770901  0.746065  1
  Zr  Zr4  1  0.770901  0.770901  0.253935  1
  Zr  Zr5  1  0.229099  0.229099  0.746065  1
  Zr  Zr6  1  0.666667  0.333333  0.500000  1
  Zr  Zr7  1  0.333333  0.666667  0.500000  1
  Al  Al8  1  0.586656  0.000000  0.219391  1
  Al  Al9  1  0.413344  0.000000  0.780609  1
  Al  Al10  1  0.000000  0.586656  0.219391  1
  Al  Al11  1  0.000000  0.413344  0.780609  1
  Al  Al12  1  0.413344  0.413344  0.219391  1
  Al  Al13  1  0.586656  0.586656  0.780609  1
  Os  Os14  1  0.333333  0.666667  0.000000  1
  Os  Os15  1  0.666667  0.333333  0.000000  1
  N  N16  1  0.000000  0.000000  0.000000  1
  N  N17  1  0.000000  0.000000  0.500000  1
