# generated using pymatgen
data_KRbHfTe3
_symmetry_space_group_name_H-M   'P 1'
_cell_length_a   14.51211500
_cell_length_b   6.98047963
_cell_length_c   9.60912240
_cell_angle_alpha   71.07924167
_cell_angle_beta   90.00000000
_cell_angle_gamma   90.00000000
_symmetry_Int_Tables_number   1
_chemical_formula_structural   KRbHfTe3
_chemical_formula_sum   'K4 Rb4 Hf4 Te12'
_cell_volume   920.82291696
_cell_formula_units_Z   4
loop_
 _symmetry_equiv_pos_site_id
 _symmetry_equiv_pos_as_xyz
  1  'x, y, z'
loop_
 _atom_site_type_symbol
 _atom_site_label
 _atom_site_symmetry_multiplicity
 _atom_site_fract_x
 _atom_site_fract_y
 _atom_site_fract_z
 _atom_site_occupancy
  K  K0  1  0.864209  0.062233  0.896574  1
  K  K1  1  0.364209  0.437767  0.103426  1
  K  K2  1  0.135791  0.937767  0.103426  1
  K  K3  1  0.635791  0.562233  0.896574  1
  Rb  Rb4  1  0.957156  0.663845  0.658260  1
  Rb  Rb5  1  0.457156  0.836155  0.341740  1
  Rb  Rb6  1  0.042844  0.336155  0.341740  1
  Rb  Rb7  1  0.542844  0.163845  0.658260  1
  Hf  Hf8  1  0.749134  0.677815  0.285682  1
  Hf  Hf9  1  0.249134  0.822185  0.714318  1
  Hf  Hf10  1  0.250866  0.322185  0.714318  1
  Hf  Hf11  1  0.750866  0.177815  0.285682  1
  Te  Te12  1  0.912085  0.912460  0.267325  1
  Te  Te13  1  0.412085  0.587540  0.732675  1
  Te  Te14  1  0.087915  0.087540  0.732675  1
  Te  Te15  1  0.587915  0.412460  0.267325  1
  Te  Te16  1  0.812411  0.299798  0.521252  1
  Te  Te17  1  0.312411  0.200202  0.478748  1
  Te  Te18  1  0.187589  0.700202  0.478748  1
  Te  Te19  1  0.687589  0.799798  0.521252  1
  Te  Te20  1  0.846464  0.499544  0.074889  1
  Te  Te21  1  0.346464  0.000456  0.925111  1
  Te  Te22  1  0.153536  0.500456  0.925111  1
  Te  Te23  1  0.653536  0.999544  0.074889  1
