# generated using pymatgen
data_TbDy10In9Ru4
_symmetry_space_group_name_H-M   'P 1'
_cell_length_a   3.87723800
_cell_length_b   12.84602045
_cell_length_c   12.84602175
_cell_angle_alpha   113.54787664
_cell_angle_beta   90.00000000
_cell_angle_gamma   90.00000000
_symmetry_Int_Tables_number   1
_chemical_formula_structural   TbDy10In9Ru4
_chemical_formula_sum   'Tb1 Dy10 In9 Ru4'
_cell_volume   586.54256695
_cell_formula_units_Z   1
loop_
 _symmetry_equiv_pos_site_id
 _symmetry_equiv_pos_as_xyz
  1  'x, y, z'
loop_
 _atom_site_type_symbol
 _atom_site_label
 _atom_site_symmetry_multiplicity
 _atom_site_fract_x
 _atom_site_fract_y
 _atom_site_fract_z
 _atom_site_occupancy
  Tb  Tb0  1  0.000000  0.000000  0.000000  1
  Dy  Dy1  1  0.000000  0.913432  0.580331  1
  Dy  Dy2  1  0.000000  0.086568  0.419669  1
  Dy  Dy3  1  0.000000  0.580331  0.913432  1
  Dy  Dy4  1  0.000000  0.419669  0.086568  1
  Dy  Dy5  1  0.000000  0.163127  0.836873  1
  Dy  Dy6  1  0.000000  0.836873  0.163127  1
  Dy  Dy7  1  0.000000  0.372473  0.627527  1
  Dy  Dy8  1  0.000000  0.627527  0.372473  1
  Dy  Dy9  1  0.000000  0.692133  0.692133  1
  Dy  Dy10  1  0.000000  0.307867  0.307867  1
  In  In11  1  0.500000  0.154939  0.632413  1
  In  In12  1  0.500000  0.845061  0.367587  1
  In  In13  1  0.500000  0.632413  0.154939  1
  In  In14  1  0.500000  0.367587  0.845061  1
  In  In15  1  0.500000  0.928148  0.780163  1
  In  In16  1  0.500000  0.071852  0.219837  1
  In  In17  1  0.500000  0.780163  0.928148  1
  In  In18  1  0.500000  0.219837  0.071852  1
  In  In19  1  0.500000  0.500000  0.500000  1
  Ru  Ru20  1  0.500000  0.742356  0.547674  1
  Ru  Ru21  1  0.500000  0.257644  0.452326  1
  Ru  Ru22  1  0.500000  0.547674  0.742356  1
  Ru  Ru23  1  0.500000  0.452326  0.257644  1
