# generated using pymatgen
data_Zr3Al3TcPd2
_symmetry_space_group_name_H-M   'P 1'
_cell_length_a   7.37831400
_cell_length_b   7.37831369
_cell_length_c   6.85714800
_cell_angle_alpha   90.00000000
_cell_angle_beta   90.00000000
_cell_angle_gamma   120.00000140
_symmetry_Int_Tables_number   1
_chemical_formula_structural   Zr3Al3TcPd2
_chemical_formula_sum   'Zr6 Al6 Tc2 Pd4'
_cell_volume   323.28711638
_cell_formula_units_Z   2
loop_
 _symmetry_equiv_pos_site_id
 _symmetry_equiv_pos_as_xyz
  1  'x, y, z'
loop_
 _atom_site_type_symbol
 _atom_site_label
 _atom_site_symmetry_multiplicity
 _atom_site_fract_x
 _atom_site_fract_y
 _atom_site_fract_z
 _atom_site_occupancy
  Zr  Zr0  1  0.742911  0.060801  0.000000  1
  Zr  Zr1  1  0.317890  0.257089  0.000000  1
  Zr  Zr2  1  0.939199  0.682110  0.000000  1
  Zr  Zr3  1  0.319301  0.257356  0.500000  1
  Zr  Zr4  1  0.742644  0.061945  0.500000  1
  Zr  Zr5  1  0.938055  0.680699  0.500000  1
  Al  Al6  1  0.597121  0.665095  0.749956  1
  Al  Al7  1  0.067974  0.402879  0.749956  1
  Al  Al8  1  0.334905  0.932026  0.749956  1
  Al  Al9  1  0.597121  0.665095  0.250044  1
  Al  Al10  1  0.067974  0.402879  0.250044  1
  Al  Al11  1  0.334905  0.932026  0.250044  1
  Tc  Tc12  1  0.000000  0.000000  0.250423  1
  Tc  Tc13  1  0.000000  0.000000  0.749577  1
  Pd  Pd14  1  0.333333  0.666667  0.000000  1
  Pd  Pd15  1  0.333333  0.666667  0.500000  1
  Pd  Pd16  1  0.666667  0.333333  0.752169  1
  Pd  Pd17  1  0.666667  0.333333  0.247831  1
