# generated using pymatgen
data_ErSc2Tl(SbO4)4
_symmetry_space_group_name_H-M   'P 1'
_cell_length_a   5.29884565
_cell_length_b   7.49951590
_cell_length_c   7.61477269
_cell_angle_alpha   80.35164628
_cell_angle_beta   87.23097802
_cell_angle_gamma   90.41607804
_symmetry_Int_Tables_number   1
_chemical_formula_structural   ErSc2Tl(SbO4)4
_chemical_formula_sum   'Er1 Sc2 Tl1 Sb4 O16'
_cell_volume   297.93687087
_cell_formula_units_Z   1
loop_
 _symmetry_equiv_pos_site_id
 _symmetry_equiv_pos_as_xyz
  1  'x, y, z'
loop_
 _atom_site_type_symbol
 _atom_site_label
 _atom_site_symmetry_multiplicity
 _atom_site_fract_x
 _atom_site_fract_y
 _atom_site_fract_z
 _atom_site_occupancy
  Er  Er0  1  0.249782  0.126885  0.629162  1
  Sc  Sc1  1  0.720895  0.368271  0.336486  1
  Sc  Sc2  1  0.280385  0.630243  0.666922  1
  Tl  Tl3  1  0.748325  0.871019  0.368914  1
  Sb  Sb4  1  0.770067  0.810997  0.836526  1
  Sb  Sb5  1  0.227582  0.191240  0.161097  1
  Sb  Sb6  1  0.248308  0.686621  0.169070  1
  Sb  Sb7  1  0.752841  0.312882  0.829071  1
  O  O8  1  0.901127  0.305724  0.069214  1
  O  O9  1  0.093859  0.691661  0.930055  1
  O  O10  1  0.390778  0.436313  0.176329  1
  O  O11  1  0.614852  0.563424  0.818280  1
  O  O12  1  0.097671  0.936533  0.174675  1
  O  O13  1  0.903295  0.064595  0.822466  1
  O  O14  1  0.575670  0.809261  0.066628  1
  O  O15  1  0.420053  0.189636  0.930026  1
  O  O16  1  0.992074  0.821415  0.609402  1
  O  O17  1  0.020688  0.194848  0.388793  1
  O  O18  1  0.414226  0.677851  0.402825  1
  O  O19  1  0.583610  0.316021  0.598384  1
  O  O20  1  0.499815  0.114364  0.332773  1
  O  O21  1  0.488808  0.884300  0.682340  1
  O  O22  1  0.932263  0.599887  0.302915  1
  O  O23  1  0.073026  0.396006  0.697649  1
