# generated using pymatgen
data_Hf4Re7Mo
_symmetry_space_group_name_H-M   'P 1'
_cell_length_a   5.31092000
_cell_length_b   5.31079387
_cell_length_c   8.61318500
_cell_angle_alpha   90.00079667
_cell_angle_beta   90.00000000
_cell_angle_gamma   120.00078561
_symmetry_Int_Tables_number   1
_chemical_formula_structural   Hf4Re7Mo
_chemical_formula_sum   'Hf4 Re7 Mo1'
_cell_volume   210.38761687
_cell_formula_units_Z   1
loop_
 _symmetry_equiv_pos_site_id
 _symmetry_equiv_pos_as_xyz
  1  'x, y, z'
loop_
 _atom_site_type_symbol
 _atom_site_label
 _atom_site_symmetry_multiplicity
 _atom_site_fract_x
 _atom_site_fract_y
 _atom_site_fract_z
 _atom_site_occupancy
  Hf  Hf0  1  0.333328  0.666656  0.065430  1
  Hf  Hf1  1  0.333324  0.666648  0.436470  1
  Hf  Hf2  1  0.666677  0.333353  0.563530  1
  Hf  Hf3  1  0.666673  0.333345  0.934569  1
  Re  Re4  1  0.343171  0.171576  0.250283  1
  Re  Re5  1  0.828404  0.171576  0.250283  1
  Re  Re6  1  0.828414  0.656828  0.250286  1
  Re  Re7  1  0.000000  0.000000  0.500000  1
  Re  Re8  1  0.171587  0.343173  0.749714  1
  Re  Re9  1  0.171595  0.828425  0.749717  1
  Re  Re10  1  0.656830  0.828425  0.749717  1
  Mo  Mo11  1  0.000000  0.000000  0.000000  1
