# generated using pymatgen
data_Th4Cd2Co3Ni
_symmetry_space_group_name_H-M   'P 1'
_cell_length_a   7.56403407
_cell_length_b   7.56403407
_cell_length_c   3.67831000
_cell_angle_alpha   90.00000000
_cell_angle_beta   90.00000000
_cell_angle_gamma   90.23622678
_symmetry_Int_Tables_number   1
_chemical_formula_structural   Th4Cd2Co3Ni
_chemical_formula_sum   'Th4 Cd2 Co3 Ni1'
_cell_volume   210.45128873
_cell_formula_units_Z   1
loop_
 _symmetry_equiv_pos_site_id
 _symmetry_equiv_pos_as_xyz
  1  'x, y, z'
loop_
 _atom_site_type_symbol
 _atom_site_label
 _atom_site_symmetry_multiplicity
 _atom_site_fract_x
 _atom_site_fract_y
 _atom_site_fract_z
 _atom_site_occupancy
  Th  Th0  1  0.325123  0.833821  0.500000  1
  Th  Th1  1  0.838713  0.661287  0.500000  1
  Th  Th2  1  0.169972  0.330028  0.500000  1
  Th  Th3  1  0.666179  0.174877  0.500000  1
  Cd  Cd4  1  0.996711  0.000322  0.000000  1
  Cd  Cd5  1  0.499678  0.503289  0.000000  1
  Co  Co6  1  0.374023  0.125977  0.000000  1
  Co  Co7  1  0.871579  0.370640  0.000000  1
  Co  Co8  1  0.129360  0.628421  0.000000  1
  Ni  Ni9  1  0.628662  0.871338  0.000000  1
