# generated using pymatgen
data_Ba2AgAu3O8
_symmetry_space_group_name_H-M   'P 1'
_cell_length_a   6.96985885
_cell_length_b   6.98083727
_cell_length_c   7.00010189
_cell_angle_alpha   124.10268265
_cell_angle_beta   123.70693960
_cell_angle_gamma   83.25282977
_symmetry_Int_Tables_number   1
_chemical_formula_structural   Ba2AgAu3O8
_chemical_formula_sum   'Ba2 Ag1 Au3 O8'
_cell_volume   225.14845561
_cell_formula_units_Z   1
loop_
 _symmetry_equiv_pos_site_id
 _symmetry_equiv_pos_as_xyz
  1  'x, y, z'
loop_
 _atom_site_type_symbol
 _atom_site_label
 _atom_site_symmetry_multiplicity
 _atom_site_fract_x
 _atom_site_fract_y
 _atom_site_fract_z
 _atom_site_occupancy
  Ba  Ba0  1  0.752376  0.251267  0.503430  1
  Ba  Ba1  1  0.997624  0.998733  0.996570  1
  Ag  Ag2  1  0.375000  0.625000  0.250000  1
  Au  Au3  1  0.375000  0.625000  0.750000  1
  Au  Au4  1  0.375000  0.125000  0.750000  1
  Au  Au5  1  0.875000  0.625000  0.250000  1
  O  O6  1  0.049689  0.435134  0.080006  1
  O  O7  1  0.716763  0.306250  0.117369  1
  O  O8  1  0.188222  0.604442  0.882495  1
  O  O9  1  0.355310  0.971890  0.917680  1
  O  O10  1  0.700311  0.814866  0.419994  1
  O  O11  1  0.033237  0.943750  0.382631  1
  O  O12  1  0.394690  0.278110  0.582320  1
  O  O13  1  0.561778  0.645558  0.617505  1
