# generated using pymatgen
data_LaYb11(PdRu)2
_symmetry_space_group_name_H-M   'P 1'
_cell_length_a   6.40072292
_cell_length_b   7.55104634
_cell_length_c   9.60004100
_cell_angle_alpha   90.00000000
_cell_angle_beta   90.00000000
_cell_angle_gamma   90.89257755
_symmetry_Int_Tables_number   1
_chemical_formula_structural   LaYb11(PdRu)2
_chemical_formula_sum   'La1 Yb11 Pd2 Ru2'
_cell_volume   463.93437246
_cell_formula_units_Z   1
loop_
 _symmetry_equiv_pos_site_id
 _symmetry_equiv_pos_as_xyz
  1  'x, y, z'
loop_
 _atom_site_type_symbol
 _atom_site_label
 _atom_site_symmetry_multiplicity
 _atom_site_fract_x
 _atom_site_fract_y
 _atom_site_fract_z
 _atom_site_occupancy
  La  La0  1  0.853490  0.550109  0.250000  1
  Yb  Yb1  1  0.334822  0.670474  0.073638  1
  Yb  Yb2  1  0.165312  0.169730  0.425423  1
  Yb  Yb3  1  0.657180  0.328763  0.560489  1
  Yb  Yb4  1  0.844319  0.829877  0.938945  1
  Yb  Yb5  1  0.657180  0.328763  0.939511  1
  Yb  Yb6  1  0.844319  0.829877  0.561055  1
  Yb  Yb7  1  0.334822  0.670474  0.426362  1
  Yb  Yb8  1  0.165312  0.169730  0.074577  1
  Yb  Yb9  1  0.638286  0.041305  0.250000  1
  Yb  Yb10  1  0.135020  0.462926  0.750000  1
  Yb  Yb11  1  0.364725  0.961025  0.750000  1
  Pd  Pd12  1  0.945780  0.120003  0.750000  1
  Pd  Pd13  1  0.556298  0.619518  0.750000  1
  Ru  Ru14  1  0.019481  0.859960  0.250000  1
  Ru  Ru15  1  0.483653  0.387466  0.250000  1
