# generated using pymatgen
data_Ca3Yb5Bi12
_symmetry_space_group_name_H-M   'P 1'
_cell_length_a   6.47414700
_cell_length_b   6.76698337
_cell_length_c   14.95388699
_cell_angle_alpha   89.97777042
_cell_angle_beta   90.00000000
_cell_angle_gamma   90.00000000
_symmetry_Int_Tables_number   1
_chemical_formula_structural   Ca3Yb5Bi12
_chemical_formula_sum   'Ca3 Yb5 Bi12'
_cell_volume   655.13639568
_cell_formula_units_Z   1
loop_
 _symmetry_equiv_pos_site_id
 _symmetry_equiv_pos_as_xyz
  1  'x, y, z'
loop_
 _atom_site_type_symbol
 _atom_site_label
 _atom_site_symmetry_multiplicity
 _atom_site_fract_x
 _atom_site_fract_y
 _atom_site_fract_z
 _atom_site_occupancy
  Ca  Ca0  1  0.557910  0.500000  0.250000  1
  Ca  Ca1  1  0.058043  0.000000  0.750000  1
  Ca  Ca2  1  0.441870  0.500000  0.750000  1
  Yb  Yb3  1  0.939944  0.000000  0.250000  1
  Yb  Yb4  1  0.749445  0.749832  0.000424  1
  Yb  Yb5  1  0.749445  0.250168  0.499576  1
  Yb  Yb6  1  0.251501  0.252113  0.000935  1
  Yb  Yb7  1  0.251501  0.747887  0.499065  1
  Bi  Bi8  1  0.751560  0.750701  0.435272  1
  Bi  Bi9  1  0.751560  0.249299  0.064728  1
  Bi  Bi10  1  0.249617  0.249396  0.563108  1
  Bi  Bi11  1  0.249617  0.750604  0.936892  1
  Bi  Bi12  1  0.421743  0.934235  0.149843  1
  Bi  Bi13  1  0.421743  0.065765  0.350157  1
  Bi  Bi14  1  0.077452  0.432172  0.350047  1
  Bi  Bi15  1  0.077452  0.567828  0.149953  1
  Bi  Bi16  1  0.577424  0.066218  0.850595  1
  Bi  Bi17  1  0.577424  0.933782  0.649405  1
  Bi  Bi18  1  0.922376  0.566055  0.649405  1
  Bi  Bi19  1  0.922376  0.433945  0.850595  1
