# generated using pymatgen
data_SrLa5(OsO8)2
_symmetry_space_group_name_H-M   'P 1'
_cell_length_a   6.31253000
_cell_length_b   7.63040834
_cell_length_c   7.62933433
_cell_angle_alpha   70.32063307
_cell_angle_beta   90.00000000
_cell_angle_gamma   90.00000000
_symmetry_Int_Tables_number   1
_chemical_formula_structural   SrLa5(OsO8)2
_chemical_formula_sum   'Sr1 La5 Os2 O16'
_cell_volume   346.01950840
_cell_formula_units_Z   1
loop_
 _symmetry_equiv_pos_site_id
 _symmetry_equiv_pos_as_xyz
  1  'x, y, z'
loop_
 _atom_site_type_symbol
 _atom_site_label
 _atom_site_symmetry_multiplicity
 _atom_site_fract_x
 _atom_site_fract_y
 _atom_site_fract_z
 _atom_site_occupancy
  Sr  Sr0  1  0.750000  0.102457  0.665289  1
  La  La1  1  0.250000  0.892138  0.339706  1
  La  La2  1  0.250000  0.397277  0.403270  1
  La  La3  1  0.750000  0.591276  0.604453  1
  La  La4  1  0.250000  0.336085  0.891328  1
  La  La5  1  0.750000  0.664118  0.106103  1
  Os  Os6  1  0.250000  0.815835  0.819352  1
  Os  Os7  1  0.750000  0.182299  0.184563  1
  O  O8  1  0.008903  0.345665  0.660343  1
  O  O9  1  0.500130  0.667170  0.333250  1
  O  O10  1  0.999870  0.667170  0.333250  1
  O  O11  1  0.491097  0.345665  0.660343  1
  O  O12  1  0.953629  0.798963  0.807892  1
  O  O13  1  0.449567  0.193816  0.196033  1
  O  O14  1  0.050433  0.193816  0.196033  1
  O  O15  1  0.546371  0.798963  0.807892  1
  O  O16  1  0.750000  0.971287  0.400540  1
  O  O17  1  0.250000  0.027174  0.597095  1
  O  O18  1  0.750000  0.342136  0.330030  1
  O  O19  1  0.250000  0.664360  0.661563  1
  O  O20  1  0.750000  0.408100  0.970434  1
  O  O21  1  0.250000  0.591249  0.029793  1
  O  O22  1  0.750000  0.040620  0.033071  1
  O  O23  1  0.250000  0.962361  0.968375  1
