# generated using pymatgen
data_La3Pr(PPt3)8
_symmetry_space_group_name_H-M   'P 1'
_cell_length_a   8.57987307
_cell_length_b   8.57987307
_cell_length_c   8.57987307
_cell_angle_alpha   89.98952853
_cell_angle_beta   89.98952853
_cell_angle_gamma   89.98952853
_symmetry_Int_Tables_number   1
_chemical_formula_structural   La3Pr(PPt3)8
_chemical_formula_sum   'La3 Pr1 P8 Pt24'
_cell_volume   631.60064875
_cell_formula_units_Z   1
loop_
 _symmetry_equiv_pos_site_id
 _symmetry_equiv_pos_as_xyz
  1  'x, y, z'
loop_
 _atom_site_type_symbol
 _atom_site_label
 _atom_site_symmetry_multiplicity
 _atom_site_fract_x
 _atom_site_fract_y
 _atom_site_fract_z
 _atom_site_occupancy
  La  La0  1  0.500000  0.500000  0.000000  1
  La  La1  1  0.500000  0.000000  0.500000  1
  La  La2  1  0.000000  0.500000  0.500000  1
  Pr  Pr3  1  0.000000  0.000000  0.000000  1
  P  P4  1  0.805832  0.305648  0.194254  1
  P  P5  1  0.194254  0.805832  0.305648  1
  P  P6  1  0.694345  0.694345  0.694345  1
  P  P7  1  0.305648  0.194254  0.805832  1
  P  P8  1  0.194168  0.694352  0.805746  1
  P  P9  1  0.805746  0.194168  0.694352  1
  P  P10  1  0.305655  0.305655  0.305655  1
  P  P11  1  0.694352  0.805746  0.194168  1
  Pt  Pt12  1  0.422227  0.843099  0.157864  1
  Pt  Pt13  1  0.577988  0.343039  0.342173  1
  Pt  Pt14  1  0.078010  0.156601  0.658398  1
  Pt  Pt15  1  0.922012  0.656982  0.842493  1
  Pt  Pt16  1  0.157864  0.422227  0.843099  1
  Pt  Pt17  1  0.342173  0.577988  0.343039  1
  Pt  Pt18  1  0.658398  0.078010  0.156601  1
  Pt  Pt19  1  0.842493  0.922012  0.656982  1
  Pt  Pt20  1  0.843099  0.157864  0.422227  1
  Pt  Pt21  1  0.343039  0.342173  0.577988  1
  Pt  Pt22  1  0.156601  0.658398  0.078010  1
  Pt  Pt23  1  0.656982  0.842493  0.922012  1
  Pt  Pt24  1  0.577773  0.156901  0.842136  1
  Pt  Pt25  1  0.422012  0.656961  0.657827  1
  Pt  Pt26  1  0.921990  0.843399  0.341602  1
  Pt  Pt27  1  0.077988  0.343018  0.157507  1
  Pt  Pt28  1  0.842136  0.577773  0.156901  1
  Pt  Pt29  1  0.657827  0.422012  0.656961  1
  Pt  Pt30  1  0.341602  0.921990  0.843399  1
  Pt  Pt31  1  0.157507  0.077988  0.343018  1
  Pt  Pt32  1  0.156901  0.842136  0.577773  1
  Pt  Pt33  1  0.656961  0.657827  0.422012  1
  Pt  Pt34  1  0.843399  0.341602  0.921990  1
  Pt  Pt35  1  0.343018  0.157507  0.077988  1
