# generated using pymatgen
data_Ho3Tm3Th2(CdIr)2
_symmetry_space_group_name_H-M   'P 1'
_cell_length_a   9.68072631
_cell_length_b   9.68072630
_cell_length_c   9.68072600
_cell_angle_alpha   60.00000101
_cell_angle_beta   60.00000106
_cell_angle_gamma   60.00000066
_symmetry_Int_Tables_number   1
_chemical_formula_structural   Ho3Tm3Th2(CdIr)2
_chemical_formula_sum   'Ho6 Tm6 Th4 Cd4 Ir4'
_cell_volume   641.51796492
_cell_formula_units_Z   2
loop_
 _symmetry_equiv_pos_site_id
 _symmetry_equiv_pos_as_xyz
  1  'x, y, z'
loop_
 _atom_site_type_symbol
 _atom_site_label
 _atom_site_symmetry_multiplicity
 _atom_site_fract_x
 _atom_site_fract_y
 _atom_site_fract_z
 _atom_site_occupancy
  Ho  Ho0  1  0.185400  0.814600  0.814600  1
  Ho  Ho1  1  0.814600  0.185400  0.185400  1
  Ho  Ho2  1  0.814600  0.185400  0.814600  1
  Ho  Ho3  1  0.185400  0.814600  0.185400  1
  Ho  Ho4  1  0.814600  0.814600  0.185400  1
  Ho  Ho5  1  0.185400  0.185400  0.814600  1
  Tm  Tm6  1  0.062975  0.437025  0.437025  1
  Tm  Tm7  1  0.437025  0.062975  0.062975  1
  Tm  Tm8  1  0.437025  0.062975  0.437025  1
  Tm  Tm9  1  0.062975  0.437025  0.062975  1
  Tm  Tm10  1  0.437025  0.437025  0.062975  1
  Tm  Tm11  1  0.062975  0.062975  0.437025  1
  Th  Th12  1  0.600419  0.600419  0.600419  1
  Th  Th13  1  0.600419  0.600419  0.198745  1
  Th  Th14  1  0.600419  0.198745  0.600419  1
  Th  Th15  1  0.198745  0.600419  0.600419  1
  Cd  Cd16  1  0.832880  0.832880  0.832880  1
  Cd  Cd17  1  0.832880  0.832880  0.501359  1
  Cd  Cd18  1  0.832880  0.501359  0.832880  1
  Cd  Cd19  1  0.501359  0.832880  0.832880  1
  Ir  Ir20  1  0.392502  0.392502  0.392502  1
  Ir  Ir21  1  0.392502  0.392502  0.822494  1
  Ir  Ir22  1  0.392502  0.822494  0.392502  1
  Ir  Ir23  1  0.822494  0.392502  0.392502  1
