# generated using pymatgen
data_LiCa4Al3Au4
_symmetry_space_group_name_H-M   'P 1'
_cell_length_a   4.52851900
_cell_length_b   7.38057485
_cell_length_c   7.93812780
_cell_angle_alpha   89.14066010
_cell_angle_beta   90.00000000
_cell_angle_gamma   90.00000000
_symmetry_Int_Tables_number   1
_chemical_formula_structural   LiCa4Al3Au4
_chemical_formula_sum   'Li1 Ca4 Al3 Au4'
_cell_volume   265.28678740
_cell_formula_units_Z   1
loop_
 _symmetry_equiv_pos_site_id
 _symmetry_equiv_pos_as_xyz
  1  'x, y, z'
loop_
 _atom_site_type_symbol
 _atom_site_label
 _atom_site_symmetry_multiplicity
 _atom_site_fract_x
 _atom_site_fract_y
 _atom_site_fract_z
 _atom_site_occupancy
  Li  Li0  1  0.750000  0.855415  0.070136  1
  Ca  Ca1  1  0.250000  0.014447  0.317878  1
  Ca  Ca2  1  0.250000  0.513916  0.185501  1
  Ca  Ca3  1  0.750000  0.991631  0.685176  1
  Ca  Ca4  1  0.750000  0.479436  0.812700  1
  Al  Al5  1  0.250000  0.152418  0.931960  1
  Al  Al6  1  0.250000  0.652117  0.566475  1
  Al  Al7  1  0.750000  0.336132  0.428855  1
  Au  Au8  1  0.250000  0.790167  0.876339  1
  Au  Au9  1  0.750000  0.220520  0.110852  1
  Au  Au10  1  0.750000  0.702649  0.405375  1
  Au  Au11  1  0.250000  0.291154  0.608753  1
