# generated using pymatgen
data_Tb2Nd3P12Pd2Ru17
_symmetry_space_group_name_H-M   'P 1'
_cell_length_a   4.00381500
_cell_length_b   12.60373562
_cell_length_c   12.60379767
_cell_angle_alpha   119.38156678
_cell_angle_beta   90.00000000
_cell_angle_gamma   90.00000000
_symmetry_Int_Tables_number   1
_chemical_formula_structural   Tb2Nd3P12Pd2Ru17
_chemical_formula_sum   'Tb2 Nd3 P12 Pd2 Ru17'
_cell_volume   554.21485278
_cell_formula_units_Z   1
loop_
 _symmetry_equiv_pos_site_id
 _symmetry_equiv_pos_as_xyz
  1  'x, y, z'
loop_
 _atom_site_type_symbol
 _atom_site_label
 _atom_site_symmetry_multiplicity
 _atom_site_fract_x
 _atom_site_fract_y
 _atom_site_fract_z
 _atom_site_occupancy
  Tb  Tb0  1  0.000000  0.335640  0.663755  1
  Tb  Tb1  1  0.000000  0.663752  0.335641  1
  Nd  Nd2  1  0.500000  0.998947  0.182241  1
  Nd  Nd3  1  0.500000  0.182239  0.998951  1
  Nd  Nd4  1  0.500000  0.815767  0.815770  1
  P  P5  1  0.000000  0.001191  0.810474  1
  P  P6  1  0.000000  0.810472  0.001194  1
  P  P7  1  0.000000  0.185923  0.185930  1
  P  P8  1  0.500000  0.306532  0.477875  1
  P  P9  1  0.500000  0.183373  0.699856  1
  P  P10  1  0.500000  0.522192  0.821212  1
  P  P11  1  0.500000  0.821212  0.522195  1
  P  P12  1  0.500000  0.477872  0.306533  1
  P  P13  1  0.500000  0.699854  0.183374  1
  P  P14  1  0.000000  0.999320  0.367366  1
  P  P15  1  0.000000  0.367363  0.999323  1
  P  P16  1  0.000000  0.624163  0.624165  1
  Pd  Pd17  1  0.000000  0.000699  0.553023  1
  Pd  Pd18  1  0.000000  0.553019  0.000701  1
  Ru  Ru19  1  0.000000  0.444695  0.444698  1
  Ru  Ru20  1  0.500000  0.002109  0.710645  1
  Ru  Ru21  1  0.500000  0.710641  0.002111  1
  Ru  Ru22  1  0.500000  0.285040  0.285041  1
  Ru  Ru23  1  0.000000  0.194053  0.379517  1
  Ru  Ru24  1  0.000000  0.187567  0.803105  1
  Ru  Ru25  1  0.000000  0.620746  0.814639  1
  Ru  Ru26  1  0.000000  0.814637  0.620750  1
  Ru  Ru27  1  0.000000  0.379515  0.194057  1
  Ru  Ru28  1  0.000000  0.803101  0.187568  1
  Ru  Ru29  1  0.500000  0.128034  0.494676  1
  Ru  Ru30  1  0.500000  0.371533  0.878084  1
  Ru  Ru31  1  0.500000  0.507090  0.631022  1
  Ru  Ru32  1  0.500000  0.631018  0.507089  1
  Ru  Ru33  1  0.500000  0.494672  0.128036  1
  Ru  Ru34  1  0.500000  0.878082  0.371535  1
  Ru  Ru35  1  0.000000  0.997840  0.997844  1
