# generated using pymatgen
data_SmMoP3Rh4
_symmetry_space_group_name_H-M   'P 1'
_cell_length_a   3.96780200
_cell_length_b   10.97676800
_cell_length_c   12.56037200
_cell_angle_alpha   90.00000000
_cell_angle_beta   90.00000000
_cell_angle_gamma   90.00000000
_symmetry_Int_Tables_number   1
_chemical_formula_structural   SmMoP3Rh4
_chemical_formula_sum   'Sm4 Mo4 P12 Rh16'
_cell_volume   547.04994578
_cell_formula_units_Z   4
loop_
 _symmetry_equiv_pos_site_id
 _symmetry_equiv_pos_as_xyz
  1  'x, y, z'
loop_
 _atom_site_type_symbol
 _atom_site_label
 _atom_site_symmetry_multiplicity
 _atom_site_fract_x
 _atom_site_fract_y
 _atom_site_fract_z
 _atom_site_occupancy
  Sm  Sm0  1  0.250000  0.582397  0.702879  1
  Sm  Sm1  1  0.250000  0.917603  0.202879  1
  Sm  Sm2  1  0.750000  0.417603  0.297121  1
  Sm  Sm3  1  0.750000  0.082397  0.797121  1
  Mo  Mo4  1  0.250000  0.712648  0.987949  1
  Mo  Mo5  1  0.250000  0.787352  0.487949  1
  Mo  Mo6  1  0.750000  0.287352  0.012051  1
  Mo  Mo7  1  0.750000  0.212648  0.512051  1
  P  P8  1  0.250000  0.419314  0.115144  1
  P  P9  1  0.250000  0.080686  0.615144  1
  P  P10  1  0.750000  0.580686  0.884856  1
  P  P11  1  0.750000  0.919314  0.384856  1
  P  P12  1  0.250000  0.264002  0.870027  1
  P  P13  1  0.250000  0.235998  0.370027  1
  P  P14  1  0.750000  0.735998  0.129973  1
  P  P15  1  0.750000  0.764002  0.629973  1
  P  P16  1  0.250000  0.600080  0.393794  1
  P  P17  1  0.250000  0.899920  0.893794  1
  P  P18  1  0.750000  0.399920  0.606206  1
  P  P19  1  0.750000  0.100080  0.106206  1
  Rh  Rh20  1  0.250000  0.405493  0.488817  1
  Rh  Rh21  1  0.250000  0.094507  0.988817  1
  Rh  Rh22  1  0.750000  0.594507  0.511183  1
  Rh  Rh23  1  0.750000  0.905493  0.011183  1
  Rh  Rh24  1  0.250000  0.228085  0.180011  1
  Rh  Rh25  1  0.250000  0.271915  0.680011  1
  Rh  Rh26  1  0.750000  0.771915  0.819989  1
  Rh  Rh27  1  0.750000  0.728085  0.319989  1
  Rh  Rh28  1  0.250000  0.890136  0.704171  1
  Rh  Rh29  1  0.250000  0.609864  0.204171  1
  Rh  Rh30  1  0.750000  0.109864  0.295829  1
  Rh  Rh31  1  0.750000  0.390136  0.795829  1
  Rh  Rh32  1  0.250000  0.462892  0.933335  1
  Rh  Rh33  1  0.250000  0.037108  0.433335  1
  Rh  Rh34  1  0.750000  0.537108  0.066665  1
  Rh  Rh35  1  0.750000  0.962892  0.566665  1
