# generated using pymatgen
data_Zr6BeGaSe
_symmetry_space_group_name_H-M   'P 1'
_cell_length_a   7.47409200
_cell_length_b   7.47409203
_cell_length_c   3.69335000
_cell_angle_alpha   90.00000000
_cell_angle_beta   90.00000000
_cell_angle_gamma   120.00000872
_symmetry_Int_Tables_number   1
_chemical_formula_structural   Zr6BeGaSe
_chemical_formula_sum   'Zr6 Be1 Ga1 Se1'
_cell_volume   178.67670686
_cell_formula_units_Z   1
loop_
 _symmetry_equiv_pos_site_id
 _symmetry_equiv_pos_as_xyz
  1  'x, y, z'
loop_
 _atom_site_type_symbol
 _atom_site_label
 _atom_site_symmetry_multiplicity
 _atom_site_fract_x
 _atom_site_fract_y
 _atom_site_fract_z
 _atom_site_occupancy
  Zr  Zr0  1  0.246789  0.005948  0.500000  1
  Zr  Zr1  1  0.994052  0.240841  0.500000  1
  Zr  Zr2  1  0.759159  0.753211  0.500000  1
  Zr  Zr3  1  0.592758  0.994855  0.000000  1
  Zr  Zr4  1  0.005145  0.597904  0.000000  1
  Zr  Zr5  1  0.402096  0.407242  0.000000  1
  Be  Be6  1  0.000000  0.000000  0.000000  1
  Ga  Ga7  1  0.666667  0.333333  0.500000  1
  Se  Se8  1  0.333333  0.666667  0.500000  1
