# generated using pymatgen
data_NdSm3(CuP2)4
_symmetry_space_group_name_H-M   'P 1'
_cell_length_a   3.75780300
_cell_length_b   3.84767734
_cell_length_c   19.86932405
_cell_angle_alpha   89.98511968
_cell_angle_beta   90.00000000
_cell_angle_gamma   90.00000000
_symmetry_Int_Tables_number   1
_chemical_formula_structural   NdSm3(CuP2)4
_chemical_formula_sum   'Nd1 Sm3 Cu4 P8'
_cell_volume   287.28683983
_cell_formula_units_Z   1
loop_
 _symmetry_equiv_pos_site_id
 _symmetry_equiv_pos_as_xyz
  1  'x, y, z'
loop_
 _atom_site_type_symbol
 _atom_site_label
 _atom_site_symmetry_multiplicity
 _atom_site_fract_x
 _atom_site_fract_y
 _atom_site_fract_z
 _atom_site_occupancy
  Nd  Nd0  1  0.750000  0.210702  0.118009  1
  Sm  Sm1  1  0.250000  0.711677  0.382377  1
  Sm  Sm2  1  0.250000  0.789737  0.880438  1
  Sm  Sm3  1  0.750000  0.288427  0.618369  1
  Cu  Cu4  1  0.250000  0.210737  0.250842  1
  Cu  Cu5  1  0.750000  0.788879  0.750044  1
  Cu  Cu6  1  0.250000  0.287711  0.749380  1
  Cu  Cu7  1  0.750000  0.710965  0.251490  1
  P  P8  1  0.750000  0.815587  0.502817  1
  P  P9  1  0.750000  0.684634  0.000565  1
  P  P10  1  0.250000  0.185196  0.497849  1
  P  P11  1  0.250000  0.315882  0.995631  1
  P  P12  1  0.250000  0.710593  0.177312  1
  P  P13  1  0.750000  0.211447  0.325744  1
  P  P14  1  0.750000  0.289298  0.824086  1
  P  P15  1  0.250000  0.788529  0.675049  1
