# generated using pymatgen
data_PaCI
_symmetry_space_group_name_H-M   'P 1'
_cell_length_a   4.12062432
_cell_length_b   4.12062425
_cell_length_c   10.94433149
_cell_angle_alpha   93.05332008
_cell_angle_beta   93.05332136
_cell_angle_gamma   54.43524813
_symmetry_Int_Tables_number   1
_chemical_formula_structural   PaCI
_chemical_formula_sum   'Pa2 C2 I2'
_cell_volume   150.89343278
_cell_formula_units_Z   2
loop_
 _symmetry_equiv_pos_site_id
 _symmetry_equiv_pos_as_xyz
  1  'x, y, z'
loop_
 _atom_site_type_symbol
 _atom_site_label
 _atom_site_symmetry_multiplicity
 _atom_site_fract_x
 _atom_site_fract_y
 _atom_site_fract_z
 _atom_site_occupancy
  Pa  Pa0  1  0.144201  0.144201  0.119430  1
  Pa  Pa1  1  0.855798  0.855798  0.880570  1
  C  C2  1  0.423045  0.423045  0.037081  1
  C  C3  1  0.576955  0.576955  0.962919  1
  I  I4  1  0.827405  0.827405  0.323908  1
  I  I5  1  0.172596  0.172596  0.676092  1
