# generated using pymatgen
data_Ba4Pr7DySe16
_symmetry_space_group_name_H-M   'P 1'
_cell_length_a   4.35917500
_cell_length_b   13.08161647
_cell_length_c   15.64209377
_cell_angle_alpha   89.83088013
_cell_angle_beta   90.00000000
_cell_angle_gamma   90.00000000
_symmetry_Int_Tables_number   1
_chemical_formula_structural   Ba4Pr7DySe16
_chemical_formula_sum   'Ba4 Pr7 Dy1 Se16'
_cell_volume   891.98737927
_cell_formula_units_Z   1
loop_
 _symmetry_equiv_pos_site_id
 _symmetry_equiv_pos_as_xyz
  1  'x, y, z'
loop_
 _atom_site_type_symbol
 _atom_site_label
 _atom_site_symmetry_multiplicity
 _atom_site_fract_x
 _atom_site_fract_y
 _atom_site_fract_z
 _atom_site_occupancy
  Ba  Ba0  1  0.250000  0.758053  0.337841  1
  Ba  Ba1  1  0.250000  0.256724  0.164852  1
  Ba  Ba2  1  0.750000  0.240963  0.660185  1
  Ba  Ba3  1  0.750000  0.742938  0.836874  1
  Pr  Pr4  1  0.250000  0.427913  0.391973  1
  Pr  Pr5  1  0.250000  0.932316  0.111094  1
  Pr  Pr6  1  0.750000  0.569616  0.608390  1
  Pr  Pr7  1  0.750000  0.069860  0.891699  1
  Pr  Pr8  1  0.250000  0.419290  0.899222  1
  Pr  Pr9  1  0.250000  0.922130  0.598733  1
  Pr  Pr10  1  0.750000  0.579938  0.101014  1
  Dy  Dy11  1  0.750000  0.078857  0.398522  1
  Se  Se12  1  0.250000  0.207214  0.824703  1
  Se  Se13  1  0.250000  0.708418  0.672789  1
  Se  Se14  1  0.750000  0.792945  0.174992  1
  Se  Se15  1  0.750000  0.286400  0.329624  1
  Se  Se16  1  0.250000  0.130476  0.519196  1
  Se  Se17  1  0.250000  0.630895  0.973342  1
  Se  Se18  1  0.750000  0.874896  0.470233  1
  Se  Se19  1  0.750000  0.368703  0.027084  1
  Se  Se20  1  0.250000  0.522180  0.217732  1
  Se  Se21  1  0.250000  0.026210  0.287944  1
  Se  Se22  1  0.750000  0.476293  0.782655  1
  Se  Se23  1  0.750000  0.977099  0.716355  1
  Se  Se24  1  0.250000  0.414773  0.580297  1
  Se  Se25  1  0.250000  0.915544  0.921989  1
  Se  Se26  1  0.750000  0.583752  0.419857  1
  Se  Se27  1  0.750000  0.085602  0.080810  1
