# generated using pymatgen
data_Dy3Sc2In4PtRh
_symmetry_space_group_name_H-M   'P 1'
_cell_length_a   3.55997000
_cell_length_b   7.98740789
_cell_length_c   17.92104948
_cell_angle_alpha   90.07675365
_cell_angle_beta   90.00000000
_cell_angle_gamma   90.00000000
_symmetry_Int_Tables_number   1
_chemical_formula_structural   Dy3Sc2In4PtRh
_chemical_formula_sum   'Dy6 Sc4 In8 Pt2 Rh2'
_cell_volume   509.58337456
_cell_formula_units_Z   2
loop_
 _symmetry_equiv_pos_site_id
 _symmetry_equiv_pos_as_xyz
  1  'x, y, z'
loop_
 _atom_site_type_symbol
 _atom_site_label
 _atom_site_symmetry_multiplicity
 _atom_site_fract_x
 _atom_site_fract_y
 _atom_site_fract_z
 _atom_site_occupancy
  Dy  Dy0  1  0.000000  0.238038  0.219396  1
  Dy  Dy1  1  0.000000  0.761962  0.780604  1
  Dy  Dy2  1  0.000000  0.252149  0.717863  1
  Dy  Dy3  1  0.000000  0.747851  0.282137  1
  Dy  Dy4  1  0.000000  0.000000  0.000000  1
  Dy  Dy5  1  0.000000  0.500000  0.500000  1
  Sc  Sc6  1  0.000000  0.115850  0.411181  1
  Sc  Sc7  1  0.000000  0.884150  0.588819  1
  Sc  Sc8  1  0.000000  0.382330  0.913474  1
  Sc  Sc9  1  0.000000  0.617670  0.086526  1
  In  In10  1  0.500000  0.414299  0.351348  1
  In  In11  1  0.500000  0.585701  0.648652  1
  In  In12  1  0.500000  0.081097  0.850587  1
  In  In13  1  0.500000  0.918903  0.149413  1
  In  In14  1  0.500000  0.305626  0.060992  1
  In  In15  1  0.500000  0.694374  0.939008  1
  In  In16  1  0.500000  0.193542  0.562373  1
  In  In17  1  0.500000  0.806458  0.437627  1
  Pt  Pt18  1  0.500000  0.471556  0.807430  1
  Pt  Pt19  1  0.500000  0.528444  0.192570  1
  Rh  Rh20  1  0.500000  0.028569  0.308769  1
  Rh  Rh21  1  0.500000  0.971431  0.691231  1
