# generated using pymatgen
data_Zr4Si8MoOs5
_symmetry_space_group_name_H-M   'P 1'
_cell_length_a   10.00255343
_cell_length_b   10.00255306
_cell_length_c   13.43458910
_cell_angle_alpha   54.11544031
_cell_angle_beta   54.11544204
_cell_angle_gamma   31.24515122
_symmetry_Int_Tables_number   1
_chemical_formula_structural   Zr4Si8MoOs5
_chemical_formula_sum   'Zr8 Si16 Mo2 Os10'
_cell_volume   553.19862646
_cell_formula_units_Z   2
loop_
 _symmetry_equiv_pos_site_id
 _symmetry_equiv_pos_as_xyz
  1  'x, y, z'
loop_
 _atom_site_type_symbol
 _atom_site_label
 _atom_site_symmetry_multiplicity
 _atom_site_fract_x
 _atom_site_fract_y
 _atom_site_fract_z
 _atom_site_occupancy
  Zr  Zr0  1  0.040843  0.295575  0.632550  1
  Zr  Zr1  1  0.704425  0.959157  0.867450  1
  Zr  Zr2  1  0.960176  0.706998  0.363415  1
  Zr  Zr3  1  0.293002  0.039824  0.136585  1
  Zr  Zr4  1  0.296418  0.553901  0.647449  1
  Zr  Zr5  1  0.446099  0.703582  0.852551  1
  Zr  Zr6  1  0.708612  0.440942  0.347154  1
  Zr  Zr7  1  0.559058  0.291388  0.152846  1
  Si  Si8  1  0.974786  0.252651  0.891694  1
  Si  Si9  1  0.747349  0.025214  0.608306  1
  Si  Si10  1  0.027410  0.745518  0.107138  1
  Si  Si11  1  0.254482  0.972590  0.392862  1
  Si  Si12  1  0.141934  0.390244  0.898095  1
  Si  Si13  1  0.609756  0.858066  0.601905  1
  Si  Si14  1  0.858041  0.613219  0.101152  1
  Si  Si15  1  0.386781  0.141959  0.398848  1
  Si  Si16  1  0.074796  0.579907  0.566326  1
  Si  Si17  1  0.420093  0.925204  0.933674  1
  Si  Si18  1  0.914362  0.429039  0.433172  1
  Si  Si19  1  0.570961  0.085638  0.066828  1
  Si  Si20  1  0.620564  0.379436  0.750000  1
  Si  Si21  1  0.386531  0.613469  0.250000  1
  Si  Si22  1  0.123171  0.876829  0.750000  1
  Si  Si23  1  0.877196  0.122804  0.250000  1
  Mo  Mo24  1  0.759762  0.487247  0.063345  1
  Mo  Mo25  1  0.512753  0.240238  0.436655  1
  Os  Os26  1  0.898307  0.142814  0.583771  1
  Os  Os27  1  0.857186  0.101693  0.916229  1
  Os  Os28  1  0.107575  0.851343  0.417953  1
  Os  Os29  1  0.148657  0.892425  0.082047  1
  Os  Os30  1  0.829341  0.647048  0.780561  1
  Os  Os31  1  0.352952  0.170659  0.719439  1
  Os  Os32  1  0.167934  0.356695  0.216734  1
  Os  Os33  1  0.643305  0.832066  0.283266  1
  Os  Os34  1  0.244706  0.519328  0.925972  1
  Os  Os35  1  0.480672  0.755294  0.574028  1
