# generated using pymatgen
data_TbEu3Y2(BO3)6
_symmetry_space_group_name_H-M   'P 1'
_cell_length_a   6.64625848
_cell_length_b   6.64625916
_cell_length_c   8.97746805
_cell_angle_alpha   89.89409624
_cell_angle_beta   89.89409549
_cell_angle_gamma   119.39935982
_symmetry_Int_Tables_number   1
_chemical_formula_structural   TbEu3Y2(BO3)6
_chemical_formula_sum   'Tb1 Eu3 Y2 B6 O18'
_cell_volume   345.48797749
_cell_formula_units_Z   1
loop_
 _symmetry_equiv_pos_site_id
 _symmetry_equiv_pos_as_xyz
  1  'x, y, z'
loop_
 _atom_site_type_symbol
 _atom_site_label
 _atom_site_symmetry_multiplicity
 _atom_site_fract_x
 _atom_site_fract_y
 _atom_site_fract_z
 _atom_site_occupancy
  Tb  Tb0  1  0.328429  0.671571  0.500000  1
  Eu  Eu1  1  0.330885  0.669115  0.000000  1
  Eu  Eu2  1  0.000232  0.999768  0.500000  1
  Eu  Eu3  1  0.000078  0.999922  0.000000  1
  Y  Y4  1  0.670847  0.329153  0.500000  1
  Y  Y5  1  0.670177  0.329823  0.000000  1
  B  B6  1  0.338831  0.098329  0.749782  1
  B  B7  1  0.094973  0.336441  0.748374  1
  B  B8  1  0.571979  0.570999  0.747518  1
  B  B9  1  0.429001  0.428021  0.252482  1
  B  B10  1  0.663559  0.905027  0.251626  1
  B  B11  1  0.901671  0.661169  0.250218  1
  O  O12  1  0.451447  0.667591  0.253996  1
  O  O13  1  0.666064  0.448103  0.252058  1
  O  O14  1  0.876906  0.876921  0.251328  1
  O  O15  1  0.123079  0.123094  0.748672  1
  O  O16  1  0.551897  0.333936  0.747942  1
  O  O17  1  0.332409  0.548553  0.746004  1
  O  O18  1  0.005695  0.659211  0.108488  1
  O  O19  1  0.014197  0.660437  0.389035  1
  O  O20  1  0.665079  0.017372  0.111990  1
  O  O21  1  0.661816  0.015200  0.390817  1
  O  O22  1  0.323592  0.321423  0.110153  1
  O  O23  1  0.322458  0.321655  0.393908  1
  O  O24  1  0.678345  0.677542  0.606092  1
  O  O25  1  0.678577  0.676408  0.889847  1
  O  O26  1  0.984800  0.338184  0.609183  1
  O  O27  1  0.982628  0.334921  0.888010  1
  O  O28  1  0.339563  0.985803  0.610965  1
  O  O29  1  0.340789  0.994305  0.891512  1
