# generated using pymatgen
data_Ca4Ga9SiPt6
_symmetry_space_group_name_H-M   'P 1'
_cell_length_a   8.68692779
_cell_length_b   8.68692804
_cell_length_c   8.68692856
_cell_angle_alpha   140.77560968
_cell_angle_beta   107.00991624
_cell_angle_gamma   86.14609713
_symmetry_Int_Tables_number   1
_chemical_formula_structural   Ca4Ga9SiPt6
_chemical_formula_sum   'Ca4 Ga9 Si1 Pt6'
_cell_volume   382.38010515
_cell_formula_units_Z   1
loop_
 _symmetry_equiv_pos_site_id
 _symmetry_equiv_pos_as_xyz
  1  'x, y, z'
loop_
 _atom_site_type_symbol
 _atom_site_label
 _atom_site_symmetry_multiplicity
 _atom_site_fract_x
 _atom_site_fract_y
 _atom_site_fract_z
 _atom_site_occupancy
  Ca  Ca0  1  0.634557  0.355238  0.264396  1
  Ca  Ca1  1  0.365443  0.629839  0.720682  1
  Ca  Ca2  1  0.090843  0.870161  0.235604  1
  Ca  Ca3  1  0.909157  0.144762  0.779318  1
  Ga  Ga4  1  0.431058  0.090772  0.326496  1
  Ga  Ga5  1  0.568942  0.895437  0.659713  1
  Ga  Ga6  1  0.764276  0.604563  0.173504  1
  Ga  Ga7  1  0.235724  0.409228  0.840287  1
  Ga  Ga8  1  0.280815  0.530815  0.250000  1
  Ga  Ga9  1  0.709299  0.459299  0.750000  1
  Ga  Ga10  1  0.719185  0.969185  0.250000  1
  Ga  Ga11  1  0.290701  0.040701  0.750000  1
  Ga  Ga12  1  0.000000  0.250000  0.250000  1
  Si  Si13  1  0.000000  0.750000  0.750000  1
  Pt  Pt14  1  0.500000  0.250000  0.750000  1
  Pt  Pt15  1  0.500000  0.750000  0.250000  1
  Pt  Pt16  1  0.235674  0.118808  0.077923  1
  Pt  Pt17  1  0.764326  0.842249  0.883134  1
  Pt  Pt18  1  0.040885  0.657751  0.422077  1
  Pt  Pt19  1  0.959115  0.381192  0.616866  1
