# generated using pymatgen
data_Ho3AgSn3Ru2
_symmetry_space_group_name_H-M   'P 1'
_cell_length_a   7.77195800
_cell_length_b   7.77195794
_cell_length_c   3.76806900
_cell_angle_alpha   90.00000000
_cell_angle_beta   90.00000000
_cell_angle_gamma   120.00000024
_symmetry_Int_Tables_number   1
_chemical_formula_structural   Ho3AgSn3Ru2
_chemical_formula_sum   'Ho3 Ag1 Sn3 Ru2'
_cell_volume   197.11077448
_cell_formula_units_Z   1
loop_
 _symmetry_equiv_pos_site_id
 _symmetry_equiv_pos_as_xyz
  1  'x, y, z'
loop_
 _atom_site_type_symbol
 _atom_site_label
 _atom_site_symmetry_multiplicity
 _atom_site_fract_x
 _atom_site_fract_y
 _atom_site_fract_z
 _atom_site_occupancy
  Ho  Ho0  1  0.973119  0.384811  0.500000  1
  Ho  Ho1  1  0.615189  0.588307  0.500000  1
  Ho  Ho2  1  0.411693  0.026881  0.500000  1
  Ag  Ag3  1  0.333333  0.666667  0.000000  1
  Sn  Sn4  1  0.000261  0.737658  0.000000  1
  Sn  Sn5  1  0.262342  0.262602  0.000000  1
  Sn  Sn6  1  0.737398  0.999739  0.000000  1
  Ru  Ru7  1  0.666667  0.333333  0.000000  1
  Ru  Ru8  1  0.000000  0.000000  0.500000  1
