# generated using pymatgen
data_CaPr19Si15Ni
_symmetry_space_group_name_H-M   'P 1'
_cell_length_a   7.93792056
_cell_length_b   7.92712530
_cell_length_c   15.27624900
_cell_angle_alpha   90.26803720
_cell_angle_beta   89.81458412
_cell_angle_gamma   90.12484552
_symmetry_Int_Tables_number   1
_chemical_formula_structural   CaPr19Si15Ni
_chemical_formula_sum   'Ca1 Pr19 Si15 Ni1'
_cell_volume   961.23850013
_cell_formula_units_Z   1
loop_
 _symmetry_equiv_pos_site_id
 _symmetry_equiv_pos_as_xyz
  1  'x, y, z'
loop_
 _atom_site_type_symbol
 _atom_site_label
 _atom_site_symmetry_multiplicity
 _atom_site_fract_x
 _atom_site_fract_y
 _atom_site_fract_z
 _atom_site_occupancy
  Ca  Ca0  1  0.309662  0.308859  0.999709  1
  Pr  Pr1  1  0.192694  0.808439  0.250197  1
  Pr  Pr2  1  0.818237  0.188052  0.748637  1
  Pr  Pr3  1  0.694344  0.688150  0.500532  1
  Pr  Pr4  1  0.373664  0.011288  0.448459  1
  Pr  Pr5  1  0.490009  0.873988  0.699867  1
  Pr  Pr6  1  0.510207  0.122376  0.197470  1
  Pr  Pr7  1  0.875834  0.488768  0.299486  1
  Pr  Pr8  1  0.123480  0.509616  0.801059  1
  Pr  Pr9  1  0.625105  0.992309  0.947553  1
  Pr  Pr10  1  0.005347  0.379070  0.550563  1
  Pr  Pr11  1  0.990634  0.624580  0.051394  1
  Pr  Pr12  1  0.134402  0.987161  0.874432  1
  Pr  Pr13  1  0.515641  0.629217  0.125376  1
  Pr  Pr14  1  0.469346  0.364194  0.628476  1
  Pr  Pr15  1  0.626960  0.512798  0.873863  1
  Pr  Pr16  1  0.373515  0.481861  0.373691  1
  Pr  Pr17  1  0.872467  0.020599  0.376325  1
  Pr  Pr18  1  0.983890  0.126295  0.123756  1
  Pr  Pr19  1  0.024020  0.877971  0.625643  1
  Si  Si20  1  0.334929  0.699336  0.949429  1
  Si  Si21  1  0.662355  0.302044  0.452409  1
  Si  Si22  1  0.702187  0.335761  0.050696  1
  Si  Si23  1  0.303861  0.668401  0.548115  1
  Si  Si24  1  0.805435  0.831777  0.202449  1
  Si  Si25  1  0.167955  0.196965  0.297332  1
  Si  Si26  1  0.832839  0.803510  0.799161  1
  Si  Si27  1  0.285899  0.918818  0.058906  1
  Si  Si28  1  0.579257  0.787238  0.309795  1
  Si  Si29  1  0.422552  0.206972  0.810061  1
  Si  Si30  1  0.784681  0.579895  0.691344  1
  Si  Si31  1  0.210620  0.422805  0.190233  1
  Si  Si32  1  0.705150  0.075472  0.559488  1
  Si  Si33  1  0.918693  0.287300  0.940320  1
  Si  Si34  1  0.079651  0.714394  0.440629  1
  Ni  Ni35  1  0.194479  0.173721  0.703144  1
