# generated using pymatgen
data_HoLuFeC2
_symmetry_space_group_name_H-M   'P 1'
_cell_length_a   4.92842500
_cell_length_b   6.25632600
_cell_length_c   9.52374600
_cell_angle_alpha   90.00000000
_cell_angle_beta   90.00000000
_cell_angle_gamma   90.00000000
_symmetry_Int_Tables_number   1
_chemical_formula_structural   HoLuFeC2
_chemical_formula_sum   'Ho4 Lu4 Fe4 C8'
_cell_volume   293.65359814
_cell_formula_units_Z   4
loop_
 _symmetry_equiv_pos_site_id
 _symmetry_equiv_pos_as_xyz
  1  'x, y, z'
loop_
 _atom_site_type_symbol
 _atom_site_label
 _atom_site_symmetry_multiplicity
 _atom_site_fract_x
 _atom_site_fract_y
 _atom_site_fract_z
 _atom_site_occupancy
  Ho  Ho0  1  0.250000  0.478931  0.211179  1
  Ho  Ho1  1  0.250000  0.978931  0.288821  1
  Ho  Ho2  1  0.750000  0.521069  0.788821  1
  Ho  Ho3  1  0.750000  0.021069  0.711179  1
  Lu  Lu4  1  0.250000  0.825528  0.942968  1
  Lu  Lu5  1  0.250000  0.325528  0.557032  1
  Lu  Lu6  1  0.750000  0.174472  0.057032  1
  Lu  Lu7  1  0.750000  0.674472  0.442968  1
  Fe  Fe8  1  0.250000  0.271533  0.856797  1
  Fe  Fe9  1  0.250000  0.771533  0.643203  1
  Fe  Fe10  1  0.750000  0.728467  0.143203  1
  Fe  Fe11  1  0.750000  0.228467  0.356797  1
  C  C12  1  0.250000  0.038685  0.737235  1
  C  C13  1  0.250000  0.538685  0.762765  1
  C  C14  1  0.750000  0.961315  0.262765  1
  C  C15  1  0.750000  0.461315  0.237235  1
  C  C16  1  0.250000  0.684165  0.458935  1
  C  C17  1  0.250000  0.184165  0.041065  1
  C  C18  1  0.750000  0.315835  0.541065  1
  C  C19  1  0.750000  0.815835  0.958935  1
