# generated using pymatgen
data_Sc4Ta4TcOs7
_symmetry_space_group_name_H-M   'P 1'
_cell_length_a   6.38110701
_cell_length_b   4.52815501
_cell_length_c   9.04641800
_cell_angle_alpha   89.99980380
_cell_angle_beta   89.99887433
_cell_angle_gamma   90.00622840
_symmetry_Int_Tables_number   1
_chemical_formula_structural   Sc4Ta4TcOs7
_chemical_formula_sum   'Sc4 Ta4 Tc1 Os7'
_cell_volume   261.39300478
_cell_formula_units_Z   1
loop_
 _symmetry_equiv_pos_site_id
 _symmetry_equiv_pos_as_xyz
  1  'x, y, z'
loop_
 _atom_site_type_symbol
 _atom_site_label
 _atom_site_symmetry_multiplicity
 _atom_site_fract_x
 _atom_site_fract_y
 _atom_site_fract_z
 _atom_site_occupancy
  Sc  Sc0  1  0.748648  0.250010  0.125002  1
  Sc  Sc1  1  0.250703  0.749991  0.373986  1
  Sc  Sc2  1  0.749954  0.250005  0.625008  1
  Sc  Sc3  1  0.250689  0.749986  0.876009  1
  Ta  Ta4  1  0.252288  0.249992  0.124999  1
  Ta  Ta5  1  0.748633  0.750006  0.373775  1
  Ta  Ta6  1  0.250515  0.249998  0.625003  1
  Ta  Ta7  1  0.748600  0.750004  0.876223  1
  Tc  Tc8  1  0.500498  0.750024  0.124996  1
  Os  Os9  1  0.999603  0.749999  0.125009  1
  Os  Os10  1  0.499776  0.249986  0.375941  1
  Os  Os11  1  0.000256  0.250001  0.375520  1
  Os  Os12  1  0.999879  0.750002  0.625007  1
  Os  Os13  1  0.499955  0.750002  0.625010  1
  Os  Os14  1  0.000241  0.250002  0.874464  1
  Os  Os15  1  0.499768  0.249985  0.874049  1
