# generated using pymatgen
data_Y5TmCo17TcP12
_symmetry_space_group_name_H-M   'P 1'
_cell_length_a   3.70385000
_cell_length_b   10.52343402
_cell_length_c   12.21348703
_cell_angle_alpha   89.99239437
_cell_angle_beta   90.00000000
_cell_angle_gamma   90.00000000
_symmetry_Int_Tables_number   1
_chemical_formula_structural   Y5TmCo17TcP12
_chemical_formula_sum   'Y5 Tm1 Co17 Tc1 P12'
_cell_volume   476.04778014
_cell_formula_units_Z   1
loop_
 _symmetry_equiv_pos_site_id
 _symmetry_equiv_pos_as_xyz
  1  'x, y, z'
loop_
 _atom_site_type_symbol
 _atom_site_label
 _atom_site_symmetry_multiplicity
 _atom_site_fract_x
 _atom_site_fract_y
 _atom_site_fract_z
 _atom_site_occupancy
  Y  Y0  1  0.000000  0.500088  0.523603  1
  Y  Y1  1  0.500000  0.999788  0.477894  1
  Y  Y2  1  0.500000  0.182276  0.206630  1
  Y  Y3  1  0.000000  0.683086  0.794922  1
  Y  Y4  1  0.000000  0.317026  0.795232  1
  Tm  Tm5  1  0.500000  0.817508  0.206628  1
  Co  Co6  1  0.000000  0.999655  0.840149  1
  Co  Co7  1  0.500000  0.500201  0.703302  1
  Co  Co8  1  0.000000  0.998594  0.295808  1
  Co  Co9  1  0.000000  0.500706  0.988163  1
  Co  Co10  1  0.500000  0.999267  0.015420  1
  Co  Co11  1  0.500000  0.332073  0.991379  1
  Co  Co12  1  0.500000  0.668672  0.991791  1
  Co  Co13  1  0.000000  0.165757  0.006001  1
  Co  Co14  1  0.000000  0.833493  0.006496  1
  Co  Co15  1  0.500000  0.296492  0.430679  1
  Co  Co16  1  0.500000  0.703615  0.429725  1
  Co  Co17  1  0.000000  0.203120  0.568977  1
  Co  Co18  1  0.000000  0.796710  0.568264  1
  Co  Co19  1  0.500000  0.879250  0.708783  1
  Co  Co20  1  0.500000  0.120682  0.709117  1
  Co  Co21  1  0.000000  0.621748  0.290928  1
  Co  Co22  1  0.000000  0.379812  0.291824  1
  Tc  Tc23  1  0.500000  0.500509  0.156702  1
  P  P24  1  0.500000  0.500397  0.882000  1
  P  P25  1  0.000000  0.998749  0.117795  1
  P  P26  1  0.500000  0.499999  0.348433  1
  P  P27  1  0.000000  0.999974  0.656254  1
  P  P28  1  0.500000  0.310866  0.616471  1
  P  P29  1  0.500000  0.689353  0.615978  1
  P  P30  1  0.000000  0.188273  0.384163  1
  P  P31  1  0.000000  0.811272  0.382788  1
  P  P32  1  0.500000  0.850005  0.892163  1
  P  P33  1  0.500000  0.149753  0.892594  1
  P  P34  1  0.000000  0.656742  0.106920  1
  P  P35  1  0.000000  0.344485  0.106020  1
