# generated using pymatgen
data_Tb4Al24CoPt8
_symmetry_space_group_name_H-M   'P 1'
_cell_length_a   7.50639061
_cell_length_b   7.50768070
_cell_length_c   13.15894737
_cell_angle_alpha   84.54949527
_cell_angle_beta   100.86868157
_cell_angle_gamma   119.68343405
_symmetry_Int_Tables_number   1
_chemical_formula_structural   Tb4Al24CoPt8
_chemical_formula_sum   'Tb4 Al24 Co1 Pt8'
_cell_volume   632.70808703
_cell_formula_units_Z   1
loop_
 _symmetry_equiv_pos_site_id
 _symmetry_equiv_pos_as_xyz
  1  'x, y, z'
loop_
 _atom_site_type_symbol
 _atom_site_label
 _atom_site_symmetry_multiplicity
 _atom_site_fract_x
 _atom_site_fract_y
 _atom_site_fract_z
 _atom_site_occupancy
  Tb  Tb0  1  0.735923  0.000675  0.190305  1
  Tb  Tb1  1  0.268205  0.004288  0.809643  1
  Tb  Tb2  1  0.059165  0.668372  0.190455  1
  Tb  Tb3  1  0.935929  0.327521  0.809592  1
  Al  Al4  1  0.804303  0.865283  0.816789  1
  Al  Al5  1  0.195857  0.134346  0.183204  1
  Al  Al6  1  0.995154  0.666049  0.945999  1
  Al  Al7  1  0.026276  0.343421  0.052919  1
  Al  Al8  1  0.391351  0.662521  0.823425  1
  Al  Al9  1  0.599901  0.336741  0.181990  1
  Al  Al10  1  0.882869  0.664986  0.672125  1
  Al  Al11  1  0.118879  0.335650  0.327663  1
  Al  Al12  1  0.602664  0.459878  0.817707  1
  Al  Al13  1  0.396375  0.550659  0.176897  1
  Al  Al14  1  0.231347  0.341410  0.670150  1
  Al  Al15  1  0.768021  0.659211  0.329772  1
  Al  Al16  1  0.853528  0.333479  0.559065  1
  Al  Al17  1  0.186573  0.999788  0.559082  1
  Al  Al18  1  0.813928  0.000089  0.440934  1
  Al  Al19  1  0.351917  0.986485  0.054056  1
  Al  Al20  1  0.638995  0.991688  0.947119  1
  Al  Al21  1  0.555703  0.991479  0.672253  1
  Al  Al22  1  0.443771  0.006807  0.327878  1
  Al  Al23  1  0.521446  0.667926  0.561352  1
  Al  Al24  1  0.478837  0.331896  0.438380  1
  Al  Al25  1  0.674374  0.668327  0.040695  1
  Al  Al26  1  0.317849  0.339185  0.959249  1
  Al  Al27  1  0.146566  0.666060  0.441200  1
  Co  Co28  1  0.330501  0.669609  0.000049  1
  Pt  Pt29  1  0.546579  0.325426  0.637570  1
  Pt  Pt30  1  0.453433  0.674177  0.361852  1
  Pt  Pt31  1  0.887620  0.007620  0.638651  1
  Pt  Pt32  1  0.112621  0.992075  0.361370  1
  Pt  Pt33  1  0.672168  0.327734  0.999971  1
  Pt  Pt34  1  0.205543  0.667122  0.639251  1
  Pt  Pt35  1  0.795205  0.332720  0.361364  1
  Pt  Pt36  1  0.000626  0.999294  0.000027  1
