# generated using pymatgen
data_Y2Be2Si2NiO10
_symmetry_space_group_name_H-M   'P 1'
_cell_length_a   10.01584106
_cell_length_b   7.52909500
_cell_length_c   4.74714776
_cell_angle_alpha   90.00000000
_cell_angle_beta   90.30656018
_cell_angle_gamma   90.00000000
_symmetry_Int_Tables_number   1
_chemical_formula_structural   Y2Be2Si2NiO10
_chemical_formula_sum   'Y4 Be4 Si4 Ni2 O20'
_cell_volume   357.97832739
_cell_formula_units_Z   2
loop_
 _symmetry_equiv_pos_site_id
 _symmetry_equiv_pos_as_xyz
  1  'x, y, z'
loop_
 _atom_site_type_symbol
 _atom_site_label
 _atom_site_symmetry_multiplicity
 _atom_site_fract_x
 _atom_site_fract_y
 _atom_site_fract_z
 _atom_site_occupancy
  Y  Y0  1  0.327210  0.108053  0.998306  1
  Y  Y1  1  0.827210  0.391948  0.998306  1
  Y  Y2  1  0.172790  0.608052  0.001694  1
  Y  Y3  1  0.672790  0.891947  0.001694  1
  Be  Be4  1  0.162639  0.913414  0.462089  1
  Be  Be5  1  0.662639  0.586587  0.462089  1
  Be  Be6  1  0.837361  0.086586  0.537911  1
  Be  Be7  1  0.337360  0.413413  0.537913  1
  Si  Si8  1  0.078019  0.278818  0.482124  1
  Si  Si9  1  0.578018  0.221181  0.482124  1
  Si  Si10  1  0.421981  0.778819  0.517875  1
  Si  Si11  1  0.921981  0.721182  0.517876  1
  Ni  Ni12  1  0.000000  0.000000  0.000000  1
  Ni  Ni13  1  0.500000  0.499999  0.000000  1
  O  O14  1  0.832409  0.087945  0.205043  1
  O  O15  1  0.332409  0.412054  0.205045  1
  O  O16  1  0.027132  0.417523  0.242620  1
  O  O17  1  0.527132  0.082478  0.242621  1
  O  O18  1  0.300580  0.844375  0.307852  1
  O  O19  1  0.800580  0.655626  0.307852  1
  O  O20  1  0.137850  0.106934  0.302619  1
  O  O21  1  0.637850  0.393067  0.302619  1
  O  O22  1  0.044418  0.790948  0.312974  1
  O  O23  1  0.544418  0.709053  0.312975  1
  O  O24  1  0.455582  0.290947  0.687025  1
  O  O25  1  0.955582  0.209052  0.687025  1
  O  O26  1  0.362150  0.606933  0.697380  1
  O  O27  1  0.862150  0.893066  0.697380  1
  O  O28  1  0.199420  0.344374  0.692147  1
  O  O29  1  0.699420  0.155626  0.692147  1
  O  O30  1  0.472869  0.917522  0.757379  1
  O  O31  1  0.972869  0.582477  0.757379  1
  O  O32  1  0.167590  0.912055  0.794956  1
  O  O33  1  0.667590  0.587946  0.794957  1
