# generated using pymatgen
data_K3As2Pd2Pt
_symmetry_space_group_name_H-M   'P 1'
_cell_length_a   7.66743581
_cell_length_b   7.66743673
_cell_length_c   7.62998280
_cell_angle_alpha   44.87607442
_cell_angle_beta   44.87606766
_cell_angle_gamma   45.14280940
_symmetry_Int_Tables_number   1
_chemical_formula_structural   K3As2Pd2Pt
_chemical_formula_sum   'K3 As2 Pd2 Pt1'
_cell_volume   203.86701407
_cell_formula_units_Z   1
loop_
 _symmetry_equiv_pos_site_id
 _symmetry_equiv_pos_as_xyz
  1  'x, y, z'
loop_
 _atom_site_type_symbol
 _atom_site_label
 _atom_site_symmetry_multiplicity
 _atom_site_fract_x
 _atom_site_fract_y
 _atom_site_fract_z
 _atom_site_occupancy
  K  K0  1  0.082478  0.082478  0.087301  1
  K  K1  1  0.500000  0.500000  0.500000  1
  K  K2  1  0.917522  0.917522  0.912699  1
  As  As3  1  0.250490  0.250490  0.237487  1
  As  As4  1  0.749510  0.749510  0.762513  1
  Pd  Pd5  1  0.499999  0.000000  0.500001  1
  Pd  Pd6  1  0.000000  0.499999  0.500001  1
  Pt  Pt7  1  0.500000  0.500000  0.000000  1
