# generated using pymatgen
data_Pr5Ho(BiO7)2
_symmetry_space_group_name_H-M   'P 1'
_cell_length_a   6.74670289
_cell_length_b   6.78173875
_cell_length_c   7.95790071
_cell_angle_alpha   106.87440204
_cell_angle_beta   89.85652353
_cell_angle_gamma   98.62053587
_symmetry_Int_Tables_number   1
_chemical_formula_structural   Pr5Ho(BiO7)2
_chemical_formula_sum   'Pr5 Ho1 Bi2 O14'
_cell_volume   344.17146902
_cell_formula_units_Z   1
loop_
 _symmetry_equiv_pos_site_id
 _symmetry_equiv_pos_as_xyz
  1  'x, y, z'
loop_
 _atom_site_type_symbol
 _atom_site_label
 _atom_site_symmetry_multiplicity
 _atom_site_fract_x
 _atom_site_fract_y
 _atom_site_fract_z
 _atom_site_occupancy
  Pr  Pr0  1  0.538787  0.995748  0.746801  1
  Pr  Pr1  1  0.267638  0.540005  0.884910  1
  Pr  Pr2  1  0.730415  0.463765  0.119089  1
  Pr  Pr3  1  0.738563  0.477397  0.612806  1
  Pr  Pr4  1  0.259734  0.518783  0.381057  1
  Ho  Ho5  1  0.461626  0.005053  0.253260  1
  Bi  Bi6  1  0.000426  0.000363  0.497511  1
  Bi  Bi7  1  0.999779  0.999975  0.003149  1
  O  O8  1  0.445421  0.658381  0.171503  1
  O  O9  1  0.557957  0.357487  0.834823  1
  O  O10  1  0.300181  0.932292  0.962827  1
  O  O11  1  0.701544  0.066769  0.053606  1
  O  O12  1  0.296193  0.930698  0.504450  1
  O  O13  1  0.704968  0.067832  0.478175  1
  O  O14  1  0.541492  0.350655  0.340921  1
  O  O15  1  0.449209  0.635466  0.652394  1
  O  O16  1  0.926181  0.673164  0.953949  1
  O  O17  1  0.073126  0.327022  0.046279  1
  O  O18  1  0.069014  0.336359  0.615375  1
  O  O19  1  0.925813  0.661750  0.386937  1
  O  O20  1  0.890107  0.916637  0.728467  1
  O  O21  1  0.121827  0.084398  0.271710  1
