# generated using pymatgen
data_Y3Er2(In2Ni)2
_symmetry_space_group_name_H-M   'P 1'
_cell_length_a   3.58172800
_cell_length_b   8.04377900
_cell_length_c   17.91761600
_cell_angle_alpha   90.00000000
_cell_angle_beta   90.00000000
_cell_angle_gamma   90.00000000
_symmetry_Int_Tables_number   1
_chemical_formula_structural   Y3Er2(In2Ni)2
_chemical_formula_sum   'Y6 Er4 In8 Ni4'
_cell_volume   516.21777765
_cell_formula_units_Z   2
loop_
 _symmetry_equiv_pos_site_id
 _symmetry_equiv_pos_as_xyz
  1  'x, y, z'
loop_
 _atom_site_type_symbol
 _atom_site_label
 _atom_site_symmetry_multiplicity
 _atom_site_fract_x
 _atom_site_fract_y
 _atom_site_fract_z
 _atom_site_occupancy
  Y  Y0  1  0.000000  0.500000  0.500000  1
  Y  Y1  1  0.000000  0.000000  0.000000  1
  Y  Y2  1  0.000000  0.747443  0.281023  1
  Y  Y3  1  0.000000  0.252557  0.718977  1
  Y  Y4  1  0.000000  0.752557  0.781023  1
  Y  Y5  1  0.000000  0.247443  0.218977  1
  Er  Er6  1  0.000000  0.619106  0.089137  1
  Er  Er7  1  0.000000  0.380894  0.910863  1
  Er  Er8  1  0.000000  0.880894  0.589137  1
  Er  Er9  1  0.000000  0.119106  0.410863  1
  In  In10  1  0.500000  0.699957  0.933923  1
  In  In11  1  0.500000  0.300043  0.066077  1
  In  In12  1  0.500000  0.800043  0.433923  1
  In  In13  1  0.500000  0.199957  0.566077  1
  In  In14  1  0.500000  0.573394  0.652868  1
  In  In15  1  0.500000  0.426606  0.347132  1
  In  In16  1  0.500000  0.926606  0.152868  1
  In  In17  1  0.500000  0.073394  0.847132  1
  Ni  Ni18  1  0.500000  0.528781  0.195733  1
  Ni  Ni19  1  0.500000  0.471219  0.804267  1
  Ni  Ni20  1  0.500000  0.971219  0.695733  1
  Ni  Ni21  1  0.500000  0.028781  0.304267  1
