# generated using pymatgen
data_ErSc19(GaBi3)3
_symmetry_space_group_name_H-M   'P 1'
_cell_length_a   7.67481504
_cell_length_b   8.91735000
_cell_length_c   11.27815345
_cell_angle_alpha   90.00000000
_cell_angle_beta   90.27187214
_cell_angle_gamma   90.00000000
_symmetry_Int_Tables_number   1
_chemical_formula_structural   ErSc19(GaBi3)3
_chemical_formula_sum   'Er1 Sc19 Ga3 Bi9'
_cell_volume   771.85698830
_cell_formula_units_Z   1
loop_
 _symmetry_equiv_pos_site_id
 _symmetry_equiv_pos_as_xyz
  1  'x, y, z'
loop_
 _atom_site_type_symbol
 _atom_site_label
 _atom_site_symmetry_multiplicity
 _atom_site_fract_x
 _atom_site_fract_y
 _atom_site_fract_z
 _atom_site_occupancy
  Er  Er0  1  0.180627  0.750000  0.714935  1
  Sc  Sc1  1  0.344195  0.750000  0.205808  1
  Sc  Sc2  1  0.850780  0.750000  0.290342  1
  Sc  Sc3  1  0.654168  0.250000  0.794903  1
  Sc  Sc4  1  0.157893  0.250000  0.719058  1
  Sc  Sc5  1  0.682932  0.559517  0.055111  1
  Sc  Sc6  1  0.187520  0.926802  0.441762  1
  Sc  Sc7  1  0.316676  0.059922  0.947498  1
  Sc  Sc8  1  0.808516  0.449516  0.559624  1
  Sc  Sc9  1  0.316676  0.440078  0.947498  1
  Sc  Sc10  1  0.808516  0.050484  0.559624  1
  Sc  Sc11  1  0.682932  0.940483  0.055111  1
  Sc  Sc12  1  0.187520  0.573198  0.441762  1
  Sc  Sc13  1  0.482061  0.250000  0.488499  1
  Sc  Sc14  1  0.966537  0.250000  0.010956  1
  Sc  Sc15  1  0.535611  0.750000  0.510936  1
  Sc  Sc16  1  0.032083  0.750000  0.990783  1
  Sc  Sc17  1  0.322889  0.250000  0.210283  1
  Sc  Sc18  1  0.803257  0.250000  0.274976  1
  Sc  Sc19  1  0.680892  0.750000  0.785993  1
  Ga  Ga20  1  0.407952  0.750000  0.961043  1
  Ga  Ga21  1  0.903704  0.750000  0.535483  1
  Ga  Ga22  1  0.594905  0.250000  0.039339  1
  Bi  Bi23  1  0.091057  0.250000  0.457772  1
  Bi  Bi24  1  0.558399  0.995277  0.321947  1
  Bi  Bi25  1  0.058123  0.502036  0.175885  1
  Bi  Bi26  1  0.445053  0.493930  0.677908  1
  Bi  Bi27  1  0.938477  0.004685  0.824712  1
  Bi  Bi28  1  0.445053  0.006070  0.677908  1
  Bi  Bi29  1  0.938477  0.495315  0.824712  1
  Bi  Bi30  1  0.558399  0.504723  0.321947  1
  Bi  Bi31  1  0.058123  0.997964  0.175885  1
