# generated using pymatgen
data_Ho16Ag3Rh4Pb
_symmetry_space_group_name_H-M   'P 1'
_cell_length_a   9.54931579
_cell_length_b   9.50613012
_cell_length_c   9.54931700
_cell_angle_alpha   59.84960627
_cell_angle_beta   59.99999927
_cell_angle_gamma   59.84960652
_symmetry_Int_Tables_number   1
_chemical_formula_structural   Ho16Ag3Rh4Pb
_chemical_formula_sum   'Ho16 Ag3 Rh4 Pb1'
_cell_volume   611.56459233
_cell_formula_units_Z   1
loop_
 _symmetry_equiv_pos_site_id
 _symmetry_equiv_pos_as_xyz
  1  'x, y, z'
loop_
 _atom_site_type_symbol
 _atom_site_label
 _atom_site_symmetry_multiplicity
 _atom_site_fract_x
 _atom_site_fract_y
 _atom_site_fract_z
 _atom_site_occupancy
  Ho  Ho0  1  0.192574  0.178364  0.814532  1
  Ho  Ho1  1  0.601402  0.601945  0.195251  1
  Ho  Ho2  1  0.436920  0.063430  0.436920  1
  Ho  Ho3  1  0.438370  0.439532  0.061049  1
  Ho  Ho4  1  0.814532  0.178364  0.814532  1
  Ho  Ho5  1  0.186626  0.812163  0.186626  1
  Ho  Ho6  1  0.436920  0.063430  0.062731  1
  Ho  Ho7  1  0.186626  0.812163  0.814585  1
  Ho  Ho8  1  0.061049  0.439532  0.061049  1
  Ho  Ho9  1  0.814585  0.812163  0.186626  1
  Ho  Ho10  1  0.195251  0.601945  0.601402  1
  Ho  Ho11  1  0.061049  0.439532  0.438370  1
  Ho  Ho12  1  0.062731  0.063430  0.436920  1
  Ho  Ho13  1  0.814532  0.178364  0.192574  1
  Ho  Ho14  1  0.602235  0.193295  0.602235  1
  Ho  Ho15  1  0.601402  0.601945  0.601402  1
  Ag  Ag16  1  0.832170  0.837255  0.832170  1
  Ag  Ag17  1  0.832170  0.837255  0.498406  1
  Ag  Ag18  1  0.498406  0.837255  0.832170  1
  Rh  Rh19  1  0.393346  0.819963  0.393346  1
  Rh  Rh20  1  0.393028  0.393538  0.393028  1
  Rh  Rh21  1  0.820404  0.393538  0.393028  1
  Rh  Rh22  1  0.393028  0.393538  0.820404  1
  Pb  Pb23  1  0.830645  0.508065  0.830645  1
