# generated using pymatgen
data_Cr21CoWC6
_symmetry_space_group_name_H-M   'P 1'
_cell_length_a   7.49411838
_cell_length_b   7.49411755
_cell_length_c   7.49411800
_cell_angle_alpha   59.99999800
_cell_angle_beta   60.00000166
_cell_angle_gamma   59.99999490
_symmetry_Int_Tables_number   1
_chemical_formula_structural   Cr21CoWC6
_chemical_formula_sum   'Cr21 Co1 W1 C6'
_cell_volume   297.60934291
_cell_formula_units_Z   1
loop_
 _symmetry_equiv_pos_site_id
 _symmetry_equiv_pos_as_xyz
  1  'x, y, z'
loop_
 _atom_site_type_symbol
 _atom_site_label
 _atom_site_symmetry_multiplicity
 _atom_site_fract_x
 _atom_site_fract_y
 _atom_site_fract_z
 _atom_site_occupancy
  Cr  Cr0  1  0.250000  0.250000  0.250000  1
  Cr  Cr1  1  0.613959  0.613959  0.158125  1
  Cr  Cr2  1  0.613959  0.158125  0.613959  1
  Cr  Cr3  1  0.158125  0.613959  0.613959  1
  Cr  Cr4  1  0.613959  0.613959  0.613959  1
  Cr  Cr5  1  0.378942  0.378942  0.863174  1
  Cr  Cr6  1  0.378942  0.863174  0.378942  1
  Cr  Cr7  1  0.863174  0.378942  0.378942  1
  Cr  Cr8  1  0.378942  0.378942  0.378942  1
  Cr  Cr9  1  0.000196  0.000196  0.332070  1
  Cr  Cr10  1  0.667538  0.000196  0.332070  1
  Cr  Cr11  1  0.000196  0.667538  0.332070  1
  Cr  Cr12  1  0.667538  0.332070  0.000196  1
  Cr  Cr13  1  0.000196  0.332070  0.000196  1
  Cr  Cr14  1  0.000196  0.332070  0.667538  1
  Cr  Cr15  1  0.332070  0.667538  0.000196  1
  Cr  Cr16  1  0.332070  0.000196  0.667538  1
  Cr  Cr17  1  0.332070  0.000196  0.000196  1
  Cr  Cr18  1  0.000196  0.000196  0.667538  1
  Cr  Cr19  1  0.000196  0.667538  0.000196  1
  Cr  Cr20  1  0.667538  0.000196  0.000196  1
  Co  Co21  1  0.000000  0.000000  0.000000  1
  W  W22  1  0.750000  0.750000  0.750000  1
  C  C23  1  0.722631  0.722631  0.277369  1
  C  C24  1  0.277369  0.722631  0.277369  1
  C  C25  1  0.722631  0.277369  0.277369  1
  C  C26  1  0.277369  0.277369  0.722631  1
  C  C27  1  0.722631  0.277369  0.722631  1
  C  C28  1  0.277369  0.722631  0.722631  1
