# generated using pymatgen
data_Nd2Al2PdRh
_symmetry_space_group_name_H-M   'P 1'
_cell_length_a   4.46289100
_cell_length_b   7.05721655
_cell_length_c   8.00763425
_cell_angle_alpha   89.85657708
_cell_angle_beta   90.00000000
_cell_angle_gamma   90.00000000
_symmetry_Int_Tables_number   1
_chemical_formula_structural   Nd2Al2PdRh
_chemical_formula_sum   'Nd4 Al4 Pd2 Rh2'
_cell_volume   252.20436073
_cell_formula_units_Z   2
loop_
 _symmetry_equiv_pos_site_id
 _symmetry_equiv_pos_as_xyz
  1  'x, y, z'
loop_
 _atom_site_type_symbol
 _atom_site_label
 _atom_site_symmetry_multiplicity
 _atom_site_fract_x
 _atom_site_fract_y
 _atom_site_fract_z
 _atom_site_occupancy
  Nd  Nd0  1  0.250000  0.539141  0.182442  1
  Nd  Nd1  1  0.750000  0.460859  0.817558  1
  Nd  Nd2  1  0.750000  0.965156  0.676439  1
  Nd  Nd3  1  0.250000  0.034844  0.323561  1
  Al  Al4  1  0.250000  0.633139  0.560905  1
  Al  Al5  1  0.750000  0.366861  0.439095  1
  Al  Al6  1  0.750000  0.859379  0.064761  1
  Al  Al7  1  0.250000  0.140621  0.935239  1
  Pd  Pd8  1  0.250000  0.776308  0.881669  1
  Pd  Pd9  1  0.750000  0.223692  0.118331  1
  Rh  Rh10  1  0.750000  0.729812  0.383900  1
  Rh  Rh11  1  0.250000  0.270188  0.616100  1
