# generated using pymatgen
data_Sm2Ni7(P2Ru)3
_symmetry_space_group_name_H-M   'P 1'
_cell_length_a   3.76703900
_cell_length_b   10.63055600
_cell_length_c   12.00963900
_cell_angle_alpha   90.00000000
_cell_angle_beta   90.00000000
_cell_angle_gamma   90.00000000
_symmetry_Int_Tables_number   1
_chemical_formula_structural   Sm2Ni7(P2Ru)3
_chemical_formula_sum   'Sm4 Ni14 P12 Ru6'
_cell_volume   480.93462921
_cell_formula_units_Z   2
loop_
 _symmetry_equiv_pos_site_id
 _symmetry_equiv_pos_as_xyz
  1  'x, y, z'
loop_
 _atom_site_type_symbol
 _atom_site_label
 _atom_site_symmetry_multiplicity
 _atom_site_fract_x
 _atom_site_fract_y
 _atom_site_fract_z
 _atom_site_occupancy
  Sm  Sm0  1  0.250000  0.590064  0.705733  1
  Sm  Sm1  1  0.250000  0.909936  0.205733  1
  Sm  Sm2  1  0.750000  0.412343  0.291624  1
  Sm  Sm3  1  0.750000  0.087657  0.791624  1
  Ni  Ni4  1  0.750000  0.595311  0.510278  1
  Ni  Ni5  1  0.750000  0.904689  0.010278  1
  Ni  Ni6  1  0.250000  0.223565  0.182246  1
  Ni  Ni7  1  0.250000  0.276435  0.682246  1
  Ni  Ni8  1  0.750000  0.779843  0.820037  1
  Ni  Ni9  1  0.750000  0.720157  0.320037  1
  Ni  Ni10  1  0.250000  0.885865  0.700920  1
  Ni  Ni11  1  0.250000  0.614135  0.200920  1
  Ni  Ni12  1  0.750000  0.111213  0.298423  1
  Ni  Ni13  1  0.750000  0.388787  0.798423  1
  Ni  Ni14  1  0.250000  0.466637  0.930065  1
  Ni  Ni15  1  0.250000  0.033363  0.430065  1
  Ni  Ni16  1  0.750000  0.535372  0.067608  1
  Ni  Ni17  1  0.750000  0.964628  0.567608  1
  P  P18  1  0.250000  0.417409  0.109546  1
  P  P19  1  0.250000  0.082591  0.609546  1
  P  P20  1  0.750000  0.584654  0.889288  1
  P  P21  1  0.750000  0.915346  0.389288  1
  P  P22  1  0.250000  0.272216  0.873374  1
  P  P23  1  0.250000  0.227784  0.373374  1
  P  P24  1  0.750000  0.727982  0.127265  1
  P  P25  1  0.750000  0.772018  0.627265  1
  P  P26  1  0.250000  0.600119  0.388839  1
  P  P27  1  0.250000  0.899881  0.888839  1
  P  P28  1  0.750000  0.400436  0.611828  1
  P  P29  1  0.750000  0.099564  0.111828  1
  Ru  Ru30  1  0.250000  0.712959  0.987353  1
  Ru  Ru31  1  0.250000  0.787041  0.487353  1
  Ru  Ru32  1  0.750000  0.290232  0.013778  1
  Ru  Ru33  1  0.750000  0.209768  0.513778  1
  Ru  Ru34  1  0.250000  0.410457  0.491796  1
  Ru  Ru35  1  0.250000  0.089543  0.991796  1
