# generated using pymatgen
data_Pr9Nd6Er5Sn16
_symmetry_space_group_name_H-M   'P 1'
_cell_length_a   8.21708315
_cell_length_b   8.38304446
_cell_length_c   15.91703097
_cell_angle_alpha   90.06184782
_cell_angle_beta   89.67972472
_cell_angle_gamma   90.11669625
_symmetry_Int_Tables_number   1
_chemical_formula_structural   Pr9Nd6Er5Sn16
_chemical_formula_sum   'Pr9 Nd6 Er5 Sn16'
_cell_volume   1096.41149132
_cell_formula_units_Z   1
loop_
 _symmetry_equiv_pos_site_id
 _symmetry_equiv_pos_as_xyz
  1  'x, y, z'
loop_
 _atom_site_type_symbol
 _atom_site_label
 _atom_site_symmetry_multiplicity
 _atom_site_fract_x
 _atom_site_fract_y
 _atom_site_fract_z
 _atom_site_occupancy
  Pr  Pr0  1  0.863959  0.662194  0.879533  1
  Pr  Pr1  1  0.516011  0.319101  0.902143  1
  Pr  Pr2  1  0.018746  0.180403  0.599598  1
  Pr  Pr3  1  0.482660  0.681098  0.402156  1
  Pr  Pr4  1  0.984444  0.818155  0.097342  1
  Pr  Pr5  1  0.485172  0.681568  0.095303  1
  Pr  Pr6  1  0.982627  0.818479  0.401115  1
  Pr  Pr7  1  0.517941  0.318933  0.600332  1
  Pr  Pr8  1  0.014453  0.179825  0.902470  1
  Nd  Nd9  1  0.863172  0.661347  0.622753  1
  Nd  Nd10  1  0.636005  0.160680  0.378957  1
  Nd  Nd11  1  0.140436  0.337015  0.118533  1
  Nd  Nd12  1  0.637885  0.163325  0.122077  1
  Nd  Nd13  1  0.135957  0.337965  0.379070  1
  Nd  Nd14  1  0.363780  0.838740  0.621917  1
  Er  Er15  1  0.359159  0.839047  0.874738  1
  Er  Er16  1  0.195721  0.503136  0.751198  1
  Er  Er17  1  0.693124  0.997560  0.750699  1
  Er  Er18  1  0.805898  0.497750  0.250010  1
  Er  Er19  1  0.304420  0.001948  0.249141  1
  Sn  Sn20  1  0.300109  0.031992  0.039386  1
  Sn  Sn21  1  0.794895  0.465104  0.456076  1
  Sn  Sn22  1  0.706617  0.965104  0.545292  1
  Sn  Sn23  1  0.209307  0.542508  0.954521  1
  Sn  Sn24  1  0.690190  0.962031  0.955236  1
  Sn  Sn25  1  0.205344  0.534251  0.545789  1
  Sn  Sn26  1  0.293598  0.034024  0.454987  1
  Sn  Sn27  1  0.797907  0.463944  0.044893  1
  Sn  Sn28  1  0.556420  0.621278  0.752027  1
  Sn  Sn29  1  0.060475  0.883946  0.752034  1
  Sn  Sn30  1  0.440393  0.383639  0.250098  1
  Sn  Sn31  1  0.941473  0.118127  0.248828  1
  Sn  Sn32  1  0.322461  0.145838  0.752321  1
  Sn  Sn33  1  0.822093  0.351751  0.751391  1
  Sn  Sn34  1  0.678393  0.852025  0.249247  1
  Sn  Sn35  1  0.178751  0.646171  0.248790  1
