# generated using pymatgen
data_Li28Mg2Si7As
_symmetry_space_group_name_H-M   'P 1'
_cell_length_a   9.19088805
_cell_length_b   9.18410484
_cell_length_c   9.18934344
_cell_angle_alpha   109.48237269
_cell_angle_beta   109.56846731
_cell_angle_gamma   109.42563780
_symmetry_Int_Tables_number   1
_chemical_formula_structural   Li28Mg2Si7As
_chemical_formula_sum   'Li28 Mg2 Si7 As1'
_cell_volume   596.64945990
_cell_formula_units_Z   1
loop_
 _symmetry_equiv_pos_site_id
 _symmetry_equiv_pos_as_xyz
  1  'x, y, z'
loop_
 _atom_site_type_symbol
 _atom_site_label
 _atom_site_symmetry_multiplicity
 _atom_site_fract_x
 _atom_site_fract_y
 _atom_site_fract_z
 _atom_site_occupancy
  Li  Li0  1  0.064668  0.540096  0.280113  1
  Li  Li1  1  0.262226  0.789433  0.722002  1
  Li  Li2  1  0.183339  0.960673  0.973578  1
  Li  Li3  1  0.983680  0.204823  0.023471  1
  Li  Li4  1  0.038151  0.013036  0.221801  1
  Li  Li5  1  0.792287  0.817062  0.779493  1
  Li  Li6  1  0.460958  0.740511  0.530159  1
  Li  Li7  1  0.209597  0.935965  0.476160  1
  Li  Li8  1  0.718224  0.345415  0.061140  1
  Li  Li9  1  0.960025  0.401329  0.869012  1
  Li  Li10  1  0.285651  0.658812  0.938759  1
  Li  Li11  1  0.532884  0.092822  0.128055  1
  Li  Li12  1  0.692658  0.859969  0.088558  1
  Li  Li13  1  0.483788  0.894552  0.334129  1
  Li  Li14  1  0.559891  0.151107  0.669173  1
  Li  Li15  1  0.770111  0.600641  0.909726  1
  Li  Li16  1  0.851092  0.518340  0.411160  1
  Li  Li17  1  0.401043  0.309424  0.166882  1
  Li  Li18  1  0.139187  0.228491  0.826610  1
  Li  Li19  1  0.107949  0.440519  0.589279  1
  Li  Li20  1  0.908569  0.037143  0.439391  1
  Li  Li21  1  0.340345  0.280352  0.626897  1
  Li  Li22  1  0.598301  0.465981  0.564191  1
  Li  Li23  1  0.657305  0.716029  0.374267  1
  Li  Li24  1  0.000826  0.874569  0.626074  1
  Li  Li25  1  0.247358  0.371694  0.377297  1
  Li  Li26  1  0.121226  0.752727  0.123431  1
  Li  Li27  1  0.624623  0.000479  0.875318  1
  Mg  Mg28  1  0.504651  0.496851  0.993997  1
  Mg  Mg29  1  0.751020  0.250439  0.499243  1
  Si  Si30  1  0.372438  0.128023  0.835160  1
  Si  Si31  1  0.957745  0.622645  0.747410  1
  Si  Si32  1  0.878549  0.212005  0.253786  1
  Si  Si33  1  0.376268  0.122712  0.332849  1
  Si  Si34  1  0.787626  0.041646  0.664592  1
  Si  Si35  1  0.460313  0.626496  0.754199  1
  Si  Si36  1  0.872117  0.706806  0.245729  1
  As  As37  1  0.293315  0.540382  0.166909  1
