# generated using pymatgen
data_LiTb5(Ni7B2)2
_symmetry_space_group_name_H-M   'P 1'
_cell_length_a   5.03281100
_cell_length_b   5.03534720
_cell_length_c   14.29710800
_cell_angle_alpha   89.99687085
_cell_angle_beta   89.99892986
_cell_angle_gamma   120.00235710
_symmetry_Int_Tables_number   1
_chemical_formula_structural   LiTb5(Ni7B2)2
_chemical_formula_sum   'Li1 Tb5 Ni14 B4'
_cell_volume   313.76793211
_cell_formula_units_Z   1
loop_
 _symmetry_equiv_pos_site_id
 _symmetry_equiv_pos_as_xyz
  1  'x, y, z'
loop_
 _atom_site_type_symbol
 _atom_site_label
 _atom_site_symmetry_multiplicity
 _atom_site_fract_x
 _atom_site_fract_y
 _atom_site_fract_z
 _atom_site_occupancy
  Li  Li0  1  0.666621  0.333266  0.029141  1
  Tb  Tb1  1  0.333310  0.666670  0.977720  1
  Tb  Tb2  1  0.333370  0.666666  0.533645  1
  Tb  Tb3  1  0.666629  0.333264  0.463321  1
  Tb  Tb4  1  0.666667  0.333312  0.237301  1
  Tb  Tb5  1  0.333326  0.666650  0.754473  1
  Ni  Ni6  1  0.834384  0.668825  0.650219  1
  Ni  Ni7  1  0.834388  0.165533  0.650208  1
  Ni  Ni8  1  0.331104  0.165526  0.650203  1
  Ni  Ni9  1  0.165770  0.331247  0.349209  1
  Ni  Ni10  1  0.165894  0.834556  0.349220  1
  Ni  Ni11  1  0.668679  0.834452  0.349235  1
  Ni  Ni12  1  0.164477  0.329042  0.147473  1
  Ni  Ni13  1  0.164448  0.835475  0.147411  1
  Ni  Ni14  1  0.670966  0.835498  0.147392  1
  Ni  Ni15  1  0.834320  0.668644  0.853563  1
  Ni  Ni16  1  0.834295  0.165670  0.853570  1
  Ni  Ni17  1  0.331330  0.165655  0.853581  1
  Ni  Ni18  1  0.999855  0.999787  0.500016  1
  Ni  Ni19  1  0.000257  0.000336  0.000682  1
  B  B20  1  0.666670  0.333320  0.751955  1
  B  B21  1  0.333285  0.666595  0.248034  1
  B  B22  1  0.000005  0.000014  0.753269  1
  B  B23  1  0.999949  0.999997  0.249157  1
