# generated using pymatgen
data_Tb4Nd(RhO6)2
_symmetry_space_group_name_H-M   'P 1'
_cell_length_a   6.92832372
_cell_length_b   6.92832402
_cell_length_c   7.39004847
_cell_angle_alpha   74.47652708
_cell_angle_beta   74.47652642
_cell_angle_gamma   51.05000578
_symmetry_Int_Tables_number   1
_chemical_formula_structural   Tb4Nd(RhO6)2
_chemical_formula_sum   'Tb4 Nd1 Rh2 O12'
_cell_volume   263.46316308
_cell_formula_units_Z   1
loop_
 _symmetry_equiv_pos_site_id
 _symmetry_equiv_pos_as_xyz
  1  'x, y, z'
loop_
 _atom_site_type_symbol
 _atom_site_label
 _atom_site_symmetry_multiplicity
 _atom_site_fract_x
 _atom_site_fract_y
 _atom_site_fract_z
 _atom_site_occupancy
  Tb  Tb0  1  0.303307  0.303307  0.359083  1
  Tb  Tb1  1  0.696693  0.696693  0.640917  1
  Tb  Tb2  1  0.307624  0.307624  0.831364  1
  Tb  Tb3  1  0.692376  0.692376  0.168636  1
  Nd  Nd4  1  0.000000  0.000000  0.500000  1
  Rh  Rh5  1  0.752892  0.247108  0.000000  1
  Rh  Rh6  1  0.247108  0.752892  0.000000  1
  O  O7  1  0.900332  0.429465  0.917398  1
  O  O8  1  0.429465  0.900332  0.917398  1
  O  O9  1  0.099668  0.570535  0.082602  1
  O  O10  1  0.570535  0.099668  0.082602  1
  O  O11  1  0.096780  0.589805  0.577215  1
  O  O12  1  0.589805  0.096780  0.577215  1
  O  O13  1  0.903220  0.410195  0.422785  1
  O  O14  1  0.410195  0.903220  0.422785  1
  O  O15  1  0.000659  0.000659  0.822545  1
  O  O16  1  0.999341  0.999341  0.177455  1
  O  O17  1  0.499966  0.499966  0.811807  1
  O  O18  1  0.500034  0.500034  0.188193  1
