# generated using pymatgen
data_Ho7Th7Ru5Rh
_symmetry_space_group_name_H-M   'P 1'
_cell_length_a   9.84286900
_cell_length_b   9.73400188
_cell_length_c   6.34198373
_cell_angle_alpha   90.38015135
_cell_angle_beta   90.00000000
_cell_angle_gamma   120.37066890
_symmetry_Int_Tables_number   1
_chemical_formula_structural   Ho7Th7Ru5Rh
_chemical_formula_sum   'Ho7 Th7 Ru5 Rh1'
_cell_volume   524.22986656
_cell_formula_units_Z   1
loop_
 _symmetry_equiv_pos_site_id
 _symmetry_equiv_pos_as_xyz
  1  'x, y, z'
loop_
 _atom_site_type_symbol
 _atom_site_label
 _atom_site_symmetry_multiplicity
 _atom_site_fract_x
 _atom_site_fract_y
 _atom_site_fract_z
 _atom_site_occupancy
  Ho  Ho0  1  0.873758  0.747517  0.739381  1
  Ho  Ho1  1  0.539713  0.462893  0.448102  1
  Ho  Ho2  1  0.923179  0.462893  0.448102  1
  Ho  Ho3  1  0.538957  0.077912  0.446061  1
  Ho  Ho4  1  0.464755  0.539992  0.945938  1
  Ho  Ho5  1  0.075237  0.539992  0.945938  1
  Ho  Ho6  1  0.461878  0.923759  0.945066  1
  Th  Th7  1  0.334272  0.668546  0.472645  1
  Th  Th8  1  0.666784  0.333568  0.976693  1
  Th  Th9  1  0.124600  0.872794  0.236971  1
  Th  Th10  1  0.748194  0.872794  0.236971  1
  Th  Th11  1  0.125479  0.250957  0.231268  1
  Th  Th12  1  0.866332  0.121444  0.736272  1
  Th  Th13  1  0.255113  0.121444  0.736272  1
  Ru  Ru14  1  0.819196  0.183938  0.193081  1
  Ru  Ru15  1  0.364740  0.183938  0.193081  1
  Ru  Ru16  1  0.815618  0.631238  0.196955  1
  Ru  Ru17  1  0.193515  0.818195  0.687741  1
  Ru  Ru18  1  0.624681  0.818195  0.687741  1
  Rh  Rh19  1  0.183998  0.367995  0.699260  1
