# generated using pymatgen
data_Ir3Ru2RhW2
_symmetry_space_group_name_H-M   'P 1'
_cell_length_a   5.54228085
_cell_length_b   5.53827928
_cell_length_c   4.40767100
_cell_angle_alpha   90.00000000
_cell_angle_beta   90.00000000
_cell_angle_gamma   120.33756682
_symmetry_Int_Tables_number   1
_chemical_formula_structural   Ir3Ru2RhW2
_chemical_formula_sum   'Ir3 Ru2 Rh1 W2'
_cell_volume   116.76584790
_cell_formula_units_Z   1
loop_
 _symmetry_equiv_pos_site_id
 _symmetry_equiv_pos_as_xyz
  1  'x, y, z'
loop_
 _atom_site_type_symbol
 _atom_site_label
 _atom_site_symmetry_multiplicity
 _atom_site_fract_x
 _atom_site_fract_y
 _atom_site_fract_z
 _atom_site_occupancy
  Ir  Ir0  1  0.667095  0.835330  0.250000  1
  Ir  Ir1  1  0.835141  0.667917  0.750000  1
  Ir  Ir2  1  0.331683  0.165354  0.750000  1
  Ru  Ru3  1  0.167522  0.833424  0.250000  1
  Ru  Ru4  1  0.833935  0.166552  0.750000  1
  Rh  Rh5  1  0.165413  0.332342  0.250000  1
  W  W6  1  0.332497  0.668318  0.750000  1
  W  W7  1  0.666717  0.330763  0.250000  1
