# generated using pymatgen
data_NdY2(ErRh6)3
_symmetry_space_group_name_H-M   'P 1'
_cell_length_a   5.26606600
_cell_length_b   5.26609108
_cell_length_c   17.52573500
_cell_angle_alpha   90.00004746
_cell_angle_beta   90.00054335
_cell_angle_gamma   120.00179851
_symmetry_Int_Tables_number   1
_chemical_formula_structural   NdY2(ErRh6)3
_chemical_formula_sum   'Nd1 Y2 Er3 Rh18'
_cell_volume   420.89490170
_cell_formula_units_Z   1
loop_
 _symmetry_equiv_pos_site_id
 _symmetry_equiv_pos_as_xyz
  1  'x, y, z'
loop_
 _atom_site_type_symbol
 _atom_site_label
 _atom_site_symmetry_multiplicity
 _atom_site_fract_x
 _atom_site_fract_y
 _atom_site_fract_z
 _atom_site_occupancy
  Nd  Nd0  1  0.666667  0.333339  0.249980  1
  Y  Y1  1  0.333336  0.666666  0.541797  1
  Y  Y2  1  0.333329  0.666660  0.750108  1
  Er  Er3  1  0.666673  0.333338  0.041194  1
  Er  Er4  1  0.666668  0.333336  0.458620  1
  Er  Er5  1  0.333330  0.666666  0.958023  1
  Rh  Rh6  1  0.167308  0.334610  0.124593  1
  Rh  Rh7  1  0.832657  0.665302  0.625621  1
  Rh  Rh8  1  0.665394  0.832704  0.124594  1
  Rh  Rh9  1  0.167303  0.832700  0.124596  1
  Rh  Rh10  1  0.832653  0.167349  0.625621  1
  Rh  Rh11  1  0.334689  0.167341  0.625620  1
  Rh  Rh12  1  0.832624  0.665242  0.874683  1
  Rh  Rh13  1  0.832611  0.167368  0.874683  1
  Rh  Rh14  1  0.334756  0.167375  0.874684  1
  Rh  Rh15  1  0.665554  0.832778  0.375272  1
  Rh  Rh16  1  0.167222  0.832780  0.375268  1
  Rh  Rh17  1  0.167224  0.334453  0.375270  1
  Rh  Rh18  1  0.000013  0.000005  0.249922  1
  Rh  Rh19  1  0.000000  0.000006  0.749996  1
  Rh  Rh20  1  0.333315  0.666662  0.249986  1
  Rh  Rh21  1  0.666665  0.333324  0.749987  1
  Rh  Rh22  1  0.000004  0.999997  0.999715  1
  Rh  Rh23  1  0.000004  0.999998  0.500167  1
