# generated using pymatgen
data_Dy12Co3NiSnOs
_symmetry_space_group_name_H-M   'P 1'
_cell_length_a   8.29017860
_cell_length_b   8.29017664
_cell_length_c   8.29017733
_cell_angle_alpha   111.58206014
_cell_angle_beta   110.02828858
_cell_angle_gamma   106.83894379
_symmetry_Int_Tables_number   1
_chemical_formula_structural   Dy12Co3NiSnOs
_chemical_formula_sum   'Dy12 Co3 Ni1 Sn1 Os1'
_cell_volume   437.82613799
_cell_formula_units_Z   1
loop_
 _symmetry_equiv_pos_site_id
 _symmetry_equiv_pos_as_xyz
  1  'x, y, z'
loop_
 _atom_site_type_symbol
 _atom_site_label
 _atom_site_symmetry_multiplicity
 _atom_site_fract_x
 _atom_site_fract_y
 _atom_site_fract_z
 _atom_site_occupancy
  Dy  Dy0  1  0.821446  0.714590  0.536036  1
  Dy  Dy1  1  0.181348  0.283120  0.464467  1
  Dy  Dy2  1  0.181348  0.716880  0.898226  1
  Dy  Dy3  1  0.821446  0.285410  0.106855  1
  Dy  Dy4  1  0.680357  0.373962  0.689404  1
  Dy  Dy5  1  0.315441  0.626038  0.306394  1
  Dy  Dy6  1  0.680357  0.990953  0.306394  1
  Dy  Dy7  1  0.315441  0.009047  0.689404  1
  Dy  Dy8  1  0.589812  0.781130  0.808682  1
  Dy  Dy9  1  0.409617  0.218245  0.191372  1
  Dy  Dy10  1  0.973127  0.781755  0.191372  1
  Dy  Dy11  1  0.027552  0.218870  0.808682  1
  Co  Co12  1  0.363745  0.000000  0.363745  1
  Co  Co13  1  0.114389  0.612645  0.501744  1
  Co  Co14  1  0.889099  0.387355  0.501744  1
  Ni  Ni15  1  0.634789  0.000000  0.634789  1
  Sn  Sn16  1  0.500741  0.500000  0.000741  1
  Os  Os17  1  0.999947  0.000000  0.999947  1
