# generated using pymatgen
data_Tb16In3Co4Ag
_symmetry_space_group_name_H-M   'P 1'
_cell_length_a   9.55272324
_cell_length_b   9.55272238
_cell_length_c   9.55272305
_cell_angle_alpha   60.07328711
_cell_angle_beta   60.07329273
_cell_angle_gamma   60.07328563
_symmetry_Int_Tables_number   1
_chemical_formula_structural   Tb16In3Co4Ag
_chemical_formula_sum   'Tb16 In3 Co4 Ag1'
_cell_volume   617.42931683
_cell_formula_units_Z   1
loop_
 _symmetry_equiv_pos_site_id
 _symmetry_equiv_pos_as_xyz
  1  'x, y, z'
loop_
 _atom_site_type_symbol
 _atom_site_label
 _atom_site_symmetry_multiplicity
 _atom_site_fract_x
 _atom_site_fract_y
 _atom_site_fract_z
 _atom_site_occupancy
  Tb  Tb0  1  0.097465  0.709215  0.097465  1
  Tb  Tb1  1  0.939772  0.939772  0.559558  1
  Tb  Tb2  1  0.939772  0.559558  0.939772  1
  Tb  Tb3  1  0.310665  0.686594  0.310665  1
  Tb  Tb4  1  0.936592  0.561501  0.561501  1
  Tb  Tb5  1  0.310665  0.310665  0.686594  1
  Tb  Tb6  1  0.096338  0.096338  0.096338  1
  Tb  Tb7  1  0.561501  0.561501  0.936592  1
  Tb  Tb8  1  0.097465  0.097465  0.709215  1
  Tb  Tb9  1  0.690154  0.309439  0.690154  1
  Tb  Tb10  1  0.690154  0.690154  0.309439  1
  Tb  Tb11  1  0.686594  0.310665  0.310665  1
  Tb  Tb12  1  0.309439  0.690154  0.690154  1
  Tb  Tb13  1  0.561501  0.936592  0.561501  1
  Tb  Tb14  1  0.709215  0.097465  0.097465  1
  Tb  Tb15  1  0.559558  0.939772  0.939772  1
  In  In16  1  0.006512  0.331463  0.331463  1
  In  In17  1  0.331463  0.006512  0.331463  1
  In  In18  1  0.331463  0.331463  0.006512  1
  Co  Co19  1  0.891882  0.891882  0.891882  1
  Co  Co20  1  0.890887  0.890887  0.328086  1
  Co  Co21  1  0.328086  0.890887  0.890887  1
  Co  Co22  1  0.890887  0.328086  0.890887  1
  Ag  Ag23  1  0.331967  0.331967  0.331967  1
