# generated using pymatgen
data_Er12FeCo3TcBi
_symmetry_space_group_name_H-M   'P 1'
_cell_length_a   8.25177285
_cell_length_b   8.25177174
_cell_length_c   8.25177177
_cell_angle_alpha   110.84753977
_cell_angle_beta   111.83740107
_cell_angle_gamma   105.79186444
_symmetry_Int_Tables_number   1
_chemical_formula_structural   Er12FeCo3TcBi
_chemical_formula_sum   'Er12 Fe1 Co3 Tc1 Bi1'
_cell_volume   431.17238828
_cell_formula_units_Z   1
loop_
 _symmetry_equiv_pos_site_id
 _symmetry_equiv_pos_as_xyz
  1  'x, y, z'
loop_
 _atom_site_type_symbol
 _atom_site_label
 _atom_site_symmetry_multiplicity
 _atom_site_fract_x
 _atom_site_fract_y
 _atom_site_fract_z
 _atom_site_occupancy
  Er  Er0  1  0.278706  0.183813  0.462518  1
  Er  Er1  1  0.719517  0.816887  0.536405  1
  Er  Er2  1  0.280483  0.816887  0.097369  1
  Er  Er3  1  0.721294  0.183813  0.905107  1
  Er  Er4  1  0.617179  0.307735  0.306200  1
  Er  Er5  1  0.382821  0.689021  0.690556  1
  Er  Er6  1  0.001538  0.307735  0.690556  1
  Er  Er7  1  0.998462  0.689021  0.306200  1
  Er  Er8  1  0.216662  0.414904  0.198242  1
  Er  Er9  1  0.783913  0.585257  0.801343  1
  Er  Er10  1  0.216087  0.017430  0.801343  1
  Er  Er11  1  0.783338  0.981580  0.198242  1
  Fe  Fe12  1  0.000000  0.383765  0.383765  1
  Co  Co13  1  0.000000  0.623540  0.623540  1
  Co  Co14  1  0.389500  0.888828  0.499327  1
  Co  Co15  1  0.610500  0.109827  0.499327  1
  Tc  Tc16  1  0.000000  0.000062  0.000062  1
  Bi  Bi17  1  0.500000  0.499896  0.999896  1
