# generated using pymatgen
data_NaPaSe2O7
_symmetry_space_group_name_H-M   'P 1'
_cell_length_a   7.20160058
_cell_length_b   7.20160089
_cell_length_c   7.90028200
_cell_angle_alpha   90.00000000
_cell_angle_beta   90.00000000
_cell_angle_gamma   111.58854367
_symmetry_Int_Tables_number   1
_chemical_formula_structural   NaPaSe2O7
_chemical_formula_sum   'Na2 Pa2 Se4 O14'
_cell_volume   380.99002337
_cell_formula_units_Z   2
loop_
 _symmetry_equiv_pos_site_id
 _symmetry_equiv_pos_as_xyz
  1  'x, y, z'
loop_
 _atom_site_type_symbol
 _atom_site_label
 _atom_site_symmetry_multiplicity
 _atom_site_fract_x
 _atom_site_fract_y
 _atom_site_fract_z
 _atom_site_occupancy
  Na  Na0  1  0.987259  0.987259  0.368812  1
  Na  Na1  1  0.012741  0.012741  0.868812  1
  Pa  Pa2  1  0.503200  0.503200  0.880373  1
  Pa  Pa3  1  0.496800  0.496800  0.380373  1
  Se  Se4  1  0.589456  0.979787  0.627584  1
  Se  Se5  1  0.979787  0.589456  0.627584  1
  Se  Se6  1  0.410544  0.020213  0.127584  1
  Se  Se7  1  0.020213  0.410544  0.127584  1
  O  O8  1  0.555209  0.812934  0.800897  1
  O  O9  1  0.812934  0.555209  0.800897  1
  O  O10  1  0.444791  0.187066  0.300897  1
  O  O11  1  0.187066  0.444791  0.300897  1
  O  O12  1  0.553158  0.808421  0.457278  1
  O  O13  1  0.808421  0.553158  0.457278  1
  O  O14  1  0.446842  0.191579  0.957278  1
  O  O15  1  0.191579  0.446842  0.957278  1
  O  O16  1  0.837624  0.096625  0.625374  1
  O  O17  1  0.096625  0.837624  0.625374  1
  O  O18  1  0.162376  0.903375  0.125374  1
  O  O19  1  0.903375  0.162376  0.125374  1
  O  O20  1  0.409306  0.409306  0.631487  1
  O  O21  1  0.590694  0.590694  0.131487  1
