# generated using pymatgen
data_Li3Ho2Pa2ZnRh4
_symmetry_space_group_name_H-M   'P 1'
_cell_length_a   3.77900400
_cell_length_b   7.10705618
_cell_length_c   8.53612406
_cell_angle_alpha   92.88884514
_cell_angle_beta   90.00000000
_cell_angle_gamma   90.00000000
_symmetry_Int_Tables_number   1
_chemical_formula_structural   Li3Ho2Pa2ZnRh4
_chemical_formula_sum   'Li3 Ho2 Pa2 Zn1 Rh4'
_cell_volume   228.96840609
_cell_formula_units_Z   1
loop_
 _symmetry_equiv_pos_site_id
 _symmetry_equiv_pos_as_xyz
  1  'x, y, z'
loop_
 _atom_site_type_symbol
 _atom_site_label
 _atom_site_symmetry_multiplicity
 _atom_site_fract_x
 _atom_site_fract_y
 _atom_site_fract_z
 _atom_site_occupancy
  Li  Li0  1  0.250000  0.120505  0.940579  1
  Li  Li1  1  0.750000  0.879587  0.058104  1
  Li  Li2  1  0.250000  0.621358  0.552028  1
  Ho  Ho3  1  0.250000  0.058151  0.321690  1
  Ho  Ho4  1  0.750000  0.946437  0.679988  1
  Pa  Pa5  1  0.250000  0.545398  0.192772  1
  Pa  Pa6  1  0.750000  0.453106  0.807580  1
  Zn  Zn7  1  0.750000  0.377331  0.445592  1
  Rh  Rh8  1  0.750000  0.746036  0.357166  1
  Rh  Rh9  1  0.250000  0.254506  0.641991  1
  Rh  Rh10  1  0.750000  0.287234  0.121994  1
  Rh  Rh11  1  0.250000  0.710350  0.880515  1
