# generated using pymatgen
data_Sm2YBe2(PPd5)4
_symmetry_space_group_name_H-M   'P 1'
_cell_length_a   8.69403981
_cell_length_b   8.61124884
_cell_length_c   8.61124954
_cell_angle_alpha   60.63710486
_cell_angle_beta   59.68144933
_cell_angle_gamma   59.68145419
_symmetry_Int_Tables_number   1
_chemical_formula_structural   Sm2YBe2(PPd5)4
_chemical_formula_sum   'Sm2 Y1 Be2 P4 Pd20'
_cell_volume   455.78275761
_cell_formula_units_Z   1
loop_
 _symmetry_equiv_pos_site_id
 _symmetry_equiv_pos_as_xyz
  1  'x, y, z'
loop_
 _atom_site_type_symbol
 _atom_site_label
 _atom_site_symmetry_multiplicity
 _atom_site_fract_x
 _atom_site_fract_y
 _atom_site_fract_z
 _atom_site_occupancy
  Sm  Sm0  1  0.250000  0.250000  0.250000  1
  Sm  Sm1  1  0.750000  0.750000  0.750000  1
  Y  Y2  1  0.000000  0.000000  0.000000  1
  Be  Be3  1  0.733197  0.266803  0.266803  1
  Be  Be4  1  0.266803  0.733197  0.733197  1
  P  P5  1  0.266089  0.733911  0.266089  1
  P  P6  1  0.733911  0.266089  0.733911  1
  P  P7  1  0.266089  0.266089  0.733911  1
  P  P8  1  0.733911  0.733911  0.266089  1
  Pd  Pd9  1  0.388892  0.383245  0.383245  1
  Pd  Pd10  1  0.611108  0.616755  0.616755  1
  Pd  Pd11  1  0.383245  0.388892  0.844617  1
  Pd  Pd12  1  0.383245  0.844617  0.388892  1
  Pd  Pd13  1  0.616755  0.611108  0.155383  1
  Pd  Pd14  1  0.616755  0.155383  0.611108  1
  Pd  Pd15  1  0.844617  0.383245  0.383245  1
  Pd  Pd16  1  0.155383  0.616755  0.616755  1
  Pd  Pd17  1  0.344629  0.000000  0.000000  1
  Pd  Pd18  1  0.655371  0.000000  0.000000  1
  Pd  Pd19  1  0.000000  0.344629  0.655371  1
  Pd  Pd20  1  0.000000  0.655371  0.344629  1
  Pd  Pd21  1  0.997078  0.343754  0.002922  1
  Pd  Pd22  1  0.656246  0.002922  0.343754  1
  Pd  Pd23  1  0.002922  0.656246  0.997078  1
  Pd  Pd24  1  0.343754  0.997078  0.656246  1
  Pd  Pd25  1  0.997078  0.002922  0.343754  1
  Pd  Pd26  1  0.002922  0.997078  0.656246  1
  Pd  Pd27  1  0.656246  0.343754  0.002922  1
  Pd  Pd28  1  0.343754  0.656246  0.997078  1
