# generated using pymatgen
data_Sr(CrSb3)4
_symmetry_space_group_name_H-M   'P 1'
_cell_length_a   8.27456551
_cell_length_b   8.27456469
_cell_length_c   8.27456500
_cell_angle_alpha   109.47122630
_cell_angle_beta   109.47122429
_cell_angle_gamma   109.47122245
_symmetry_Int_Tables_number   1
_chemical_formula_structural   Sr(CrSb3)4
_chemical_formula_sum   'Sr1 Cr4 Sb12'
_cell_volume   436.12760390
_cell_formula_units_Z   1
loop_
 _symmetry_equiv_pos_site_id
 _symmetry_equiv_pos_as_xyz
  1  'x, y, z'
loop_
 _atom_site_type_symbol
 _atom_site_label
 _atom_site_symmetry_multiplicity
 _atom_site_fract_x
 _atom_site_fract_y
 _atom_site_fract_z
 _atom_site_occupancy
  Sr  Sr0  1  0.000000  0.000000  0.000000  1
  Cr  Cr1  1  0.500000  0.500000  0.500000  1
  Cr  Cr2  1  0.500000  0.000000  0.000000  1
  Cr  Cr3  1  0.000000  0.500000  0.000000  1
  Cr  Cr4  1  0.000000  0.000000  0.500000  1
  Sb  Sb5  1  0.153969  0.495618  0.341649  1
  Sb  Sb6  1  0.504382  0.658351  0.846031  1
  Sb  Sb7  1  0.341649  0.846031  0.187682  1
  Sb  Sb8  1  0.812318  0.658351  0.153969  1
  Sb  Sb9  1  0.658351  0.846031  0.504382  1
  Sb  Sb10  1  0.187682  0.341649  0.846031  1
  Sb  Sb11  1  0.658351  0.153969  0.812318  1
  Sb  Sb12  1  0.341649  0.153969  0.495618  1
  Sb  Sb13  1  0.495618  0.341649  0.153969  1
  Sb  Sb14  1  0.846031  0.504382  0.658351  1
  Sb  Sb15  1  0.846031  0.187682  0.341649  1
  Sb  Sb16  1  0.153969  0.812318  0.658351  1
