# generated using pymatgen
data_LaNb6InCl18
_symmetry_space_group_name_H-M   'P 1'
_cell_length_a   10.33519423
_cell_length_b   10.33519384
_cell_length_c   10.33519500
_cell_angle_alpha   55.19969179
_cell_angle_beta   55.19969332
_cell_angle_gamma   55.19968761
_symmetry_Int_Tables_number   1
_chemical_formula_structural   LaNb6InCl18
_chemical_formula_sum   'La1 Nb6 In1 Cl18'
_cell_volume   693.50752008
_cell_formula_units_Z   1
loop_
 _symmetry_equiv_pos_site_id
 _symmetry_equiv_pos_as_xyz
  1  'x, y, z'
loop_
 _atom_site_type_symbol
 _atom_site_label
 _atom_site_symmetry_multiplicity
 _atom_site_fract_x
 _atom_site_fract_y
 _atom_site_fract_z
 _atom_site_occupancy
  La  La0  1  0.498337  0.498337  0.498337  1
  Nb  Nb1  1  0.800093  0.147389  0.915824  1
  Nb  Nb2  1  0.915824  0.800093  0.147389  1
  Nb  Nb3  1  0.147389  0.915824  0.800093  1
  Nb  Nb4  1  0.200782  0.852873  0.083421  1
  Nb  Nb5  1  0.083421  0.200782  0.852873  1
  Nb  Nb6  1  0.852873  0.083421  0.200782  1
  In  In7  1  0.221574  0.221574  0.221574  1
  Cl  Cl8  1  0.861691  0.409575  0.729580  1
  Cl  Cl9  1  0.729580  0.861691  0.409575  1
  Cl  Cl10  1  0.409575  0.729580  0.861691  1
  Cl  Cl11  1  0.138097  0.589800  0.271603  1
  Cl  Cl12  1  0.271603  0.138097  0.589800  1
  Cl  Cl13  1  0.589800  0.271603  0.138097  1
  Cl  Cl14  1  0.532187  0.336157  0.815979  1
  Cl  Cl15  1  0.815979  0.532187  0.336157  1
  Cl  Cl16  1  0.336157  0.815979  0.532187  1
  Cl  Cl17  1  0.461665  0.665218  0.188812  1
  Cl  Cl18  1  0.188812  0.461665  0.665218  1
  Cl  Cl19  1  0.665218  0.188812  0.461665  1
  Cl  Cl20  1  0.665133  0.936972  0.074006  1
  Cl  Cl21  1  0.074006  0.665133  0.936972  1
  Cl  Cl22  1  0.936972  0.074006  0.665133  1
  Cl  Cl23  1  0.335083  0.063321  0.925969  1
  Cl  Cl24  1  0.925969  0.335083  0.063321  1
  Cl  Cl25  1  0.063321  0.925969  0.335083  1
