# generated using pymatgen
data_Y4Fe3AuO14
_symmetry_space_group_name_H-M   'P 1'
_cell_length_a   7.27694675
_cell_length_b   7.27682739
_cell_length_c   7.27733752
_cell_angle_alpha   59.39807724
_cell_angle_beta   59.39961106
_cell_angle_gamma   59.39634106
_symmetry_Int_Tables_number   1
_chemical_formula_structural   Y4Fe3AuO14
_chemical_formula_sum   'Y4 Fe3 Au1 O14'
_cell_volume   268.75597297
_cell_formula_units_Z   1
loop_
 _symmetry_equiv_pos_site_id
 _symmetry_equiv_pos_as_xyz
  1  'x, y, z'
loop_
 _atom_site_type_symbol
 _atom_site_label
 _atom_site_symmetry_multiplicity
 _atom_site_fract_x
 _atom_site_fract_y
 _atom_site_fract_z
 _atom_site_occupancy
  Y  Y0  1  0.500023  0.999997  0.500004  1
  Y  Y1  1  0.000000  0.500032  0.499990  1
  Y  Y2  1  0.499988  0.499966  0.000000  1
  Y  Y3  1  0.499981  0.499976  0.500043  1
  Fe  Fe4  1  0.999975  0.500004  0.000012  1
  Fe  Fe5  1  0.500002  0.999983  0.000012  1
  Fe  Fe6  1  0.000009  0.000014  0.499992  1
  Au  Au7  1  0.999967  0.000005  0.000037  1
  O  O8  1  0.623703  0.623661  0.623704  1
  O  O9  1  0.376299  0.376334  0.376299  1
  O  O10  1  0.342607  0.909497  0.909536  1
  O  O11  1  0.082632  0.668594  0.668590  1
  O  O12  1  0.909540  0.342620  0.909592  1
  O  O13  1  0.909550  0.909603  0.342552  1
  O  O14  1  0.331442  0.331400  0.917271  1
  O  O15  1  0.331439  0.917267  0.331378  1
  O  O16  1  0.917367  0.331419  0.331396  1
  O  O17  1  0.668559  0.668603  0.082734  1
  O  O18  1  0.090469  0.090436  0.657393  1
  O  O19  1  0.657425  0.090466  0.090469  1
  O  O20  1  0.668570  0.082729  0.668613  1
  O  O21  1  0.090458  0.657394  0.090385  1
