# generated using pymatgen
data_Y10In6SBr
_symmetry_space_group_name_H-M   'P 1'
_cell_length_a   9.17221300
_cell_length_b   9.17221458
_cell_length_c   6.78055100
_cell_angle_alpha   90.00000000
_cell_angle_beta   90.00000000
_cell_angle_gamma   119.99999792
_symmetry_Int_Tables_number   1
_chemical_formula_structural   Y10In6SBr
_chemical_formula_sum   'Y10 In6 S1 Br1'
_cell_volume   494.01935620
_cell_formula_units_Z   1
loop_
 _symmetry_equiv_pos_site_id
 _symmetry_equiv_pos_as_xyz
  1  'x, y, z'
loop_
 _atom_site_type_symbol
 _atom_site_label
 _atom_site_symmetry_multiplicity
 _atom_site_fract_x
 _atom_site_fract_y
 _atom_site_fract_z
 _atom_site_occupancy
  Y  Y0  1  0.748058  0.748058  0.268301  1
  Y  Y1  1  0.251942  0.000000  0.268301  1
  Y  Y2  1  0.000000  0.251942  0.268301  1
  Y  Y3  1  0.251942  0.251942  0.731699  1
  Y  Y4  1  0.748058  0.000000  0.731699  1
  Y  Y5  1  0.000000  0.748058  0.731699  1
  Y  Y6  1  0.666667  0.333333  0.500000  1
  Y  Y7  1  0.333333  0.666667  0.500000  1
  Y  Y8  1  0.333333  0.666667  0.000000  1
  Y  Y9  1  0.666667  0.333333  0.000000  1
  In  In10  1  0.400116  0.400116  0.247515  1
  In  In11  1  0.599884  0.000000  0.247515  1
  In  In12  1  0.000000  0.599884  0.247515  1
  In  In13  1  0.599884  0.599884  0.752485  1
  In  In14  1  0.400116  0.000000  0.752485  1
  In  In15  1  0.000000  0.400116  0.752485  1
  S  S16  1  0.000000  0.000000  0.500000  1
  Br  Br17  1  0.000000  0.000000  0.000000  1
