# generated using pymatgen
data_Mg2AlPd3Pt2
_symmetry_space_group_name_H-M   'P 1'
_cell_length_a   4.13341900
_cell_length_b   5.51915700
_cell_length_c   10.80222400
_cell_angle_alpha   90.00000000
_cell_angle_beta   90.00000000
_cell_angle_gamma   90.00000000
_symmetry_Int_Tables_number   1
_chemical_formula_structural   Mg2AlPd3Pt2
_chemical_formula_sum   'Mg4 Al2 Pd6 Pt4'
_cell_volume   246.43101089
_cell_formula_units_Z   2
loop_
 _symmetry_equiv_pos_site_id
 _symmetry_equiv_pos_as_xyz
  1  'x, y, z'
loop_
 _atom_site_type_symbol
 _atom_site_label
 _atom_site_symmetry_multiplicity
 _atom_site_fract_x
 _atom_site_fract_y
 _atom_site_fract_z
 _atom_site_occupancy
  Mg  Mg0  1  0.500000  0.165888  0.359604  1
  Mg  Mg1  1  0.500000  0.834112  0.640396  1
  Mg  Mg2  1  0.500000  0.665888  0.140396  1
  Mg  Mg3  1  0.500000  0.334112  0.859604  1
  Al  Al4  1  0.000000  0.000000  0.000000  1
  Al  Al5  1  0.000000  0.500000  0.500000  1
  Pd  Pd6  1  0.000000  0.000000  0.500000  1
  Pd  Pd7  1  0.000000  0.500000  0.000000  1
  Pd  Pd8  1  0.000000  0.913592  0.238887  1
  Pd  Pd9  1  0.000000  0.086408  0.761113  1
  Pd  Pd10  1  0.000000  0.413592  0.261113  1
  Pd  Pd11  1  0.000000  0.586408  0.738887  1
  Pt  Pt12  1  0.500000  0.177988  0.105659  1
  Pt  Pt13  1  0.500000  0.822012  0.894341  1
  Pt  Pt14  1  0.500000  0.677988  0.394341  1
  Pt  Pt15  1  0.500000  0.322012  0.605659  1
