# generated using pymatgen
data_Er10Hg3Ir
_symmetry_space_group_name_H-M   'P 1'
_cell_length_a   9.55957701
_cell_length_b   9.55959650
_cell_length_c   9.55981100
_cell_angle_alpha   90.00000000
_cell_angle_beta   90.00000000
_cell_angle_gamma   119.98797855
_symmetry_Int_Tables_number   1
_chemical_formula_structural   Er10Hg3Ir
_chemical_formula_sum   'Er20 Hg6 Ir2'
_cell_volume   756.67741574
_cell_formula_units_Z   2
loop_
 _symmetry_equiv_pos_site_id
 _symmetry_equiv_pos_as_xyz
  1  'x, y, z'
loop_
 _atom_site_type_symbol
 _atom_site_label
 _atom_site_symmetry_multiplicity
 _atom_site_fract_x
 _atom_site_fract_y
 _atom_site_fract_z
 _atom_site_occupancy
  Er  Er0  1  0.000000  0.000000  0.500000  1
  Er  Er1  1  0.000000  0.000000  0.000000  1
  Er  Er2  1  0.208499  0.791498  0.440415  1
  Er  Er3  1  0.208503  0.416992  0.440440  1
  Er  Er4  1  0.583004  0.791491  0.440439  1
  Er  Er5  1  0.791501  0.208502  0.559585  1
  Er  Er6  1  0.791497  0.583008  0.559560  1
  Er  Er7  1  0.416996  0.208509  0.559561  1
  Er  Er8  1  0.791501  0.208502  0.940415  1
  Er  Er9  1  0.791497  0.583008  0.940440  1
  Er  Er10  1  0.416996  0.208509  0.940439  1
  Er  Er11  1  0.208499  0.791498  0.059585  1
  Er  Er12  1  0.208503  0.416992  0.059560  1
  Er  Er13  1  0.583004  0.791491  0.059561  1
  Er  Er14  1  0.540957  0.459043  0.250000  1
  Er  Er15  1  0.540966  0.081940  0.250000  1
  Er  Er16  1  0.918062  0.459037  0.250000  1
  Er  Er17  1  0.459043  0.540957  0.750000  1
  Er  Er18  1  0.459034  0.918060  0.750000  1
  Er  Er19  1  0.081938  0.540963  0.750000  1
  Hg  Hg20  1  0.880905  0.119091  0.250000  1
  Hg  Hg21  1  0.880934  0.761821  0.250000  1
  Hg  Hg22  1  0.238182  0.119066  0.250000  1
  Hg  Hg23  1  0.119095  0.880909  0.750000  1
  Hg  Hg24  1  0.119066  0.238179  0.750000  1
  Hg  Hg25  1  0.761818  0.880934  0.750000  1
  Ir  Ir26  1  0.333336  0.666667  0.250000  1
  Ir  Ir27  1  0.666664  0.333333  0.750000  1
