# generated using pymatgen
data_Ca6LaPrBi6
_symmetry_space_group_name_H-M   'P 1'
_cell_length_a   8.42890641
_cell_length_b   8.48309394
_cell_length_c   8.42211169
_cell_angle_alpha   109.45310556
_cell_angle_beta   109.16192585
_cell_angle_gamma   109.48030166
_symmetry_Int_Tables_number   1
_chemical_formula_structural   Ca6LaPrBi6
_chemical_formula_sum   'Ca6 La1 Pr1 Bi6'
_cell_volume   465.38891691
_cell_formula_units_Z   1
loop_
 _symmetry_equiv_pos_site_id
 _symmetry_equiv_pos_as_xyz
  1  'x, y, z'
loop_
 _atom_site_type_symbol
 _atom_site_label
 _atom_site_symmetry_multiplicity
 _atom_site_fract_x
 _atom_site_fract_y
 _atom_site_fract_z
 _atom_site_occupancy
  Ca  Ca0  1  0.501709  0.001902  0.142735  1
  Ca  Ca1  1  0.642755  0.501504  0.001490  1
  Ca  Ca2  1  0.998935  0.642469  0.500350  1
  Ca  Ca3  1  0.857873  0.856501  0.857590  1
  Ca  Ca4  1  0.000053  0.142039  0.498446  1
  Ca  Ca5  1  0.357841  0.356392  0.358381  1
  La  La6  1  0.141935  0.499522  0.000086  1
  Pr  Pr7  1  0.499953  0.999589  0.641072  1
  Bi  Bi8  1  0.624202  0.748860  0.375078  1
  Bi  Bi9  1  0.749820  0.375251  0.624408  1
  Bi  Bi10  1  0.250647  0.125645  0.874725  1
  Bi  Bi11  1  0.375071  0.626114  0.750278  1
  Bi  Bi12  1  0.125215  0.876332  0.251384  1
  Bi  Bi13  1  0.873989  0.247877  0.123976  1
