# generated using pymatgen
data_Nd6YFeBr12
_symmetry_space_group_name_H-M   'P 1'
_cell_length_a   9.47597662
_cell_length_b   9.47597649
_cell_length_c   9.47597609
_cell_angle_alpha   107.03722640
_cell_angle_beta   107.03723871
_cell_angle_gamma   107.03722977
_symmetry_Int_Tables_number   1
_chemical_formula_structural   Nd6YFeBr12
_chemical_formula_sum   'Nd6 Y1 Fe1 Br12'
_cell_volume   707.90593472
_cell_formula_units_Z   1
loop_
 _symmetry_equiv_pos_site_id
 _symmetry_equiv_pos_as_xyz
  1  'x, y, z'
loop_
 _atom_site_type_symbol
 _atom_site_label
 _atom_site_symmetry_multiplicity
 _atom_site_fract_x
 _atom_site_fract_y
 _atom_site_fract_z
 _atom_site_occupancy
  Nd  Nd0  1  0.692420  0.977187  0.901057  1
  Nd  Nd1  1  0.977187  0.901057  0.692420  1
  Nd  Nd2  1  0.098943  0.307580  0.022813  1
  Nd  Nd3  1  0.307580  0.022813  0.098943  1
  Nd  Nd4  1  0.901057  0.692420  0.977187  1
  Nd  Nd5  1  0.022813  0.098943  0.307580  1
  Y  Y6  1  0.500000  0.500000  0.500000  1
  Fe  Fe7  1  0.000000  0.000000  0.000000  1
  Br  Br8  1  0.072135  0.225549  0.682987  1
  Br  Br9  1  0.389633  0.174930  0.465292  1
  Br  Br10  1  0.610367  0.825070  0.534708  1
  Br  Br11  1  0.225549  0.682987  0.072135  1
  Br  Br12  1  0.774451  0.317013  0.927865  1
  Br  Br13  1  0.682987  0.072135  0.225549  1
  Br  Br14  1  0.534708  0.610367  0.825070  1
  Br  Br15  1  0.825070  0.534708  0.610367  1
  Br  Br16  1  0.927865  0.774451  0.317013  1
  Br  Br17  1  0.317013  0.927865  0.774451  1
  Br  Br18  1  0.465292  0.389633  0.174930  1
  Br  Br19  1  0.174930  0.465292  0.389633  1
