# generated using pymatgen
data_Ti2ZnCo5B2
_symmetry_space_group_name_H-M   'P 1'
_cell_length_a   8.49614200
_cell_length_b   8.49614200
_cell_length_c   2.95228800
_cell_angle_alpha   90.00000000
_cell_angle_beta   90.00000000
_cell_angle_gamma   90.00000000
_symmetry_Int_Tables_number   1
_chemical_formula_structural   Ti2ZnCo5B2
_chemical_formula_sum   'Ti4 Zn2 Co10 B4'
_cell_volume   213.10922318
_cell_formula_units_Z   2
loop_
 _symmetry_equiv_pos_site_id
 _symmetry_equiv_pos_as_xyz
  1  'x, y, z'
loop_
 _atom_site_type_symbol
 _atom_site_label
 _atom_site_symmetry_multiplicity
 _atom_site_fract_x
 _atom_site_fract_y
 _atom_site_fract_z
 _atom_site_occupancy
  Ti  Ti0  1  0.676275  0.176275  0.000000  1
  Ti  Ti1  1  0.323725  0.823725  0.000000  1
  Ti  Ti2  1  0.176275  0.323725  0.000000  1
  Ti  Ti3  1  0.823725  0.676275  0.000000  1
  Zn  Zn4  1  0.500000  0.500000  0.000000  1
  Zn  Zn5  1  0.000000  0.000000  0.000000  1
  Co  Co6  1  0.570444  0.720981  0.500000  1
  Co  Co7  1  0.429556  0.279019  0.500000  1
  Co  Co8  1  0.070444  0.779019  0.500000  1
  Co  Co9  1  0.929556  0.220981  0.500000  1
  Co  Co10  1  0.279019  0.570444  0.500000  1
  Co  Co11  1  0.720981  0.429556  0.500000  1
  Co  Co12  1  0.220981  0.070444  0.500000  1
  Co  Co13  1  0.779019  0.929556  0.500000  1
  Co  Co14  1  0.500000  0.000000  0.500000  1
  Co  Co15  1  0.000000  0.500000  0.500000  1
  B  B16  1  0.121710  0.621710  0.000000  1
  B  B17  1  0.878290  0.378290  0.000000  1
  B  B18  1  0.621710  0.878290  0.000000  1
  B  B19  1  0.378290  0.121710  0.000000  1
