# generated using pymatgen
data_Ho2Lu2Al13Ga5Ir6
_symmetry_space_group_name_H-M   'P 1'
_cell_length_a   7.51161402
_cell_length_b   7.51302429
_cell_length_c   9.52417900
_cell_angle_alpha   90.00000000
_cell_angle_beta   90.00000000
_cell_angle_gamma   119.60569933
_symmetry_Int_Tables_number   1
_chemical_formula_structural   Ho2Lu2Al13Ga5Ir6
_chemical_formula_sum   'Ho2 Lu2 Al13 Ga5 Ir6'
_cell_volume   467.32403238
_cell_formula_units_Z   1
loop_
 _symmetry_equiv_pos_site_id
 _symmetry_equiv_pos_as_xyz
  1  'x, y, z'
loop_
 _atom_site_type_symbol
 _atom_site_label
 _atom_site_symmetry_multiplicity
 _atom_site_fract_x
 _atom_site_fract_y
 _atom_site_fract_z
 _atom_site_occupancy
  Ho  Ho0  1  0.995032  0.669977  0.250000  1
  Ho  Ho1  1  0.670483  0.996632  0.250000  1
  Lu  Lu2  1  0.000506  0.325982  0.750000  1
  Lu  Lu3  1  0.330076  0.006606  0.750000  1
  Al  Al4  1  0.002516  0.334853  0.071642  1
  Al  Al5  1  0.999960  0.665419  0.925980  1
  Al  Al6  1  0.999960  0.665419  0.574020  1
  Al  Al7  1  0.334790  0.001877  0.428537  1
  Al  Al8  1  0.002516  0.334853  0.428358  1
  Al  Al9  1  0.664800  0.998517  0.574207  1
  Al  Al10  1  0.664800  0.998517  0.925793  1
  Al  Al11  1  0.334790  0.001877  0.071463  1
  Al  Al12  1  0.333311  0.333691  0.559050  1
  Al  Al13  1  0.665927  0.665887  0.446572  1
  Al  Al14  1  0.665927  0.665887  0.053428  1
  Al  Al15  1  0.333311  0.333691  0.940950  1
  Al  Al16  1  0.449415  0.661700  0.750000  1
  Ga  Ga17  1  0.128958  0.128987  0.250000  1
  Ga  Ga18  1  0.870595  0.869881  0.750000  1
  Ga  Ga19  1  0.338689  0.547288  0.250000  1
  Ga  Ga20  1  0.661798  0.453367  0.750000  1
  Ga  Ga21  1  0.547000  0.339129  0.250000  1
  Ir  Ir22  1  0.672693  0.327498  0.999644  1
  Ir  Ir23  1  0.328816  0.671904  0.997161  1
  Ir  Ir24  1  0.328816  0.671904  0.502839  1
  Ir  Ir25  1  0.672693  0.327498  0.500356  1
  Ir  Ir26  1  0.000911  0.000580  0.999321  1
  Ir  Ir27  1  0.000911  0.000580  0.500679  1
