# generated using pymatgen
data_YbMn(Sb4Ru)3
_symmetry_space_group_name_H-M   'P 1'
_cell_length_a   8.16722379
_cell_length_b   8.15247614
_cell_length_c   8.16722291
_cell_angle_alpha   109.43464161
_cell_angle_beta   109.50776496
_cell_angle_gamma   109.43464533
_symmetry_Int_Tables_number   1
_chemical_formula_structural   YbMn(Sb4Ru)3
_chemical_formula_sum   'Yb1 Mn1 Sb12 Ru3'
_cell_volume   418.80552278
_cell_formula_units_Z   1
loop_
 _symmetry_equiv_pos_site_id
 _symmetry_equiv_pos_as_xyz
  1  'x, y, z'
loop_
 _atom_site_type_symbol
 _atom_site_label
 _atom_site_symmetry_multiplicity
 _atom_site_fract_x
 _atom_site_fract_y
 _atom_site_fract_z
 _atom_site_occupancy
  Yb  Yb0  1  0.000000  0.000000  0.000000  1
  Mn  Mn1  1  0.000000  0.500000  0.000000  1
  Sb  Sb2  1  0.337889  0.180117  0.842218  1
  Sb  Sb3  1  0.662111  0.819883  0.157782  1
  Sb  Sb4  1  0.657021  0.503810  0.841528  1
  Sb  Sb5  1  0.342979  0.496190  0.158472  1
  Sb  Sb6  1  0.184508  0.846789  0.342979  1
  Sb  Sb7  1  0.815492  0.153211  0.657021  1
  Sb  Sb8  1  0.504329  0.842228  0.662111  1
  Sb  Sb9  1  0.495671  0.157772  0.337889  1
  Sb  Sb10  1  0.841528  0.337719  0.184508  1
  Sb  Sb11  1  0.158472  0.662281  0.815492  1
  Sb  Sb12  1  0.842218  0.662101  0.504329  1
  Sb  Sb13  1  0.157782  0.337899  0.495671  1
  Ru  Ru14  1  0.000000  0.000000  0.500000  1
  Ru  Ru15  1  0.500000  0.000000  0.000000  1
  Ru  Ru16  1  0.500000  0.500000  0.500000  1
