# generated using pymatgen
data_Hf4Al4Mo3Pd
_symmetry_space_group_name_H-M   'P 1'
_cell_length_a   5.26223319
_cell_length_b   5.26223316
_cell_length_c   8.71956400
_cell_angle_alpha   90.00000000
_cell_angle_beta   90.00000000
_cell_angle_gamma   119.22381808
_symmetry_Int_Tables_number   1
_chemical_formula_structural   Hf4Al4Mo3Pd
_chemical_formula_sum   'Hf4 Al4 Mo3 Pd1'
_cell_volume   210.72180353
_cell_formula_units_Z   1
loop_
 _symmetry_equiv_pos_site_id
 _symmetry_equiv_pos_as_xyz
  1  'x, y, z'
loop_
 _atom_site_type_symbol
 _atom_site_label
 _atom_site_symmetry_multiplicity
 _atom_site_fract_x
 _atom_site_fract_y
 _atom_site_fract_z
 _atom_site_occupancy
  Hf  Hf0  1  0.333858  0.666142  0.189758  1
  Hf  Hf1  1  0.664746  0.335254  0.317042  1
  Hf  Hf2  1  0.664746  0.335254  0.682958  1
  Hf  Hf3  1  0.333858  0.666142  0.810242  1
  Al  Al4  1  0.997294  0.002706  0.245151  1
  Al  Al5  1  0.997294  0.002706  0.754849  1
  Al  Al6  1  0.832817  0.649643  0.000000  1
  Al  Al7  1  0.350357  0.167183  0.000000  1
  Mo  Mo8  1  0.165534  0.343260  0.500000  1
  Mo  Mo9  1  0.656740  0.834466  0.500000  1
  Mo  Mo10  1  0.167085  0.832915  0.500000  1
  Pd  Pd11  1  0.835762  0.164238  0.000000  1
