# generated using pymatgen
data_K2RbPb4Au
_symmetry_space_group_name_H-M   'P 1'
_cell_length_a   7.02852100
_cell_length_b   7.08122600
_cell_length_c   12.94321700
_cell_angle_alpha   90.00000000
_cell_angle_beta   90.00000000
_cell_angle_gamma   90.00000000
_symmetry_Int_Tables_number   1
_chemical_formula_structural   K2RbPb4Au
_chemical_formula_sum   'K4 Rb2 Pb8 Au2'
_cell_volume   644.19097251
_cell_formula_units_Z   2
loop_
 _symmetry_equiv_pos_site_id
 _symmetry_equiv_pos_as_xyz
  1  'x, y, z'
loop_
 _atom_site_type_symbol
 _atom_site_label
 _atom_site_symmetry_multiplicity
 _atom_site_fract_x
 _atom_site_fract_y
 _atom_site_fract_z
 _atom_site_occupancy
  K  K0  1  0.828652  0.500000  0.749675  1
  K  K1  1  0.828652  0.500000  0.250325  1
  K  K2  1  0.171348  0.000000  0.750325  1
  K  K3  1  0.171348  0.000000  0.249675  1
  Rb  Rb4  1  0.558542  0.000000  0.000000  1
  Rb  Rb5  1  0.441458  0.500000  0.500000  1
  Pb  Pb6  1  0.332272  0.500000  0.873356  1
  Pb  Pb7  1  0.332272  0.500000  0.126644  1
  Pb  Pb8  1  0.039098  0.262421  0.000000  1
  Pb  Pb9  1  0.039098  0.737579  0.000000  1
  Pb  Pb10  1  0.960902  0.762421  0.500000  1
  Pb  Pb11  1  0.960902  0.237579  0.500000  1
  Pb  Pb12  1  0.667728  0.000000  0.373356  1
  Pb  Pb13  1  0.667728  0.000000  0.626644  1
  Au  Au14  1  0.687168  0.500000  0.000000  1
  Au  Au15  1  0.312832  0.000000  0.500000  1
