# generated using pymatgen
data_ZrSc(MnRe)2
_symmetry_space_group_name_H-M   'P 1'
_cell_length_a   5.15315380
_cell_length_b   5.09527087
_cell_length_c   8.40414243
_cell_angle_alpha   89.86935021
_cell_angle_beta   90.06459247
_cell_angle_gamma   119.62911151
_symmetry_Int_Tables_number   1
_chemical_formula_structural   ZrSc(MnRe)2
_chemical_formula_sum   'Zr2 Sc2 Mn4 Re4'
_cell_volume   191.81134150
_cell_formula_units_Z   2
loop_
 _symmetry_equiv_pos_site_id
 _symmetry_equiv_pos_as_xyz
  1  'x, y, z'
loop_
 _atom_site_type_symbol
 _atom_site_label
 _atom_site_symmetry_multiplicity
 _atom_site_fract_x
 _atom_site_fract_y
 _atom_site_fract_z
 _atom_site_occupancy
  Zr  Zr0  1  0.333178  0.667125  0.437692  1
  Zr  Zr1  1  0.666822  0.333946  0.937692  1
  Sc  Sc2  1  0.666528  0.333800  0.562948  1
  Sc  Sc3  1  0.333472  0.667273  0.062948  1
  Mn  Mn4  1  0.660221  0.830835  0.749719  1
  Mn  Mn5  1  0.339779  0.170613  0.249719  1
  Mn  Mn6  1  0.829860  0.170527  0.249546  1
  Mn  Mn7  1  0.170140  0.340669  0.749546  1
  Re  Re8  1  0.175754  0.823946  0.750008  1
  Re  Re9  1  0.824246  0.648191  0.250008  1
  Re  Re10  1  0.000034  0.006555  0.500087  1
  Re  Re11  1  0.999966  0.006521  0.000087  1
