# generated using pymatgen
data_Zn10B6Ir3Rh11
_symmetry_space_group_name_H-M   'P 1'
_cell_length_a   2.86541200
_cell_length_b   11.11904000
_cell_length_c   11.89390000
_cell_angle_alpha   90.00074115
_cell_angle_beta   90.00000000
_cell_angle_gamma   90.00000000
_symmetry_Int_Tables_number   1
_chemical_formula_structural   Zn10B6Ir3Rh11
_chemical_formula_sum   'Zn10 B6 Ir3 Rh11'
_cell_volume   378.94715481
_cell_formula_units_Z   1
loop_
 _symmetry_equiv_pos_site_id
 _symmetry_equiv_pos_as_xyz
  1  'x, y, z'
loop_
 _atom_site_type_symbol
 _atom_site_label
 _atom_site_symmetry_multiplicity
 _atom_site_fract_x
 _atom_site_fract_y
 _atom_site_fract_z
 _atom_site_occupancy
  Zn  Zn0  1  0.500000  0.750593  0.189780  1
  Zn  Zn1  1  0.500000  0.249407  0.810220  1
  Zn  Zn2  1  0.500000  0.451137  0.133632  1
  Zn  Zn3  1  0.500000  0.548863  0.866368  1
  Zn  Zn4  1  0.500000  0.048705  0.133988  1
  Zn  Zn5  1  0.500000  0.951295  0.866012  1
  Zn  Zn6  1  0.500000  0.368372  0.345841  1
  Zn  Zn7  1  0.500000  0.631628  0.654159  1
  Zn  Zn8  1  0.500000  0.130576  0.347222  1
  Zn  Zn9  1  0.500000  0.869424  0.652778  1
  B  B10  1  0.500000  0.749993  0.961981  1
  B  B11  1  0.500000  0.250007  0.038019  1
  B  B12  1  0.500000  0.882139  0.406921  1
  B  B13  1  0.500000  0.117861  0.593079  1
  B  B14  1  0.500000  0.617308  0.407134  1
  B  B15  1  0.500000  0.382692  0.592866  1
  Ir  Ir16  1  0.000000  0.500000  0.500000  1
  Ir  Ir17  1  0.000000  0.750627  0.473470  1
  Ir  Ir18  1  0.000000  0.249373  0.526530  1
  Rh  Rh19  1  0.000000  0.000000  0.500000  1
  Rh  Rh20  1  0.000000  0.750173  0.820997  1
  Rh  Rh21  1  0.000000  0.249827  0.179003  1
  Rh  Rh22  1  0.000000  0.874209  0.037559  1
  Rh  Rh23  1  0.000000  0.125791  0.962441  1
  Rh  Rh24  1  0.000000  0.626132  0.037902  1
  Rh  Rh25  1  0.000000  0.373868  0.962098  1
  Rh  Rh26  1  0.000000  0.922705  0.279816  1
  Rh  Rh27  1  0.000000  0.077295  0.720184  1
  Rh  Rh28  1  0.000000  0.578127  0.278825  1
  Rh  Rh29  1  0.000000  0.421873  0.721175  1
