# generated using pymatgen
data_Zr5BeInPb2
_symmetry_space_group_name_H-M   'P 1'
_cell_length_a   8.74417040
_cell_length_b   8.76966690
_cell_length_c   5.87934300
_cell_angle_alpha   90.00000000
_cell_angle_beta   90.00000000
_cell_angle_gamma   120.09650220
_symmetry_Int_Tables_number   1
_chemical_formula_structural   Zr5BeInPb2
_chemical_formula_sum   'Zr10 Be2 In2 Pb4'
_cell_volume   390.06591380
_cell_formula_units_Z   2
loop_
 _symmetry_equiv_pos_site_id
 _symmetry_equiv_pos_as_xyz
  1  'x, y, z'
loop_
 _atom_site_type_symbol
 _atom_site_label
 _atom_site_symmetry_multiplicity
 _atom_site_fract_x
 _atom_site_fract_y
 _atom_site_fract_z
 _atom_site_occupancy
  Zr  Zr0  1  0.664818  0.331498  0.497123  1
  Zr  Zr1  1  0.335182  0.666681  0.497123  1
  Zr  Zr2  1  0.335182  0.666681  0.002877  1
  Zr  Zr3  1  0.664818  0.331498  0.002877  1
  Zr  Zr4  1  0.746967  0.752105  0.250000  1
  Zr  Zr5  1  0.253033  0.005138  0.250000  1
  Zr  Zr6  1  0.000000  0.250277  0.250000  1
  Zr  Zr7  1  0.240468  0.237614  0.750000  1
  Zr  Zr8  1  0.759532  0.997147  0.750000  1
  Zr  Zr9  1  0.000000  0.761595  0.750000  1
  Be  Be10  1  0.000000  0.001094  0.481258  1
  Be  Be11  1  0.000000  0.001094  0.018742  1
  In  In12  1  0.386918  0.388257  0.250000  1
  In  In13  1  0.613082  0.001339  0.250000  1
  Pb  Pb14  1  0.000000  0.616264  0.250000  1
  Pb  Pb15  1  0.606826  0.604840  0.750000  1
  Pb  Pb16  1  0.393174  0.998014  0.750000  1
  Pb  Pb17  1  0.000000  0.388867  0.750000  1
