# generated using pymatgen
data_Lu12InCo2Si2Ag
_symmetry_space_group_name_H-M   'P 1'
_cell_length_a   8.24203921
_cell_length_b   8.24203932
_cell_length_c   8.24203901
_cell_angle_alpha   113.42281075
_cell_angle_beta   111.15944805
_cell_angle_gamma   103.97639729
_symmetry_Int_Tables_number   1
_chemical_formula_structural   Lu12InCo2Si2Ag
_chemical_formula_sum   'Lu12 In1 Co2 Si2 Ag1'
_cell_volume   427.88462080
_cell_formula_units_Z   1
loop_
 _symmetry_equiv_pos_site_id
 _symmetry_equiv_pos_as_xyz
  1  'x, y, z'
loop_
 _atom_site_type_symbol
 _atom_site_label
 _atom_site_symmetry_multiplicity
 _atom_site_fract_x
 _atom_site_fract_y
 _atom_site_fract_z
 _atom_site_occupancy
  Lu  Lu0  1  0.437108  0.237982  0.199127  1
  Lu  Lu1  1  0.562892  0.762018  0.800873  1
  Lu  Lu2  1  0.038854  0.237982  0.800873  1
  Lu  Lu3  1  0.961146  0.762018  0.199127  1
  Lu  Lu4  1  0.185775  0.288171  0.473945  1
  Lu  Lu5  1  0.814225  0.711829  0.526055  1
  Lu  Lu6  1  0.185775  0.711829  0.897605  1
  Lu  Lu7  1  0.814225  0.288171  0.102395  1
  Lu  Lu8  1  0.304517  0.614063  0.309545  1
  Lu  Lu9  1  0.695483  0.385937  0.690455  1
  Lu  Lu10  1  0.304517  0.994972  0.690455  1
  Lu  Lu11  1  0.695483  0.005028  0.309545  1
  In  In12  1  0.500000  0.500000  0.000000  1
  Co  Co13  1  0.109673  0.609673  0.500000  1
  Co  Co14  1  0.890327  0.390327  0.500000  1
  Si  Si15  1  0.361976  0.000000  0.361976  1
  Si  Si16  1  0.638024  0.000000  0.638024  1
  Ag  Ag17  1  0.000000  0.000000  0.000000  1
