# generated using pymatgen
data_Nd3Sm(Co2Tc)2
_symmetry_space_group_name_H-M   'P 1'
_cell_length_a   5.70719126
_cell_length_b   5.70719136
_cell_length_c   7.16782062
_cell_angle_alpha   90.04180197
_cell_angle_beta   89.95819512
_cell_angle_gamma   122.25643615
_symmetry_Int_Tables_number   1
_chemical_formula_structural   Nd3Sm(Co2Tc)2
_chemical_formula_sum   'Nd3 Sm1 Co4 Tc2'
_cell_volume   197.43842217
_cell_formula_units_Z   1
loop_
 _symmetry_equiv_pos_site_id
 _symmetry_equiv_pos_as_xyz
  1  'x, y, z'
loop_
 _atom_site_type_symbol
 _atom_site_label
 _atom_site_symmetry_multiplicity
 _atom_site_fract_x
 _atom_site_fract_y
 _atom_site_fract_z
 _atom_site_occupancy
  Nd  Nd0  1  0.334493  0.665507  0.094987  1
  Nd  Nd1  1  0.834380  0.165620  0.404270  1
  Nd  Nd2  1  0.165556  0.834444  0.596498  1
  Sm  Sm3  1  0.664792  0.335208  0.904245  1
  Co  Co4  1  0.672684  0.827882  0.750538  1
  Co  Co5  1  0.827001  0.671923  0.249182  1
  Co  Co6  1  0.328077  0.172999  0.249182  1
  Co  Co7  1  0.172118  0.327316  0.750538  1
  Tc  Tc8  1  0.500604  0.499396  0.500863  1
  Tc  Tc9  1  0.000294  0.999706  0.999698  1
