# generated using pymatgen
data_Nd16Cd4OsPd2Pt
_symmetry_space_group_name_H-M   'P 1'
_cell_length_a   10.06389470
_cell_length_b   10.04071411
_cell_length_c   10.04071459
_cell_angle_alpha   59.51682766
_cell_angle_beta   59.60295020
_cell_angle_gamma   59.60294705
_symmetry_Int_Tables_number   1
_chemical_formula_structural   Nd16Cd4OsPd2Pt
_chemical_formula_sum   'Nd16 Cd4 Os1 Pd2 Pt1'
_cell_volume   710.48653008
_cell_formula_units_Z   1
loop_
 _symmetry_equiv_pos_site_id
 _symmetry_equiv_pos_as_xyz
  1  'x, y, z'
loop_
 _atom_site_type_symbol
 _atom_site_label
 _atom_site_symmetry_multiplicity
 _atom_site_fract_x
 _atom_site_fract_y
 _atom_site_fract_z
 _atom_site_occupancy
  Nd  Nd0  1  0.352720  0.351856  0.351856  1
  Nd  Nd1  1  0.349274  0.347575  0.950546  1
  Nd  Nd2  1  0.349274  0.950546  0.347575  1
  Nd  Nd3  1  0.948696  0.348555  0.348555  1
  Nd  Nd4  1  0.815961  0.188825  0.188825  1
  Nd  Nd5  1  0.188777  0.808256  0.808256  1
  Nd  Nd6  1  0.189187  0.817290  0.188670  1
  Nd  Nd7  1  0.807303  0.188130  0.809426  1
  Nd  Nd8  1  0.189187  0.188670  0.817290  1
  Nd  Nd9  1  0.807303  0.809426  0.188130  1
  Nd  Nd10  1  0.936698  0.564824  0.564824  1
  Nd  Nd11  1  0.556811  0.938058  0.938058  1
  Nd  Nd12  1  0.564871  0.936640  0.563624  1
  Nd  Nd13  1  0.938044  0.556670  0.937574  1
  Nd  Nd14  1  0.564871  0.563624  0.936640  1
  Nd  Nd15  1  0.938044  0.937574  0.556670  1
  Cd  Cd16  1  0.580005  0.579896  0.579896  1
  Cd  Cd17  1  0.580478  0.580494  0.257254  1
  Cd  Cd18  1  0.580478  0.257254  0.580494  1
  Cd  Cd19  1  0.257387  0.580351  0.580351  1
  Os  Os20  1  0.143595  0.143439  0.143439  1
  Pd  Pd21  1  0.144683  0.145278  0.571456  1
  Pd  Pd22  1  0.144683  0.571456  0.145278  1
  Pt  Pt23  1  0.571674  0.145313  0.145313  1
