# generated using pymatgen
data_Er2Sc2CrB12Ir
_symmetry_space_group_name_H-M   'P 1'
_cell_length_a   3.49810700
_cell_length_b   8.96103689
_cell_length_c   11.34233169
_cell_angle_alpha   89.94391471
_cell_angle_beta   90.00000000
_cell_angle_gamma   90.00000000
_symmetry_Int_Tables_number   1
_chemical_formula_structural   Er2Sc2CrB12Ir
_chemical_formula_sum   'Er4 Sc4 Cr2 B24 Ir2'
_cell_volume   355.54411145
_cell_formula_units_Z   2
loop_
 _symmetry_equiv_pos_site_id
 _symmetry_equiv_pos_as_xyz
  1  'x, y, z'
loop_
 _atom_site_type_symbol
 _atom_site_label
 _atom_site_symmetry_multiplicity
 _atom_site_fract_x
 _atom_site_fract_y
 _atom_site_fract_z
 _atom_site_occupancy
  Er  Er0  1  0.000000  0.815215  0.089075  1
  Er  Er1  1  0.000000  0.184785  0.910925  1
  Er  Er2  1  0.000000  0.324517  0.416959  1
  Er  Er3  1  0.000000  0.675483  0.583041  1
  Sc  Sc4  1  0.000000  0.448666  0.128122  1
  Sc  Sc5  1  0.000000  0.551334  0.871878  1
  Sc  Sc6  1  0.000000  0.940224  0.374611  1
  Sc  Sc7  1  0.000000  0.059776  0.625389  1
  Cr  Cr8  1  0.000000  0.640509  0.317576  1
  Cr  Cr9  1  0.000000  0.359491  0.682424  1
  B  B10  1  0.500000  0.054484  0.066061  1
  B  B11  1  0.500000  0.945516  0.933939  1
  B  B12  1  0.500000  0.553917  0.432437  1
  B  B13  1  0.500000  0.446083  0.567563  1
  B  B14  1  0.500000  0.254593  0.079913  1
  B  B15  1  0.500000  0.745407  0.920087  1
  B  B16  1  0.500000  0.751176  0.418671  1
  B  B17  1  0.500000  0.248824  0.581329  1
  B  B18  1  0.500000  0.294595  0.235701  1
  B  B19  1  0.500000  0.705405  0.764299  1
  B  B20  1  0.500000  0.793718  0.265623  1
  B  B21  1  0.500000  0.206282  0.734377  1
  B  B22  1  0.500000  0.129084  0.318402  1
  B  B23  1  0.500000  0.870916  0.681598  1
  B  B24  1  0.500000  0.629219  0.183682  1
  B  B25  1  0.500000  0.370781  0.816318  1
  B  B26  1  0.500000  0.481515  0.286343  1
  B  B27  1  0.500000  0.518485  0.713657  1
  B  B28  1  0.500000  0.979903  0.214649  1
  B  B29  1  0.500000  0.020097  0.785351  1
  B  B30  1  0.500000  0.099890  0.472668  1
  B  B31  1  0.500000  0.900110  0.527332  1
  B  B32  1  0.500000  0.599810  0.026734  1
  B  B33  1  0.500000  0.400190  0.973266  1
  Ir  Ir34  1  0.000000  0.139393  0.180341  1
  Ir  Ir35  1  0.000000  0.860607  0.819659  1
