# generated using pymatgen
data_YSe23
_symmetry_space_group_name_H-M   'P 1'
_cell_length_a   6.28450453
_cell_length_b   10.41948452
_cell_length_c   16.35552100
_cell_angle_alpha   86.11606785
_cell_angle_beta   80.21568517
_cell_angle_gamma   90.57713853
_symmetry_Int_Tables_number   1
_chemical_formula_structural   YSe23
_chemical_formula_sum   'Y1 Se23'
_cell_volume   1052.72505564
_cell_formula_units_Z   1
loop_
 _symmetry_equiv_pos_site_id
 _symmetry_equiv_pos_as_xyz
  1  'x, y, z'
loop_
 _atom_site_type_symbol
 _atom_site_label
 _atom_site_symmetry_multiplicity
 _atom_site_fract_x
 _atom_site_fract_y
 _atom_site_fract_z
 _atom_site_occupancy
  Y  Y0  1  0.648963  0.212087  0.386994  1
  Se  Se1  1  0.519009  0.948733  0.374951  1
  Se  Se2  1  0.964224  0.326559  0.141983  1
  Se  Se3  1  0.842724  0.245439  0.524670  1
  Se  Se4  1  0.332006  0.861568  0.504383  1
  Se  Se5  1  0.158463  0.273581  0.012258  1
  Se  Se6  1  0.782155  0.739520  0.033178  1
  Se  Se7  1  0.184671  0.238744  0.370975  1
  Se  Se8  1  0.662337  0.465159  0.315316  1
  Se  Se9  1  0.810233  0.124356  0.208736  1
  Se  Se10  1  0.228373  0.886181  0.122262  1
  Se  Se11  1  0.726739  0.637876  0.596390  1
  Se  Se12  1  0.289063  0.391957  0.592952  1
  Se  Se13  1  0.181721  0.882853  0.850370  1
  Se  Se14  1  0.753910  0.136912  0.887203  1
  Se  Se15  1  0.015933  0.694379  0.129175  1
  Se  Se16  1  0.560994  0.840927  0.604486  1
  Se  Se17  1  0.473616  0.188786  0.571428  1
  Se  Se18  1  0.971760  0.695776  0.900401  1
  Se  Se19  1  0.948861  0.323567  0.907415  1
  Se  Se20  1  0.387278  0.367520  0.258158  1
  Se  Se21  1  0.113418  0.000162  0.240638  1
  Se  Se22  1  0.477766  0.493147  0.682723  1
  Se  Se23  1  0.965781  0.024209  0.782951  1
