# generated using pymatgen
data_LiLa2As2(PPd5)4
_symmetry_space_group_name_H-M   'P 1'
_cell_length_a   8.70540176
_cell_length_b   8.80796308
_cell_length_c   8.80796227
_cell_angle_alpha   59.23112309
_cell_angle_beta   60.38443645
_cell_angle_gamma   60.38444065
_symmetry_Int_Tables_number   1
_chemical_formula_structural   LiLa2As2(PPd5)4
_chemical_formula_sum   'Li1 La2 As2 P4 Pd20'
_cell_volume   477.42848062
_cell_formula_units_Z   1
loop_
 _symmetry_equiv_pos_site_id
 _symmetry_equiv_pos_as_xyz
  1  'x, y, z'
loop_
 _atom_site_type_symbol
 _atom_site_label
 _atom_site_symmetry_multiplicity
 _atom_site_fract_x
 _atom_site_fract_y
 _atom_site_fract_z
 _atom_site_occupancy
  Li  Li0  1  0.000000  0.000000  0.000000  1
  La  La1  1  0.250000  0.250000  0.250000  1
  La  La2  1  0.750000  0.750000  0.750000  1
  As  As3  1  0.740621  0.259379  0.259379  1
  As  As4  1  0.259379  0.740621  0.740621  1
  P  P5  1  0.260512  0.739488  0.260512  1
  P  P6  1  0.739488  0.260512  0.739488  1
  P  P7  1  0.260512  0.260512  0.739488  1
  P  P8  1  0.739488  0.739488  0.260512  1
  Pd  Pd9  1  0.379603  0.389487  0.389487  1
  Pd  Pd10  1  0.620397  0.610513  0.610513  1
  Pd  Pd11  1  0.389487  0.379603  0.841422  1
  Pd  Pd12  1  0.389487  0.841422  0.379603  1
  Pd  Pd13  1  0.610513  0.620397  0.158578  1
  Pd  Pd14  1  0.610513  0.158578  0.620397  1
  Pd  Pd15  1  0.841422  0.389487  0.389487  1
  Pd  Pd16  1  0.158578  0.610513  0.610513  1
  Pd  Pd17  1  0.344519  0.000000  0.000000  1
  Pd  Pd18  1  0.655481  0.000000  0.000000  1
  Pd  Pd19  1  0.000000  0.344519  0.655481  1
  Pd  Pd20  1  0.000000  0.655481  0.344519  1
  Pd  Pd21  1  0.010635  0.347476  0.989365  1
  Pd  Pd22  1  0.652524  0.989365  0.347476  1
  Pd  Pd23  1  0.989365  0.652524  0.010635  1
  Pd  Pd24  1  0.347476  0.010635  0.652524  1
  Pd  Pd25  1  0.010635  0.989365  0.347476  1
  Pd  Pd26  1  0.989365  0.010635  0.652524  1
  Pd  Pd27  1  0.652524  0.347476  0.989365  1
  Pd  Pd28  1  0.347476  0.652524  0.010635  1
