# generated using pymatgen
data_La12ZnCo4Sn
_symmetry_space_group_name_H-M   'P 1'
_cell_length_a   8.73551072
_cell_length_b   8.73551210
_cell_length_c   8.73551089
_cell_angle_alpha   113.68811821
_cell_angle_beta   108.96931587
_cell_angle_gamma   105.85360261
_symmetry_Int_Tables_number   1
_chemical_formula_structural   La12ZnCo4Sn
_chemical_formula_sum   'La12 Zn1 Co4 Sn1'
_cell_volume   510.69761632
_cell_formula_units_Z   1
loop_
 _symmetry_equiv_pos_site_id
 _symmetry_equiv_pos_as_xyz
  1  'x, y, z'
loop_
 _atom_site_type_symbol
 _atom_site_label
 _atom_site_symmetry_multiplicity
 _atom_site_fract_x
 _atom_site_fract_y
 _atom_site_fract_z
 _atom_site_occupancy
  La  La0  1  0.417728  0.217611  0.200117  1
  La  La1  1  0.582272  0.782389  0.799883  1
  La  La2  1  0.017493  0.217611  0.799883  1
  La  La3  1  0.982507  0.782389  0.200117  1
  La  La4  1  0.174386  0.301800  0.476185  1
  La  La5  1  0.825614  0.698200  0.523815  1
  La  La6  1  0.174386  0.698200  0.872587  1
  La  La7  1  0.825614  0.301800  0.127413  1
  La  La8  1  0.329137  0.643404  0.314267  1
  La  La9  1  0.670863  0.356596  0.685733  1
  La  La10  1  0.329137  0.014871  0.685733  1
  La  La11  1  0.670863  0.985129  0.314267  1
  Zn  Zn12  1  0.000000  0.000000  0.000000  1
  Co  Co13  1  0.330199  0.000000  0.330199  1
  Co  Co14  1  0.669801  0.000000  0.669801  1
  Co  Co15  1  0.137494  0.637494  0.500000  1
  Co  Co16  1  0.862506  0.362506  0.500000  1
  Sn  Sn17  1  0.500000  0.500000  0.000000  1
