# generated using pymatgen
data_Tb8InAgRh2
_symmetry_space_group_name_H-M   'P 1'
_cell_length_a   9.64425379
_cell_length_b   9.64425346
_cell_length_c   9.65257100
_cell_angle_alpha   59.97147020
_cell_angle_beta   59.97147134
_cell_angle_gamma   60.13763394
_symmetry_Int_Tables_number   1
_chemical_formula_structural   Tb8InAgRh2
_chemical_formula_sum   'Tb16 In2 Ag2 Rh4'
_cell_volume   635.22437528
_cell_formula_units_Z   2
loop_
 _symmetry_equiv_pos_site_id
 _symmetry_equiv_pos_as_xyz
  1  'x, y, z'
loop_
 _atom_site_type_symbol
 _atom_site_label
 _atom_site_symmetry_multiplicity
 _atom_site_fract_x
 _atom_site_fract_y
 _atom_site_fract_z
 _atom_site_occupancy
  Tb  Tb0  1  0.808544  0.808544  0.191456  1
  Tb  Tb1  1  0.810557  0.190129  0.809388  1
  Tb  Tb2  1  0.188621  0.188621  0.811379  1
  Tb  Tb3  1  0.648663  0.052031  0.649653  1
  Tb  Tb4  1  0.063635  0.063635  0.436365  1
  Tb  Tb5  1  0.438052  0.438052  0.061948  1
  Tb  Tb6  1  0.649687  0.649687  0.650329  1
  Tb  Tb7  1  0.810557  0.190129  0.189925  1
  Tb  Tb8  1  0.190129  0.810557  0.809388  1
  Tb  Tb9  1  0.052031  0.648663  0.649653  1
  Tb  Tb10  1  0.437356  0.066175  0.060063  1
  Tb  Tb11  1  0.437356  0.066175  0.436406  1
  Tb  Tb12  1  0.066175  0.437356  0.060063  1
  Tb  Tb13  1  0.649687  0.649687  0.050298  1
  Tb  Tb14  1  0.190129  0.810557  0.189925  1
  Tb  Tb15  1  0.066175  0.437356  0.436406  1
  In  In16  1  0.417315  0.742395  0.420145  1
  In  In17  1  0.742395  0.417315  0.420145  1
  Ag  Ag18  1  0.416872  0.416872  0.417816  1
  Ag  Ag19  1  0.416872  0.416872  0.748438  1
  Rh  Rh20  1  0.857239  0.427467  0.857647  1
  Rh  Rh21  1  0.857242  0.857242  0.858852  1
  Rh  Rh22  1  0.857242  0.857242  0.426665  1
  Rh  Rh23  1  0.427467  0.857239  0.857647  1
