# generated using pymatgen
data_Nb12Cr5Si7N4
_symmetry_space_group_name_H-M   'P 1'
_cell_length_a   8.10461606
_cell_length_b   8.10461676
_cell_length_c   8.10461646
_cell_angle_alpha   60.08758640
_cell_angle_beta   60.08758021
_cell_angle_gamma   60.08758393
_symmetry_Int_Tables_number   1
_chemical_formula_structural   Nb12Cr5Si7N4
_chemical_formula_sum   'Nb12 Cr5 Si7 N4'
_cell_volume   377.17548896
_cell_formula_units_Z   1
loop_
 _symmetry_equiv_pos_site_id
 _symmetry_equiv_pos_as_xyz
  1  'x, y, z'
loop_
 _atom_site_type_symbol
 _atom_site_label
 _atom_site_symmetry_multiplicity
 _atom_site_fract_x
 _atom_site_fract_y
 _atom_site_fract_z
 _atom_site_occupancy
  Nb  Nb0  1  0.802537  0.802537  0.195542  1
  Nb  Nb1  1  0.197492  0.197492  0.802652  1
  Nb  Nb2  1  0.802537  0.195542  0.802537  1
  Nb  Nb3  1  0.197492  0.802652  0.197492  1
  Nb  Nb4  1  0.195542  0.802537  0.802537  1
  Nb  Nb5  1  0.802652  0.197492  0.197492  1
  Nb  Nb6  1  0.448894  0.448894  0.051437  1
  Nb  Nb7  1  0.055967  0.055967  0.444791  1
  Nb  Nb8  1  0.448894  0.051437  0.448894  1
  Nb  Nb9  1  0.055967  0.444791  0.055967  1
  Nb  Nb10  1  0.051437  0.448894  0.448894  1
  Nb  Nb11  1  0.444791  0.055967  0.055967  1
  Cr  Cr12  1  0.124563  0.627244  0.627244  1
  Cr  Cr13  1  0.627244  0.124563  0.627244  1
  Cr  Cr14  1  0.627244  0.627244  0.124563  1
  Cr  Cr15  1  0.624233  0.624233  0.624233  1
  Cr  Cr16  1  0.822308  0.822308  0.822308  1
  Si  Si17  1  0.755002  0.415556  0.415556  1
  Si  Si18  1  0.415556  0.755002  0.415556  1
  Si  Si19  1  0.415556  0.415556  0.755002  1
  Si  Si20  1  0.415302  0.415302  0.415302  1
  Si  Si21  1  0.499699  0.834736  0.834736  1
  Si  Si22  1  0.834736  0.499699  0.834736  1
  Si  Si23  1  0.834736  0.834736  0.499699  1
  N  N24  1  0.626434  0.124489  0.124489  1
  N  N25  1  0.124489  0.626434  0.124489  1
  N  N26  1  0.124489  0.124489  0.626434  1
  N  N27  1  0.124207  0.124207  0.124207  1
