# generated using pymatgen
data_TeI2Br3
_symmetry_space_group_name_H-M   'P 1'
_cell_length_a   8.19699400
_cell_length_b   7.75008648
_cell_length_c   10.84203432
_cell_angle_alpha   95.67778466
_cell_angle_beta   101.84759054
_cell_angle_gamma   115.04918569
_symmetry_Int_Tables_number   1
_chemical_formula_structural   TeI2Br3
_chemical_formula_sum   'Te2 I4 Br6'
_cell_volume   597.12348362
_cell_formula_units_Z   2
loop_
 _symmetry_equiv_pos_site_id
 _symmetry_equiv_pos_as_xyz
  1  'x, y, z'
loop_
 _atom_site_type_symbol
 _atom_site_label
 _atom_site_symmetry_multiplicity
 _atom_site_fract_x
 _atom_site_fract_y
 _atom_site_fract_z
 _atom_site_occupancy
  Te  Te0  1  0.146516  0.190024  0.202586  1
  Te  Te1  1  0.853484  0.809976  0.797414  1
  I  I2  1  0.947881  0.117071  0.423505  1
  I  I3  1  0.052119  0.882929  0.576495  1
  I  I4  1  0.219402  0.222872  0.953180  1
  I  I5  1  0.780598  0.777128  0.046820  1
  Br  Br6  1  0.108041  0.656635  0.789428  1
  Br  Br7  1  0.891959  0.343365  0.210572  1
  Br  Br8  1  0.658665  0.991233  0.720955  1
  Br  Br9  1  0.341335  0.008767  0.279045  1
  Br  Br10  1  0.581860  0.472593  0.689440  1
  Br  Br11  1  0.418140  0.527407  0.310560  1
