# generated using pymatgen
data_YbYNb3Co9As7
_symmetry_space_group_name_H-M   'P 1'
_cell_length_a   3.81617600
_cell_length_b   9.58539202
_cell_length_c   9.58539100
_cell_angle_alpha   119.99999993
_cell_angle_beta   90.00000000
_cell_angle_gamma   90.00000000
_symmetry_Int_Tables_number   1
_chemical_formula_structural   YbYNb3Co9As7
_chemical_formula_sum   'Yb1 Y1 Nb3 Co9 As7'
_cell_volume   303.65381379
_cell_formula_units_Z   1
loop_
 _symmetry_equiv_pos_site_id
 _symmetry_equiv_pos_as_xyz
  1  'x, y, z'
loop_
 _atom_site_type_symbol
 _atom_site_label
 _atom_site_symmetry_multiplicity
 _atom_site_fract_x
 _atom_site_fract_y
 _atom_site_fract_z
 _atom_site_occupancy
  Yb  Yb0  1  0.000000  0.666667  0.333333  1
  Y  Y1  1  0.500000  0.333333  0.666667  1
  Nb  Nb2  1  0.500000  0.775820  0.897246  1
  Nb  Nb3  1  0.500000  0.121426  0.224180  1
  Nb  Nb4  1  0.500000  0.102754  0.878574  1
  Co  Co5  1  0.000000  0.571671  0.937946  1
  Co  Co6  1  0.000000  0.366275  0.428329  1
  Co  Co7  1  0.000000  0.062054  0.633725  1
  Co  Co8  1  0.000000  0.877401  0.159296  1
  Co  Co9  1  0.000000  0.281895  0.122599  1
  Co  Co10  1  0.000000  0.840704  0.718105  1
  Co  Co11  1  0.500000  0.949893  0.386061  1
  Co  Co12  1  0.500000  0.436167  0.050107  1
  Co  Co13  1  0.500000  0.613939  0.563833  1
  As  As14  1  0.000000  0.000000  0.000000  1
  As  As15  1  0.500000  0.708758  0.127382  1
  As  As16  1  0.500000  0.418624  0.291242  1
  As  As17  1  0.500000  0.872618  0.581376  1
  As  As18  1  0.000000  0.580686  0.691067  1
  As  As19  1  0.000000  0.110382  0.419314  1
  As  As20  1  0.000000  0.308933  0.889618  1
