# generated using pymatgen
data_Dy10In8Co3Pt
_symmetry_space_group_name_H-M   'P 1'
_cell_length_a   3.59305900
_cell_length_b   8.01454920
_cell_length_c   18.03686983
_cell_angle_alpha   89.95001342
_cell_angle_beta   90.00000000
_cell_angle_gamma   90.00000000
_symmetry_Int_Tables_number   1
_chemical_formula_structural   Dy10In8Co3Pt
_chemical_formula_sum   'Dy10 In8 Co3 Pt1'
_cell_volume   519.40299968
_cell_formula_units_Z   1
loop_
 _symmetry_equiv_pos_site_id
 _symmetry_equiv_pos_as_xyz
  1  'x, y, z'
loop_
 _atom_site_type_symbol
 _atom_site_label
 _atom_site_symmetry_multiplicity
 _atom_site_fract_x
 _atom_site_fract_y
 _atom_site_fract_z
 _atom_site_occupancy
  Dy  Dy0  1  0.000000  0.113559  0.411270  1
  Dy  Dy1  1  0.000000  0.884997  0.591850  1
  Dy  Dy2  1  0.000000  0.384624  0.907576  1
  Dy  Dy3  1  0.000000  0.617586  0.084831  1
  Dy  Dy4  1  0.000000  0.234657  0.223303  1
  Dy  Dy5  1  0.000000  0.754488  0.777764  1
  Dy  Dy6  1  0.000000  0.253112  0.721588  1
  Dy  Dy7  1  0.000000  0.756937  0.280694  1
  Dy  Dy8  1  0.000000  0.999947  0.998339  1
  Dy  Dy9  1  0.000000  0.500569  0.501689  1
  In  In10  1  0.500000  0.425963  0.352523  1
  In  In11  1  0.500000  0.569552  0.652678  1
  In  In12  1  0.500000  0.070483  0.847022  1
  In  In13  1  0.500000  0.930344  0.150417  1
  In  In14  1  0.500000  0.291650  0.065187  1
  In  In15  1  0.500000  0.705044  0.928668  1
  In  In16  1  0.500000  0.204645  0.569659  1
  In  In17  1  0.500000  0.794391  0.432937  1
  Co  Co18  1  0.500000  0.020930  0.305630  1
  Co  Co19  1  0.500000  0.982013  0.695590  1
  Co  Co20  1  0.500000  0.480886  0.803725  1
  Pt  Pt21  1  0.500000  0.523623  0.197061  1
