# generated using pymatgen
data_SiRh2Se5
_symmetry_space_group_name_H-M   'P 1'
_cell_length_a   3.69314000
_cell_length_b   7.74058725
_cell_length_c   12.91003046
_cell_angle_alpha   77.30851590
_cell_angle_beta   90.00000000
_cell_angle_gamma   90.00000000
_symmetry_Int_Tables_number   1
_chemical_formula_structural   SiRh2Se5
_chemical_formula_sum   'Si2 Rh4 Se10'
_cell_volume   360.04281045
_cell_formula_units_Z   2
loop_
 _symmetry_equiv_pos_site_id
 _symmetry_equiv_pos_as_xyz
  1  'x, y, z'
loop_
 _atom_site_type_symbol
 _atom_site_label
 _atom_site_symmetry_multiplicity
 _atom_site_fract_x
 _atom_site_fract_y
 _atom_site_fract_z
 _atom_site_occupancy
  Si  Si0  1  0.500000  0.158507  0.685109  1
  Si  Si1  1  0.500000  0.841493  0.314891  1
  Rh  Rh2  1  0.000000  0.250088  0.152928  1
  Rh  Rh3  1  0.000000  0.749912  0.847072  1
  Rh  Rh4  1  0.500000  0.746002  0.152693  1
  Rh  Rh5  1  0.500000  0.253998  0.847307  1
  Se  Se6  1  0.000000  0.956770  0.102804  1
  Se  Se7  1  0.000000  0.043230  0.897196  1
  Se  Se8  1  0.000000  0.471394  0.772304  1
  Se  Se9  1  0.000000  0.528606  0.227696  1
  Se  Se10  1  0.500000  0.661608  0.974099  1
  Se  Se11  1  0.500000  0.338392  0.025901  1
  Se  Se12  1  0.500000  0.156655  0.286614  1
  Se  Se13  1  0.500000  0.843345  0.713386  1
  Se  Se14  1  0.000000  0.231506  0.569851  1
  Se  Se15  1  0.000000  0.768494  0.430149  1
