# generated using pymatgen
data_Tb3Tm5Hf9Si16Mo3
_symmetry_space_group_name_H-M   'P 1'
_cell_length_a   7.17612466
_cell_length_b   7.17467016
_cell_length_c   13.11720088
_cell_angle_alpha   90.07422621
_cell_angle_beta   90.10637020
_cell_angle_gamma   90.09059663
_symmetry_Int_Tables_number   1
_chemical_formula_structural   Tb3Tm5Hf9Si16Mo3
_chemical_formula_sum   'Tb3 Tm5 Hf9 Si16 Mo3'
_cell_volume   675.35392275
_cell_formula_units_Z   1
loop_
 _symmetry_equiv_pos_site_id
 _symmetry_equiv_pos_as_xyz
  1  'x, y, z'
loop_
 _atom_site_type_symbol
 _atom_site_label
 _atom_site_symmetry_multiplicity
 _atom_site_fract_x
 _atom_site_fract_y
 _atom_site_fract_z
 _atom_site_occupancy
  Tb  Tb0  1  0.497877  0.154149  0.532177  1
  Tb  Tb1  1  0.343276  0.995638  0.785560  1
  Tb  Tb2  1  0.655901  0.001063  0.284296  1
  Tm  Tm3  1  0.000129  0.345066  0.214914  1
  Tm  Tm4  1  0.002856  0.656025  0.714559  1
  Tm  Tm5  1  0.154129  0.500939  0.463805  1
  Tm  Tm6  1  0.499114  0.845488  0.036055  1
  Tm  Tm7  1  0.846952  0.500998  0.967835  1
  Hf  Hf8  1  0.676230  0.325008  0.750320  1
  Hf  Hf9  1  0.145833  0.993036  0.373357  1
  Hf  Hf10  1  0.855431  0.004075  0.877030  1
  Hf  Hf11  1  0.505857  0.648485  0.621619  1
  Hf  Hf12  1  0.351737  0.494927  0.878669  1
  Hf  Hf13  1  0.492936  0.353869  0.125422  1
  Hf  Hf14  1  0.646875  0.506643  0.373989  1
  Hf  Hf15  1  0.996033  0.144870  0.623280  1
  Hf  Hf16  1  0.006101  0.854061  0.126070  1
  Si  Si17  1  0.358434  0.298126  0.317271  1
  Si  Si18  1  0.640549  0.704325  0.818395  1
  Si  Si19  1  0.202785  0.859048  0.566348  1
  Si  Si20  1  0.138559  0.794173  0.934043  1
  Si  Si21  1  0.796437  0.140060  0.067993  1
  Si  Si22  1  0.863092  0.205636  0.432246  1
  Si  Si23  1  0.293191  0.363204  0.682337  1
  Si  Si24  1  0.703846  0.638957  0.181609  1
  Si  Si25  1  0.295712  0.051488  0.183642  1
  Si  Si26  1  0.705723  0.946389  0.682636  1
  Si  Si27  1  0.446980  0.794194  0.432488  1
  Si  Si28  1  0.202880  0.551171  0.067639  1
  Si  Si29  1  0.548904  0.202378  0.936581  1
  Si  Si30  1  0.799474  0.453383  0.564002  1
  Si  Si31  1  0.051282  0.297553  0.817732  1
  Si  Si32  1  0.949941  0.701947  0.315703  1
  Mo  Mo33  1  0.176067  0.175934  0.001783  1
  Mo  Mo34  1  0.825563  0.822446  0.498838  1
  Mo  Mo35  1  0.323315  0.675243  0.249759  1
