# generated using pymatgen
data_Dy6Ho2Ti5Si16Mo7
_symmetry_space_group_name_H-M   'P 1'
_cell_length_a   6.94104758
_cell_length_b   6.93249480
_cell_length_c   12.83416911
_cell_angle_alpha   89.88126941
_cell_angle_beta   90.01362437
_cell_angle_gamma   90.04773327
_symmetry_Int_Tables_number   1
_chemical_formula_structural   Dy6Ho2Ti5Si16Mo7
_chemical_formula_sum   'Dy6 Ho2 Ti5 Si16 Mo7'
_cell_volume   617.56295385
_cell_formula_units_Z   1
loop_
 _symmetry_equiv_pos_site_id
 _symmetry_equiv_pos_as_xyz
  1  'x, y, z'
loop_
 _atom_site_type_symbol
 _atom_site_label
 _atom_site_symmetry_multiplicity
 _atom_site_fract_x
 _atom_site_fract_y
 _atom_site_fract_z
 _atom_site_occupancy
  Dy  Dy0  1  0.341397  0.003889  0.467173  1
  Dy  Dy1  1  0.496831  0.841073  0.718663  1
  Dy  Dy2  1  0.502748  0.159436  0.218414  1
  Dy  Dy3  1  0.840644  0.496157  0.280999  1
  Dy  Dy4  1  0.158972  0.502465  0.782925  1
  Dy  Dy5  1  0.658991  0.996835  0.968300  1
  Ho  Ho6  1  0.002805  0.340873  0.531945  1
  Ho  Ho7  1  0.996365  0.659940  0.031271  1
  Ti  Ti8  1  0.328913  0.329349  0.999490  1
  Ti  Ti9  1  0.170368  0.828504  0.250005  1
  Ti  Ti10  1  0.827353  0.172334  0.750381  1
  Ti  Ti11  1  0.670522  0.668486  0.499312  1
  Ti  Ti12  1  0.993955  0.841894  0.625675  1
  Si  Si13  1  0.201721  0.130188  0.683917  1
  Si  Si14  1  0.370631  0.700860  0.934223  1
  Si  Si15  1  0.631024  0.300063  0.434241  1
  Si  Si16  1  0.699397  0.370347  0.065946  1
  Si  Si17  1  0.300579  0.629524  0.565197  1
  Si  Si18  1  0.799765  0.870452  0.183790  1
  Si  Si19  1  0.128182  0.200452  0.316273  1
  Si  Si20  1  0.871593  0.799814  0.815939  1
  Si  Si21  1  0.288447  0.957823  0.062875  1
  Si  Si22  1  0.542078  0.788401  0.312766  1
  Si  Si23  1  0.457298  0.211352  0.812804  1
  Si  Si24  1  0.789137  0.543363  0.687376  1
  Si  Si25  1  0.211177  0.457765  0.186683  1
  Si  Si26  1  0.711295  0.043820  0.563456  1
  Si  Si27  1  0.957507  0.289246  0.937382  1
  Si  Si28  1  0.044151  0.710779  0.437144  1
  Mo  Mo29  1  0.159056  0.008544  0.875405  1
  Mo  Mo30  1  0.492600  0.658017  0.124342  1
  Mo  Mo31  1  0.507175  0.341870  0.623655  1
  Mo  Mo32  1  0.657081  0.491710  0.877473  1
  Mo  Mo33  1  0.342899  0.504754  0.374653  1
  Mo  Mo34  1  0.840720  0.991336  0.373565  1
  Mo  Mo35  1  0.006622  0.158287  0.126341  1
