# generated using pymatgen
data_Rb3UNbSe12
_symmetry_space_group_name_H-M   'P 1'
_cell_length_a   10.45322254
_cell_length_b   10.45518248
_cell_length_c   10.75939010
_cell_angle_alpha   82.38853459
_cell_angle_beta   82.38694773
_cell_angle_gamma   83.33015173
_symmetry_Int_Tables_number   1
_chemical_formula_structural   Rb3UNbSe12
_chemical_formula_sum   'Rb6 U2 Nb2 Se24'
_cell_volume   1149.43011964
_cell_formula_units_Z   2
loop_
 _symmetry_equiv_pos_site_id
 _symmetry_equiv_pos_as_xyz
  1  'x, y, z'
loop_
 _atom_site_type_symbol
 _atom_site_label
 _atom_site_symmetry_multiplicity
 _atom_site_fract_x
 _atom_site_fract_y
 _atom_site_fract_z
 _atom_site_occupancy
  Rb  Rb0  1  0.516269  0.340389  0.925438  1
  Rb  Rb1  1  0.984382  0.157122  0.016781  1
  Rb  Rb2  1  0.759817  0.879344  0.690283  1
  Rb  Rb3  1  0.340399  0.516292  0.425414  1
  Rb  Rb4  1  0.879315  0.759841  0.190363  1
  Rb  Rb5  1  0.157088  0.984388  0.516789  1
  U  U6  1  0.775501  0.251818  0.416267  1
  U  U7  1  0.251813  0.775536  0.916233  1
  Nb  Nb8  1  0.495501  0.921159  0.087403  1
  Nb  Nb9  1  0.921154  0.495483  0.587398  1
  Se  Se10  1  0.125482  0.481504  0.897342  1
  Se  Se11  1  0.481511  0.125465  0.397354  1
  Se  Se12  1  0.570345  0.677219  0.166218  1
  Se  Se13  1  0.406052  0.858223  0.711472  1
  Se  Se14  1  0.344646  0.032427  0.911106  1
  Se  Se15  1  0.280587  0.590881  0.750674  1
  Se  Se16  1  0.840061  0.234586  0.667216  1
  Se  Se17  1  0.912012  0.513108  0.829320  1
  Se  Se18  1  0.677197  0.570324  0.666234  1
  Se  Se19  1  0.513124  0.912018  0.329326  1
  Se  Se20  1  0.234561  0.840039  0.167213  1
  Se  Se21  1  0.029743  0.882031  0.857085  1
  Se  Se22  1  0.206176  0.619714  0.141433  1
  Se  Se23  1  0.684543  0.023698  0.003945  1
  Se  Se24  1  0.112814  0.313563  0.620149  1
  Se  Se25  1  0.724199  0.527517  0.448953  1
  Se  Se26  1  0.881977  0.029789  0.357105  1
  Se  Se27  1  0.527573  0.724228  0.948925  1
  Se  Se28  1  0.858254  0.406009  0.211515  1
  Se  Se29  1  0.619702  0.206171  0.641472  1
  Se  Se30  1  0.313552  0.112758  0.120152  1
  Se  Se31  1  0.032439  0.344638  0.411098  1
  Se  Se32  1  0.590860  0.280560  0.250673  1
  Se  Se33  1  0.023710  0.684521  0.503931  1
