# generated using pymatgen
data_Y(NbAl2)2
_symmetry_space_group_name_H-M   'P 1'
_cell_length_a   5.60654219
_cell_length_b   5.60654236
_cell_length_c   5.60654262
_cell_angle_alpha   103.90407440
_cell_angle_beta   103.90406593
_cell_angle_gamma   121.29241866
_symmetry_Int_Tables_number   1
_chemical_formula_structural   Y(NbAl2)2
_chemical_formula_sum   'Y1 Nb2 Al4'
_cell_volume   131.26027857
_cell_formula_units_Z   1
loop_
 _symmetry_equiv_pos_site_id
 _symmetry_equiv_pos_as_xyz
  1  'x, y, z'
loop_
 _atom_site_type_symbol
 _atom_site_label
 _atom_site_symmetry_multiplicity
 _atom_site_fract_x
 _atom_site_fract_y
 _atom_site_fract_z
 _atom_site_occupancy
  Y  Y0  1  0.000000  0.000000  0.000000  1
  Nb  Nb1  1  0.749999  0.250000  0.499999  1
  Nb  Nb2  1  0.250000  0.749999  0.499999  1
  Al  Al3  1  0.695541  0.304458  0.000000  1
  Al  Al4  1  0.304458  0.695541  0.000000  1
  Al  Al5  1  0.695541  0.695541  0.391084  1
  Al  Al6  1  0.304458  0.304458  0.608915  1
