# generated using pymatgen
data_Ho2TcRu3
_symmetry_space_group_name_H-M   'P 1'
_cell_length_a   5.32249526
_cell_length_b   5.32249470
_cell_length_c   9.05202800
_cell_angle_alpha   90.00000000
_cell_angle_beta   90.00000000
_cell_angle_gamma   122.92702934
_symmetry_Int_Tables_number   1
_chemical_formula_structural   Ho2TcRu3
_chemical_formula_sum   'Ho4 Tc2 Ru6'
_cell_volume   215.24174471
_cell_formula_units_Z   2
loop_
 _symmetry_equiv_pos_site_id
 _symmetry_equiv_pos_as_xyz
  1  'x, y, z'
loop_
 _atom_site_type_symbol
 _atom_site_label
 _atom_site_symmetry_multiplicity
 _atom_site_fract_x
 _atom_site_fract_y
 _atom_site_fract_z
 _atom_site_occupancy
  Ho  Ho0  1  0.334383  0.665617  0.432916  1
  Ho  Ho1  1  0.663907  0.336093  0.564259  1
  Ho  Ho2  1  0.663907  0.336093  0.935741  1
  Ho  Ho3  1  0.334383  0.665617  0.067084  1
  Tc  Tc4  1  0.173010  0.335710  0.750000  1
  Tc  Tc5  1  0.664290  0.826990  0.750000  1
  Ru  Ru6  1  0.991182  0.008818  0.498226  1
  Ru  Ru7  1  0.991182  0.008818  0.001774  1
  Ru  Ru8  1  0.832301  0.167699  0.250000  1
  Ru  Ru9  1  0.833953  0.657806  0.250000  1
  Ru  Ru10  1  0.342194  0.166047  0.250000  1
  Ru  Ru11  1  0.175310  0.824690  0.750000  1
