# generated using pymatgen
data_CaCl37
_symmetry_space_group_name_H-M   'P 1'
_cell_length_a   12.78763379
_cell_length_b   13.76759013
_cell_length_c   12.98174600
_cell_angle_alpha   103.00376751
_cell_angle_beta   48.80056927
_cell_angle_gamma   81.50743368
_symmetry_Int_Tables_number   1
_chemical_formula_structural   CaCl37
_chemical_formula_sum   'Ca1 Cl37'
_cell_volume   1533.02354663
_cell_formula_units_Z   1
loop_
 _symmetry_equiv_pos_site_id
 _symmetry_equiv_pos_as_xyz
  1  'x, y, z'
loop_
 _atom_site_type_symbol
 _atom_site_label
 _atom_site_symmetry_multiplicity
 _atom_site_fract_x
 _atom_site_fract_y
 _atom_site_fract_z
 _atom_site_occupancy
  Ca  Ca0  1  0.500000  0.000000  0.000000  1
  Cl  Cl1  1  0.777359  0.311594  0.166941  1
  Cl  Cl2  1  0.222641  0.688406  0.833059  1
  Cl  Cl3  1  0.721442  0.076767  0.364484  1
  Cl  Cl4  1  0.278558  0.923233  0.635516  1
  Cl  Cl5  1  0.099413  0.324412  0.152165  1
  Cl  Cl6  1  0.900587  0.675588  0.847835  1
  Cl  Cl7  1  0.864871  0.541981  0.249731  1
  Cl  Cl8  1  0.135129  0.458019  0.750269  1
  Cl  Cl9  1  0.680679  0.288332  0.536961  1
  Cl  Cl10  1  0.319321  0.711668  0.463039  1
  Cl  Cl11  1  0.040633  0.141380  0.496984  1
  Cl  Cl12  1  0.959367  0.858620  0.503016  1
  Cl  Cl13  1  0.991192  0.004555  0.273598  1
  Cl  Cl14  1  0.008808  0.995445  0.726402  1
  Cl  Cl15  1  0.944899  0.365237  0.628451  1
  Cl  Cl16  1  0.055101  0.634763  0.371549  1
  Cl  Cl17  1  0.586484  0.417190  0.243072  1
  Cl  Cl18  1  0.413516  0.582810  0.756928  1
  Cl  Cl19  1  0.172788  0.469012  0.267192  1
  Cl  Cl20  1  0.827212  0.530988  0.732808  1
  Cl  Cl21  1  0.000000  0.500000  0.000000  1
  Cl  Cl22  1  0.558860  0.948779  0.148790  1
  Cl  Cl23  1  0.441140  0.051221  0.851210  1
  Cl  Cl24  1  0.282381  0.049244  0.334793  1
  Cl  Cl25  1  0.717619  0.950756  0.665207  1
  Cl  Cl26  1  0.529522  0.114964  0.409356  1
  Cl  Cl27  1  0.470478  0.885036  0.590644  1
  Cl  Cl28  1  0.074596  0.201921  0.060505  1
  Cl  Cl29  1  0.925404  0.798079  0.939495  1
  Cl  Cl30  1  0.679985  0.694810  0.393079  1
  Cl  Cl31  1  0.320015  0.305190  0.606921  1
  Cl  Cl32  1  0.905693  0.131610  0.913619  1
  Cl  Cl33  1  0.094307  0.868390  0.086381  1
  Cl  Cl34  1  0.450173  0.209512  0.086452  1
  Cl  Cl35  1  0.549827  0.790488  0.913548  1
  Cl  Cl36  1  0.668105  0.425968  0.645854  1
  Cl  Cl37  1  0.331895  0.574032  0.354146  1
