# generated using pymatgen
data_La2CuPt3O8
_symmetry_space_group_name_H-M   'P 1'
_cell_length_a   6.44494481
_cell_length_b   6.75360421
_cell_length_c   6.67497130
_cell_angle_alpha   124.91540631
_cell_angle_beta   127.39068496
_cell_angle_gamma   78.14591657
_symmetry_Int_Tables_number   1
_chemical_formula_structural   La2CuPt3O8
_chemical_formula_sum   'La2 Cu1 Pt3 O8'
_cell_volume   184.72547511
_cell_formula_units_Z   1
loop_
 _symmetry_equiv_pos_site_id
 _symmetry_equiv_pos_as_xyz
  1  'x, y, z'
loop_
 _atom_site_type_symbol
 _atom_site_label
 _atom_site_symmetry_multiplicity
 _atom_site_fract_x
 _atom_site_fract_y
 _atom_site_fract_z
 _atom_site_occupancy
  La  La0  1  0.987707  0.992816  0.987040  1
  La  La1  1  0.762293  0.257184  0.512960  1
  Cu  Cu2  1  0.375000  0.625000  0.250000  1
  Pt  Pt3  1  0.375000  0.125000  0.750000  1
  Pt  Pt4  1  0.375000  0.625000  0.750000  1
  Pt  Pt5  1  0.875000  0.625000  0.250000  1
  O  O6  1  0.744592  0.312903  0.156775  1
  O  O7  1  0.169323  0.616849  0.886348  1
  O  O8  1  0.005408  0.937097  0.343225  1
  O  O9  1  0.580677  0.633151  0.613652  1
  O  O10  1  0.058433  0.413700  0.058765  1
  O  O11  1  0.364615  0.991066  0.951087  1
  O  O12  1  0.385385  0.258934  0.548913  1
  O  O13  1  0.691567  0.836300  0.441235  1
