# generated using pymatgen
data_Pa2Co7Tc5P7
_symmetry_space_group_name_H-M   'P 1'
_cell_length_a   9.18220623
_cell_length_b   9.17958106
_cell_length_c   3.76115000
_cell_angle_alpha   90.00000000
_cell_angle_beta   90.00000000
_cell_angle_gamma   119.63457845
_symmetry_Int_Tables_number   1
_chemical_formula_structural   Pa2Co7Tc5P7
_chemical_formula_sum   'Pa2 Co7 Tc5 P7'
_cell_volume   275.55520151
_cell_formula_units_Z   1
loop_
 _symmetry_equiv_pos_site_id
 _symmetry_equiv_pos_as_xyz
  1  'x, y, z'
loop_
 _atom_site_type_symbol
 _atom_site_label
 _atom_site_symmetry_multiplicity
 _atom_site_fract_x
 _atom_site_fract_y
 _atom_site_fract_z
 _atom_site_occupancy
  Pa  Pa0  1  0.668937  0.336994  0.500000  1
  Pa  Pa1  1  0.332125  0.667570  0.000000  1
  Co  Co2  1  0.120617  0.840455  0.000000  1
  Co  Co3  1  0.728551  0.880618  0.000000  1
  Co  Co4  1  0.932024  0.368118  0.000000  1
  Co  Co5  1  0.640054  0.567559  0.000000  1
  Co  Co6  1  0.430134  0.069477  0.000000  1
  Co  Co7  1  0.051281  0.611697  0.500000  1
  Co  Co8  1  0.153530  0.276614  0.000000  1
  Tc  Tc9  1  0.386364  0.439620  0.500000  1
  Tc  Tc10  1  0.560515  0.949648  0.500000  1
  Tc  Tc11  1  0.208666  0.091587  0.500000  1
  Tc  Tc12  1  0.880645  0.776819  0.500000  1
  Tc  Tc13  1  0.907059  0.121056  0.500000  1
  P  P14  1  0.001560  0.000338  0.000000  1
  P  P15  1  0.604462  0.715742  0.500000  1
  P  P16  1  0.702625  0.112057  0.000000  1
  P  P17  1  0.894943  0.592737  0.000000  1
  P  P18  1  0.408143  0.297251  0.000000  1
  P  P19  1  0.279395  0.881748  0.500000  1
  P  P20  1  0.108368  0.402296  0.500000  1
