# generated using pymatgen
data_Eu4Ta3GaO14
_symmetry_space_group_name_H-M   'P 1'
_cell_length_a   7.44866603
_cell_length_b   7.44866663
_cell_length_c   7.44866600
_cell_angle_alpha   60.67810286
_cell_angle_beta   60.67810028
_cell_angle_gamma   60.67811138
_symmetry_Int_Tables_number   1
_chemical_formula_structural   Eu4Ta3GaO14
_chemical_formula_sum   'Eu4 Ta3 Ga1 O14'
_cell_volume   296.70030565
_cell_formula_units_Z   1
loop_
 _symmetry_equiv_pos_site_id
 _symmetry_equiv_pos_as_xyz
  1  'x, y, z'
loop_
 _atom_site_type_symbol
 _atom_site_label
 _atom_site_symmetry_multiplicity
 _atom_site_fract_x
 _atom_site_fract_y
 _atom_site_fract_z
 _atom_site_occupancy
  Eu  Eu0  1  0.625000  0.125000  0.125000  1
  Eu  Eu1  1  0.125000  0.625000  0.125000  1
  Eu  Eu2  1  0.125000  0.125000  0.625000  1
  Eu  Eu3  1  0.125000  0.125000  0.125000  1
  Ta  Ta4  1  0.125000  0.625000  0.625000  1
  Ta  Ta5  1  0.625000  0.125000  0.625000  1
  Ta  Ta6  1  0.625000  0.625000  0.125000  1
  Ga  Ga7  1  0.625000  0.625000  0.625000  1
  O  O8  1  0.250297  0.250297  0.250297  1
  O  O9  1  0.999703  0.999703  0.999703  1
  O  O10  1  0.696268  0.696268  0.300784  1
  O  O11  1  0.305206  0.305206  0.695332  1
  O  O12  1  0.696268  0.300784  0.696268  1
  O  O13  1  0.305206  0.695332  0.305206  1
  O  O14  1  0.300784  0.696268  0.696268  1
  O  O15  1  0.695332  0.305206  0.305206  1
  O  O16  1  0.553732  0.553732  0.949216  1
  O  O17  1  0.944794  0.944794  0.554668  1
  O  O18  1  0.553732  0.949216  0.553732  1
  O  O19  1  0.944794  0.554668  0.944794  1
  O  O20  1  0.949216  0.553732  0.553732  1
  O  O21  1  0.554668  0.944794  0.944794  1
