# generated using pymatgen
data_Ba4La7DySe16
_symmetry_space_group_name_H-M   'P 1'
_cell_length_a   4.40453900
_cell_length_b   13.07993452
_cell_length_c   15.73841196
_cell_angle_alpha   89.73230169
_cell_angle_beta   90.00000000
_cell_angle_gamma   90.00000000
_symmetry_Int_Tables_number   1
_chemical_formula_structural   Ba4La7DySe16
_chemical_formula_sum   'Ba4 La7 Dy1 Se16'
_cell_volume   906.69704089
_cell_formula_units_Z   1
loop_
 _symmetry_equiv_pos_site_id
 _symmetry_equiv_pos_as_xyz
  1  'x, y, z'
loop_
 _atom_site_type_symbol
 _atom_site_label
 _atom_site_symmetry_multiplicity
 _atom_site_fract_x
 _atom_site_fract_y
 _atom_site_fract_z
 _atom_site_occupancy
  Ba  Ba0  1  0.250000  0.757881  0.339293  1
  Ba  Ba1  1  0.250000  0.255978  0.164262  1
  Ba  Ba2  1  0.750000  0.241146  0.658380  1
  Ba  Ba3  1  0.750000  0.743496  0.837786  1
  La  La4  1  0.250000  0.426598  0.391264  1
  La  La5  1  0.250000  0.931883  0.112187  1
  La  La6  1  0.750000  0.570142  0.609715  1
  La  La7  1  0.750000  0.070297  0.890341  1
  La  La8  1  0.250000  0.418497  0.898577  1
  La  La9  1  0.250000  0.922168  0.598728  1
  La  La10  1  0.750000  0.580856  0.101856  1
  Dy  Dy11  1  0.750000  0.079301  0.397499  1
  Se  Se12  1  0.250000  0.206997  0.821149  1
  Se  Se13  1  0.250000  0.708816  0.675725  1
  Se  Se14  1  0.750000  0.793250  0.178524  1
  Se  Se15  1  0.750000  0.285144  0.327216  1
  Se  Se16  1  0.250000  0.131348  0.517360  1
  Se  Se17  1  0.250000  0.631232  0.974341  1
  Se  Se18  1  0.750000  0.875255  0.470490  1
  Se  Se19  1  0.750000  0.368264  0.026400  1
  Se  Se20  1  0.250000  0.520644  0.217441  1
  Se  Se21  1  0.250000  0.025602  0.289036  1
  Se  Se22  1  0.750000  0.477519  0.783398  1
  Se  Se23  1  0.750000  0.978337  0.715570  1
  Se  Se24  1  0.250000  0.415781  0.580492  1
  Se  Se25  1  0.250000  0.916368  0.922010  1
  Se  Se26  1  0.750000  0.582727  0.420240  1
  Se  Se27  1  0.750000  0.084474  0.080719  1
