# generated using pymatgen
data_Dy3ScGa2Pt3
_symmetry_space_group_name_H-M   'P 1'
_cell_length_a   7.24328700
_cell_length_b   7.27336239
_cell_length_c   4.09097800
_cell_angle_alpha   90.00000000
_cell_angle_beta   90.00000000
_cell_angle_gamma   119.86330462
_symmetry_Int_Tables_number   1
_chemical_formula_structural   Dy3ScGa2Pt3
_chemical_formula_sum   'Dy3 Sc1 Ga2 Pt3'
_cell_volume   186.90686829
_cell_formula_units_Z   1
loop_
 _symmetry_equiv_pos_site_id
 _symmetry_equiv_pos_as_xyz
  1  'x, y, z'
loop_
 _atom_site_type_symbol
 _atom_site_label
 _atom_site_symmetry_multiplicity
 _atom_site_fract_x
 _atom_site_fract_y
 _atom_site_fract_z
 _atom_site_occupancy
  Dy  Dy0  1  0.612048  0.000000  0.000000  1
  Dy  Dy1  1  0.413758  0.426399  0.000000  1
  Dy  Dy2  1  0.987359  0.573602  0.000000  1
  Sc  Sc3  1  0.239017  0.000000  0.500000  1
  Ga  Ga4  1  0.001778  0.250673  0.500000  1
  Ga  Ga5  1  0.751105  0.749327  0.500000  1
  Pt  Pt6  1  0.003255  0.000000  0.000000  1
  Pt  Pt7  1  0.660022  0.328365  0.500000  1
  Pt  Pt8  1  0.331657  0.671635  0.500000  1
