# generated using pymatgen
data_Ho4Al4Ni3Rh
_symmetry_space_group_name_H-M   'P 1'
_cell_length_a   4.25420200
_cell_length_b   6.67529731
_cell_length_c   7.69642330
_cell_angle_alpha   89.77952612
_cell_angle_beta   90.00000000
_cell_angle_gamma   90.00000000
_symmetry_Int_Tables_number   1
_chemical_formula_structural   Ho4Al4Ni3Rh
_chemical_formula_sum   'Ho4 Al4 Ni3 Rh1'
_cell_volume   218.56189682
_cell_formula_units_Z   1
loop_
 _symmetry_equiv_pos_site_id
 _symmetry_equiv_pos_as_xyz
  1  'x, y, z'
loop_
 _atom_site_type_symbol
 _atom_site_label
 _atom_site_symmetry_multiplicity
 _atom_site_fract_x
 _atom_site_fract_y
 _atom_site_fract_z
 _atom_site_occupancy
  Ho  Ho0  1  0.250000  0.536633  0.177591  1
  Ho  Ho1  1  0.750000  0.464717  0.825487  1
  Ho  Ho2  1  0.750000  0.962510  0.677550  1
  Ho  Ho3  1  0.250000  0.033014  0.320391  1
  Al  Al4  1  0.250000  0.642068  0.559829  1
  Al  Al5  1  0.750000  0.365179  0.435324  1
  Al  Al6  1  0.750000  0.861047  0.060515  1
  Al  Al7  1  0.250000  0.137674  0.944166  1
  Ni  Ni8  1  0.250000  0.773607  0.878728  1
  Ni  Ni9  1  0.750000  0.229098  0.123833  1
  Ni  Ni10  1  0.750000  0.730905  0.375573  1
  Rh  Rh11  1  0.250000  0.263548  0.621013  1
