# generated using pymatgen
data_Tb17Ho3FeCo3Bi8
_symmetry_space_group_name_H-M   'P 1'
_cell_length_a   8.04934949
_cell_length_b   8.91742328
_cell_length_c   12.44225970
_cell_angle_alpha   90.04343924
_cell_angle_beta   89.87339579
_cell_angle_gamma   89.91212862
_symmetry_Int_Tables_number   1
_chemical_formula_structural   Tb17Ho3FeCo3Bi8
_chemical_formula_sum   'Tb17 Ho3 Fe1 Co3 Bi8'
_cell_volume   893.09514941
_cell_formula_units_Z   1
loop_
 _symmetry_equiv_pos_site_id
 _symmetry_equiv_pos_as_xyz
  1  'x, y, z'
loop_
 _atom_site_type_symbol
 _atom_site_label
 _atom_site_symmetry_multiplicity
 _atom_site_fract_x
 _atom_site_fract_y
 _atom_site_fract_z
 _atom_site_occupancy
  Tb  Tb0  1  0.346400  0.750093  0.701221  1
  Tb  Tb1  1  0.652337  0.249955  0.300243  1
  Tb  Tb2  1  0.848449  0.249429  0.800784  1
  Tb  Tb3  1  0.151335  0.750541  0.198258  1
  Tb  Tb4  1  0.885906  0.751006  0.810651  1
  Tb  Tb5  1  0.115578  0.249036  0.189445  1
  Tb  Tb6  1  0.384229  0.250045  0.689647  1
  Tb  Tb7  1  0.615041  0.749946  0.310721  1
  Tb  Tb8  1  0.677035  0.536867  0.563531  1
  Tb  Tb9  1  0.323347  0.462950  0.436628  1
  Tb  Tb10  1  0.175396  0.467324  0.937844  1
  Tb  Tb11  1  0.323412  0.037234  0.436428  1
  Tb  Tb12  1  0.822842  0.538589  0.062711  1
  Tb  Tb13  1  0.676989  0.963093  0.563797  1
  Tb  Tb14  1  0.050871  0.750039  0.496883  1
  Tb  Tb15  1  0.949914  0.250051  0.502432  1
  Tb  Tb16  1  0.552612  0.249582  0.003220  1
  Ho  Ho17  1  0.824526  0.959811  0.062561  1
  Ho  Ho18  1  0.173557  0.033944  0.938168  1
  Ho  Ho19  1  0.446863  0.750598  0.996556  1
  Fe  Fe20  1  0.068350  0.750284  0.991280  1
  Co  Co21  1  0.934299  0.249151  0.008382  1
  Co  Co22  1  0.565060  0.249969  0.508470  1
  Co  Co23  1  0.434853  0.750063  0.492281  1
  Bi  Bi24  1  0.573340  0.509192  0.826955  1
  Bi  Bi25  1  0.427252  0.491594  0.172674  1
  Bi  Bi26  1  0.072982  0.491088  0.673377  1
  Bi  Bi27  1  0.428786  0.008493  0.172676  1
  Bi  Bi28  1  0.926750  0.508765  0.325975  1
  Bi  Bi29  1  0.571896  0.990952  0.826930  1
  Bi  Bi30  1  0.926098  0.991025  0.325920  1
  Bi  Bi31  1  0.073694  0.009288  0.673348  1
