# generated using pymatgen
data_Dy20Ag3Ru2Au3
_symmetry_space_group_name_H-M   'P 1'
_cell_length_a   9.54666000
_cell_length_b   9.54664648
_cell_length_c   9.60084700
_cell_angle_alpha   90.00000000
_cell_angle_beta   90.00000000
_cell_angle_gamma   120.00008845
_symmetry_Int_Tables_number   1
_chemical_formula_structural   Dy20Ag3Ru2Au3
_chemical_formula_sum   'Dy20 Ag3 Ru2 Au3'
_cell_volume   757.77816900
_cell_formula_units_Z   1
loop_
 _symmetry_equiv_pos_site_id
 _symmetry_equiv_pos_as_xyz
  1  'x, y, z'
loop_
 _atom_site_type_symbol
 _atom_site_label
 _atom_site_symmetry_multiplicity
 _atom_site_fract_x
 _atom_site_fract_y
 _atom_site_fract_z
 _atom_site_occupancy
  Dy  Dy0  1  0.000000  0.000000  0.482070  1
  Dy  Dy1  1  0.000000  0.000000  0.017930  1
  Dy  Dy2  1  0.208514  0.791486  0.440219  1
  Dy  Dy3  1  0.208515  0.417029  0.440219  1
  Dy  Dy4  1  0.582971  0.791486  0.440219  1
  Dy  Dy5  1  0.791818  0.208182  0.558255  1
  Dy  Dy6  1  0.791818  0.583636  0.558255  1
  Dy  Dy7  1  0.416364  0.208182  0.558255  1
  Dy  Dy8  1  0.791818  0.208182  0.941745  1
  Dy  Dy9  1  0.791818  0.583636  0.941745  1
  Dy  Dy10  1  0.416364  0.208182  0.941745  1
  Dy  Dy11  1  0.208514  0.791486  0.059781  1
  Dy  Dy12  1  0.208515  0.417029  0.059781  1
  Dy  Dy13  1  0.582971  0.791486  0.059781  1
  Dy  Dy14  1  0.540591  0.459410  0.250000  1
  Dy  Dy15  1  0.540591  0.081181  0.250000  1
  Dy  Dy16  1  0.918819  0.459409  0.250000  1
  Dy  Dy17  1  0.458235  0.541764  0.750000  1
  Dy  Dy18  1  0.458236  0.916472  0.750000  1
  Dy  Dy19  1  0.083528  0.541764  0.750000  1
  Ag  Ag20  1  0.113775  0.886225  0.750000  1
  Ag  Ag21  1  0.113775  0.227549  0.750000  1
  Ag  Ag22  1  0.772451  0.886225  0.750000  1
  Ru  Ru23  1  0.333333  0.666668  0.250000  1
  Ru  Ru24  1  0.666667  0.333333  0.750000  1
  Au  Au25  1  0.874978  0.125021  0.250000  1
  Au  Au26  1  0.874978  0.749955  0.250000  1
  Au  Au27  1  0.250044  0.125022  0.250000  1
