# generated using pymatgen
data_Er3Tm7(Bi3C)2
_symmetry_space_group_name_H-M   'P 1'
_cell_length_a   9.05630700
_cell_length_b   9.05630681
_cell_length_c   6.41960600
_cell_angle_alpha   90.00000000
_cell_angle_beta   90.00000000
_cell_angle_gamma   119.99999703
_symmetry_Int_Tables_number   1
_chemical_formula_structural   Er3Tm7(Bi3C)2
_chemical_formula_sum   'Er3 Tm7 Bi6 C2'
_cell_volume   455.97526306
_cell_formula_units_Z   1
loop_
 _symmetry_equiv_pos_site_id
 _symmetry_equiv_pos_as_xyz
  1  'x, y, z'
loop_
 _atom_site_type_symbol
 _atom_site_label
 _atom_site_symmetry_multiplicity
 _atom_site_fract_x
 _atom_site_fract_y
 _atom_site_fract_z
 _atom_site_occupancy
  Er  Er0  1  0.333333  0.666667  0.000000  1
  Er  Er1  1  0.333333  0.666667  0.500000  1
  Er  Er2  1  0.666667  0.333333  0.500000  1
  Tm  Tm3  1  0.666667  0.333333  0.000000  1
  Tm  Tm4  1  0.794034  0.794039  0.750012  1
  Tm  Tm5  1  0.205961  0.999995  0.750012  1
  Tm  Tm6  1  0.000005  0.205966  0.750012  1
  Tm  Tm7  1  0.205961  0.205966  0.249988  1
  Tm  Tm8  1  0.794034  0.999995  0.249988  1
  Tm  Tm9  1  0.000005  0.794039  0.249988  1
  Bi  Bi10  1  0.401669  0.401602  0.750067  1
  Bi  Bi11  1  0.598398  0.000066  0.750067  1
  Bi  Bi12  1  0.999934  0.598331  0.750067  1
  Bi  Bi13  1  0.598398  0.598331  0.249933  1
  Bi  Bi14  1  0.401669  0.000066  0.249933  1
  Bi  Bi15  1  0.999934  0.401602  0.249933  1
  C  C16  1  0.000000  0.000000  0.000000  1
  C  C17  1  0.000000  0.000000  0.500000  1
