# generated using pymatgen
data_ScCoBi2(Pt2O7)2
_symmetry_space_group_name_H-M   'P 1'
_cell_length_a   7.17243803
_cell_length_b   7.26535495
_cell_length_c   7.26535497
_cell_angle_alpha   60.06179111
_cell_angle_beta   59.76848977
_cell_angle_gamma   59.76849395
_symmetry_Int_Tables_number   1
_chemical_formula_structural   ScCoBi2(Pt2O7)2
_chemical_formula_sum   'Sc1 Co1 Bi2 Pt4 O14'
_cell_volume   266.89340811
_cell_formula_units_Z   1
loop_
 _symmetry_equiv_pos_site_id
 _symmetry_equiv_pos_as_xyz
  1  'x, y, z'
loop_
 _atom_site_type_symbol
 _atom_site_label
 _atom_site_symmetry_multiplicity
 _atom_site_fract_x
 _atom_site_fract_y
 _atom_site_fract_z
 _atom_site_occupancy
  Sc  Sc0  1  0.125000  0.125000  0.125000  1
  Co  Co1  1  0.625000  0.125000  0.125000  1
  Bi  Bi2  1  0.125000  0.125000  0.625000  1
  Bi  Bi3  1  0.125000  0.625000  0.125000  1
  Pt  Pt4  1  0.625000  0.625000  0.125000  1
  Pt  Pt5  1  0.625000  0.125000  0.625000  1
  Pt  Pt6  1  0.125000  0.625000  0.625000  1
  Pt  Pt7  1  0.625000  0.625000  0.625000  1
  O  O8  1  0.266478  0.232022  0.232022  1
  O  O9  1  0.983522  0.017978  0.017978  1
  O  O10  1  0.544932  0.963964  0.528684  1
  O  O11  1  0.283870  0.726607  0.285652  1
  O  O12  1  0.544932  0.528684  0.963964  1
  O  O13  1  0.963466  0.538005  0.538005  1
  O  O14  1  0.526727  0.965168  0.965168  1
  O  O15  1  0.966130  0.964348  0.523393  1
  O  O16  1  0.966130  0.523393  0.964348  1
  O  O17  1  0.723273  0.284832  0.284832  1
  O  O18  1  0.286534  0.711995  0.711995  1
  O  O19  1  0.705068  0.286036  0.721316  1
  O  O20  1  0.283870  0.285652  0.726607  1
  O  O21  1  0.705068  0.721316  0.286036  1
