# generated using pymatgen
data_AcHoSi4(PtAu)2
_symmetry_space_group_name_H-M   'P 1'
_cell_length_a   4.33720400
_cell_length_b   4.33720400
_cell_length_c   10.13530700
_cell_angle_alpha   90.00000000
_cell_angle_beta   90.00000000
_cell_angle_gamma   90.00000000
_symmetry_Int_Tables_number   1
_chemical_formula_structural   AcHoSi4(PtAu)2
_chemical_formula_sum   'Ac1 Ho1 Si4 Pt2 Au2'
_cell_volume   190.65869116
_cell_formula_units_Z   1
loop_
 _symmetry_equiv_pos_site_id
 _symmetry_equiv_pos_as_xyz
  1  'x, y, z'
loop_
 _atom_site_type_symbol
 _atom_site_label
 _atom_site_symmetry_multiplicity
 _atom_site_fract_x
 _atom_site_fract_y
 _atom_site_fract_z
 _atom_site_occupancy
  Ac  Ac0  1  0.000000  0.500000  0.744258  1
  Ho  Ho1  1  0.500000  0.000000  0.256534  1
  Si  Si2  1  0.000000  0.500000  0.147482  1
  Si  Si3  1  0.500000  0.500000  0.492769  1
  Si  Si4  1  0.500000  0.000000  0.858361  1
  Si  Si5  1  0.000000  0.000000  0.492769  1
  Pt  Pt6  1  0.500000  0.000000  0.609489  1
  Pt  Pt7  1  0.000000  0.500000  0.379856  1
  Au  Au8  1  0.000000  0.000000  0.009240  1
  Au  Au9  1  0.500000  0.500000  0.009240  1
