# generated using pymatgen
data_Tm(LuTl)4
_symmetry_space_group_name_H-M   'P 1'
_cell_length_a   9.12907300
_cell_length_b   9.14018599
_cell_length_c   6.66244600
_cell_angle_alpha   90.00000000
_cell_angle_beta   90.00000000
_cell_angle_gamma   119.95978490
_symmetry_Int_Tables_number   1
_chemical_formula_structural   Tm(LuTl)4
_chemical_formula_sum   'Tm2 Lu8 Tl8'
_cell_volume   481.63927638
_cell_formula_units_Z   2
loop_
 _symmetry_equiv_pos_site_id
 _symmetry_equiv_pos_as_xyz
  1  'x, y, z'
loop_
 _atom_site_type_symbol
 _atom_site_label
 _atom_site_symmetry_multiplicity
 _atom_site_fract_x
 _atom_site_fract_y
 _atom_site_fract_z
 _atom_site_occupancy
  Tm  Tm0  1  0.292363  0.000000  0.750000  1
  Tm  Tm1  1  0.707637  0.000000  0.250000  1
  Lu  Lu2  1  0.332533  0.665066  0.500000  1
  Lu  Lu3  1  0.667467  0.334934  0.500000  1
  Lu  Lu4  1  0.667467  0.334934  0.000000  1
  Lu  Lu5  1  0.332533  0.665066  0.000000  1
  Lu  Lu6  1  0.000234  0.291575  0.750000  1
  Lu  Lu7  1  0.999766  0.708425  0.250000  1
  Lu  Lu8  1  0.708658  0.708425  0.750000  1
  Lu  Lu9  1  0.291342  0.291575  0.250000  1
  Tl  Tl10  1  0.000000  0.000000  0.500000  1
  Tl  Tl11  1  0.000000  0.000000  0.000000  1
  Tl  Tl12  1  0.630209  0.000000  0.750000  1
  Tl  Tl13  1  0.369791  0.000000  0.250000  1
  Tl  Tl14  1  0.999563  0.627841  0.750000  1
  Tl  Tl15  1  0.000437  0.372159  0.250000  1
  Tl  Tl16  1  0.371722  0.372159  0.750000  1
  Tl  Tl17  1  0.628278  0.627841  0.250000  1
