# generated using pymatgen
data_Er2LuCd3Si2Au
_symmetry_space_group_name_H-M   'P 1'
_cell_length_a   7.20406200
_cell_length_b   7.19544096
_cell_length_c   4.29002100
_cell_angle_alpha   90.00000000
_cell_angle_beta   90.00000000
_cell_angle_gamma   120.03964156
_symmetry_Int_Tables_number   1
_chemical_formula_structural   Er2LuCd3Si2Au
_chemical_formula_sum   'Er2 Lu1 Cd3 Si2 Au1'
_cell_volume   192.50911007
_cell_formula_units_Z   1
loop_
 _symmetry_equiv_pos_site_id
 _symmetry_equiv_pos_as_xyz
  1  'x, y, z'
loop_
 _atom_site_type_symbol
 _atom_site_label
 _atom_site_symmetry_multiplicity
 _atom_site_fract_x
 _atom_site_fract_y
 _atom_site_fract_z
 _atom_site_occupancy
  Er  Er0  1  0.000964  0.582701  0.000000  1
  Er  Er1  1  0.418262  0.417299  0.000000  1
  Lu  Lu2  1  0.583537  0.000000  0.000000  1
  Cd  Cd3  1  0.256186  0.000000  0.500000  1
  Cd  Cd4  1  0.000167  0.256625  0.500000  1
  Cd  Cd5  1  0.743542  0.743375  0.500000  1
  Si  Si6  1  0.334469  0.668670  0.500000  1
  Si  Si7  1  0.665799  0.331330  0.500000  1
  Au  Au8  1  0.997075  0.000000  0.000000  1
