# generated using pymatgen
data_Er9LuSi5P
_symmetry_space_group_name_H-M   'P 1'
_cell_length_a   8.31363402
_cell_length_b   8.32042674
_cell_length_c   6.22015412
_cell_angle_alpha   89.97793497
_cell_angle_beta   90.00854007
_cell_angle_gamma   119.97302709
_symmetry_Int_Tables_number   1
_chemical_formula_structural   Er9LuSi5P
_chemical_formula_sum   'Er9 Lu1 Si5 P1'
_cell_volume   372.72302615
_cell_formula_units_Z   1
loop_
 _symmetry_equiv_pos_site_id
 _symmetry_equiv_pos_as_xyz
  1  'x, y, z'
loop_
 _atom_site_type_symbol
 _atom_site_label
 _atom_site_symmetry_multiplicity
 _atom_site_fract_x
 _atom_site_fract_y
 _atom_site_fract_z
 _atom_site_occupancy
  Er  Er0  1  0.001076  0.757274  0.749746  1
  Er  Er1  1  0.000963  0.243944  0.250175  1
  Er  Er2  1  0.756837  0.756207  0.250209  1
  Er  Er3  1  0.755598  0.999888  0.749840  1
  Er  Er4  1  0.243701  0.242853  0.749842  1
  Er  Er5  1  0.243141  0.999855  0.250144  1
  Er  Er6  1  0.666309  0.332617  0.999461  1
  Er  Er7  1  0.666245  0.332541  0.500572  1
  Er  Er8  1  0.333677  0.667340  0.999726  1
  Lu  Lu9  1  0.333708  0.667303  0.500155  1
  Si  Si10  1  0.394462  0.394449  0.250543  1
  Si  Si11  1  0.001160  0.606164  0.250597  1
  Si  Si12  1  0.000642  0.394472  0.749437  1
  Si  Si13  1  0.605671  0.606182  0.749462  1
  Si  Si14  1  0.606134  0.999406  0.250540  1
  P  P15  1  0.390678  0.999503  0.749551  1
