# generated using pymatgen
data_NdEr5Co16(TcP6)2
_symmetry_space_group_name_H-M   'P 1'
_cell_length_a   3.70913600
_cell_length_b   10.52604700
_cell_length_c   12.21920000
_cell_angle_alpha   90.00000000
_cell_angle_beta   90.00000000
_cell_angle_gamma   90.00000000
_symmetry_Int_Tables_number   1
_chemical_formula_structural   NdEr5Co16(TcP6)2
_chemical_formula_sum   'Nd1 Er5 Co16 Tc2 P12'
_cell_volume   477.06860312
_cell_formula_units_Z   1
loop_
 _symmetry_equiv_pos_site_id
 _symmetry_equiv_pos_as_xyz
  1  'x, y, z'
loop_
 _atom_site_type_symbol
 _atom_site_label
 _atom_site_symmetry_multiplicity
 _atom_site_fract_x
 _atom_site_fract_y
 _atom_site_fract_z
 _atom_site_occupancy
  Nd  Nd0  1  0.750000  0.250000  0.474745  1
  Er  Er1  1  0.250000  0.750000  0.524602  1
  Er  Er2  1  0.250000  0.931729  0.794387  1
  Er  Er3  1  0.250000  0.568271  0.794387  1
  Er  Er4  1  0.750000  0.067404  0.204715  1
  Er  Er5  1  0.750000  0.432596  0.204715  1
  Co  Co6  1  0.250000  0.250000  0.294335  1
  Co  Co7  1  0.750000  0.750000  0.703076  1
  Co  Co8  1  0.750000  0.250000  0.012750  1
  Co  Co9  1  0.250000  0.750000  0.986896  1
  Co  Co10  1  0.250000  0.418260  0.010214  1
  Co  Co11  1  0.250000  0.081740  0.010214  1
  Co  Co12  1  0.750000  0.582611  0.989812  1
  Co  Co13  1  0.750000  0.917389  0.989812  1
  Co  Co14  1  0.250000  0.456990  0.569792  1
  Co  Co15  1  0.250000  0.043010  0.569792  1
  Co  Co16  1  0.750000  0.549249  0.430670  1
  Co  Co17  1  0.750000  0.950751  0.430670  1
  Co  Co18  1  0.250000  0.870399  0.291390  1
  Co  Co19  1  0.250000  0.629601  0.291390  1
  Co  Co20  1  0.750000  0.128048  0.709516  1
  Co  Co21  1  0.750000  0.371952  0.709516  1
  Tc  Tc22  1  0.250000  0.250000  0.845177  1
  Tc  Tc23  1  0.750000  0.750000  0.156744  1
  P  P24  1  0.250000  0.250000  0.118184  1
  P  P25  1  0.750000  0.750000  0.880730  1
  P  P26  1  0.250000  0.250000  0.654667  1
  P  P27  1  0.750000  0.750000  0.349357  1
  P  P28  1  0.250000  0.441944  0.381856  1
  P  P29  1  0.250000  0.058056  0.381856  1
  P  P30  1  0.750000  0.562761  0.616640  1
  P  P31  1  0.750000  0.937239  0.616640  1
  P  P32  1  0.250000  0.903749  0.107436  1
  P  P33  1  0.250000  0.596251  0.107436  1
  P  P34  1  0.750000  0.095212  0.892940  1
  P  P35  1  0.750000  0.404788  0.892940  1
