# generated using pymatgen
data_Y5Th3(PbAu2)4
_symmetry_space_group_name_H-M   'P 1'
_cell_length_a   8.05709093
_cell_length_b   8.05709189
_cell_length_c   7.82238700
_cell_angle_alpha   90.00000000
_cell_angle_beta   90.00000000
_cell_angle_gamma   89.69975656
_symmetry_Int_Tables_number   1
_chemical_formula_structural   Y5Th3(PbAu2)4
_chemical_formula_sum   'Y5 Th3 Pb4 Au8'
_cell_volume   507.79675017
_cell_formula_units_Z   1
loop_
 _symmetry_equiv_pos_site_id
 _symmetry_equiv_pos_as_xyz
  1  'x, y, z'
loop_
 _atom_site_type_symbol
 _atom_site_label
 _atom_site_symmetry_multiplicity
 _atom_site_fract_x
 _atom_site_fract_y
 _atom_site_fract_z
 _atom_site_occupancy
  Y  Y0  1  0.320827  0.679173  0.000000  1
  Y  Y1  1  0.162716  0.161766  0.000000  1
  Y  Y2  1  0.659861  0.340139  0.500000  1
  Y  Y3  1  0.336829  0.663171  0.500000  1
  Y  Y4  1  0.838234  0.837284  0.000000  1
  Th  Th5  1  0.679940  0.320060  0.000000  1
  Th  Th6  1  0.819631  0.817333  0.500000  1
  Th  Th7  1  0.182667  0.180369  0.500000  1
  Pb  Pb8  1  0.499240  0.997807  0.246471  1
  Pb  Pb9  1  0.499240  0.997807  0.753529  1
  Pb  Pb10  1  0.002193  0.500760  0.246471  1
  Pb  Pb11  1  0.002193  0.500760  0.753529  1
  Au  Au12  1  0.373939  0.376256  0.230034  1
  Au  Au13  1  0.874093  0.125907  0.728368  1
  Au  Au14  1  0.126437  0.873563  0.736007  1
  Au  Au15  1  0.623744  0.626061  0.230034  1
  Au  Au16  1  0.126437  0.873563  0.263993  1
  Au  Au17  1  0.874093  0.125907  0.271632  1
  Au  Au18  1  0.373939  0.376256  0.769966  1
  Au  Au19  1  0.623744  0.626061  0.769966  1
