# generated using pymatgen
data_Li8P4(Pd3Pt)3
_symmetry_space_group_name_H-M   'P 1'
_cell_length_a   7.18545488
_cell_length_b   7.16438607
_cell_length_c   7.18015056
_cell_angle_alpha   89.97198182
_cell_angle_beta   89.92996169
_cell_angle_gamma   89.65399896
_symmetry_Int_Tables_number   1
_chemical_formula_structural   Li8P4(Pd3Pt)3
_chemical_formula_sum   'Li8 P4 Pd9 Pt3'
_cell_volume   369.62258929
_cell_formula_units_Z   1
loop_
 _symmetry_equiv_pos_site_id
 _symmetry_equiv_pos_as_xyz
  1  'x, y, z'
loop_
 _atom_site_type_symbol
 _atom_site_label
 _atom_site_symmetry_multiplicity
 _atom_site_fract_x
 _atom_site_fract_y
 _atom_site_fract_z
 _atom_site_occupancy
  Li  Li0  1  0.288625  0.291455  0.287471  1
  Li  Li1  1  0.038759  0.462863  0.550710  1
  Li  Li2  1  0.547784  0.039712  0.460634  1
  Li  Li3  1  0.459339  0.539829  0.036384  1
  Li  Li4  1  0.197741  0.702853  0.792812  1
  Li  Li5  1  0.957146  0.955705  0.951478  1
  Li  Li6  1  0.796533  0.208662  0.710426  1
  Li  Li7  1  0.712705  0.787723  0.207496  1
  P  P8  1  0.872255  0.375471  0.117557  1
  P  P9  1  0.372530  0.130655  0.880841  1
  P  P10  1  0.631484  0.626383  0.622670  1
  P  P11  1  0.122777  0.870479  0.380088  1
  Pd  Pd12  1  0.179077  0.075440  0.624554  1
  Pd  Pd13  1  0.429872  0.374312  0.672096  1
  Pd  Pd14  1  0.079503  0.620573  0.178473  1
  Pd  Pd15  1  0.927124  0.124695  0.319956  1
  Pd  Pd16  1  0.319870  0.925151  0.127445  1
  Pd  Pd17  1  0.677016  0.422255  0.374298  1
  Pd  Pd18  1  0.564537  0.872598  0.826889  1
  Pd  Pd19  1  0.624689  0.170120  0.077796  1
  Pd  Pd20  1  0.376902  0.674683  0.428135  1
  Pt  Pt21  1  0.872646  0.835282  0.578492  1
  Pt  Pt22  1  0.123167  0.329327  0.918004  1
  Pt  Pt23  1  0.827922  0.583776  0.875296  1
