# generated using pymatgen
data_K2RbBiS3
_symmetry_space_group_name_H-M   'P 1'
_cell_length_a   9.75887600
_cell_length_b   9.75887600
_cell_length_c   9.75887600
_cell_angle_alpha   90.00000000
_cell_angle_beta   90.00000000
_cell_angle_gamma   90.00000000
_symmetry_Int_Tables_number   1
_chemical_formula_structural   K2RbBiS3
_chemical_formula_sum   'K8 Rb4 Bi4 S12'
_cell_volume   929.39300436
_cell_formula_units_Z   4
loop_
 _symmetry_equiv_pos_site_id
 _symmetry_equiv_pos_as_xyz
  1  'x, y, z'
loop_
 _atom_site_type_symbol
 _atom_site_label
 _atom_site_symmetry_multiplicity
 _atom_site_fract_x
 _atom_site_fract_y
 _atom_site_fract_z
 _atom_site_occupancy
  K  K0  1  0.181751  0.681751  0.818249  1
  K  K1  1  0.681751  0.818249  0.181751  1
  K  K2  1  0.818249  0.181751  0.681751  1
  K  K3  1  0.318249  0.318249  0.318249  1
  K  K4  1  0.688742  0.188742  0.311258  1
  K  K5  1  0.188742  0.311258  0.688742  1
  K  K6  1  0.311258  0.688742  0.188742  1
  K  K7  1  0.811258  0.811258  0.811258  1
  Rb  Rb8  1  0.929725  0.429725  0.070275  1
  Rb  Rb9  1  0.429725  0.070275  0.929725  1
  Rb  Rb10  1  0.070275  0.929725  0.429725  1
  Rb  Rb11  1  0.570275  0.570275  0.570275  1
  Bi  Bi12  1  0.468895  0.968895  0.531105  1
  Bi  Bi13  1  0.968895  0.531105  0.468895  1
  Bi  Bi14  1  0.531105  0.468895  0.968895  1
  Bi  Bi15  1  0.031105  0.031105  0.031105  1
  S  S16  1  0.002332  0.780171  0.101543  1
  S  S17  1  0.898457  0.502332  0.719829  1
  S  S18  1  0.280171  0.398457  0.997668  1
  S  S19  1  0.502332  0.719829  0.898457  1
  S  S20  1  0.398457  0.997668  0.280171  1
  S  S21  1  0.780171  0.101543  0.002332  1
  S  S22  1  0.997668  0.280171  0.398457  1
  S  S23  1  0.101543  0.002332  0.780171  1
  S  S24  1  0.719829  0.898457  0.502332  1
  S  S25  1  0.497668  0.219829  0.601543  1
  S  S26  1  0.601543  0.497668  0.219829  1
  S  S27  1  0.219829  0.601543  0.497668  1
