# generated using pymatgen
data_Te(O2F3)2
_symmetry_space_group_name_H-M   'P 1'
_cell_length_a   6.76923593
_cell_length_b   6.77966346
_cell_length_c   6.77797583
_cell_angle_alpha   119.68088011
_cell_angle_beta   119.61489178
_cell_angle_gamma   90.64004811
_symmetry_Int_Tables_number   1
_chemical_formula_structural   Te(O2F3)2
_chemical_formula_sum   'Te1 O4 F6'
_cell_volume   221.05465935
_cell_formula_units_Z   1
loop_
 _symmetry_equiv_pos_site_id
 _symmetry_equiv_pos_as_xyz
  1  'x, y, z'
loop_
 _atom_site_type_symbol
 _atom_site_label
 _atom_site_symmetry_multiplicity
 _atom_site_fract_x
 _atom_site_fract_y
 _atom_site_fract_z
 _atom_site_occupancy
  Te  Te0  1  0.007570  0.007573  0.999997  1
  O  O1  1  0.278718  0.688648  0.409034  1
  O  O2  1  0.278724  0.869617  0.589976  1
  O  O3  1  0.689463  0.279549  0.409983  1
  O  O4  1  0.870146  0.279330  0.590912  1
  F  F5  1  0.203079  0.202808  0.000269  1
  F  F6  1  0.201337  0.201451  0.387337  1
  F  F7  1  0.201361  0.814015  0.999882  1
  F  F8  1  0.811077  0.811413  0.999683  1
  F  F9  1  0.813867  0.813586  0.612651  1
  F  F10  1  0.813860  0.201210  0.000277  1
