# generated using pymatgen
data_Al4Pd5Pt3
_symmetry_space_group_name_H-M   'P 1'
_cell_length_a   4.11704600
_cell_length_b   5.48272100
_cell_length_c   7.89026300
_cell_angle_alpha   90.00196901
_cell_angle_beta   90.00000000
_cell_angle_gamma   90.00000000
_symmetry_Int_Tables_number   1
_chemical_formula_structural   Al4Pd5Pt3
_chemical_formula_sum   'Al4 Pd5 Pt3'
_cell_volume   178.10386544
_cell_formula_units_Z   1
loop_
 _symmetry_equiv_pos_site_id
 _symmetry_equiv_pos_as_xyz
  1  'x, y, z'
loop_
 _atom_site_type_symbol
 _atom_site_label
 _atom_site_symmetry_multiplicity
 _atom_site_fract_x
 _atom_site_fract_y
 _atom_site_fract_z
 _atom_site_occupancy
  Al  Al0  1  0.750000  0.802796  0.895218  1
  Al  Al1  1  0.250000  0.193397  0.105433  1
  Al  Al2  1  0.750000  0.311732  0.602052  1
  Al  Al3  1  0.250000  0.692099  0.398560  1
  Pd  Pd4  1  0.250000  0.040173  0.788022  1
  Pd  Pd5  1  0.750000  0.331812  0.932473  1
  Pd  Pd6  1  0.250000  0.663788  0.066472  1
  Pd  Pd7  1  0.750000  0.839267  0.568126  1
  Pd  Pd8  1  0.250000  0.164741  0.433078  1
  Pt  Pt9  1  0.750000  0.460938  0.286728  1
  Pt  Pt10  1  0.250000  0.540244  0.712873  1
  Pt  Pt11  1  0.750000  0.959014  0.210967  1
