# generated using pymatgen
data_Dy2HoThPt4
_symmetry_space_group_name_H-M   'P 1'
_cell_length_a   4.58073600
_cell_length_b   5.63417621
_cell_length_c   7.07149544
_cell_angle_alpha   90.41758272
_cell_angle_beta   90.00000000
_cell_angle_gamma   90.00000000
_symmetry_Int_Tables_number   1
_chemical_formula_structural   Dy2HoThPt4
_chemical_formula_sum   'Dy2 Ho1 Th1 Pt4'
_cell_volume   182.50107215
_cell_formula_units_Z   1
loop_
 _symmetry_equiv_pos_site_id
 _symmetry_equiv_pos_as_xyz
  1  'x, y, z'
loop_
 _atom_site_type_symbol
 _atom_site_label
 _atom_site_symmetry_multiplicity
 _atom_site_fract_x
 _atom_site_fract_y
 _atom_site_fract_z
 _atom_site_occupancy
  Dy  Dy0  1  0.250000  0.139508  0.182973  1
  Dy  Dy1  1  0.750000  0.642121  0.314460  1
  Ho  Ho2  1  0.750000  0.858529  0.820984  1
  Th  Th3  1  0.250000  0.360424  0.682603  1
  Pt  Pt4  1  0.250000  0.842860  0.544084  1
  Pt  Pt5  1  0.250000  0.657925  0.043234  1
  Pt  Pt6  1  0.750000  0.156705  0.454222  1
  Pt  Pt7  1  0.750000  0.341928  0.957439  1
