# generated using pymatgen
data_TbY3FeTc7
_symmetry_space_group_name_H-M   'P 1'
_cell_length_a   5.42705038
_cell_length_b   5.35614081
_cell_length_c   8.74872100
_cell_angle_alpha   89.99999889
_cell_angle_beta   89.99760588
_cell_angle_gamma   119.56873623
_symmetry_Int_Tables_number   1
_chemical_formula_structural   TbY3FeTc7
_chemical_formula_sum   'Tb1 Y3 Fe1 Tc7'
_cell_volume   221.18822042
_cell_formula_units_Z   1
loop_
 _symmetry_equiv_pos_site_id
 _symmetry_equiv_pos_as_xyz
  1  'x, y, z'
loop_
 _atom_site_type_symbol
 _atom_site_label
 _atom_site_symmetry_multiplicity
 _atom_site_fract_x
 _atom_site_fract_y
 _atom_site_fract_z
 _atom_site_occupancy
  Tb  Tb0  1  0.333644  0.666822  0.060664  1
  Y  Y1  1  0.334006  0.667003  0.438630  1
  Y  Y2  1  0.668215  0.334107  0.563378  1
  Y  Y3  1  0.667940  0.333970  0.936624  1
  Fe  Fe4  1  0.656428  0.828213  0.749787  1
  Tc  Tc5  1  0.004773  0.002387  0.505937  1
  Tc  Tc6  1  0.004304  0.002152  0.994854  1
  Tc  Tc7  1  0.830961  0.168490  0.250175  1
  Tc  Tc8  1  0.830961  0.662470  0.250175  1
  Tc  Tc9  1  0.342786  0.171393  0.250073  1
  Tc  Tc10  1  0.162992  0.824767  0.749852  1
  Tc  Tc11  1  0.162992  0.338225  0.749852  1
