# generated using pymatgen
data_La4Nd12MgHg3Pt4
_symmetry_space_group_name_H-M   'P 1'
_cell_length_a   10.06634834
_cell_length_b   10.10725053
_cell_length_c   10.10725100
_cell_angle_alpha   59.99999519
_cell_angle_beta   59.86549233
_cell_angle_gamma   59.86549941
_symmetry_Int_Tables_number   1
_chemical_formula_structural   La4Nd12MgHg3Pt4
_chemical_formula_sum   'La4 Nd12 Mg1 Hg3 Pt4'
_cell_volume   725.66652792
_cell_formula_units_Z   1
loop_
 _symmetry_equiv_pos_site_id
 _symmetry_equiv_pos_as_xyz
  1  'x, y, z'
loop_
 _atom_site_type_symbol
 _atom_site_label
 _atom_site_symmetry_multiplicity
 _atom_site_fract_x
 _atom_site_fract_y
 _atom_site_fract_z
 _atom_site_occupancy
  La  La0  1  0.350556  0.349045  0.349045  1
  La  La1  1  0.350556  0.349045  0.951356  1
  La  La2  1  0.350556  0.951356  0.349045  1
  La  La3  1  0.943762  0.352080  0.352080  1
  Nd  Nd4  1  0.808143  0.191717  0.191717  1
  Nd  Nd5  1  0.187420  0.811380  0.811380  1
  Nd  Nd6  1  0.187420  0.811380  0.189820  1
  Nd  Nd7  1  0.808143  0.191717  0.808421  1
  Nd  Nd8  1  0.187420  0.189820  0.811380  1
  Nd  Nd9  1  0.808143  0.808421  0.191717  1
  Nd  Nd10  1  0.932259  0.567424  0.567424  1
  Nd  Nd11  1  0.564187  0.934637  0.934637  1
  Nd  Nd12  1  0.564187  0.934637  0.566538  1
  Nd  Nd13  1  0.932259  0.567424  0.932893  1
  Nd  Nd14  1  0.564187  0.566538  0.934637  1
  Nd  Nd15  1  0.932259  0.932893  0.567424  1
  Mg  Mg16  1  0.283862  0.572046  0.572046  1
  Hg  Hg17  1  0.581394  0.587164  0.587164  1
  Hg  Hg18  1  0.581394  0.587164  0.244279  1
  Hg  Hg19  1  0.581394  0.244279  0.587164  1
  Pt  Pt20  1  0.141862  0.142076  0.142076  1
  Pt  Pt21  1  0.141862  0.142076  0.573987  1
  Pt  Pt22  1  0.141862  0.573987  0.142076  1
  Pt  Pt23  1  0.574918  0.141694  0.141694  1
