# generated using pymatgen
data_Pr2Si5Pt2Rh
_symmetry_space_group_name_H-M   'P 1'
_cell_length_a   8.27862685
_cell_length_b   8.27862767
_cell_length_c   8.27862749
_cell_angle_alpha   136.93276236
_cell_angle_beta   105.35964339
_cell_angle_gamma   90.26185376
_symmetry_Int_Tables_number   1
_chemical_formula_structural   Pr2Si5Pt2Rh
_chemical_formula_sum   'Pr4 Si10 Pt4 Rh2'
_cell_volume   356.29695919
_cell_formula_units_Z   2
loop_
 _symmetry_equiv_pos_site_id
 _symmetry_equiv_pos_as_xyz
  1  'x, y, z'
loop_
 _atom_site_type_symbol
 _atom_site_label
 _atom_site_symmetry_multiplicity
 _atom_site_fract_x
 _atom_site_fract_y
 _atom_site_fract_z
 _atom_site_occupancy
  Pr  Pr0  1  0.862815  0.629628  0.233187  1
  Pr  Pr1  1  0.137185  0.370372  0.766813  1
  Pr  Pr2  1  0.396441  0.129628  0.266813  1
  Pr  Pr3  1  0.603559  0.870372  0.733187  1
  Si  Si4  1  0.500000  0.750000  0.250000  1
  Si  Si5  1  0.500000  0.250000  0.750000  1
  Si  Si6  1  0.226144  0.976144  0.750000  1
  Si  Si7  1  0.773856  0.523856  0.750000  1
  Si  Si8  1  0.773856  0.023856  0.250000  1
  Si  Si9  1  0.226144  0.476144  0.250000  1
  Si  Si10  1  0.040488  0.893239  0.147249  1
  Si  Si11  1  0.959512  0.106761  0.852751  1
  Si  Si12  1  0.745991  0.393239  0.352751  1
  Si  Si13  1  0.254009  0.606761  0.647249  1
  Pt  Pt14  1  0.252378  0.863265  0.389114  1
  Pt  Pt15  1  0.747622  0.136735  0.610886  1
  Pt  Pt16  1  0.474150  0.363265  0.110886  1
  Pt  Pt17  1  0.525850  0.636735  0.889114  1
  Rh  Rh18  1  0.000000  0.750000  0.750000  1
  Rh  Rh19  1  0.000000  0.250000  0.250000  1
