# generated using pymatgen
data_La2Ga2(GePd)3
_symmetry_space_group_name_H-M   'P 1'
_cell_length_a   8.67137037
_cell_length_b   8.67137020
_cell_length_c   8.67137030
_cell_angle_alpha   138.50230732
_cell_angle_beta   105.86353522
_cell_angle_gamma   88.72050360
_symmetry_Int_Tables_number   1
_chemical_formula_structural   La2Ga2(GePd)3
_chemical_formula_sum   'La4 Ga4 Ge6 Pd6'
_cell_volume   398.18899131
_cell_formula_units_Z   2
loop_
 _symmetry_equiv_pos_site_id
 _symmetry_equiv_pos_as_xyz
  1  'x, y, z'
loop_
 _atom_site_type_symbol
 _atom_site_label
 _atom_site_symmetry_multiplicity
 _atom_site_fract_x
 _atom_site_fract_y
 _atom_site_fract_z
 _atom_site_occupancy
  La  La0  1  0.637147  0.870808  0.766339  1
  La  La1  1  0.362853  0.129192  0.233661  1
  La  La2  1  0.104470  0.370808  0.733661  1
  La  La3  1  0.895530  0.629192  0.266339  1
  Ga  Ga4  1  0.271415  0.021415  0.750000  1
  Ga  Ga5  1  0.728585  0.978585  0.250000  1
  Ga  Ga6  1  0.728585  0.478585  0.750000  1
  Ga  Ga7  1  0.271415  0.521415  0.250000  1
  Ge  Ge8  1  0.459151  0.609976  0.849174  1
  Ge  Ge9  1  0.540849  0.390024  0.150826  1
  Ge  Ge10  1  0.760802  0.109976  0.650826  1
  Ge  Ge11  1  0.239198  0.890024  0.349174  1
  Ge  Ge12  1  0.000000  0.750000  0.750000  1
  Ge  Ge13  1  0.000000  0.250000  0.250000  1
  Pd  Pd14  1  0.246750  0.634710  0.612042  1
  Pd  Pd15  1  0.753250  0.365290  0.387958  1
  Pd  Pd16  1  0.022668  0.134710  0.887958  1
  Pd  Pd17  1  0.977332  0.865290  0.112042  1
  Pd  Pd18  1  0.500000  0.750000  0.250000  1
  Pd  Pd19  1  0.500000  0.250000  0.750000  1
