# generated using pymatgen
data_Er4Al18CuPd3Ru2
_symmetry_space_group_name_H-M   'P 1'
_cell_length_a   7.57893733
_cell_length_b   7.57893703
_cell_length_c   9.40732979
_cell_angle_alpha   89.94171919
_cell_angle_beta   89.94171749
_cell_angle_gamma   119.32280245
_symmetry_Int_Tables_number   1
_chemical_formula_structural   Er4Al18CuPd3Ru2
_chemical_formula_sum   'Er4 Al18 Cu1 Pd3 Ru2'
_cell_volume   471.12489009
_cell_formula_units_Z   1
loop_
 _symmetry_equiv_pos_site_id
 _symmetry_equiv_pos_as_xyz
  1  'x, y, z'
loop_
 _atom_site_type_symbol
 _atom_site_label
 _atom_site_symmetry_multiplicity
 _atom_site_fract_x
 _atom_site_fract_y
 _atom_site_fract_z
 _atom_site_occupancy
  Er  Er0  1  0.994855  0.670155  0.249422  1
  Er  Er1  1  0.003815  0.329375  0.750628  1
  Er  Er2  1  0.670625  0.996185  0.249372  1
  Er  Er3  1  0.329845  0.005145  0.750578  1
  Al  Al4  1  0.124444  0.124332  0.249973  1
  Al  Al5  1  0.875668  0.875556  0.750027  1
  Al  Al6  1  0.998878  0.330695  0.076107  1
  Al  Al7  1  0.999419  0.668868  0.923810  1
  Al  Al8  1  0.999715  0.669040  0.575933  1
  Al  Al9  1  0.330960  0.000285  0.424067  1
  Al  Al10  1  0.999930  0.330460  0.423821  1
  Al  Al11  1  0.669540  0.000070  0.576179  1
  Al  Al12  1  0.669305  0.001122  0.923893  1
  Al  Al13  1  0.331132  0.000581  0.076190  1
  Al  Al14  1  0.327937  0.327639  0.554247  1
  Al  Al15  1  0.672361  0.672063  0.445753  1
  Al  Al16  1  0.671647  0.670637  0.054751  1
  Al  Al17  1  0.329363  0.328353  0.945249  1
  Al  Al18  1  0.341961  0.548033  0.250098  1
  Al  Al19  1  0.658056  0.450891  0.750980  1
  Al  Al20  1  0.549109  0.341944  0.249020  1
  Al  Al21  1  0.451967  0.658039  0.749902  1
  Cu  Cu22  1  0.672165  0.327835  0.000000  1
  Pd  Pd23  1  0.327691  0.672309  0.000000  1
  Pd  Pd24  1  0.327635  0.672365  0.500000  1
  Pd  Pd25  1  0.672351  0.327649  0.500000  1
  Ru  Ru26  1  0.999582  0.000418  0.000000  1
  Ru  Ru27  1  0.000043  0.999957  0.500000  1
