# generated using pymatgen
data_DyHo3GeBr6
_symmetry_space_group_name_H-M   'P 1'
_cell_length_a   4.05841200
_cell_length_b   13.21812485
_cell_length_c   14.01605902
_cell_angle_alpha   90.09708779
_cell_angle_beta   90.00000000
_cell_angle_gamma   90.00000000
_symmetry_Int_Tables_number   1
_chemical_formula_structural   DyHo3GeBr6
_chemical_formula_sum   'Dy2 Ho6 Ge2 Br12'
_cell_volume   751.88475104
_cell_formula_units_Z   2
loop_
 _symmetry_equiv_pos_site_id
 _symmetry_equiv_pos_as_xyz
  1  'x, y, z'
loop_
 _atom_site_type_symbol
 _atom_site_label
 _atom_site_symmetry_multiplicity
 _atom_site_fract_x
 _atom_site_fract_y
 _atom_site_fract_z
 _atom_site_occupancy
  Dy  Dy0  1  0.000000  0.619077  0.920955  1
  Dy  Dy1  1  0.000000  0.380923  0.079045  1
  Ho  Ho2  1  0.500000  0.118222  0.340899  1
  Ho  Ho3  1  0.500000  0.881778  0.659101  1
  Ho  Ho4  1  0.500000  0.618494  0.159339  1
  Ho  Ho5  1  0.500000  0.381506  0.840661  1
  Ho  Ho6  1  0.000000  0.118106  0.578430  1
  Ho  Ho7  1  0.000000  0.881894  0.421570  1
  Ge  Ge8  1  0.500000  0.000000  0.500000  1
  Ge  Ge9  1  0.500000  0.500000  0.000000  1
  Br  Br10  1  0.500000  0.242629  0.163933  1
  Br  Br11  1  0.500000  0.757371  0.836067  1
  Br  Br12  1  0.500000  0.744821  0.337370  1
  Br  Br13  1  0.500000  0.255179  0.662630  1
  Br  Br14  1  0.000000  0.254799  0.411340  1
  Br  Br15  1  0.000000  0.745201  0.588660  1
  Br  Br16  1  0.000000  0.755330  0.089910  1
  Br  Br17  1  0.000000  0.244670  0.910090  1
  Br  Br18  1  0.000000  0.001871  0.243583  1
  Br  Br19  1  0.000000  0.998129  0.756417  1
  Br  Br20  1  0.000000  0.503184  0.257381  1
  Br  Br21  1  0.000000  0.496816  0.742619  1
