# generated using pymatgen
data_Ho5Mn2P12Ir17
_symmetry_space_group_name_H-M   'P 1'
_cell_length_a   12.62259000
_cell_length_b   12.71238226
_cell_length_c   3.96430200
_cell_angle_alpha   90.00000000
_cell_angle_beta   90.00000000
_cell_angle_gamma   119.76661937
_symmetry_Int_Tables_number   1
_chemical_formula_structural   Ho5Mn2P12Ir17
_chemical_formula_sum   'Ho5 Mn2 P12 Ir17'
_cell_volume   552.19098995
_cell_formula_units_Z   1
loop_
 _symmetry_equiv_pos_site_id
 _symmetry_equiv_pos_as_xyz
  1  'x, y, z'
loop_
 _atom_site_type_symbol
 _atom_site_label
 _atom_site_symmetry_multiplicity
 _atom_site_fract_x
 _atom_site_fract_y
 _atom_site_fract_z
 _atom_site_occupancy
  Ho  Ho0  1  0.332498  0.663681  0.500000  1
  Ho  Ho1  1  0.668816  0.336319  0.500000  1
  Ho  Ho2  1  0.999965  0.811411  0.000000  1
  Ho  Ho3  1  0.188554  0.188589  0.000000  1
  Ho  Ho4  1  0.813549  0.000000  0.000000  1
  Mn  Mn5  1  0.999663  0.457968  0.500000  1
  Mn  Mn6  1  0.541695  0.542032  0.500000  1
  P  P7  1  0.999809  0.635197  0.500000  1
  P  P8  1  0.364612  0.364803  0.500000  1
  P  P9  1  0.643824  0.000000  0.500000  1
  P  P10  1  0.515462  0.683990  0.000000  1
  P  P11  1  0.309224  0.824555  0.000000  1
  P  P12  1  0.166858  0.481332  0.000000  1
  P  P13  1  0.484669  0.175445  0.000000  1
  P  P14  1  0.685525  0.518668  0.000000  1
  P  P15  1  0.831472  0.316010  0.000000  1
  P  P16  1  0.999805  0.177877  0.500000  1
  P  P17  1  0.821928  0.822123  0.500000  1
  P  P18  1  0.178989  0.000000  0.500000  1
  Ir  Ir19  1  0.505697  0.865810  0.000000  1
  Ir  Ir20  1  0.129563  0.638367  0.000000  1
  Ir  Ir21  1  0.358429  0.491889  0.000000  1
  Ir  Ir22  1  0.491197  0.361633  0.000000  1
  Ir  Ir23  1  0.866541  0.508111  0.000000  1
  Ir  Ir24  1  0.639888  0.134190  0.000000  1
  Ir  Ir25  1  0.462278  0.000000  0.500000  1
  Ir  Ir26  1  0.998128  0.282442  0.000000  1
  Ir  Ir27  1  0.715686  0.717558  0.000000  1
  Ir  Ir28  1  0.287070  0.000000  0.000000  1
  Ir  Ir29  1  0.622277  0.804242  0.500000  1
  Ir  Ir30  1  0.198083  0.821423  0.500000  1
  Ir  Ir31  1  0.178139  0.373271  0.500000  1
  Ir  Ir32  1  0.376659  0.178577  0.500000  1
  Ir  Ir33  1  0.804868  0.626729  0.500000  1
  Ir  Ir34  1  0.818034  0.195758  0.500000  1
  Ir  Ir35  1  0.000543  0.000000  0.500000  1
