# generated using pymatgen
data_Nd4Al18(NiRh)3
_symmetry_space_group_name_H-M   'P 1'
_cell_length_a   7.55603401
_cell_length_b   7.55602702
_cell_length_c   9.51822419
_cell_angle_alpha   89.95599064
_cell_angle_beta   89.95597397
_cell_angle_gamma   119.19849025
_symmetry_Int_Tables_number   1
_chemical_formula_structural   Nd4Al18(NiRh)3
_chemical_formula_sum   'Nd4 Al18 Ni3 Rh3'
_cell_volume   474.37818416
_cell_formula_units_Z   1
loop_
 _symmetry_equiv_pos_site_id
 _symmetry_equiv_pos_as_xyz
  1  'x, y, z'
loop_
 _atom_site_type_symbol
 _atom_site_label
 _atom_site_symmetry_multiplicity
 _atom_site_fract_x
 _atom_site_fract_y
 _atom_site_fract_z
 _atom_site_occupancy
  Nd  Nd0  1  0.994697  0.672106  0.249484  1
  Nd  Nd1  1  0.004665  0.327376  0.750682  1
  Nd  Nd2  1  0.672624  0.995335  0.249318  1
  Nd  Nd3  1  0.327894  0.005305  0.750515  1
  Al  Al4  1  0.133733  0.133965  0.249814  1
  Al  Al5  1  0.866034  0.866267  0.750187  1
  Al  Al6  1  0.001032  0.337941  0.072437  1
  Al  Al7  1  0.999844  0.663659  0.927258  1
  Al  Al8  1  0.001048  0.663435  0.572492  1
  Al  Al9  1  0.336565  0.998951  0.427508  1
  Al  Al10  1  0.004469  0.337699  0.427471  1
  Al  Al11  1  0.662301  0.995531  0.572529  1
  Al  Al12  1  0.662058  0.998967  0.927564  1
  Al  Al13  1  0.336341  0.000156  0.072742  1
  Al  Al14  1  0.334768  0.335563  0.545919  1
  Al  Al15  1  0.664437  0.665232  0.454080  1
  Al  Al16  1  0.663568  0.664384  0.045999  1
  Al  Al17  1  0.335615  0.336431  0.954001  1
  Al  Al18  1  0.341855  0.552781  0.249548  1
  Al  Al19  1  0.657736  0.450176  0.752193  1
  Al  Al20  1  0.549824  0.342264  0.247807  1
  Al  Al21  1  0.447219  0.658144  0.750452  1
  Ni  Ni22  1  0.670375  0.329627  0.000000  1
  Ni  Ni23  1  0.329170  0.670830  0.999999  1
  Ni  Ni24  1  0.330109  0.669893  0.499999  1
  Rh  Rh25  1  0.671540  0.328460  0.500000  1
  Rh  Rh26  1  0.999627  0.000373  0.000001  1
  Rh  Rh27  1  0.000853  0.999147  0.500000  1
