# generated using pymatgen
data_LaFe3P12Rh
_symmetry_space_group_name_H-M   'P 1'
_cell_length_a   6.84106711
_cell_length_b   6.84106736
_cell_length_c   6.84106676
_cell_angle_alpha   109.52265509
_cell_angle_beta   109.52264564
_cell_angle_gamma   109.52265684
_symmetry_Int_Tables_number   1
_chemical_formula_structural   LaFe3P12Rh
_chemical_formula_sum   'La1 Fe3 P12 Rh1'
_cell_volume   245.99138688
_cell_formula_units_Z   1
loop_
 _symmetry_equiv_pos_site_id
 _symmetry_equiv_pos_as_xyz
  1  'x, y, z'
loop_
 _atom_site_type_symbol
 _atom_site_label
 _atom_site_symmetry_multiplicity
 _atom_site_fract_x
 _atom_site_fract_y
 _atom_site_fract_z
 _atom_site_occupancy
  La  La0  1  0.000000  0.000000  0.000000  1
  Fe  Fe1  1  0.000000  0.000000  0.500000  1
  Fe  Fe2  1  0.000000  0.500000  0.000000  1
  Fe  Fe3  1  0.500000  0.000000  0.000000  1
  P  P4  1  0.654481  0.497250  0.863552  1
  P  P5  1  0.151773  0.649550  0.800763  1
  P  P6  1  0.649550  0.800763  0.151773  1
  P  P7  1  0.136448  0.345519  0.502750  1
  P  P8  1  0.863552  0.654481  0.497250  1
  P  P9  1  0.848227  0.350450  0.199237  1
  P  P10  1  0.199237  0.848227  0.350450  1
  P  P11  1  0.800763  0.151773  0.649550  1
  P  P12  1  0.345519  0.502750  0.136448  1
  P  P13  1  0.502750  0.136448  0.345519  1
  P  P14  1  0.497250  0.863552  0.654481  1
  P  P15  1  0.350450  0.199237  0.848227  1
  Rh  Rh16  1  0.500000  0.500000  0.500000  1
