# generated using pymatgen
data_Ba2UVS6
_symmetry_space_group_name_H-M   'P 1'
_cell_length_a   7.02097556
_cell_length_b   6.99836002
_cell_length_c   12.20329316
_cell_angle_alpha   90.01120540
_cell_angle_beta   125.11367979
_cell_angle_gamma   89.99579348
_symmetry_Int_Tables_number   1
_chemical_formula_structural   Ba2UVS6
_chemical_formula_sum   'Ba4 U2 V2 S12'
_cell_volume   490.49057669
_cell_formula_units_Z   2
loop_
 _symmetry_equiv_pos_site_id
 _symmetry_equiv_pos_as_xyz
  1  'x, y, z'
loop_
 _atom_site_type_symbol
 _atom_site_label
 _atom_site_symmetry_multiplicity
 _atom_site_fract_x
 _atom_site_fract_y
 _atom_site_fract_z
 _atom_site_occupancy
  Ba  Ba0  1  0.748666  0.021947  0.251281  1
  Ba  Ba1  1  0.252535  0.522511  0.249976  1
  Ba  Ba2  1  0.747463  0.477486  0.750023  1
  Ba  Ba3  1  0.251331  0.978054  0.748718  1
  U  U4  1  0.499999  0.499997  0.000000  1
  U  U5  1  0.500000  0.000001  0.500001  1
  V  V6  1  0.000006  0.000009  0.999999  1
  V  V7  1  0.000000  0.499995  0.500003  1
  S  S8  1  0.231974  0.270788  0.018604  1
  S  S9  1  0.289199  0.786832  0.019019  1
  S  S10  1  0.795128  0.501574  0.258029  1
  S  S11  1  0.205371  0.001468  0.242279  1
  S  S12  1  0.711535  0.285352  0.480928  1
  S  S13  1  0.766733  0.769967  0.481608  1
  S  S14  1  0.233263  0.230035  0.518391  1
  S  S15  1  0.288466  0.714651  0.519073  1
  S  S16  1  0.794628  0.998532  0.757722  1
  S  S17  1  0.204874  0.498425  0.741971  1
  S  S18  1  0.710801  0.213167  0.980981  1
  S  S19  1  0.768024  0.729210  0.981395  1
