# generated using pymatgen
data_Pr3NdEr4(ReB6)4
_symmetry_space_group_name_H-M   'P 1'
_cell_length_a   3.72717000
_cell_length_b   9.24466801
_cell_length_c   11.71885402
_cell_angle_alpha   89.99411279
_cell_angle_beta   90.00000000
_cell_angle_gamma   90.00000000
_symmetry_Int_Tables_number   1
_chemical_formula_structural   Pr3NdEr4(ReB6)4
_chemical_formula_sum   'Pr3 Nd1 Er4 Re4 B24'
_cell_volume   403.79009681
_cell_formula_units_Z   1
loop_
 _symmetry_equiv_pos_site_id
 _symmetry_equiv_pos_as_xyz
  1  'x, y, z'
loop_
 _atom_site_type_symbol
 _atom_site_label
 _atom_site_symmetry_multiplicity
 _atom_site_fract_x
 _atom_site_fract_y
 _atom_site_fract_z
 _atom_site_occupancy
  Pr  Pr0  1  0.000000  0.322397  0.414379  1
  Pr  Pr1  1  0.000000  0.677551  0.585696  1
  Pr  Pr2  1  0.000000  0.822480  0.085542  1
  Nd  Nd3  1  0.000000  0.177404  0.914360  1
  Er  Er4  1  0.000000  0.942933  0.369155  1
  Er  Er5  1  0.000000  0.057135  0.630835  1
  Er  Er6  1  0.000000  0.442835  0.130559  1
  Er  Er7  1  0.000000  0.557033  0.869389  1
  Re  Re8  1  0.000000  0.639855  0.318721  1
  Re  Re9  1  0.000000  0.359899  0.681609  1
  Re  Re10  1  0.000000  0.139866  0.180945  1
  Re  Re11  1  0.000000  0.860445  0.818836  1
  B  B12  1  0.500000  0.555534  0.429774  1
  B  B13  1  0.500000  0.444342  0.570371  1
  B  B14  1  0.500000  0.055701  0.069727  1
  B  B15  1  0.500000  0.944987  0.929866  1
  B  B16  1  0.500000  0.750384  0.415239  1
  B  B17  1  0.500000  0.249605  0.584959  1
  B  B18  1  0.500000  0.250385  0.084189  1
  B  B19  1  0.500000  0.749800  0.915214  1
  B  B20  1  0.500000  0.791631  0.266040  1
  B  B21  1  0.500000  0.208130  0.734359  1
  B  B22  1  0.500000  0.291573  0.233690  1
  B  B23  1  0.500000  0.708474  0.766152  1
  B  B24  1  0.500000  0.629169  0.186237  1
  B  B25  1  0.500000  0.370443  0.814146  1
  B  B26  1  0.500000  0.129243  0.313549  1
  B  B27  1  0.500000  0.870976  0.686447  1
  B  B28  1  0.500000  0.984170  0.213399  1
  B  B29  1  0.500000  0.016434  0.786675  1
  B  B30  1  0.500000  0.484007  0.286363  1
  B  B31  1  0.500000  0.515782  0.713734  1
  B  B32  1  0.500000  0.595115  0.026186  1
  B  B33  1  0.500000  0.404226  0.973626  1
  B  B34  1  0.500000  0.095074  0.473822  1
  B  B35  1  0.500000  0.904982  0.526211  1
