# generated using pymatgen
data_Be5Co2GeMo4
_symmetry_space_group_name_H-M   'P 1'
_cell_length_a   4.63790654
_cell_length_b   4.63790624
_cell_length_c   7.27242500
_cell_angle_alpha   90.00000000
_cell_angle_beta   90.00000000
_cell_angle_gamma   120.12000294
_symmetry_Int_Tables_number   1
_chemical_formula_structural   Be5Co2GeMo4
_chemical_formula_sum   'Be5 Co2 Ge1 Mo4'
_cell_volume   135.30922542
_cell_formula_units_Z   1
loop_
 _symmetry_equiv_pos_site_id
 _symmetry_equiv_pos_as_xyz
  1  'x, y, z'
loop_
 _atom_site_type_symbol
 _atom_site_label
 _atom_site_symmetry_multiplicity
 _atom_site_fract_x
 _atom_site_fract_y
 _atom_site_fract_z
 _atom_site_occupancy
  Be  Be0  1  0.832262  0.668498  0.250000  1
  Be  Be1  1  0.331502  0.167738  0.250000  1
  Be  Be2  1  0.169245  0.830755  0.750000  1
  Be  Be3  1  0.166737  0.335727  0.750000  1
  Be  Be4  1  0.664273  0.833263  0.750000  1
  Co  Co5  1  0.005277  0.994723  0.505627  1
  Co  Co6  1  0.005277  0.994723  0.994373  1
  Ge  Ge7  1  0.828672  0.171328  0.250000  1
  Mo  Mo8  1  0.333686  0.666314  0.435262  1
  Mo  Mo9  1  0.664692  0.335308  0.576160  1
  Mo  Mo10  1  0.664692  0.335308  0.923840  1
  Mo  Mo11  1  0.333686  0.666314  0.064738  1
