# generated using pymatgen
data_DyY19(SiBi2)4
_symmetry_space_group_name_H-M   'P 1'
_cell_length_a   8.07165201
_cell_length_b   9.19181402
_cell_length_c   12.15359104
_cell_angle_alpha   90.00723873
_cell_angle_beta   89.99391641
_cell_angle_gamma   90.00277892
_symmetry_Int_Tables_number   1
_chemical_formula_structural   DyY19(SiBi2)4
_chemical_formula_sum   'Dy1 Y19 Si4 Bi8'
_cell_volume   901.71287570
_cell_formula_units_Z   1
loop_
 _symmetry_equiv_pos_site_id
 _symmetry_equiv_pos_as_xyz
  1  'x, y, z'
loop_
 _atom_site_type_symbol
 _atom_site_label
 _atom_site_symmetry_multiplicity
 _atom_site_fract_x
 _atom_site_fract_y
 _atom_site_fract_z
 _atom_site_occupancy
  Dy  Dy0  1  0.680108  0.552406  0.564095  1
  Y  Y1  1  0.819122  0.550741  0.064368  1
  Y  Y2  1  0.681049  0.949119  0.564382  1
  Y  Y3  1  0.180870  0.050748  0.935627  1
  Y  Y4  1  0.320324  0.449169  0.436094  1
  Y  Y5  1  0.180984  0.449210  0.935705  1
  Y  Y6  1  0.319002  0.050644  0.435732  1
  Y  Y7  1  0.819072  0.949212  0.064390  1
  Y  Y8  1  0.161067  0.749940  0.210628  1
  Y  Y9  1  0.338727  0.749774  0.710427  1
  Y  Y10  1  0.838648  0.249982  0.789241  1
  Y  Y11  1  0.661248  0.250032  0.289407  1
  Y  Y12  1  0.458743  0.749897  0.000432  1
  Y  Y13  1  0.040519  0.749319  0.500576  1
  Y  Y14  1  0.541314  0.250058  0.999454  1
  Y  Y15  1  0.958600  0.250476  0.499555  1
  Y  Y16  1  0.634621  0.749794  0.296050  1
  Y  Y17  1  0.865138  0.749518  0.795717  1
  Y  Y18  1  0.365421  0.249945  0.703916  1
  Y  Y19  1  0.134668  0.250155  0.204126  1
  Si  Si20  1  0.417397  0.750395  0.481234  1
  Si  Si21  1  0.082746  0.749986  0.980874  1
  Si  Si22  1  0.583686  0.250179  0.519219  1
  Si  Si23  1  0.917172  0.250004  0.018948  1
  Bi  Bi24  1  0.930374  0.510066  0.327084  1
  Bi  Bi25  1  0.569545  0.989692  0.826915  1
  Bi  Bi26  1  0.069433  0.010132  0.672819  1
  Bi  Bi27  1  0.430330  0.489716  0.173029  1
  Bi  Bi28  1  0.069294  0.489549  0.673048  1
  Bi  Bi29  1  0.430508  0.010217  0.173061  1
  Bi  Bi30  1  0.930586  0.989817  0.327147  1
  Bi  Bi31  1  0.569685  0.510112  0.826698  1
