# generated using pymatgen
data_Tb14Y2MgHg3Rh4
_symmetry_space_group_name_H-M   'P 1'
_cell_length_a   9.65715857
_cell_length_b   9.65349864
_cell_length_c   9.66430200
_cell_angle_alpha   59.96297998
_cell_angle_beta   59.97553464
_cell_angle_gamma   59.95879671
_symmetry_Int_Tables_number   1
_chemical_formula_structural   Tb14Y2MgHg3Rh4
_chemical_formula_sum   'Tb14 Y2 Mg1 Hg3 Rh4'
_cell_volume   636.57903411
_cell_formula_units_Z   1
loop_
 _symmetry_equiv_pos_site_id
 _symmetry_equiv_pos_as_xyz
  1  'x, y, z'
loop_
 _atom_site_type_symbol
 _atom_site_label
 _atom_site_symmetry_multiplicity
 _atom_site_fract_x
 _atom_site_fract_y
 _atom_site_fract_z
 _atom_site_occupancy
  Tb  Tb0  1  0.600524  0.598438  0.597126  1
  Tb  Tb1  1  0.600524  0.598438  0.203914  1
  Tb  Tb2  1  0.601584  0.202192  0.598113  1
  Tb  Tb3  1  0.191379  0.603734  0.602444  1
  Tb  Tb4  1  0.057987  0.440513  0.441753  1
  Tb  Tb5  1  0.436427  0.061460  0.062415  1
  Tb  Tb6  1  0.436427  0.061460  0.439696  1
  Tb  Tb7  1  0.057987  0.440513  0.059749  1
  Tb  Tb8  1  0.436995  0.439033  0.061985  1
  Tb  Tb9  1  0.058531  0.059443  0.441014  1
  Tb  Tb10  1  0.186747  0.812818  0.813089  1
  Tb  Tb11  1  0.812108  0.187355  0.186250  1
  Tb  Tb12  1  0.812108  0.187355  0.814286  1
  Tb  Tb13  1  0.186747  0.812818  0.187346  1
  Y  Y14  1  0.812526  0.814501  0.186487  1
  Y  Y15  1  0.186050  0.187679  0.813136  1
  Mg  Mg16  1  0.533700  0.821810  0.822245  1
  Hg  Hg17  1  0.832058  0.837154  0.837579  1
  Hg  Hg18  1  0.832058  0.837154  0.493208  1
  Hg  Hg19  1  0.832665  0.492263  0.837535  1
  Rh  Rh20  1  0.390212  0.394014  0.392949  1
  Rh  Rh21  1  0.390212  0.394014  0.822827  1
  Rh  Rh22  1  0.391303  0.822563  0.393067  1
  Rh  Rh23  1  0.823141  0.393283  0.391788  1
