# generated using pymatgen
data_Ce3Sm(GaIr)4
_symmetry_space_group_name_H-M   'P 1'
_cell_length_a   4.37962000
_cell_length_b   6.88169340
_cell_length_c   7.90149038
_cell_angle_alpha   90.15639757
_cell_angle_beta   90.00000000
_cell_angle_gamma   90.00000000
_symmetry_Int_Tables_number   1
_chemical_formula_structural   Ce3Sm(GaIr)4
_chemical_formula_sum   'Ce3 Sm1 Ga4 Ir4'
_cell_volume   238.14372754
_cell_formula_units_Z   1
loop_
 _symmetry_equiv_pos_site_id
 _symmetry_equiv_pos_as_xyz
  1  'x, y, z'
loop_
 _atom_site_type_symbol
 _atom_site_label
 _atom_site_symmetry_multiplicity
 _atom_site_fract_x
 _atom_site_fract_y
 _atom_site_fract_z
 _atom_site_occupancy
  Ce  Ce0  1  0.750000  0.468841  0.814283  1
  Ce  Ce1  1  0.750000  0.968548  0.689195  1
  Ce  Ce2  1  0.250000  0.032121  0.310660  1
  Sm  Sm3  1  0.250000  0.531211  0.191313  1
  Ga  Ga4  1  0.250000  0.648922  0.564871  1
  Ga  Ga5  1  0.750000  0.352315  0.431797  1
  Ga  Ga6  1  0.750000  0.846704  0.068488  1
  Ga  Ga7  1  0.250000  0.150988  0.934063  1
  Ir  Ir8  1  0.250000  0.762996  0.881868  1
  Ir  Ir9  1  0.750000  0.232257  0.109812  1
  Ir  Ir10  1  0.750000  0.743773  0.392896  1
  Ir  Ir11  1  0.250000  0.261323  0.610752  1
