# generated using pymatgen
data_Hf4GaSi3W4
_symmetry_space_group_name_H-M   'P 1'
_cell_length_a   3.50995200
_cell_length_b   6.97690003
_cell_length_c   8.28261008
_cell_angle_alpha   89.56660443
_cell_angle_beta   90.00000000
_cell_angle_gamma   90.00000000
_symmetry_Int_Tables_number   1
_chemical_formula_structural   Hf4GaSi3W4
_chemical_formula_sum   'Hf4 Ga1 Si3 W4'
_cell_volume   202.82359194
_cell_formula_units_Z   1
loop_
 _symmetry_equiv_pos_site_id
 _symmetry_equiv_pos_as_xyz
  1  'x, y, z'
loop_
 _atom_site_type_symbol
 _atom_site_label
 _atom_site_symmetry_multiplicity
 _atom_site_fract_x
 _atom_site_fract_y
 _atom_site_fract_z
 _atom_site_occupancy
  Hf  Hf0  1  0.250000  0.544131  0.169141  1
  Hf  Hf1  1  0.250000  0.042466  0.332263  1
  Hf  Hf2  1  0.750000  0.450736  0.833249  1
  Hf  Hf3  1  0.750000  0.958007  0.661469  1
  Ga  Ga4  1  0.250000  0.753946  0.859745  1
  Si  Si5  1  0.250000  0.256321  0.639933  1
  Si  Si6  1  0.750000  0.246501  0.140320  1
  Si  Si7  1  0.750000  0.743337  0.360406  1
  W  W8  1  0.250000  0.630947  0.557619  1
  W  W9  1  0.250000  0.134647  0.940924  1
  W  W10  1  0.750000  0.366143  0.438098  1
  W  W11  1  0.750000  0.872817  0.066833  1
