# generated using pymatgen
data_SrIn6IrAu3
_symmetry_space_group_name_H-M   'P 1'
_cell_length_a   8.30884600
_cell_length_b   8.30884675
_cell_length_c   4.25424300
_cell_angle_alpha   90.00000000
_cell_angle_beta   90.00000000
_cell_angle_gamma   120.00000498
_symmetry_Int_Tables_number   1
_chemical_formula_structural   SrIn6IrAu3
_chemical_formula_sum   'Sr1 In6 Ir1 Au3'
_cell_volume   254.35153403
_cell_formula_units_Z   1
loop_
 _symmetry_equiv_pos_site_id
 _symmetry_equiv_pos_as_xyz
  1  'x, y, z'
loop_
 _atom_site_type_symbol
 _atom_site_label
 _atom_site_symmetry_multiplicity
 _atom_site_fract_x
 _atom_site_fract_y
 _atom_site_fract_z
 _atom_site_occupancy
  Sr  Sr0  1  0.000000  0.000000  0.000000  1
  In  In1  1  0.943770  0.471886  0.000000  1
  In  In2  1  0.200813  0.799187  0.500000  1
  In  In3  1  0.528114  0.056230  0.000000  1
  In  In4  1  0.528114  0.471886  0.000000  1
  In  In5  1  0.200813  0.401626  0.500000  1
  In  In6  1  0.598374  0.799187  0.500000  1
  Ir  Ir7  1  0.333333  0.666667  0.000000  1
  Au  Au8  1  0.392604  0.196302  0.500000  1
  Au  Au9  1  0.803698  0.196302  0.500000  1
  Au  Au10  1  0.803698  0.607396  0.500000  1
