# generated using pymatgen
data_Er8InHg2Au
_symmetry_space_group_name_H-M   'P 1'
_cell_length_a   10.33726000
_cell_length_b   10.36703442
_cell_length_c   6.93151230
_cell_angle_alpha   89.96999721
_cell_angle_beta   90.00000000
_cell_angle_gamma   119.90503309
_symmetry_Int_Tables_number   1
_chemical_formula_structural   Er8InHg2Au
_chemical_formula_sum   'Er16 In2 Hg4 Au2'
_cell_volume   643.92210422
_cell_formula_units_Z   2
loop_
 _symmetry_equiv_pos_site_id
 _symmetry_equiv_pos_as_xyz
  1  'x, y, z'
loop_
 _atom_site_type_symbol
 _atom_site_label
 _atom_site_symmetry_multiplicity
 _atom_site_fract_x
 _atom_site_fract_y
 _atom_site_fract_z
 _atom_site_occupancy
  Er  Er0  1  0.527018  0.054038  0.797641  1
  Er  Er1  1  0.943359  0.474573  0.801693  1
  Er  Er2  1  0.531213  0.474573  0.801693  1
  Er  Er3  1  0.473330  0.946659  0.297245  1
  Er  Er4  1  0.057509  0.524877  0.298219  1
  Er  Er5  1  0.467369  0.524877  0.298219  1
  Er  Er6  1  0.827270  0.654541  0.492611  1
  Er  Er7  1  0.342200  0.176276  0.499189  1
  Er  Er8  1  0.834077  0.176276  0.499189  1
  Er  Er9  1  0.167901  0.335802  0.994260  1
  Er  Er10  1  0.663105  0.832105  0.010778  1
  Er  Er11  1  0.169000  0.832105  0.010778  1
  Er  Er12  1  0.665850  0.331699  0.153464  1
  Er  Er13  1  0.330532  0.661065  0.655847  1
  Er  Er14  1  0.998356  0.996712  0.774771  1
  Er  Er15  1  0.000970  0.001941  0.277321  1
  In  In16  1  0.670537  0.836132  0.538295  1
  In  In17  1  0.165597  0.836132  0.538295  1
  Hg  Hg18  1  0.834480  0.668962  0.043345  1
  Hg  Hg19  1  0.331668  0.165557  0.043124  1
  Hg  Hg20  1  0.833887  0.165557  0.043124  1
  Hg  Hg21  1  0.165200  0.330398  0.543013  1
  Au  Au22  1  0.666214  0.332427  0.562004  1
  Au  Au23  1  0.333359  0.666719  0.061797  1
