# generated using pymatgen
data_Nb13Co8Os3(CN)2
_symmetry_space_group_name_H-M   'P 1'
_cell_length_a   8.20160482
_cell_length_b   8.15235453
_cell_length_c   8.20167094
_cell_angle_alpha   59.70604796
_cell_angle_beta   59.93407694
_cell_angle_gamma   59.70610581
_symmetry_Int_Tables_number   1
_chemical_formula_structural   Nb13Co8Os3(CN)2
_chemical_formula_sum   'Nb13 Co8 Os3 C2 N2'
_cell_volume   385.84295433
_cell_formula_units_Z   1
loop_
 _symmetry_equiv_pos_site_id
 _symmetry_equiv_pos_as_xyz
  1  'x, y, z'
loop_
 _atom_site_type_symbol
 _atom_site_label
 _atom_site_symmetry_multiplicity
 _atom_site_fract_x
 _atom_site_fract_y
 _atom_site_fract_z
 _atom_site_occupancy
  Nb  Nb0  1  0.625000  0.125000  0.625000  1
  Nb  Nb1  1  0.805358  0.804691  0.195443  1
  Nb  Nb2  1  0.185851  0.193869  0.809608  1
  Nb  Nb3  1  0.810628  0.193740  0.810639  1
  Nb  Nb4  1  0.195683  0.803915  0.195678  1
  Nb  Nb5  1  0.195438  0.804694  0.805373  1
  Nb  Nb6  1  0.809602  0.193872  0.185854  1
  Nb  Nb7  1  0.444642  0.445309  0.054557  1
  Nb  Nb8  1  0.064149  0.056131  0.440392  1
  Nb  Nb9  1  0.439372  0.056260  0.439361  1
  Nb  Nb10  1  0.054317  0.446085  0.054322  1
  Nb  Nb11  1  0.054562  0.445306  0.444627  1
  Nb  Nb12  1  0.440398  0.056128  0.064146  1
  Co  Co13  1  0.735097  0.424904  0.420116  1
  Co  Co14  1  0.424681  0.726016  0.424684  1
  Co  Co15  1  0.420115  0.424910  0.735094  1
  Co  Co16  1  0.420178  0.424689  0.420178  1
  Co  Co17  1  0.514903  0.825096  0.829884  1
  Co  Co18  1  0.825319  0.523984  0.825316  1
  Co  Co19  1  0.829885  0.825090  0.514906  1
  Co  Co20  1  0.829822  0.825311  0.829822  1
  Os  Os21  1  0.125000  0.625000  0.625000  1
  Os  Os22  1  0.625000  0.625000  0.125000  1
  Os  Os23  1  0.625000  0.625000  0.625000  1
  C  C24  1  0.125000  0.625000  0.125000  1
  C  C25  1  0.125000  0.125000  0.125000  1
  N  N26  1  0.625000  0.125000  0.125000  1
  N  N27  1  0.125000  0.125000  0.625000  1
