# generated using pymatgen
data_Tb9Ho(Bi2Rh)2
_symmetry_space_group_name_H-M   'P 1'
_cell_length_a   8.04173521
_cell_length_b   9.01687549
_cell_length_c   12.54914243
_cell_angle_alpha   90.01505248
_cell_angle_beta   89.94740065
_cell_angle_gamma   89.96531834
_symmetry_Int_Tables_number   1
_chemical_formula_structural   Tb9Ho(Bi2Rh)2
_chemical_formula_sum   'Tb18 Ho2 Bi8 Rh4'
_cell_volume   909.95436570
_cell_formula_units_Z   2
loop_
 _symmetry_equiv_pos_site_id
 _symmetry_equiv_pos_as_xyz
  1  'x, y, z'
loop_
 _atom_site_type_symbol
 _atom_site_label
 _atom_site_symmetry_multiplicity
 _atom_site_fract_x
 _atom_site_fract_y
 _atom_site_fract_z
 _atom_site_occupancy
  Tb  Tb0  1  0.840115  0.749885  0.793951  1
  Tb  Tb1  1  0.159885  0.250115  0.206049  1
  Tb  Tb2  1  0.339868  0.250058  0.706231  1
  Tb  Tb3  1  0.660132  0.749942  0.293769  1
  Tb  Tb4  1  0.374394  0.749983  0.691135  1
  Tb  Tb5  1  0.625606  0.250017  0.308865  1
  Tb  Tb6  1  0.874547  0.250207  0.809118  1
  Tb  Tb7  1  0.125453  0.749793  0.190882  1
  Tb  Tb8  1  0.953325  0.749997  0.501653  1
  Tb  Tb9  1  0.046675  0.250003  0.498347  1
  Tb  Tb10  1  0.453213  0.250175  0.998319  1
  Tb  Tb11  1  0.546787  0.749825  0.001681  1
  Tb  Tb12  1  0.678053  0.041963  0.566646  1
  Tb  Tb13  1  0.321947  0.958037  0.433354  1
  Tb  Tb14  1  0.177960  0.958068  0.933354  1
  Tb  Tb15  1  0.321938  0.541997  0.433327  1
  Tb  Tb16  1  0.822040  0.041932  0.066646  1
  Tb  Tb17  1  0.678062  0.458003  0.566673  1
  Ho  Ho18  1  0.823065  0.457989  0.066417  1
  Ho  Ho19  1  0.176935  0.542011  0.933583  1
  Bi  Bi20  1  0.566629  0.492157  0.825977  1
  Bi  Bi21  1  0.433371  0.507843  0.174023  1
  Bi  Bi22  1  0.067071  0.507869  0.674241  1
  Bi  Bi23  1  0.433009  0.992145  0.174114  1
  Bi  Bi24  1  0.932929  0.492131  0.325759  1
  Bi  Bi25  1  0.566991  0.007855  0.825886  1
  Bi  Bi26  1  0.933023  0.007851  0.325865  1
  Bi  Bi27  1  0.066977  0.992149  0.674135  1
  Rh  Rh28  1  0.572083  0.750008  0.509159  1
  Rh  Rh29  1  0.427917  0.249992  0.490841  1
  Rh  Rh30  1  0.071879  0.250680  0.990956  1
  Rh  Rh31  1  0.928121  0.749320  0.009044  1
