# generated using pymatgen
data_Th2Co2P4RuRh
_symmetry_space_group_name_H-M   'P 1'
_cell_length_a   4.09468500
_cell_length_b   4.09468500
_cell_length_c   9.30851700
_cell_angle_alpha   90.00000000
_cell_angle_beta   90.00000000
_cell_angle_gamma   90.00000000
_symmetry_Int_Tables_number   1
_chemical_formula_structural   Th2Co2P4RuRh
_chemical_formula_sum   'Th2 Co2 P4 Ru1 Rh1'
_cell_volume   156.07074063
_cell_formula_units_Z   1
loop_
 _symmetry_equiv_pos_site_id
 _symmetry_equiv_pos_as_xyz
  1  'x, y, z'
loop_
 _atom_site_type_symbol
 _atom_site_label
 _atom_site_symmetry_multiplicity
 _atom_site_fract_x
 _atom_site_fract_y
 _atom_site_fract_z
 _atom_site_occupancy
  Th  Th0  1  0.000000  0.500000  0.260518  1
  Th  Th1  1  0.500000  0.000000  0.739482  1
  Co  Co2  1  0.000000  0.500000  0.605411  1
  Co  Co3  1  0.500000  0.000000  0.394589  1
  P  P4  1  0.000000  0.000000  0.500000  1
  P  P5  1  0.500000  0.500000  0.500000  1
  P  P6  1  0.000000  0.500000  0.854342  1
  P  P7  1  0.500000  0.000000  0.145658  1
  Ru  Ru8  1  0.000000  0.000000  0.000000  1
  Rh  Rh9  1  0.500000  0.500000  0.000000  1
