# generated using pymatgen
data_Nb12Al8C3N
_symmetry_space_group_name_H-M   'P 1'
_cell_length_a   7.11989745
_cell_length_b   7.11989745
_cell_length_c   7.11989745
_cell_angle_alpha   89.92022376
_cell_angle_beta   89.92022376
_cell_angle_gamma   89.92022376
_symmetry_Int_Tables_number   1
_chemical_formula_structural   Nb12Al8C3N
_chemical_formula_sum   'Nb12 Al8 C3 N1'
_cell_volume   360.92748324
_cell_formula_units_Z   1
loop_
 _symmetry_equiv_pos_site_id
 _symmetry_equiv_pos_as_xyz
  1  'x, y, z'
loop_
 _atom_site_type_symbol
 _atom_site_label
 _atom_site_symmetry_multiplicity
 _atom_site_fract_x
 _atom_site_fract_y
 _atom_site_fract_z
 _atom_site_occupancy
  Nb  Nb0  1  0.794935  0.955065  0.375000  1
  Nb  Nb1  1  0.704689  0.045311  0.875000  1
  Nb  Nb2  1  0.205949  0.454860  0.126230  1
  Nb  Nb3  1  0.295140  0.544051  0.623770  1
  Nb  Nb4  1  0.955065  0.375000  0.794935  1
  Nb  Nb5  1  0.045311  0.875000  0.704689  1
  Nb  Nb6  1  0.454860  0.126230  0.205949  1
  Nb  Nb7  1  0.544051  0.623770  0.295140  1
  Nb  Nb8  1  0.375000  0.794935  0.955065  1
  Nb  Nb9  1  0.875000  0.704689  0.045311  1
  Nb  Nb10  1  0.126230  0.205949  0.454860  1
  Nb  Nb11  1  0.623770  0.295140  0.544051  1
  Al  Al12  1  0.179237  0.820788  0.320369  1
  Al  Al13  1  0.320369  0.179237  0.820788  1
  Al  Al14  1  0.820788  0.320369  0.179237  1
  Al  Al15  1  0.679467  0.679467  0.679467  1
  Al  Al16  1  0.570763  0.429631  0.929212  1
  Al  Al17  1  0.429631  0.929212  0.570763  1
  Al  Al18  1  0.929212  0.570763  0.429631  1
  Al  Al19  1  0.070533  0.070533  0.070533  1
  C  C20  1  0.875000  0.125707  0.624293  1
  C  C21  1  0.624293  0.875000  0.125707  1
  C  C22  1  0.125707  0.624293  0.875000  1
  N  N23  1  0.375000  0.375000  0.375000  1
