# generated using pymatgen
data_Tb4Zn4Pd2RuRh
_symmetry_space_group_name_H-M   'P 1'
_cell_length_a   4.04159000
_cell_length_b   7.10607265
_cell_length_c   8.20918305
_cell_angle_alpha   89.80744371
_cell_angle_beta   90.00000000
_cell_angle_gamma   90.00000000
_symmetry_Int_Tables_number   1
_chemical_formula_structural   Tb4Zn4Pd2RuRh
_chemical_formula_sum   'Tb4 Zn4 Pd2 Ru1 Rh1'
_cell_volume   235.76502782
_cell_formula_units_Z   1
loop_
 _symmetry_equiv_pos_site_id
 _symmetry_equiv_pos_as_xyz
  1  'x, y, z'
loop_
 _atom_site_type_symbol
 _atom_site_label
 _atom_site_symmetry_multiplicity
 _atom_site_fract_x
 _atom_site_fract_y
 _atom_site_fract_z
 _atom_site_occupancy
  Tb  Tb0  1  0.250000  0.536534  0.180660  1
  Tb  Tb1  1  0.750000  0.458768  0.821060  1
  Tb  Tb2  1  0.250000  0.049007  0.304916  1
  Tb  Tb3  1  0.750000  0.952802  0.693052  1
  Zn  Zn4  1  0.250000  0.135516  0.938530  1
  Zn  Zn5  1  0.750000  0.867072  0.062539  1
  Zn  Zn6  1  0.250000  0.637920  0.567553  1
  Zn  Zn7  1  0.750000  0.361699  0.431058  1
  Pd  Pd8  1  0.750000  0.745074  0.381013  1
  Pd  Pd9  1  0.250000  0.254525  0.620018  1
  Ru  Ru10  1  0.750000  0.248393  0.121480  1
  Rh  Rh11  1  0.250000  0.752691  0.878122  1
