# generated using pymatgen
data_Tb6MnCo16NiP12
_symmetry_space_group_name_H-M   'P 1'
_cell_length_a   3.71208000
_cell_length_b   10.53766500
_cell_length_c   12.23362500
_cell_angle_alpha   90.00000000
_cell_angle_beta   90.00000000
_cell_angle_gamma   90.00000000
_symmetry_Int_Tables_number   1
_chemical_formula_structural   Tb6MnCo16NiP12
_chemical_formula_sum   'Tb6 Mn1 Co16 Ni1 P12'
_cell_volume   478.53849456
_cell_formula_units_Z   1
loop_
 _symmetry_equiv_pos_site_id
 _symmetry_equiv_pos_as_xyz
  1  'x, y, z'
loop_
 _atom_site_type_symbol
 _atom_site_label
 _atom_site_symmetry_multiplicity
 _atom_site_fract_x
 _atom_site_fract_y
 _atom_site_fract_z
 _atom_site_occupancy
  Tb  Tb0  1  0.000000  0.500000  0.521248  1
  Tb  Tb1  1  0.500000  0.000000  0.478235  1
  Tb  Tb2  1  0.500000  0.817852  0.206183  1
  Tb  Tb3  1  0.500000  0.182148  0.206183  1
  Tb  Tb4  1  0.000000  0.684536  0.795793  1
  Tb  Tb5  1  0.000000  0.315464  0.795793  1
  Mn  Mn6  1  0.500000  0.500000  0.158953  1
  Co  Co7  1  0.000000  0.000000  0.840440  1
  Co  Co8  1  0.000000  0.000000  0.296490  1
  Co  Co9  1  0.000000  0.500000  0.986226  1
  Co  Co10  1  0.500000  0.000000  0.014140  1
  Co  Co11  1  0.500000  0.333191  0.994268  1
  Co  Co12  1  0.500000  0.666809  0.994268  1
  Co  Co13  1  0.000000  0.166303  0.005186  1
  Co  Co14  1  0.000000  0.833697  0.005186  1
  Co  Co15  1  0.500000  0.297493  0.430037  1
  Co  Co16  1  0.500000  0.702507  0.430037  1
  Co  Co17  1  0.000000  0.202761  0.568972  1
  Co  Co18  1  0.000000  0.797239  0.568972  1
  Co  Co19  1  0.500000  0.879519  0.709668  1
  Co  Co20  1  0.500000  0.120481  0.709668  1
  Co  Co21  1  0.000000  0.620130  0.290069  1
  Co  Co22  1  0.000000  0.379870  0.290069  1
  Ni  Ni23  1  0.500000  0.500000  0.702951  1
  P  P24  1  0.500000  0.500000  0.883981  1
  P  P25  1  0.000000  0.000000  0.116876  1
  P  P26  1  0.500000  0.500000  0.345007  1
  P  P27  1  0.000000  0.000000  0.657238  1
  P  P28  1  0.500000  0.308984  0.615063  1
  P  P29  1  0.500000  0.691016  0.615063  1
  P  P30  1  0.000000  0.189276  0.384404  1
  P  P31  1  0.000000  0.810724  0.384404  1
  P  P32  1  0.500000  0.848747  0.893571  1
  P  P33  1  0.500000  0.151253  0.893571  1
  P  P34  1  0.000000  0.653334  0.105892  1
  P  P35  1  0.000000  0.346666  0.105892  1
