# generated using pymatgen
data_CeNpSe6
_symmetry_space_group_name_H-M   'P 1'
_cell_length_a   4.10604800
_cell_length_b   5.75772811
_cell_length_c   9.64098601
_cell_angle_alpha   82.64767333
_cell_angle_beta   90.00000000
_cell_angle_gamma   90.00000000
_symmetry_Int_Tables_number   1
_chemical_formula_structural   CeNpSe6
_chemical_formula_sum   'Ce1 Np1 Se6'
_cell_volume   226.05342477
_cell_formula_units_Z   1
loop_
 _symmetry_equiv_pos_site_id
 _symmetry_equiv_pos_as_xyz
  1  'x, y, z'
loop_
 _atom_site_type_symbol
 _atom_site_label
 _atom_site_symmetry_multiplicity
 _atom_site_fract_x
 _atom_site_fract_y
 _atom_site_fract_z
 _atom_site_occupancy
  Ce  Ce0  1  0.250000  0.718727  0.147742  1
  Np  Np1  1  0.750000  0.281757  0.852326  1
  Se  Se2  1  0.250000  0.529916  0.679995  1
  Se  Se3  1  0.750000  0.468400  0.324266  1
  Se  Se4  1  0.250000  0.235970  0.062482  1
  Se  Se5  1  0.750000  0.766900  0.927793  1
  Se  Se6  1  0.250000  0.122819  0.670658  1
  Se  Se7  1  0.750000  0.875511  0.334738  1
