# generated using pymatgen
data_Pa2Ga3Mo
_symmetry_space_group_name_H-M   'P 1'
_cell_length_a   5.35388900
_cell_length_b   5.35389022
_cell_length_c   9.28744800
_cell_angle_alpha   90.00000000
_cell_angle_beta   90.00000000
_cell_angle_gamma   119.99999866
_symmetry_Int_Tables_number   1
_chemical_formula_structural   Pa2Ga3Mo
_chemical_formula_sum   'Pa4 Ga6 Mo2'
_cell_volume   230.55038792
_cell_formula_units_Z   2
loop_
 _symmetry_equiv_pos_site_id
 _symmetry_equiv_pos_as_xyz
  1  'x, y, z'
loop_
 _atom_site_type_symbol
 _atom_site_label
 _atom_site_symmetry_multiplicity
 _atom_site_fract_x
 _atom_site_fract_y
 _atom_site_fract_z
 _atom_site_occupancy
  Pa  Pa0  1  0.666665  0.333332  0.042802  1
  Pa  Pa1  1  0.666665  0.333332  0.457198  1
  Pa  Pa2  1  0.333333  0.666667  0.542801  1
  Pa  Pa3  1  0.333333  0.666667  0.957199  1
  Ga  Ga4  1  0.166416  0.332831  0.250000  1
  Ga  Ga5  1  0.166416  0.833584  0.250000  1
  Ga  Ga6  1  0.667169  0.833584  0.250000  1
  Ga  Ga7  1  0.332831  0.166417  0.750000  1
  Ga  Ga8  1  0.833585  0.166417  0.750000  1
  Ga  Ga9  1  0.833583  0.667168  0.750000  1
  Mo  Mo10  1  0.000000  0.000000  0.000000  1
  Mo  Mo11  1  0.000000  0.000000  0.500000  1
