# generated using pymatgen
data_Zr16Pt8C3O
_symmetry_space_group_name_H-M   'P 1'
_cell_length_a   8.93937129
_cell_length_b   8.91976068
_cell_length_c   8.93937100
_cell_angle_alpha   59.92725039
_cell_angle_beta   60.00000476
_cell_angle_gamma   59.92724451
_symmetry_Int_Tables_number   1
_chemical_formula_structural   Zr16Pt8C3O
_chemical_formula_sum   'Zr16 Pt8 C3 O1'
_cell_volume   503.47012701
_cell_formula_units_Z   1
loop_
 _symmetry_equiv_pos_site_id
 _symmetry_equiv_pos_as_xyz
  1  'x, y, z'
loop_
 _atom_site_type_symbol
 _atom_site_label
 _atom_site_symmetry_multiplicity
 _atom_site_fract_x
 _atom_site_fract_y
 _atom_site_fract_z
 _atom_site_occupancy
  Zr  Zr0  1  0.125000  0.625000  0.625000  1
  Zr  Zr1  1  0.625000  0.125000  0.625000  1
  Zr  Zr2  1  0.625000  0.625000  0.125000  1
  Zr  Zr3  1  0.625000  0.625000  0.625000  1
  Zr  Zr4  1  0.812953  0.821307  0.182870  1
  Zr  Zr5  1  0.183071  0.182504  0.817213  1
  Zr  Zr6  1  0.817213  0.182504  0.817213  1
  Zr  Zr7  1  0.182870  0.821307  0.182870  1
  Zr  Zr8  1  0.182870  0.821307  0.812953  1
  Zr  Zr9  1  0.817213  0.182504  0.183071  1
  Zr  Zr10  1  0.437047  0.428693  0.067130  1
  Zr  Zr11  1  0.066929  0.067496  0.432787  1
  Zr  Zr12  1  0.432787  0.067496  0.432787  1
  Zr  Zr13  1  0.067130  0.428693  0.067130  1
  Zr  Zr14  1  0.067130  0.428693  0.437047  1
  Zr  Zr15  1  0.432787  0.067496  0.066929  1
  Pt  Pt16  1  0.777683  0.409713  0.406302  1
  Pt  Pt17  1  0.407541  0.777377  0.407541  1
  Pt  Pt18  1  0.406302  0.409713  0.777683  1
  Pt  Pt19  1  0.406302  0.409713  0.406302  1
  Pt  Pt20  1  0.472317  0.840287  0.843698  1
  Pt  Pt21  1  0.842459  0.472623  0.842459  1
  Pt  Pt22  1  0.843698  0.840287  0.472317  1
  Pt  Pt23  1  0.843698  0.840287  0.843698  1
  C  C24  1  0.625000  0.125000  0.125000  1
  C  C25  1  0.125000  0.125000  0.625000  1
  C  C26  1  0.125000  0.125000  0.125000  1
  O  O27  1  0.125000  0.625000  0.125000  1
