# generated using pymatgen
data_Eu4AlAg3Au4
_symmetry_space_group_name_H-M   'P 1'
_cell_length_a   4.60356800
_cell_length_b   7.45238814
_cell_length_c   8.38688976
_cell_angle_alpha   88.78936820
_cell_angle_beta   90.00000000
_cell_angle_gamma   90.00000000
_symmetry_Int_Tables_number   1
_chemical_formula_structural   Eu4AlAg3Au4
_chemical_formula_sum   'Eu4 Al1 Ag3 Au4'
_cell_volume   287.66962643
_cell_formula_units_Z   1
loop_
 _symmetry_equiv_pos_site_id
 _symmetry_equiv_pos_as_xyz
  1  'x, y, z'
loop_
 _atom_site_type_symbol
 _atom_site_label
 _atom_site_symmetry_multiplicity
 _atom_site_fract_x
 _atom_site_fract_y
 _atom_site_fract_z
 _atom_site_occupancy
  Eu  Eu0  1  0.250000  0.007302  0.299774  1
  Eu  Eu1  1  0.250000  0.516399  0.193492  1
  Eu  Eu2  1  0.750000  0.985087  0.695565  1
  Eu  Eu3  1  0.750000  0.483028  0.805826  1
  Al  Al4  1  0.750000  0.332918  0.432372  1
  Ag  Ag5  1  0.250000  0.175508  0.922586  1
  Ag  Ag6  1  0.250000  0.672401  0.577305  1
  Ag  Ag7  1  0.750000  0.839611  0.076209  1
  Au  Au8  1  0.250000  0.278766  0.580282  1
  Au  Au9  1  0.250000  0.777367  0.893853  1
  Au  Au10  1  0.750000  0.698325  0.393704  1
  Au  Au11  1  0.750000  0.233290  0.129032  1
