# generated using pymatgen
data_Ho2LuMg3Ga2Ag
_symmetry_space_group_name_H-M   'P 1'
_cell_length_a   7.34683500
_cell_length_b   7.33379959
_cell_length_c   4.31507800
_cell_angle_alpha   90.00000000
_cell_angle_beta   90.00000000
_cell_angle_gamma   120.05881930
_symmetry_Int_Tables_number   1
_chemical_formula_structural   Ho2LuMg3Ga2Ag
_chemical_formula_sum   'Ho2 Lu1 Mg3 Ga2 Ag1'
_cell_volume   201.22915046
_cell_formula_units_Z   1
loop_
 _symmetry_equiv_pos_site_id
 _symmetry_equiv_pos_as_xyz
  1  'x, y, z'
loop_
 _atom_site_type_symbol
 _atom_site_label
 _atom_site_symmetry_multiplicity
 _atom_site_fract_x
 _atom_site_fract_y
 _atom_site_fract_z
 _atom_site_occupancy
  Ho  Ho0  1  0.000155  0.575687  0.000000  1
  Ho  Ho1  1  0.424468  0.424313  0.000000  1
  Lu  Lu2  1  0.576223  0.000000  0.000000  1
  Mg  Mg3  1  0.247435  0.000000  0.500000  1
  Mg  Mg4  1  0.999596  0.246622  0.500000  1
  Mg  Mg5  1  0.752975  0.753378  0.500000  1
  Ga  Ga6  1  0.334039  0.667736  0.500000  1
  Ga  Ga7  1  0.666304  0.332264  0.500000  1
  Ag  Ag8  1  0.998805  0.000000  0.000000  1
