# generated using pymatgen
data_CaLaYTh(Ga3Ir)6
_symmetry_space_group_name_H-M   'P 1'
_cell_length_a   7.65766500
_cell_length_b   7.65133045
_cell_length_c   9.53790700
_cell_angle_alpha   90.00000000
_cell_angle_beta   90.00000000
_cell_angle_gamma   119.81577587
_symmetry_Int_Tables_number   1
_chemical_formula_structural   CaLaYTh(Ga3Ir)6
_chemical_formula_sum   'Ca1 La1 Y1 Th1 Ga18 Ir6'
_cell_volume   484.86435382
_cell_formula_units_Z   1
loop_
 _symmetry_equiv_pos_site_id
 _symmetry_equiv_pos_as_xyz
  1  'x, y, z'
loop_
 _atom_site_type_symbol
 _atom_site_label
 _atom_site_symmetry_multiplicity
 _atom_site_fract_x
 _atom_site_fract_y
 _atom_site_fract_z
 _atom_site_occupancy
  Ca  Ca0  1  0.001899  0.330958  0.750000  1
  La  La1  1  0.669884  0.997163  0.250000  1
  Y  Y2  1  0.330861  0.001463  0.750000  1
  Th  Th3  1  0.996989  0.668968  0.250000  1
  Ga  Ga4  1  0.132969  0.132975  0.250000  1
  Ga  Ga5  1  0.874029  0.874828  0.750000  1
  Ga  Ga6  1  0.003521  0.333125  0.073995  1
  Ga  Ga7  1  0.000798  0.664532  0.914649  1
  Ga  Ga8  1  0.000798  0.664532  0.585351  1
  Ga  Ga9  1  0.336747  0.004918  0.425192  1
  Ga  Ga10  1  0.003521  0.333125  0.426005  1
  Ga  Ga11  1  0.665956  0.001446  0.583885  1
  Ga  Ga12  1  0.665956  0.001446  0.916115  1
  Ga  Ga13  1  0.336747  0.004918  0.074808  1
  Ga  Ga14  1  0.330470  0.331097  0.566161  1
  Ga  Ga15  1  0.662948  0.664862  0.444513  1
  Ga  Ga16  1  0.662948  0.664862  0.055487  1
  Ga  Ga17  1  0.330470  0.331097  0.933839  1
  Ga  Ga18  1  0.339075  0.542558  0.250000  1
  Ga  Ga19  1  0.659255  0.451655  0.750000  1
  Ga  Ga20  1  0.542474  0.339566  0.250000  1
  Ga  Ga21  1  0.451248  0.660440  0.750000  1
  Ir  Ir22  1  0.671777  0.330973  0.000924  1
  Ir  Ir23  1  0.327751  0.671680  0.000721  1
  Ir  Ir24  1  0.327751  0.671680  0.499279  1
  Ir  Ir25  1  0.671777  0.330973  0.499076  1
  Ir  Ir26  1  0.000690  0.997080  0.001002  1
  Ir  Ir27  1  0.000690  0.997080  0.498998  1
