# generated using pymatgen
data_Nd15Lu(PaIr4)4
_symmetry_space_group_name_H-M   'P 1'
_cell_length_a   7.60007931
_cell_length_b   7.66002167
_cell_length_c   14.76771200
_cell_angle_alpha   90.16569377
_cell_angle_beta   90.01637436
_cell_angle_gamma   90.50842424
_symmetry_Int_Tables_number   1
_chemical_formula_structural   Nd15Lu(PaIr4)4
_chemical_formula_sum   'Nd15 Lu1 Pa4 Ir16'
_cell_volume   859.69104076
_cell_formula_units_Z   1
loop_
 _symmetry_equiv_pos_site_id
 _symmetry_equiv_pos_as_xyz
  1  'x, y, z'
loop_
 _atom_site_type_symbol
 _atom_site_label
 _atom_site_symmetry_multiplicity
 _atom_site_fract_x
 _atom_site_fract_y
 _atom_site_fract_z
 _atom_site_occupancy
  Nd  Nd0  1  0.837067  0.664524  0.121957  1
  Nd  Nd1  1  0.661295  0.165954  0.879535  1
  Nd  Nd2  1  0.161162  0.333237  0.619385  1
  Nd  Nd3  1  0.514902  0.681341  0.591655  1
  Nd  Nd4  1  0.015130  0.819169  0.902314  1
  Nd  Nd5  1  0.483551  0.316328  0.094608  1
  Nd  Nd6  1  0.986706  0.178033  0.409382  1
  Nd  Nd7  1  0.489570  0.320000  0.409528  1
  Nd  Nd8  1  0.984284  0.180135  0.087224  1
  Nd  Nd9  1  0.518278  0.678196  0.908497  1
  Nd  Nd10  1  0.006930  0.822109  0.594599  1
  Nd  Nd11  1  0.819737  0.506290  0.746053  1
  Nd  Nd12  1  0.331051  0.986397  0.747088  1
  Nd  Nd13  1  0.173810  0.479953  0.249757  1
  Nd  Nd14  1  0.685208  0.018218  0.250658  1
  Lu  Lu15  1  0.658671  0.161702  0.620242  1
  Pa  Pa16  1  0.165338  0.337148  0.874591  1
  Pa  Pa17  1  0.337445  0.842150  0.123364  1
  Pa  Pa18  1  0.840463  0.661501  0.379412  1
  Pa  Pa19  1  0.340819  0.839500  0.378689  1
  Ir  Ir20  1  0.677925  0.946449  0.457420  1
  Ir  Ir21  1  0.205519  0.555995  0.035333  1
  Ir  Ir22  1  0.297225  0.052508  0.967683  1
  Ir  Ir23  1  0.812736  0.463824  0.531591  1
  Ir  Ir24  1  0.323013  0.025977  0.531586  1
  Ir  Ir25  1  0.862345  0.459847  0.953463  1
  Ir  Ir26  1  0.647695  0.959908  0.046941  1
  Ir  Ir27  1  0.172718  0.555264  0.453862  1
  Ir  Ir28  1  0.449726  0.371233  0.755346  1
  Ir  Ir29  1  0.960751  0.120180  0.750142  1
  Ir  Ir30  1  0.531839  0.638725  0.259219  1
  Ir  Ir31  1  0.047259  0.862197  0.258615  1
  Ir  Ir32  1  0.708594  0.870537  0.744745  1
  Ir  Ir33  1  0.200180  0.625246  0.756634  1
  Ir  Ir34  1  0.303201  0.114353  0.248390  1
  Ir  Ir35  1  0.787856  0.385868  0.260494  1
