# generated using pymatgen
data_Ta6NbH16
_symmetry_space_group_name_H-M   'P 1'
_cell_length_a   6.35711827
_cell_length_b   6.35711794
_cell_length_c   6.35711900
_cell_angle_alpha   59.99999968
_cell_angle_beta   60.00000143
_cell_angle_gamma   59.99999921
_symmetry_Int_Tables_number   1
_chemical_formula_structural   Ta6NbH16
_chemical_formula_sum   'Ta6 Nb1 H16'
_cell_volume   181.66275854
_cell_formula_units_Z   1
loop_
 _symmetry_equiv_pos_site_id
 _symmetry_equiv_pos_as_xyz
  1  'x, y, z'
loop_
 _atom_site_type_symbol
 _atom_site_label
 _atom_site_symmetry_multiplicity
 _atom_site_fract_x
 _atom_site_fract_y
 _atom_site_fract_z
 _atom_site_occupancy
  Ta  Ta0  1  0.000000  0.000000  0.500000  1
  Ta  Ta1  1  0.500000  0.000000  0.500000  1
  Ta  Ta2  1  0.000000  0.500000  0.500000  1
  Ta  Ta3  1  0.500000  0.500000  0.000000  1
  Ta  Ta4  1  0.000000  0.500000  0.000000  1
  Ta  Ta5  1  0.500000  0.000000  0.000000  1
  Nb  Nb6  1  0.000000  0.000000  0.000000  1
  H  H7  1  0.874224  0.874224  0.377326  1
  H  H8  1  0.874224  0.377326  0.874224  1
  H  H9  1  0.377326  0.874224  0.874224  1
  H  H10  1  0.874224  0.874224  0.874224  1
  H  H11  1  0.125776  0.125776  0.622674  1
  H  H12  1  0.125776  0.622674  0.125776  1
  H  H13  1  0.622674  0.125776  0.125776  1
  H  H14  1  0.125776  0.125776  0.125776  1
  H  H15  1  0.620610  0.620610  0.138170  1
  H  H16  1  0.620610  0.138170  0.620610  1
  H  H17  1  0.138170  0.620610  0.620610  1
  H  H18  1  0.620610  0.620610  0.620610  1
  H  H19  1  0.379390  0.379390  0.861830  1
  H  H20  1  0.379390  0.861830  0.379390  1
  H  H21  1  0.861830  0.379390  0.379390  1
  H  H22  1  0.379390  0.379390  0.379390  1
