# generated using pymatgen
data_LaYb11(GeIr)8
_symmetry_space_group_name_H-M   'P 1'
_cell_length_a   5.67943868
_cell_length_b   7.78573828
_cell_length_c   13.51591400
_cell_angle_alpha   90.00000000
_cell_angle_beta   90.00000000
_cell_angle_gamma   89.88425341
_symmetry_Int_Tables_number   1
_chemical_formula_structural   LaYb11(GeIr)8
_chemical_formula_sum   'La1 Yb11 Ge8 Ir8'
_cell_volume   597.65388811
_cell_formula_units_Z   1
loop_
 _symmetry_equiv_pos_site_id
 _symmetry_equiv_pos_as_xyz
  1  'x, y, z'
loop_
 _atom_site_type_symbol
 _atom_site_label
 _atom_site_symmetry_multiplicity
 _atom_site_fract_x
 _atom_site_fract_y
 _atom_site_fract_z
 _atom_site_occupancy
  La  La0  1  0.627361  0.747676  0.750000  1
  Yb  Yb1  1  0.145208  0.897988  0.594355  1
  Yb  Yb2  1  0.854706  0.104653  0.098866  1
  Yb  Yb3  1  0.144283  0.604819  0.402198  1
  Yb  Yb4  1  0.858378  0.390517  0.905204  1
  Yb  Yb5  1  0.854706  0.104653  0.401134  1
  Yb  Yb6  1  0.145208  0.897988  0.905645  1
  Yb  Yb7  1  0.858378  0.390517  0.594796  1
  Yb  Yb8  1  0.144283  0.604819  0.097802  1
  Yb  Yb9  1  0.370791  0.249018  0.750000  1
  Yb  Yb10  1  0.630398  0.753001  0.250000  1
  Yb  Yb11  1  0.368948  0.252909  0.250000  1
  Ge  Ge12  1  0.865866  0.104625  0.750000  1
  Ge  Ge13  1  0.139840  0.903195  0.250000  1
  Ge  Ge14  1  0.859138  0.405239  0.250000  1
  Ge  Ge15  1  0.129954  0.591256  0.750000  1
  Ge  Ge16  1  0.383117  0.249334  0.500502  1
  Ge  Ge17  1  0.614604  0.749784  0.003236  1
  Ge  Ge18  1  0.614604  0.749784  0.496764  1
  Ge  Ge19  1  0.383117  0.249334  0.999498  1
  Ir  Ir20  1  0.641967  0.030106  0.592606  1
  Ir  Ir21  1  0.362904  0.969937  0.093397  1
  Ir  Ir22  1  0.637095  0.466894  0.407421  1
  Ir  Ir23  1  0.361591  0.532509  0.907731  1
  Ir  Ir24  1  0.362904  0.969937  0.406603  1
  Ir  Ir25  1  0.641967  0.030106  0.907394  1
  Ir  Ir26  1  0.361591  0.532509  0.592269  1
  Ir  Ir27  1  0.637095  0.466894  0.092579  1
