# generated using pymatgen
data_Yb3Ge(Pt2O7)2
_symmetry_space_group_name_H-M   'P 1'
_cell_length_a   7.20724056
_cell_length_b   7.10574937
_cell_length_c   7.20724000
_cell_angle_alpha   59.52638094
_cell_angle_beta   59.99999339
_cell_angle_gamma   59.52638319
_symmetry_Int_Tables_number   1
_chemical_formula_structural   Yb3Ge(Pt2O7)2
_chemical_formula_sum   'Yb3 Ge1 Pt4 O14'
_cell_volume   259.11138104
_cell_formula_units_Z   1
loop_
 _symmetry_equiv_pos_site_id
 _symmetry_equiv_pos_as_xyz
  1  'x, y, z'
loop_
 _atom_site_type_symbol
 _atom_site_label
 _atom_site_symmetry_multiplicity
 _atom_site_fract_x
 _atom_site_fract_y
 _atom_site_fract_z
 _atom_site_occupancy
  Yb  Yb0  1  0.125000  0.125000  0.125000  1
  Yb  Yb1  1  0.625000  0.125000  0.125000  1
  Yb  Yb2  1  0.125000  0.125000  0.625000  1
  Ge  Ge3  1  0.125000  0.625000  0.125000  1
  Pt  Pt4  1  0.625000  0.625000  0.625000  1
  Pt  Pt5  1  0.125000  0.625000  0.625000  1
  Pt  Pt6  1  0.625000  0.625000  0.125000  1
  Pt  Pt7  1  0.625000  0.125000  0.625000  1
  O  O8  1  0.021901  0.934295  0.021901  1
  O  O9  1  0.228099  0.315705  0.228099  1
  O  O10  1  0.524057  0.553976  0.960984  1
  O  O11  1  0.284439  0.284362  0.715599  1
  O  O12  1  0.960984  0.553976  0.960984  1
  O  O13  1  0.960984  0.553976  0.524057  1
  O  O14  1  0.534401  0.965638  0.965561  1
  O  O15  1  0.534401  0.965638  0.534401  1
  O  O16  1  0.965561  0.965638  0.534401  1
  O  O17  1  0.715599  0.284362  0.284439  1
  O  O18  1  0.289016  0.696024  0.725943  1
  O  O19  1  0.725943  0.696024  0.289016  1
  O  O20  1  0.715599  0.284362  0.715599  1
  O  O21  1  0.289016  0.696024  0.289016  1
