# generated using pymatgen
data_ErMnNbB6
_symmetry_space_group_name_H-M   'P 1'
_cell_length_a   3.36904000
_cell_length_b   8.92793300
_cell_length_c   11.24440800
_cell_angle_alpha   90.00000000
_cell_angle_beta   90.00000000
_cell_angle_gamma   90.00000000
_symmetry_Int_Tables_number   1
_chemical_formula_structural   ErMnNbB6
_chemical_formula_sum   'Er4 Mn4 Nb4 B24'
_cell_volume   338.21563886
_cell_formula_units_Z   4
loop_
 _symmetry_equiv_pos_site_id
 _symmetry_equiv_pos_as_xyz
  1  'x, y, z'
loop_
 _atom_site_type_symbol
 _atom_site_label
 _atom_site_symmetry_multiplicity
 _atom_site_fract_x
 _atom_site_fract_y
 _atom_site_fract_z
 _atom_site_occupancy
  Er  Er0  1  0.000000  0.823491  0.086332  1
  Er  Er1  1  0.000000  0.176509  0.913668  1
  Er  Er2  1  0.000000  0.323491  0.413668  1
  Er  Er3  1  0.000000  0.676509  0.586332  1
  Mn  Mn4  1  0.000000  0.144733  0.182668  1
  Mn  Mn5  1  0.000000  0.855267  0.817332  1
  Mn  Mn6  1  0.000000  0.644733  0.317332  1
  Mn  Mn7  1  0.000000  0.355267  0.682668  1
  Nb  Nb8  1  0.000000  0.444739  0.128223  1
  Nb  Nb9  1  0.000000  0.555261  0.871777  1
  Nb  Nb10  1  0.000000  0.944739  0.371777  1
  Nb  Nb11  1  0.000000  0.055261  0.628223  1
  B  B12  1  0.500000  0.054837  0.067606  1
  B  B13  1  0.500000  0.945163  0.932394  1
  B  B14  1  0.500000  0.554837  0.432394  1
  B  B15  1  0.500000  0.445163  0.567606  1
  B  B16  1  0.500000  0.251685  0.083233  1
  B  B17  1  0.500000  0.748315  0.916767  1
  B  B18  1  0.500000  0.751685  0.416767  1
  B  B19  1  0.500000  0.248315  0.583233  1
  B  B20  1  0.500000  0.296231  0.236481  1
  B  B21  1  0.500000  0.703769  0.763519  1
  B  B22  1  0.500000  0.796231  0.263519  1
  B  B23  1  0.500000  0.203769  0.736481  1
  B  B24  1  0.500000  0.130969  0.316860  1
  B  B25  1  0.500000  0.869031  0.683140  1
  B  B26  1  0.500000  0.630969  0.183140  1
  B  B27  1  0.500000  0.369031  0.816860  1
  B  B28  1  0.500000  0.484084  0.287286  1
  B  B29  1  0.500000  0.515916  0.712714  1
  B  B30  1  0.500000  0.984084  0.212714  1
  B  B31  1  0.500000  0.015916  0.787286  1
  B  B32  1  0.500000  0.100868  0.473277  1
  B  B33  1  0.500000  0.899132  0.526723  1
  B  B34  1  0.500000  0.600868  0.026723  1
  B  B35  1  0.500000  0.399132  0.973277  1
