# generated using pymatgen
data_Tb3Tm3FeBi2
_symmetry_space_group_name_H-M   'P 1'
_cell_length_a   8.26526900
_cell_length_b   8.26632567
_cell_length_c   4.16182900
_cell_angle_alpha   90.00000000
_cell_angle_beta   90.00000000
_cell_angle_gamma   119.99624337
_symmetry_Int_Tables_number   1
_chemical_formula_structural   Tb3Tm3FeBi2
_chemical_formula_sum   'Tb3 Tm3 Fe1 Bi2'
_cell_volume   246.26393011
_cell_formula_units_Z   1
loop_
 _symmetry_equiv_pos_site_id
 _symmetry_equiv_pos_as_xyz
  1  'x, y, z'
loop_
 _atom_site_type_symbol
 _atom_site_label
 _atom_site_symmetry_multiplicity
 _atom_site_fract_x
 _atom_site_fract_y
 _atom_site_fract_z
 _atom_site_occupancy
  Tb  Tb0  1  0.999941  0.609818  0.500000  1
  Tb  Tb1  1  0.390137  0.390180  0.500000  1
  Tb  Tb2  1  0.609876  0.999989  0.500000  1
  Tm  Tm3  1  0.227040  0.000006  0.000000  1
  Tm  Tm4  1  0.773012  0.773060  0.000000  1
  Tm  Tm5  1  0.999961  0.226945  0.000000  1
  Fe  Fe6  1  0.000072  0.999986  0.500000  1
  Bi  Bi7  1  0.333298  0.666650  0.000000  1
  Bi  Bi8  1  0.666662  0.333366  0.000000  1
