# generated using pymatgen
data_Hf5Nb5ZnSn6Ge
_symmetry_space_group_name_H-M   'P 1'
_cell_length_a   8.47661745
_cell_length_b   8.49511227
_cell_length_c   5.72396241
_cell_angle_alpha   89.99096299
_cell_angle_beta   90.01810670
_cell_angle_gamma   119.92801165
_symmetry_Int_Tables_number   1
_chemical_formula_structural   Hf5Nb5ZnSn6Ge
_chemical_formula_sum   'Hf5 Nb5 Zn1 Sn6 Ge1'
_cell_volume   357.21827669
_cell_formula_units_Z   1
loop_
 _symmetry_equiv_pos_site_id
 _symmetry_equiv_pos_as_xyz
  1  'x, y, z'
loop_
 _atom_site_type_symbol
 _atom_site_label
 _atom_site_symmetry_multiplicity
 _atom_site_fract_x
 _atom_site_fract_y
 _atom_site_fract_z
 _atom_site_occupancy
  Hf  Hf0  1  0.264896  0.266151  0.751870  1
  Hf  Hf1  1  0.998744  0.733849  0.751870  1
  Hf  Hf2  1  0.997166  0.270622  0.249334  1
  Hf  Hf3  1  0.726544  0.729378  0.249334  1
  Hf  Hf4  1  0.738377  0.000000  0.750396  1
  Nb  Nb5  1  0.333523  0.665851  0.999974  1
  Nb  Nb6  1  0.666870  0.333220  0.499304  1
  Nb  Nb7  1  0.667673  0.334149  0.999974  1
  Nb  Nb8  1  0.333650  0.666780  0.499304  1
  Nb  Nb9  1  0.270854  0.000000  0.248401  1
  Zn  Zn10  1  0.003963  0.000000  0.490109  1
  Sn  Sn11  1  0.605679  0.000000  0.251164  1
  Sn  Sn12  1  0.606561  0.606928  0.748613  1
  Sn  Sn13  1  0.999631  0.393072  0.748613  1
  Sn  Sn14  1  0.001791  0.614301  0.251927  1
  Sn  Sn15  1  0.387491  0.385699  0.251927  1
  Sn  Sn16  1  0.392662  0.000000  0.748112  1
  Ge  Ge17  1  0.003926  0.000000  0.009772  1
