# generated using pymatgen
data_Tb2MnFe7(MoP3)2
_symmetry_space_group_name_H-M   'P 1'
_cell_length_a   3.70772100
_cell_length_b   10.46082800
_cell_length_c   12.18999600
_cell_angle_alpha   90.00000000
_cell_angle_beta   90.00000000
_cell_angle_gamma   90.00000000
_symmetry_Int_Tables_number   1
_chemical_formula_structural   Tb2MnFe7(MoP3)2
_chemical_formula_sum   'Tb4 Mn2 Fe14 Mo4 P12'
_cell_volume   472.79913271
_cell_formula_units_Z   2
loop_
 _symmetry_equiv_pos_site_id
 _symmetry_equiv_pos_as_xyz
  1  'x, y, z'
loop_
 _atom_site_type_symbol
 _atom_site_label
 _atom_site_symmetry_multiplicity
 _atom_site_fract_x
 _atom_site_fract_y
 _atom_site_fract_z
 _atom_site_occupancy
  Tb  Tb0  1  0.250000  0.583213  0.710785  1
  Tb  Tb1  1  0.250000  0.916787  0.210785  1
  Tb  Tb2  1  0.750000  0.416543  0.288940  1
  Tb  Tb3  1  0.750000  0.083457  0.788940  1
  Mn  Mn4  1  0.250000  0.410953  0.493000  1
  Mn  Mn5  1  0.250000  0.089047  0.993000  1
  Fe  Fe6  1  0.750000  0.587352  0.507899  1
  Fe  Fe7  1  0.750000  0.912648  0.007899  1
  Fe  Fe8  1  0.250000  0.216316  0.175675  1
  Fe  Fe9  1  0.250000  0.283684  0.675675  1
  Fe  Fe10  1  0.750000  0.782226  0.822641  1
  Fe  Fe11  1  0.750000  0.717774  0.322641  1
  Fe  Fe12  1  0.250000  0.877340  0.698400  1
  Fe  Fe13  1  0.250000  0.622660  0.198400  1
  Fe  Fe14  1  0.750000  0.120503  0.302002  1
  Fe  Fe15  1  0.750000  0.379497  0.802002  1
  Fe  Fe16  1  0.250000  0.464418  0.934708  1
  Fe  Fe17  1  0.250000  0.035582  0.434708  1
  Fe  Fe18  1  0.750000  0.536467  0.066319  1
  Fe  Fe19  1  0.750000  0.963533  0.566319  1
  Mo  Mo20  1  0.250000  0.706603  0.988693  1
  Mo  Mo21  1  0.250000  0.793397  0.488693  1
  Mo  Mo22  1  0.750000  0.293156  0.011020  1
  Mo  Mo23  1  0.750000  0.206844  0.511020  1
  P  P24  1  0.250000  0.424699  0.112219  1
  P  P25  1  0.250000  0.075301  0.612219  1
  P  P26  1  0.750000  0.575032  0.888257  1
  P  P27  1  0.750000  0.924968  0.388257  1
  P  P28  1  0.250000  0.270739  0.863028  1
  P  P29  1  0.250000  0.229261  0.363028  1
  P  P30  1  0.750000  0.731611  0.134797  1
  P  P31  1  0.750000  0.768389  0.634797  1
  P  P32  1  0.250000  0.598589  0.383004  1
  P  P33  1  0.250000  0.901411  0.883004  1
  P  P34  1  0.750000  0.402388  0.618614  1
  P  P35  1  0.750000  0.097612  0.118614  1
