# generated using pymatgen
data_K5As2Pd
_symmetry_space_group_name_H-M   'P 1'
_cell_length_a   5.75064200
_cell_length_b   5.75056141
_cell_length_c   19.42412800
_cell_angle_alpha   90.00000000
_cell_angle_beta   90.00000000
_cell_angle_gamma   120.00046360
_symmetry_Int_Tables_number   1
_chemical_formula_structural   K5As2Pd
_chemical_formula_sum   'K10 As4 Pd2'
_cell_volume   556.28418276
_cell_formula_units_Z   2
loop_
 _symmetry_equiv_pos_site_id
 _symmetry_equiv_pos_as_xyz
  1  'x, y, z'
loop_
 _atom_site_type_symbol
 _atom_site_label
 _atom_site_symmetry_multiplicity
 _atom_site_fract_x
 _atom_site_fract_y
 _atom_site_fract_z
 _atom_site_occupancy
  K  K0  1  0.666674  0.333350  0.049259  1
  K  K1  1  0.999988  0.999974  0.150975  1
  K  K2  1  0.666656  0.333313  0.250000  1
  K  K3  1  0.999988  0.999974  0.349026  1
  K  K4  1  0.666674  0.333350  0.450741  1
  K  K5  1  0.333325  0.666650  0.549259  1
  K  K6  1  0.000012  0.000025  0.650974  1
  K  K7  1  0.333343  0.666687  0.750000  1
  K  K8  1  0.000012  0.000025  0.849025  1
  K  K9  1  0.333325  0.666650  0.950741  1
  As  As10  1  0.333338  0.666678  0.123825  1
  As  As11  1  0.333338  0.666678  0.376176  1
  As  As12  1  0.666662  0.333324  0.623824  1
  As  As13  1  0.666662  0.333324  0.876175  1
  Pd  Pd14  1  0.333341  0.666683  0.250000  1
  Pd  Pd15  1  0.666658  0.333317  0.750000  1
