# generated using pymatgen
data_AgRu2F12
_symmetry_space_group_name_H-M   'P 1'
_cell_length_a   5.39841949
_cell_length_b   5.62343212
_cell_length_c   8.95408498
_cell_angle_alpha   104.09859919
_cell_angle_beta   89.64843145
_cell_angle_gamma   114.75584372
_symmetry_Int_Tables_number   1
_chemical_formula_structural   AgRu2F12
_chemical_formula_sum   'Ag1 Ru2 F12'
_cell_volume   237.98640279
_cell_formula_units_Z   1
loop_
 _symmetry_equiv_pos_site_id
 _symmetry_equiv_pos_as_xyz
  1  'x, y, z'
loop_
 _atom_site_type_symbol
 _atom_site_label
 _atom_site_symmetry_multiplicity
 _atom_site_fract_x
 _atom_site_fract_y
 _atom_site_fract_z
 _atom_site_occupancy
  Ag  Ag0  1  0.500000  0.500000  0.500000  1
  Ru  Ru1  1  0.265687  0.009173  0.757698  1
  Ru  Ru2  1  0.734313  0.990827  0.242302  1
  F  F3  1  0.784522  0.772121  0.366725  1
  F  F4  1  0.215478  0.227879  0.633275  1
  F  F5  1  0.356523  0.777113  0.219720  1
  F  F6  1  0.304025  0.783399  0.866743  1
  F  F7  1  0.695975  0.216601  0.133257  1
  F  F8  1  0.879762  0.789147  0.719607  1
  F  F9  1  0.120238  0.210853  0.280393  1
  F  F10  1  0.298663  0.777530  0.564818  1
  F  F11  1  0.701337  0.222470  0.435182  1
  F  F12  1  0.217248  0.234626  0.932109  1
  F  F13  1  0.782752  0.765374  0.067891  1
  F  F14  1  0.643477  0.222887  0.780280  1
