# generated using pymatgen
data_Yb4YNb3(Ni4As3)4
_symmetry_space_group_name_H-M   'P 1'
_cell_length_a   12.67791039
_cell_length_b   12.68201529
_cell_length_c   3.89922100
_cell_angle_alpha   90.00000000
_cell_angle_beta   90.00000000
_cell_angle_gamma   120.01071548
_symmetry_Int_Tables_number   1
_chemical_formula_structural   Yb4YNb3(Ni4As3)4
_chemical_formula_sum   'Yb4 Y1 Nb3 Ni16 As12'
_cell_volume   542.87210824
_cell_formula_units_Z   1
loop_
 _symmetry_equiv_pos_site_id
 _symmetry_equiv_pos_as_xyz
  1  'x, y, z'
loop_
 _atom_site_type_symbol
 _atom_site_label
 _atom_site_symmetry_multiplicity
 _atom_site_fract_x
 _atom_site_fract_y
 _atom_site_fract_z
 _atom_site_occupancy
  Yb  Yb0  1  0.186457  0.186746  0.500000  1
  Yb  Yb1  1  0.813543  0.000289  0.500000  1
  Yb  Yb2  1  0.333107  0.666636  0.000000  1
  Yb  Yb3  1  0.666893  0.333527  0.000000  1
  Y  Y4  1  0.000000  0.812717  0.500000  1
  Nb  Nb5  1  0.563502  0.563767  0.000000  1
  Nb  Nb6  1  0.436498  0.000267  0.000000  1
  Nb  Nb7  1  0.000000  0.435407  0.000000  1
  Ni  Ni8  1  0.722215  0.721958  0.500000  1
  Ni  Ni9  1  0.277785  0.999743  0.500000  1
  Ni  Ni10  1  0.000000  0.277801  0.500000  1
  Ni  Ni11  1  0.183039  0.376693  0.000000  1
  Ni  Ni12  1  0.622576  0.806040  0.000000  1
  Ni  Ni13  1  0.193777  0.817210  0.000000  1
  Ni  Ni14  1  0.806223  0.623433  0.000000  1
  Ni  Ni15  1  0.816961  0.193654  0.000000  1
  Ni  Ni16  1  0.377424  0.183464  0.000000  1
  Ni  Ni17  1  0.361333  0.483700  0.500000  1
  Ni  Ni18  1  0.516783  0.877732  0.500000  1
  Ni  Ni19  1  0.122646  0.638996  0.500000  1
  Ni  Ni20  1  0.877354  0.516349  0.500000  1
  Ni  Ni21  1  0.638667  0.122366  0.500000  1
  Ni  Ni22  1  0.483217  0.360948  0.500000  1
  Ni  Ni23  1  0.000000  0.000424  0.000000  1
  As  As24  1  0.821899  0.822700  0.000000  1
  As  As25  1  0.178101  0.000803  0.000000  1
  As  As26  1  0.000000  0.177752  0.000000  1
  As  As27  1  0.169994  0.480076  0.500000  1
  As  As28  1  0.520313  0.690128  0.500000  1
  As  As29  1  0.310547  0.830314  0.500000  1
  As  As30  1  0.689453  0.519766  0.500000  1
  As  As31  1  0.830006  0.310083  0.500000  1
  As  As32  1  0.479687  0.169814  0.500000  1
  As  As33  1  0.360990  0.361007  0.000000  1
  As  As34  1  0.639010  0.000017  0.000000  1
  As  As35  1  0.000000  0.637672  0.000000  1
