# generated using pymatgen
data_LiTb2Yb2CrC8
_symmetry_space_group_name_H-M   'P 1'
_cell_length_a   6.75929387
_cell_length_b   6.70515986
_cell_length_c   6.70515804
_cell_angle_alpha   134.10055411
_cell_angle_beta   109.25971631
_cell_angle_gamma   88.38370535
_symmetry_Int_Tables_number   1
_chemical_formula_structural   LiTb2Yb2CrC8
_chemical_formula_sum   'Li1 Tb2 Yb2 Cr1 C8'
_cell_volume   196.72128035
_cell_formula_units_Z   1
loop_
 _symmetry_equiv_pos_site_id
 _symmetry_equiv_pos_as_xyz
  1  'x, y, z'
loop_
 _atom_site_type_symbol
 _atom_site_label
 _atom_site_symmetry_multiplicity
 _atom_site_fract_x
 _atom_site_fract_y
 _atom_site_fract_z
 _atom_site_occupancy
  Li  Li0  1  0.000000  0.247086  0.247086  1
  Tb  Tb1  1  0.208682  0.350325  0.848585  1
  Tb  Tb2  1  0.791318  0.639902  0.141643  1
  Yb  Yb3  1  0.509428  0.858597  0.660827  1
  Yb  Yb4  1  0.490572  0.151398  0.349167  1
  Cr  Cr5  1  0.000000  0.745415  0.745415  1
  C  C6  1  0.796444  0.139441  0.674470  1
  C  C7  1  0.203556  0.878026  0.342995  1
  C  C8  1  0.463069  0.620672  0.838658  1
  C  C9  1  0.536931  0.375588  0.157603  1
  C  C10  1  0.906089  0.022791  0.756658  1
  C  C11  1  0.093911  0.850569  0.116701  1
  C  C12  1  0.266482  0.643054  0.743621  1
  C  C13  1  0.733518  0.477139  0.376572  1
