# generated using pymatgen
data_NdHo5MnCo17P12
_symmetry_space_group_name_H-M   'P 1'
_cell_length_a   3.70264000
_cell_length_b   10.55397500
_cell_length_c   12.19596000
_cell_angle_alpha   90.00000000
_cell_angle_beta   90.00000000
_cell_angle_gamma   90.00000000
_symmetry_Int_Tables_number   1
_chemical_formula_structural   NdHo5MnCo17P12
_chemical_formula_sum   'Nd1 Ho5 Mn1 Co17 P12'
_cell_volume   476.58848054
_cell_formula_units_Z   1
loop_
 _symmetry_equiv_pos_site_id
 _symmetry_equiv_pos_as_xyz
  1  'x, y, z'
loop_
 _atom_site_type_symbol
 _atom_site_label
 _atom_site_symmetry_multiplicity
 _atom_site_fract_x
 _atom_site_fract_y
 _atom_site_fract_z
 _atom_site_occupancy
  Nd  Nd0  1  0.000000  0.500000  0.522790  1
  Ho  Ho1  1  0.500000  0.000000  0.477265  1
  Ho  Ho2  1  0.500000  0.818043  0.204739  1
  Ho  Ho3  1  0.500000  0.181957  0.204739  1
  Ho  Ho4  1  0.000000  0.681993  0.795121  1
  Ho  Ho5  1  0.000000  0.318007  0.795121  1
  Mn  Mn6  1  0.000000  0.000000  0.839795  1
  Co  Co7  1  0.000000  0.500000  0.986674  1
  Co  Co8  1  0.500000  0.000000  0.013925  1
  Co  Co9  1  0.500000  0.293494  0.430270  1
  Co  Co10  1  0.500000  0.706506  0.430270  1
  Co  Co11  1  0.000000  0.200487  0.570466  1
  Co  Co12  1  0.000000  0.799513  0.570466  1
  Co  Co13  1  0.500000  0.880060  0.710722  1
  Co  Co14  1  0.500000  0.119940  0.710722  1
  Co  Co15  1  0.000000  0.621459  0.289139  1
  Co  Co16  1  0.000000  0.378541  0.289139  1
  Co  Co17  1  0.500000  0.332985  0.994716  1
  Co  Co18  1  0.500000  0.667015  0.994716  1
  Co  Co19  1  0.000000  0.166265  0.005436  1
  Co  Co20  1  0.000000  0.833735  0.005436  1
  Co  Co21  1  0.500000  0.500000  0.157541  1
  Co  Co22  1  0.500000  0.500000  0.706342  1
  Co  Co23  1  0.000000  0.000000  0.296527  1
  P  P24  1  0.500000  0.307620  0.617663  1
  P  P25  1  0.500000  0.692380  0.617663  1
  P  P26  1  0.000000  0.188320  0.383544  1
  P  P27  1  0.000000  0.811680  0.383544  1
  P  P28  1  0.500000  0.500000  0.884030  1
  P  P29  1  0.000000  0.000000  0.117586  1
  P  P30  1  0.500000  0.846893  0.893690  1
  P  P31  1  0.500000  0.153107  0.893690  1
  P  P32  1  0.000000  0.653086  0.106740  1
  P  P33  1  0.000000  0.346914  0.106740  1
  P  P34  1  0.500000  0.500000  0.339595  1
  P  P35  1  0.000000  0.000000  0.653435  1
