# generated using pymatgen
data_Tb10Pr6Cd4OsPt3
_symmetry_space_group_name_H-M   'P 1'
_cell_length_a   9.85404298
_cell_length_b   9.85404334
_cell_length_c   9.85404301
_cell_angle_alpha   59.80276484
_cell_angle_beta   59.80276987
_cell_angle_gamma   59.80276833
_symmetry_Int_Tables_number   1
_chemical_formula_structural   Tb10Pr6Cd4OsPt3
_chemical_formula_sum   'Tb10 Pr6 Cd4 Os1 Pt3'
_cell_volume   673.56507144
_cell_formula_units_Z   1
loop_
 _symmetry_equiv_pos_site_id
 _symmetry_equiv_pos_as_xyz
  1  'x, y, z'
loop_
 _atom_site_type_symbol
 _atom_site_label
 _atom_site_symmetry_multiplicity
 _atom_site_fract_x
 _atom_site_fract_y
 _atom_site_fract_z
 _atom_site_occupancy
  Tb  Tb0  1  0.350855  0.350855  0.350855  1
  Tb  Tb1  1  0.346993  0.346993  0.954875  1
  Tb  Tb2  1  0.346993  0.954875  0.346993  1
  Tb  Tb3  1  0.954875  0.346993  0.346993  1
  Tb  Tb4  1  0.817021  0.186895  0.186895  1
  Tb  Tb5  1  0.185974  0.811068  0.811068  1
  Tb  Tb6  1  0.186895  0.817021  0.186895  1
  Tb  Tb7  1  0.811068  0.185974  0.811068  1
  Tb  Tb8  1  0.186895  0.186895  0.817021  1
  Tb  Tb9  1  0.811068  0.811068  0.185974  1
  Pr  Pr10  1  0.938427  0.561876  0.561876  1
  Pr  Pr11  1  0.555692  0.940309  0.940309  1
  Pr  Pr12  1  0.561876  0.938427  0.561876  1
  Pr  Pr13  1  0.940309  0.555692  0.940309  1
  Pr  Pr14  1  0.561876  0.561876  0.938427  1
  Pr  Pr15  1  0.940309  0.940309  0.555692  1
  Cd  Cd16  1  0.579204  0.579204  0.579204  1
  Cd  Cd17  1  0.579313  0.579313  0.261066  1
  Cd  Cd18  1  0.579313  0.261066  0.579313  1
  Cd  Cd19  1  0.261066  0.579313  0.579313  1
  Os  Os20  1  0.142553  0.142553  0.142553  1
  Pt  Pt21  1  0.143850  0.143850  0.573729  1
  Pt  Pt22  1  0.143850  0.573729  0.143850  1
  Pt  Pt23  1  0.573729  0.143850  0.143850  1
