# generated using pymatgen
data_CeDyCo2(GeH)2
_symmetry_space_group_name_H-M   'P 1'
_cell_length_a   3.95870400
_cell_length_b   3.95870400
_cell_length_c   7.37663700
_cell_angle_alpha   90.00000000
_cell_angle_beta   90.00000000
_cell_angle_gamma   90.00000000
_symmetry_Int_Tables_number   1
_chemical_formula_structural   CeDyCo2(GeH)2
_chemical_formula_sum   'Ce1 Dy1 Co2 Ge2 H2'
_cell_volume   115.60176701
_cell_formula_units_Z   1
loop_
 _symmetry_equiv_pos_site_id
 _symmetry_equiv_pos_as_xyz
  1  'x, y, z'
loop_
 _atom_site_type_symbol
 _atom_site_label
 _atom_site_symmetry_multiplicity
 _atom_site_fract_x
 _atom_site_fract_y
 _atom_site_fract_z
 _atom_site_occupancy
  Ce  Ce0  1  0.000000  0.500000  0.671283  1
  Dy  Dy1  1  0.500000  0.000000  0.331142  1
  Co  Co2  1  0.500000  0.500000  0.999576  1
  Co  Co3  1  0.000000  0.000000  0.999576  1
  Ge  Ge4  1  0.500000  0.000000  0.828482  1
  Ge  Ge5  1  0.000000  0.500000  0.179070  1
  H  H6  1  0.000000  0.000000  0.495436  1
  H  H7  1  0.500000  0.500000  0.495436  1
