# generated using pymatgen
data_Yb4YU(TaSb5)2
_symmetry_space_group_name_H-M   'P 1'
_cell_length_a   9.31628690
_cell_length_b   9.31628708
_cell_length_c   6.23924800
_cell_angle_alpha   90.00000000
_cell_angle_beta   90.00000000
_cell_angle_gamma   120.70515214
_symmetry_Int_Tables_number   1
_chemical_formula_structural   Yb4YU(TaSb5)2
_chemical_formula_sum   'Yb4 Y1 U1 Ta2 Sb10'
_cell_volume   465.60605407
_cell_formula_units_Z   1
loop_
 _symmetry_equiv_pos_site_id
 _symmetry_equiv_pos_as_xyz
  1  'x, y, z'
loop_
 _atom_site_type_symbol
 _atom_site_label
 _atom_site_symmetry_multiplicity
 _atom_site_fract_x
 _atom_site_fract_y
 _atom_site_fract_z
 _atom_site_occupancy
  Yb  Yb0  1  0.621018  0.012880  0.750000  1
  Yb  Yb1  1  0.377343  0.987768  0.250000  1
  Yb  Yb2  1  0.012880  0.621018  0.750000  1
  Yb  Yb3  1  0.987768  0.377343  0.250000  1
  Y  Y4  1  0.379583  0.379583  0.750000  1
  U  U5  1  0.615106  0.615106  0.250000  1
  Ta  Ta6  1  0.002514  0.002514  0.507870  1
  Ta  Ta7  1  0.002514  0.002514  0.992130  1
  Sb  Sb8  1  0.265498  0.005418  0.750000  1
  Sb  Sb9  1  0.739620  0.989142  0.250000  1
  Sb  Sb10  1  0.005418  0.265498  0.750000  1
  Sb  Sb11  1  0.989142  0.739620  0.250000  1
  Sb  Sb12  1  0.735034  0.735034  0.750000  1
  Sb  Sb13  1  0.260326  0.260326  0.250000  1
  Sb  Sb14  1  0.343342  0.659777  0.501590  1
  Sb  Sb15  1  0.659777  0.343342  0.501590  1
  Sb  Sb16  1  0.659777  0.343342  0.998410  1
  Sb  Sb17  1  0.343342  0.659777  0.998410  1
