# generated using pymatgen
data_Rb2BiPb3
_symmetry_space_group_name_H-M   'P 1'
_cell_length_a   6.89611456
_cell_length_b   6.89611404
_cell_length_c   6.89611460
_cell_angle_alpha   59.34327047
_cell_angle_beta   59.34327348
_cell_angle_gamma   59.34327335
_symmetry_Int_Tables_number   1
_chemical_formula_structural   Rb2BiPb3
_chemical_formula_sum   'Rb2 Bi1 Pb3'
_cell_volume   228.43187601
_cell_formula_units_Z   1
loop_
 _symmetry_equiv_pos_site_id
 _symmetry_equiv_pos_as_xyz
  1  'x, y, z'
loop_
 _atom_site_type_symbol
 _atom_site_label
 _atom_site_symmetry_multiplicity
 _atom_site_fract_x
 _atom_site_fract_y
 _atom_site_fract_z
 _atom_site_occupancy
  Rb  Rb0  1  0.251465  0.251465  0.251465  1
  Rb  Rb1  1  0.998535  0.998535  0.998535  1
  Bi  Bi2  1  0.625000  0.625000  0.625000  1
  Pb  Pb3  1  0.625000  0.125000  0.625000  1
  Pb  Pb4  1  0.625000  0.625000  0.125000  1
  Pb  Pb5  1  0.125000  0.625000  0.625000  1
