# generated using pymatgen
data_YMgGa3Os
_symmetry_space_group_name_H-M   'P 1'
_cell_length_a   5.33779400
_cell_length_b   5.33779469
_cell_length_c   8.73193200
_cell_angle_alpha   90.00000000
_cell_angle_beta   90.00000000
_cell_angle_gamma   119.99999573
_symmetry_Int_Tables_number   1
_chemical_formula_structural   YMgGa3Os
_chemical_formula_sum   'Y2 Mg2 Ga6 Os2'
_cell_volume   215.45901485
_cell_formula_units_Z   2
loop_
 _symmetry_equiv_pos_site_id
 _symmetry_equiv_pos_as_xyz
  1  'x, y, z'
loop_
 _atom_site_type_symbol
 _atom_site_label
 _atom_site_symmetry_multiplicity
 _atom_site_fract_x
 _atom_site_fract_y
 _atom_site_fract_z
 _atom_site_occupancy
  Y  Y0  1  0.333334  0.666667  0.551142  1
  Y  Y1  1  0.333334  0.666667  0.948857  1
  Mg  Mg2  1  0.666667  0.333332  0.045528  1
  Mg  Mg3  1  0.666667  0.333332  0.454471  1
  Ga  Ga4  1  0.164787  0.329574  0.250000  1
  Ga  Ga5  1  0.164787  0.835213  0.250000  1
  Ga  Ga6  1  0.670427  0.835213  0.250000  1
  Ga  Ga7  1  0.330860  0.165430  0.750000  1
  Ga  Ga8  1  0.834572  0.165430  0.750000  1
  Ga  Ga9  1  0.834571  0.669140  0.750000  1
  Os  Os10  1  0.000000  0.000000  0.007995  1
  Os  Os11  1  0.000000  0.000000  0.492005  1
