# generated using pymatgen
data_Tm3(LuTl2)2
_symmetry_space_group_name_H-M   'P 1'
_cell_length_a   9.15537000
_cell_length_b   9.15537087
_cell_length_c   6.66259800
_cell_angle_alpha   90.00000000
_cell_angle_beta   90.00000000
_cell_angle_gamma   119.99999687
_symmetry_Int_Tables_number   1
_chemical_formula_structural   Tm3(LuTl2)2
_chemical_formula_sum   'Tm6 Lu4 Tl8'
_cell_volume   483.64432608
_cell_formula_units_Z   2
loop_
 _symmetry_equiv_pos_site_id
 _symmetry_equiv_pos_as_xyz
  1  'x, y, z'
loop_
 _atom_site_type_symbol
 _atom_site_label
 _atom_site_symmetry_multiplicity
 _atom_site_fract_x
 _atom_site_fract_y
 _atom_site_fract_z
 _atom_site_occupancy
  Tm  Tm0  1  0.290169  0.000000  0.750000  1
  Tm  Tm1  1  0.709831  0.000000  0.250000  1
  Tm  Tm2  1  0.000000  0.290169  0.750000  1
  Tm  Tm3  1  0.000000  0.709831  0.250000  1
  Tm  Tm4  1  0.709831  0.709831  0.750000  1
  Tm  Tm5  1  0.290169  0.290169  0.250000  1
  Lu  Lu6  1  0.333333  0.666667  0.500000  1
  Lu  Lu7  1  0.666667  0.333333  0.500000  1
  Lu  Lu8  1  0.666667  0.333333  0.000000  1
  Lu  Lu9  1  0.333333  0.666667  0.000000  1
  Tl  Tl10  1  0.000000  0.000000  0.500000  1
  Tl  Tl11  1  0.000000  0.000000  0.000000  1
  Tl  Tl12  1  0.628284  0.000000  0.750000  1
  Tl  Tl13  1  0.371716  0.000000  0.250000  1
  Tl  Tl14  1  0.000000  0.628284  0.750000  1
  Tl  Tl15  1  0.000000  0.371716  0.250000  1
  Tl  Tl16  1  0.371716  0.371716  0.750000  1
  Tl  Tl17  1  0.628284  0.628284  0.250000  1
