# generated using pymatgen
data_Dy4In2CuPd3
_symmetry_space_group_name_H-M   'P 1'
_cell_length_a   7.71070875
_cell_length_b   7.71070875
_cell_length_c   3.71391300
_cell_angle_alpha   90.00000000
_cell_angle_beta   90.00000000
_cell_angle_gamma   89.84835472
_symmetry_Int_Tables_number   1
_chemical_formula_structural   Dy4In2CuPd3
_chemical_formula_sum   'Dy4 In2 Cu1 Pd3'
_cell_volume   220.81003341
_cell_formula_units_Z   1
loop_
 _symmetry_equiv_pos_site_id
 _symmetry_equiv_pos_as_xyz
  1  'x, y, z'
loop_
 _atom_site_type_symbol
 _atom_site_label
 _atom_site_symmetry_multiplicity
 _atom_site_fract_x
 _atom_site_fract_y
 _atom_site_fract_z
 _atom_site_occupancy
  Dy  Dy0  1  0.329209  0.824182  0.500000  1
  Dy  Dy1  1  0.826147  0.673853  0.500000  1
  Dy  Dy2  1  0.171062  0.328938  0.500000  1
  Dy  Dy3  1  0.675818  0.170791  0.500000  1
  In  In4  1  0.004537  0.000722  0.000000  1
  In  In5  1  0.499278  0.495463  0.000000  1
  Cu  Cu6  1  0.375480  0.124520  0.000000  1
  Pd  Pd7  1  0.871309  0.373118  0.000000  1
  Pd  Pd8  1  0.126882  0.628691  0.000000  1
  Pd  Pd9  1  0.620278  0.879722  0.000000  1
