# generated using pymatgen
data_PtPbI18
_symmetry_space_group_name_H-M   'P 1'
_cell_length_a   10.30583037
_cell_length_b   10.30582877
_cell_length_c   10.30582812
_cell_angle_alpha   96.02035509
_cell_angle_beta   96.02035304
_cell_angle_gamma   96.02035018
_symmetry_Int_Tables_number   1
_chemical_formula_structural   PtPbI18
_chemical_formula_sum   'Pt1 Pb1 I18'
_cell_volume   1075.08586753
_cell_formula_units_Z   1
loop_
 _symmetry_equiv_pos_site_id
 _symmetry_equiv_pos_as_xyz
  1  'x, y, z'
loop_
 _atom_site_type_symbol
 _atom_site_label
 _atom_site_symmetry_multiplicity
 _atom_site_fract_x
 _atom_site_fract_y
 _atom_site_fract_z
 _atom_site_occupancy
  Pt  Pt0  1  0.000000  0.000000  0.000000  1
  Pb  Pb1  1  0.500000  0.500000  0.500000  1
  I  I2  1  0.983840  0.733513  0.971206  1
  I  I3  1  0.971206  0.983840  0.733513  1
  I  I4  1  0.733513  0.971206  0.983840  1
  I  I5  1  0.016160  0.266487  0.028794  1
  I  I6  1  0.028794  0.016160  0.266487  1
  I  I7  1  0.266487  0.028794  0.016160  1
  I  I8  1  0.774714  0.366987  0.906923  1
  I  I9  1  0.906923  0.774714  0.366987  1
  I  I10  1  0.366987  0.906923  0.774714  1
  I  I11  1  0.225286  0.633013  0.093077  1
  I  I12  1  0.093077  0.225286  0.633013  1
  I  I13  1  0.633013  0.093077  0.225286  1
  I  I14  1  0.547355  0.484265  0.813787  1
  I  I15  1  0.813787  0.547355  0.484265  1
  I  I16  1  0.484265  0.813787  0.547355  1
  I  I17  1  0.452645  0.515735  0.186213  1
  I  I18  1  0.186213  0.452645  0.515735  1
  I  I19  1  0.515735  0.186213  0.452645  1
