# generated using pymatgen
data_TmLu5(Zr2Pb3)2
_symmetry_space_group_name_H-M   'P 1'
_cell_length_a   8.85127997
_cell_length_b   8.85128062
_cell_length_c   6.11828800
_cell_angle_alpha   89.99950082
_cell_angle_beta   89.99949490
_cell_angle_gamma   120.01538958
_symmetry_Int_Tables_number   1
_chemical_formula_structural   TmLu5(Zr2Pb3)2
_chemical_formula_sum   'Tm1 Lu5 Zr4 Pb6'
_cell_volume   415.05472855
_cell_formula_units_Z   1
loop_
 _symmetry_equiv_pos_site_id
 _symmetry_equiv_pos_as_xyz
  1  'x, y, z'
loop_
 _atom_site_type_symbol
 _atom_site_label
 _atom_site_symmetry_multiplicity
 _atom_site_fract_x
 _atom_site_fract_y
 _atom_site_fract_z
 _atom_site_occupancy
  Tm  Tm0  1  0.239278  0.239278  0.750024  1
  Lu  Lu1  1  0.761653  0.761653  0.249993  1
  Lu  Lu2  1  0.999424  0.237407  0.250006  1
  Lu  Lu3  1  0.762981  0.000551  0.750003  1
  Lu  Lu4  1  0.237407  0.999424  0.250006  1
  Lu  Lu5  1  0.000551  0.762981  0.750003  1
  Zr  Zr6  1  0.333428  0.665980  0.500020  1
  Zr  Zr7  1  0.665980  0.333428  0.500020  1
  Zr  Zr8  1  0.333437  0.665967  0.999962  1
  Zr  Zr9  1  0.665967  0.333437  0.999962  1
  Pb  Pb10  1  0.604407  0.604407  0.749966  1
  Pb  Pb11  1  0.397309  0.999026  0.749998  1
  Pb  Pb12  1  0.602738  0.999959  0.249969  1
  Pb  Pb13  1  0.999026  0.397309  0.749998  1
  Pb  Pb14  1  0.396457  0.396457  0.250101  1
  Pb  Pb15  1  0.999959  0.602738  0.249969  1
