# generated using pymatgen
data_TbY5IrBr10
_symmetry_space_group_name_H-M   'P 1'
_cell_length_a   7.35504089
_cell_length_b   9.21433357
_cell_length_c   9.31537800
_cell_angle_alpha   107.39606674
_cell_angle_beta   97.09842278
_cell_angle_gamma   104.76235313
_symmetry_Int_Tables_number   1
_chemical_formula_structural   TbY5IrBr10
_chemical_formula_sum   'Tb1 Y5 Ir1 Br10'
_cell_volume   568.74413898
_cell_formula_units_Z   1
loop_
 _symmetry_equiv_pos_site_id
 _symmetry_equiv_pos_as_xyz
  1  'x, y, z'
loop_
 _atom_site_type_symbol
 _atom_site_label
 _atom_site_symmetry_multiplicity
 _atom_site_fract_x
 _atom_site_fract_y
 _atom_site_fract_z
 _atom_site_occupancy
  Tb  Tb0  1  0.531399  0.206106  0.412128  1
  Y  Y1  1  0.468976  0.794120  0.587919  1
  Y  Y2  1  0.134103  0.365503  0.323526  1
  Y  Y3  1  0.865836  0.634917  0.676566  1
  Y  Y4  1  0.621574  0.545851  0.249090  1
  Y  Y5  1  0.378294  0.454448  0.751063  1
  Ir  Ir6  1  0.499903  0.499630  0.499899  1
  Br  Br7  1  0.151184  0.051516  0.229628  1
  Br  Br8  1  0.848457  0.948669  0.770396  1
  Br  Br9  1  0.244695  0.413150  0.040093  1
  Br  Br10  1  0.755205  0.586796  0.959827  1
  Br  Br11  1  0.714968  0.244397  0.156030  1
  Br  Br12  1  0.285286  0.755879  0.843577  1
  Br  Br13  1  0.045950  0.678784  0.410583  1
  Br  Br14  1  0.954158  0.321380  0.589552  1
  Br  Br15  1  0.415120  0.128433  0.674838  1
  Br  Br16  1  0.584893  0.870422  0.325284  1
