# generated using pymatgen
data_DyLu7(Si4W3)4
_symmetry_space_group_name_H-M   'P 1'
_cell_length_a   6.71395455
_cell_length_b   6.89883322
_cell_length_c   12.82840625
_cell_angle_alpha   89.96681629
_cell_angle_beta   89.99961508
_cell_angle_gamma   89.97175232
_symmetry_Int_Tables_number   1
_chemical_formula_structural   DyLu7(Si4W3)4
_chemical_formula_sum   'Dy1 Lu7 Si16 W12'
_cell_volume   594.19175594
_cell_formula_units_Z   1
loop_
 _symmetry_equiv_pos_site_id
 _symmetry_equiv_pos_as_xyz
  1  'x, y, z'
loop_
 _atom_site_type_symbol
 _atom_site_label
 _atom_site_symmetry_multiplicity
 _atom_site_fract_x
 _atom_site_fract_y
 _atom_site_fract_z
 _atom_site_occupancy
  Dy  Dy0  1  0.995646  0.831936  0.592698  1
  Lu  Lu1  1  0.494428  0.668292  0.593005  1
  Lu  Lu2  1  0.994607  0.831589  0.906871  1
  Lu  Lu3  1  0.505388  0.331441  0.093170  1
  Lu  Lu4  1  0.005623  0.168819  0.406454  1
  Lu  Lu5  1  0.505430  0.331907  0.406728  1
  Lu  Lu6  1  0.005280  0.168468  0.093128  1
  Lu  Lu7  1  0.494485  0.668461  0.907332  1
  Si  Si8  1  0.662923  0.960054  0.453102  1
  Si  Si9  1  0.163632  0.540203  0.046479  1
  Si  Si10  1  0.336496  0.040391  0.953645  1
  Si  Si11  1  0.835754  0.458008  0.546220  1
  Si  Si12  1  0.338180  0.041290  0.546101  1
  Si  Si13  1  0.836373  0.459747  0.953582  1
  Si  Si14  1  0.663491  0.959668  0.046597  1
  Si  Si15  1  0.163762  0.539695  0.453055  1
  Si  Si16  1  0.464563  0.373576  0.750318  1
  Si  Si17  1  0.964362  0.127650  0.750374  1
  Si  Si18  1  0.535184  0.626442  0.249756  1
  Si  Si19  1  0.035260  0.873366  0.250075  1
  Si  Si20  1  0.696310  0.863205  0.750552  1
  Si  Si21  1  0.198326  0.635873  0.750738  1
  Si  Si22  1  0.302707  0.136971  0.250000  1
  Si  Si23  1  0.802478  0.362854  0.249903  1
  W  W24  1  0.667492  0.164345  0.625314  1
  W  W25  1  0.168885  0.336603  0.875069  1
  W  W26  1  0.330837  0.836681  0.124782  1
  W  W27  1  0.830614  0.662822  0.374661  1
  W  W28  1  0.331658  0.836322  0.374763  1
  W  W29  1  0.831227  0.663273  0.124872  1
  W  W30  1  0.669124  0.163247  0.875329  1
  W  W31  1  0.169207  0.336683  0.624819  1
  W  W32  1  0.832692  0.501988  0.750221  1
  W  W33  1  0.333454  0.998147  0.750203  1
  W  W34  1  0.166991  0.497559  0.249987  1
  W  W35  1  0.667132  0.002426  0.250093  1
