# generated using pymatgen
data_LiSc9NiAg3
_symmetry_space_group_name_H-M   'P 1'
_cell_length_a   8.66569500
_cell_length_b   8.66569474
_cell_length_c   8.74228600
_cell_angle_alpha   90.00000000
_cell_angle_beta   90.00000000
_cell_angle_gamma   119.99999717
_symmetry_Int_Tables_number   1
_chemical_formula_structural   LiSc9NiAg3
_chemical_formula_sum   'Li2 Sc18 Ni2 Ag6'
_cell_volume   568.54185221
_cell_formula_units_Z   2
loop_
 _symmetry_equiv_pos_site_id
 _symmetry_equiv_pos_as_xyz
  1  'x, y, z'
loop_
 _atom_site_type_symbol
 _atom_site_label
 _atom_site_symmetry_multiplicity
 _atom_site_fract_x
 _atom_site_fract_y
 _atom_site_fract_z
 _atom_site_occupancy
  Li  Li0  1  0.000000  0.000000  0.500000  1
  Li  Li1  1  0.000000  0.000000  0.000000  1
  Sc  Sc2  1  0.542618  0.457382  0.250000  1
  Sc  Sc3  1  0.542618  0.085236  0.250000  1
  Sc  Sc4  1  0.914764  0.457382  0.250000  1
  Sc  Sc5  1  0.457382  0.542618  0.750000  1
  Sc  Sc6  1  0.457382  0.914764  0.750000  1
  Sc  Sc7  1  0.085236  0.542618  0.750000  1
  Sc  Sc8  1  0.207230  0.792770  0.441203  1
  Sc  Sc9  1  0.207230  0.414460  0.441203  1
  Sc  Sc10  1  0.585540  0.792770  0.441203  1
  Sc  Sc11  1  0.792770  0.207230  0.558797  1
  Sc  Sc12  1  0.792770  0.585540  0.558797  1
  Sc  Sc13  1  0.414460  0.207230  0.558797  1
  Sc  Sc14  1  0.792770  0.207230  0.941203  1
  Sc  Sc15  1  0.792770  0.585540  0.941203  1
  Sc  Sc16  1  0.414460  0.207230  0.941203  1
  Sc  Sc17  1  0.207230  0.792770  0.058797  1
  Sc  Sc18  1  0.207230  0.414460  0.058797  1
  Sc  Sc19  1  0.585540  0.792770  0.058797  1
  Ni  Ni20  1  0.333333  0.666667  0.250000  1
  Ni  Ni21  1  0.666667  0.333333  0.750000  1
  Ag  Ag22  1  0.887798  0.112202  0.250000  1
  Ag  Ag23  1  0.887798  0.775593  0.250000  1
  Ag  Ag24  1  0.224407  0.112202  0.250000  1
  Ag  Ag25  1  0.112202  0.887798  0.750000  1
  Ag  Ag26  1  0.112202  0.224407  0.750000  1
  Ag  Ag27  1  0.775593  0.887798  0.750000  1
