# generated using pymatgen
data_Ca3Eu2(InSb3)2
_symmetry_space_group_name_H-M   'P 1'
_cell_length_a   4.66696100
_cell_length_b   12.54629100
_cell_length_c   14.39074800
_cell_angle_alpha   90.00000000
_cell_angle_beta   90.00000000
_cell_angle_gamma   90.00000000
_symmetry_Int_Tables_number   1
_chemical_formula_structural   Ca3Eu2(InSb3)2
_chemical_formula_sum   'Ca6 Eu4 In4 Sb12'
_cell_volume   842.62219857
_cell_formula_units_Z   2
loop_
 _symmetry_equiv_pos_site_id
 _symmetry_equiv_pos_as_xyz
  1  'x, y, z'
loop_
 _atom_site_type_symbol
 _atom_site_label
 _atom_site_symmetry_multiplicity
 _atom_site_fract_x
 _atom_site_fract_y
 _atom_site_fract_z
 _atom_site_occupancy
  Ca  Ca0  1  0.500000  0.000000  0.500000  1
  Ca  Ca1  1  0.500000  0.500000  0.000000  1
  Ca  Ca2  1  0.500000  0.909404  0.252748  1
  Ca  Ca3  1  0.500000  0.090596  0.747252  1
  Ca  Ca4  1  0.500000  0.409404  0.247252  1
  Ca  Ca5  1  0.500000  0.590596  0.752748  1
  Eu  Eu6  1  0.500000  0.670407  0.478878  1
  Eu  Eu7  1  0.500000  0.329593  0.521122  1
  Eu  Eu8  1  0.500000  0.829593  0.978878  1
  Eu  Eu9  1  0.500000  0.170407  0.021122  1
  In  In10  1  0.000000  0.329747  0.713791  1
  In  In11  1  0.000000  0.670253  0.286209  1
  In  In12  1  0.000000  0.829747  0.786209  1
  In  In13  1  0.000000  0.170253  0.213791  1
  Sb  Sb14  1  0.000000  0.969953  0.098549  1
  Sb  Sb15  1  0.000000  0.030047  0.901451  1
  Sb  Sb16  1  0.000000  0.469953  0.401451  1
  Sb  Sb17  1  0.000000  0.530047  0.598549  1
  Sb  Sb18  1  0.500000  0.163524  0.329141  1
  Sb  Sb19  1  0.500000  0.836476  0.670859  1
  Sb  Sb20  1  0.500000  0.663524  0.170859  1
  Sb  Sb21  1  0.500000  0.336476  0.829141  1
  Sb  Sb22  1  0.000000  0.352843  0.091498  1
  Sb  Sb23  1  0.000000  0.647157  0.908502  1
  Sb  Sb24  1  0.000000  0.852843  0.408502  1
  Sb  Sb25  1  0.000000  0.147157  0.591498  1
