# generated using pymatgen
data_Pr3Nd2Bi3Se
_symmetry_space_group_name_H-M   'P 1'
_cell_length_a   9.61016989
_cell_length_b   9.60299508
_cell_length_c   6.87351700
_cell_angle_alpha   90.00000000
_cell_angle_beta   90.00000000
_cell_angle_gamma   119.97530171
_symmetry_Int_Tables_number   1
_chemical_formula_structural   Pr3Nd2Bi3Se
_chemical_formula_sum   'Pr6 Nd4 Bi6 Se2'
_cell_volume   549.48450003
_cell_formula_units_Z   2
loop_
 _symmetry_equiv_pos_site_id
 _symmetry_equiv_pos_as_xyz
  1  'x, y, z'
loop_
 _atom_site_type_symbol
 _atom_site_label
 _atom_site_symmetry_multiplicity
 _atom_site_fract_x
 _atom_site_fract_y
 _atom_site_fract_z
 _atom_site_occupancy
  Pr  Pr0  1  0.666739  0.333284  0.000082  1
  Pr  Pr1  1  0.333261  0.666546  0.000082  1
  Pr  Pr2  1  0.333261  0.666546  0.499918  1
  Pr  Pr3  1  0.666739  0.333284  0.499918  1
  Pr  Pr4  1  0.745150  0.745204  0.750000  1
  Pr  Pr5  1  0.254850  0.000054  0.750000  1
  Nd  Nd6  1  0.000000  0.253799  0.750000  1
  Nd  Nd7  1  0.254039  0.254195  0.250000  1
  Nd  Nd8  1  0.745961  0.000156  0.250000  1
  Nd  Nd9  1  0.000000  0.745870  0.250000  1
  Bi  Bi10  1  0.392127  0.392681  0.750000  1
  Bi  Bi11  1  0.607873  0.000554  0.750000  1
  Bi  Bi12  1  0.000000  0.606402  0.750000  1
  Bi  Bi13  1  0.607228  0.607210  0.250000  1
  Bi  Bi14  1  0.392772  0.999981  0.250000  1
  Bi  Bi15  1  0.000000  0.392672  0.250000  1
  Se  Se16  1  0.000000  0.000781  0.001418  1
  Se  Se17  1  0.000000  0.000781  0.498582  1
