# generated using pymatgen
data_Tb3TmOsI4
_symmetry_space_group_name_H-M   'P 1'
_cell_length_a   11.31979712
_cell_length_b   11.31979848
_cell_length_c   6.19689520
_cell_angle_alpha   89.98328144
_cell_angle_beta   89.98328500
_cell_angle_gamma   90.04265297
_symmetry_Int_Tables_number   1
_chemical_formula_structural   Tb3TmOsI4
_chemical_formula_sum   'Tb6 Tm2 Os2 I8'
_cell_volume   794.05636747
_cell_formula_units_Z   2
loop_
 _symmetry_equiv_pos_site_id
 _symmetry_equiv_pos_as_xyz
  1  'x, y, z'
loop_
 _atom_site_type_symbol
 _atom_site_label
 _atom_site_symmetry_multiplicity
 _atom_site_fract_x
 _atom_site_fract_y
 _atom_site_fract_z
 _atom_site_occupancy
  Tb  Tb0  1  0.082863  0.199381  0.000092  1
  Tb  Tb1  1  0.199381  0.082863  0.500092  1
  Tb  Tb2  1  0.918896  0.799656  0.000126  1
  Tb  Tb3  1  0.917162  0.199492  0.499848  1
  Tb  Tb4  1  0.199492  0.917162  0.999848  1
  Tb  Tb5  1  0.799656  0.918896  0.500126  1
  Tm  Tm6  1  0.807071  0.078628  0.000474  1
  Tm  Tm7  1  0.078628  0.807071  0.500474  1
  Os  Os8  1  0.000142  0.000062  0.250126  1
  Os  Os9  1  0.000062  0.000142  0.750126  1
  I  I10  1  0.642621  0.149445  0.497604  1
  I  I11  1  0.854002  0.643598  0.502186  1
  I  I12  1  0.357064  0.149413  0.997714  1
  I  I13  1  0.149413  0.357064  0.497714  1
  I  I14  1  0.643598  0.854002  0.002186  1
  I  I15  1  0.352686  0.847819  0.501829  1
  I  I16  1  0.149445  0.642621  0.997604  1
  I  I17  1  0.847819  0.352686  0.001829  1
