# generated using pymatgen
data_Nd5Dy3(CuP)12
_symmetry_space_group_name_H-M   'P 1'
_cell_length_a   3.93306400
_cell_length_b   10.80443918
_cell_length_c   13.05106023
_cell_angle_alpha   89.97865157
_cell_angle_beta   90.00000000
_cell_angle_gamma   90.00000000
_symmetry_Int_Tables_number   1
_chemical_formula_structural   Nd5Dy3(CuP)12
_chemical_formula_sum   'Nd5 Dy3 Cu12 P12'
_cell_volume   554.59890340
_cell_formula_units_Z   1
loop_
 _symmetry_equiv_pos_site_id
 _symmetry_equiv_pos_as_xyz
  1  'x, y, z'
loop_
 _atom_site_type_symbol
 _atom_site_label
 _atom_site_symmetry_multiplicity
 _atom_site_fract_x
 _atom_site_fract_y
 _atom_site_fract_z
 _atom_site_occupancy
  Nd  Nd0  1  0.250000  0.932187  0.796176  1
  Nd  Nd1  1  0.750000  0.430483  0.707653  1
  Nd  Nd2  1  0.250000  0.567523  0.291481  1
  Nd  Nd3  1  0.750000  0.068779  0.206496  1
  Nd  Nd4  1  0.250000  0.842218  0.502272  1
  Dy  Dy5  1  0.750000  0.342564  0.997913  1
  Dy  Dy6  1  0.250000  0.657091  0.001754  1
  Dy  Dy7  1  0.750000  0.159154  0.498072  1
  Cu  Cu8  1  0.250000  0.400147  0.511885  1
  Cu  Cu9  1  0.750000  0.900440  0.988560  1
  Cu  Cu10  1  0.250000  0.099776  0.012173  1
  Cu  Cu11  1  0.750000  0.597090  0.488078  1
  Cu  Cu12  1  0.250000  0.272664  0.332003  1
  Cu  Cu13  1  0.750000  0.770555  0.165639  1
  Cu  Cu14  1  0.250000  0.229171  0.832742  1
  Cu  Cu15  1  0.750000  0.728244  0.669654  1
  Cu  Cu16  1  0.250000  0.859570  0.276762  1
  Cu  Cu17  1  0.750000  0.359493  0.219565  1
  Cu  Cu18  1  0.250000  0.640225  0.780374  1
  Cu  Cu19  1  0.750000  0.141822  0.721255  1
  P  P20  1  0.250000  0.236394  0.643676  1
  P  P21  1  0.750000  0.736169  0.857111  1
  P  P22  1  0.250000  0.264090  0.143142  1
  P  P23  1  0.750000  0.761663  0.351684  1
  P  P24  1  0.250000  0.602123  0.600285  1
  P  P25  1  0.750000  0.106927  0.902199  1
  P  P26  1  0.250000  0.894234  0.097316  1
  P  P27  1  0.750000  0.394167  0.400891  1
  P  P28  1  0.250000  0.060779  0.370884  1
  P  P29  1  0.750000  0.557026  0.126726  1
  P  P30  1  0.250000  0.442318  0.872603  1
  P  P31  1  0.750000  0.944914  0.632977  1
