# generated using pymatgen
data_ErCu6IO8
_symmetry_space_group_name_H-M   'P 1'
_cell_length_a   6.58563730
_cell_length_b   6.58563780
_cell_length_c   6.58563700
_cell_angle_alpha   59.99999901
_cell_angle_beta   59.99999648
_cell_angle_gamma   60.00000598
_symmetry_Int_Tables_number   1
_chemical_formula_structural   ErCu6IO8
_chemical_formula_sum   'Er1 Cu6 I1 O8'
_cell_volume   201.96608454
_cell_formula_units_Z   1
loop_
 _symmetry_equiv_pos_site_id
 _symmetry_equiv_pos_as_xyz
  1  'x, y, z'
loop_
 _atom_site_type_symbol
 _atom_site_label
 _atom_site_symmetry_multiplicity
 _atom_site_fract_x
 _atom_site_fract_y
 _atom_site_fract_z
 _atom_site_occupancy
  Er  Er0  1  0.000000  0.000000  0.000000  1
  Cu  Cu1  1  0.000000  0.000000  0.500000  1
  Cu  Cu2  1  0.500000  0.000000  0.000000  1
  Cu  Cu3  1  0.000000  0.500000  0.000000  1
  Cu  Cu4  1  0.500000  0.500000  0.000000  1
  Cu  Cu5  1  0.000000  0.500000  0.500000  1
  Cu  Cu6  1  0.500000  0.000000  0.500000  1
  I  I7  1  0.500000  0.500000  0.500000  1
  O  O8  1  0.143513  0.143513  0.569459  1
  O  O9  1  0.143513  0.569459  0.143513  1
  O  O10  1  0.569459  0.143513  0.143513  1
  O  O11  1  0.856487  0.430541  0.856487  1
  O  O12  1  0.143513  0.143513  0.143513  1
  O  O13  1  0.856487  0.856487  0.856487  1
  O  O14  1  0.856487  0.856487  0.430541  1
  O  O15  1  0.430541  0.856487  0.856487  1
