# generated using pymatgen
data_YbLu(CoO2)6
_symmetry_space_group_name_H-M   'P 1'
_cell_length_a   4.92192718
_cell_length_b   5.45127395
_cell_length_c   8.49242100
_cell_angle_alpha   89.99968348
_cell_angle_beta   90.00018703
_cell_angle_gamma   72.77716238
_symmetry_Int_Tables_number   1
_chemical_formula_structural   YbLu(CoO2)6
_chemical_formula_sum   'Yb1 Lu1 Co6 O12'
_cell_volume   217.64115622
_cell_formula_units_Z   1
loop_
 _symmetry_equiv_pos_site_id
 _symmetry_equiv_pos_as_xyz
  1  'x, y, z'
loop_
 _atom_site_type_symbol
 _atom_site_label
 _atom_site_symmetry_multiplicity
 _atom_site_fract_x
 _atom_site_fract_y
 _atom_site_fract_z
 _atom_site_occupancy
  Yb  Yb0  1  0.499999  0.499999  0.667430  1
  Lu  Lu1  1  0.999999  0.499997  0.166930  1
  Co  Co2  1  0.500000  0.000000  0.166575  1
  Co  Co3  1  0.500001  0.000000  0.834607  1
  Co  Co4  1  0.500000  0.000001  0.498537  1
  Co  Co5  1  0.000000  0.000001  0.666540  1
  Co  Co6  1  0.000000  0.000000  0.334691  1
  Co  Co7  1  0.000000  0.999999  0.998569  1
  O  O8  1  0.773802  0.197677  0.166656  1
  O  O9  1  0.271379  0.187584  0.666545  1
  O  O10  1  0.226199  0.802322  0.166660  1
  O  O11  1  0.728621  0.812415  0.666548  1
  O  O12  1  0.264097  0.199392  0.003267  1
  O  O13  1  0.771286  0.188620  0.502901  1
  O  O14  1  0.264139  0.199154  0.329913  1
  O  O15  1  0.771519  0.188398  0.830439  1
  O  O16  1  0.735863  0.800846  0.329915  1
  O  O17  1  0.228480  0.811602  0.830440  1
  O  O18  1  0.735900  0.800610  0.003269  1
  O  O19  1  0.228716  0.811383  0.502903  1
