# generated using pymatgen
data_Dy3V(Ni4As3)2
_symmetry_space_group_name_H-M   'P 1'
_cell_length_a   3.88763300
_cell_length_b   11.02590200
_cell_length_c   12.70276200
_cell_angle_alpha   90.00000000
_cell_angle_beta   90.00000000
_cell_angle_gamma   90.00000000
_symmetry_Int_Tables_number   1
_chemical_formula_structural   Dy3V(Ni4As3)2
_chemical_formula_sum   'Dy6 V2 Ni16 As12'
_cell_volume   544.49958016
_cell_formula_units_Z   2
loop_
 _symmetry_equiv_pos_site_id
 _symmetry_equiv_pos_as_xyz
  1  'x, y, z'
loop_
 _atom_site_type_symbol
 _atom_site_label
 _atom_site_symmetry_multiplicity
 _atom_site_fract_x
 _atom_site_fract_y
 _atom_site_fract_z
 _atom_site_occupancy
  Dy  Dy0  1  0.000000  0.500000  0.522533  1
  Dy  Dy1  1  0.500000  0.000000  0.477467  1
  Dy  Dy2  1  0.500000  0.818264  0.206436  1
  Dy  Dy3  1  0.500000  0.181736  0.206436  1
  Dy  Dy4  1  0.000000  0.681736  0.793564  1
  Dy  Dy5  1  0.000000  0.318264  0.793564  1
  V  V6  1  0.500000  0.500000  0.147184  1
  V  V7  1  0.000000  0.000000  0.852816  1
  Ni  Ni8  1  0.500000  0.500000  0.697885  1
  Ni  Ni9  1  0.000000  0.000000  0.302115  1
  Ni  Ni10  1  0.000000  0.500000  0.983139  1
  Ni  Ni11  1  0.500000  0.000000  0.016861  1
  Ni  Ni12  1  0.500000  0.334745  0.991742  1
  Ni  Ni13  1  0.500000  0.665255  0.991742  1
  Ni  Ni14  1  0.000000  0.165255  0.008258  1
  Ni  Ni15  1  0.000000  0.834745  0.008258  1
  Ni  Ni16  1  0.500000  0.304054  0.425365  1
  Ni  Ni17  1  0.500000  0.695946  0.425365  1
  Ni  Ni18  1  0.000000  0.195946  0.574635  1
  Ni  Ni19  1  0.000000  0.804054  0.574635  1
  Ni  Ni20  1  0.500000  0.880313  0.709099  1
  Ni  Ni21  1  0.500000  0.119687  0.709099  1
  Ni  Ni22  1  0.000000  0.619687  0.290901  1
  Ni  Ni23  1  0.000000  0.380313  0.290901  1
  As  As24  1  0.500000  0.500000  0.876589  1
  As  As25  1  0.000000  0.000000  0.123411  1
  As  As26  1  0.500000  0.500000  0.344028  1
  As  As27  1  0.000000  0.000000  0.655972  1
  As  As28  1  0.500000  0.314064  0.613275  1
  As  As29  1  0.500000  0.685936  0.613275  1
  As  As30  1  0.000000  0.185936  0.386725  1
  As  As31  1  0.000000  0.814064  0.386725  1
  As  As32  1  0.500000  0.844785  0.891130  1
  As  As33  1  0.500000  0.155215  0.891130  1
  As  As34  1  0.000000  0.655215  0.108870  1
  As  As35  1  0.000000  0.344785  0.108870  1
