# generated using pymatgen
data_Nd7ThS12
_symmetry_space_group_name_H-M   'P 1'
_cell_length_a   4.03770100
_cell_length_b   10.75122778
_cell_length_c   11.01266361
_cell_angle_alpha   89.78475038
_cell_angle_beta   90.00000000
_cell_angle_gamma   90.00000000
_symmetry_Int_Tables_number   1
_chemical_formula_structural   Nd7ThS12
_chemical_formula_sum   'Nd7 Th1 S12'
_cell_volume   478.05903170
_cell_formula_units_Z   1
loop_
 _symmetry_equiv_pos_site_id
 _symmetry_equiv_pos_as_xyz
  1  'x, y, z'
loop_
 _atom_site_type_symbol
 _atom_site_label
 _atom_site_symmetry_multiplicity
 _atom_site_fract_x
 _atom_site_fract_y
 _atom_site_fract_z
 _atom_site_occupancy
  Nd  Nd0  1  0.250000  0.007747  0.311657  1
  Nd  Nd1  1  0.750000  0.996928  0.691670  1
  Nd  Nd2  1  0.750000  0.501393  0.192020  1
  Nd  Nd3  1  0.250000  0.492469  0.806513  1
  Nd  Nd4  1  0.250000  0.686501  0.490195  1
  Nd  Nd5  1  0.750000  0.313936  0.509988  1
  Nd  Nd6  1  0.750000  0.188182  0.010016  1
  Th  Th7  1  0.250000  0.812933  0.990464  1
  S  S8  1  0.250000  0.052984  0.880872  1
  S  S9  1  0.750000  0.942920  0.120633  1
  S  S10  1  0.750000  0.554881  0.621764  1
  S  S11  1  0.250000  0.447177  0.378333  1
  S  S12  1  0.250000  0.127263  0.547099  1
  S  S13  1  0.750000  0.872653  0.453646  1
  S  S14  1  0.750000  0.630010  0.951847  1
  S  S15  1  0.250000  0.374032  0.045498  1
  S  S16  1  0.250000  0.700191  0.223469  1
  S  S17  1  0.750000  0.298351  0.771272  1
  S  S18  1  0.750000  0.200153  0.270158  1
  S  S19  1  0.250000  0.799292  0.732888  1
