# generated using pymatgen
data_Rb4Li2ErAlBi4
_symmetry_space_group_name_H-M   'P 1'
_cell_length_a   10.02018733
_cell_length_b   10.02018840
_cell_length_c   10.02018716
_cell_angle_alpha   137.76672496
_cell_angle_beta   60.98137419
_cell_angle_gamma   138.13158625
_symmetry_Int_Tables_number   1
_chemical_formula_structural   Rb4Li2ErAlBi4
_chemical_formula_sum   'Rb4 Li2 Er1 Al1 Bi4'
_cell_volume   446.37782041
_cell_formula_units_Z   1
loop_
 _symmetry_equiv_pos_site_id
 _symmetry_equiv_pos_as_xyz
  1  'x, y, z'
loop_
 _atom_site_type_symbol
 _atom_site_label
 _atom_site_symmetry_multiplicity
 _atom_site_fract_x
 _atom_site_fract_y
 _atom_site_fract_z
 _atom_site_occupancy
  Rb  Rb0  1  0.331540  0.773269  0.096839  1
  Rb  Rb1  1  0.168460  0.265299  0.441727  1
  Rb  Rb2  1  0.823571  0.726732  0.558272  1
  Rb  Rb3  1  0.676430  0.234701  0.903161  1
  Li  Li4  1  0.750000  0.250000  0.500000  1
  Li  Li5  1  0.250000  0.749999  0.500000  1
  Er  Er6  1  0.250000  0.250000  0.000000  1
  Al  Al7  1  0.750000  0.750000  0.000000  1
  Bi  Bi8  1  0.891302  0.224564  0.143234  1
  Bi  Bi9  1  0.608700  0.751934  0.333264  1
  Bi  Bi10  1  0.418670  0.275437  0.666736  1
  Bi  Bi11  1  0.081330  0.748067  0.856767  1
