# generated using pymatgen
data_Rb13Li7(ZrP3)4
_symmetry_space_group_name_H-M   'P 1'
_cell_length_a   10.60596179
_cell_length_b   10.60596323
_cell_length_c   15.56150618
_cell_angle_alpha   89.87730011
_cell_angle_beta   89.87730117
_cell_angle_gamma   143.56608001
_symmetry_Int_Tables_number   1
_chemical_formula_structural   Rb13Li7(ZrP3)4
_chemical_formula_sum   'Rb13 Li7 Zr4 P12'
_cell_volume   1039.56463649
_cell_formula_units_Z   1
loop_
 _symmetry_equiv_pos_site_id
 _symmetry_equiv_pos_as_xyz
  1  'x, y, z'
loop_
 _atom_site_type_symbol
 _atom_site_label
 _atom_site_symmetry_multiplicity
 _atom_site_fract_x
 _atom_site_fract_y
 _atom_site_fract_z
 _atom_site_occupancy
  Rb  Rb0  1  0.952169  0.608266  0.828571  1
  Rb  Rb1  1  0.548298  0.881763  0.312540  1
  Rb  Rb2  1  0.391734  0.047831  0.171429  1
  Rb  Rb3  1  0.043788  0.392191  0.167217  1
  Rb  Rb4  1  0.883127  0.547656  0.324513  1
  Rb  Rb5  1  0.452344  0.116873  0.675487  1
  Rb  Rb6  1  0.607809  0.956212  0.832783  1
  Rb  Rb7  1  0.291609  0.294845  0.313553  1
  Rb  Rb8  1  0.798959  0.797621  0.178724  1
  Rb  Rb9  1  0.202379  0.201041  0.821276  1
  Rb  Rb10  1  0.705155  0.708391  0.686447  1
  Rb  Rb11  1  0.118237  0.451702  0.687460  1
  Rb  Rb12  1  0.265895  0.734105  0.500000  1
  Li  Li13  1  0.916417  0.083583  0.000000  1
  Li  Li14  1  0.580054  0.419946  0.500000  1
  Li  Li15  1  0.083964  0.916036  0.000000  1
  Li  Li16  1  0.431743  0.568257  0.500000  1
  Li  Li17  1  0.747001  0.252999  0.000000  1
  Li  Li18  1  0.750535  0.249465  0.500000  1
  Li  Li19  1  0.251729  0.748271  0.000000  1
  Zr  Zr20  1  0.586934  0.413066  0.000000  1
  Zr  Zr21  1  0.912757  0.087243  0.500000  1
  Zr  Zr22  1  0.413195  0.586805  0.000000  1
  Zr  Zr23  1  0.082453  0.917547  0.500000  1
  P  P24  1  0.893305  0.571666  0.084324  1
  P  P25  1  0.428334  0.106695  0.915676  1
  P  P26  1  0.656286  0.969082  0.606696  1
  P  P27  1  0.909053  0.610126  0.593213  1
  P  P28  1  0.106257  0.428578  0.916566  1
  P  P29  1  0.571422  0.893743  0.083434  1
  P  P30  1  0.389874  0.090947  0.406787  1
  P  P31  1  0.224645  0.228521  0.581006  1
  P  P32  1  0.722693  0.722550  0.919651  1
  P  P33  1  0.277450  0.277307  0.080349  1
  P  P34  1  0.030918  0.343714  0.393304  1
  P  P35  1  0.771479  0.775355  0.418994  1
