# generated using pymatgen
data_Tb2Dy3CoBi2
_symmetry_space_group_name_H-M   'P 1'
_cell_length_a   8.02952100
_cell_length_b   8.90552400
_cell_length_c   12.42993000
_cell_angle_alpha   90.00000000
_cell_angle_beta   90.00000000
_cell_angle_gamma   90.00000000
_symmetry_Int_Tables_number   1
_chemical_formula_structural   Tb2Dy3CoBi2
_chemical_formula_sum   'Tb8 Dy12 Co4 Bi8'
_cell_volume   888.82814774
_cell_formula_units_Z   4
loop_
 _symmetry_equiv_pos_site_id
 _symmetry_equiv_pos_as_xyz
  1  'x, y, z'
loop_
 _atom_site_type_symbol
 _atom_site_label
 _atom_site_symmetry_multiplicity
 _atom_site_fract_x
 _atom_site_fract_y
 _atom_site_fract_z
 _atom_site_occupancy
  Tb  Tb0  1  0.346418  0.750000  0.699835  1
  Tb  Tb1  1  0.653582  0.250000  0.300165  1
  Tb  Tb2  1  0.846418  0.250000  0.800165  1
  Tb  Tb3  1  0.153582  0.750000  0.199835  1
  Tb  Tb4  1  0.884408  0.750000  0.810364  1
  Tb  Tb5  1  0.115592  0.250000  0.189636  1
  Tb  Tb6  1  0.384408  0.250000  0.689636  1
  Tb  Tb7  1  0.615592  0.750000  0.310364  1
  Dy  Dy8  1  0.676019  0.537892  0.562903  1
  Dy  Dy9  1  0.323981  0.462108  0.437097  1
  Dy  Dy10  1  0.176019  0.462108  0.937097  1
  Dy  Dy11  1  0.323981  0.037892  0.437097  1
  Dy  Dy12  1  0.823981  0.537892  0.062903  1
  Dy  Dy13  1  0.676019  0.962108  0.562903  1
  Dy  Dy14  1  0.823981  0.962108  0.062903  1
  Dy  Dy15  1  0.176019  0.037892  0.937097  1
  Dy  Dy16  1  0.052193  0.750000  0.497822  1
  Dy  Dy17  1  0.947807  0.250000  0.502178  1
  Dy  Dy18  1  0.552193  0.250000  0.002178  1
  Dy  Dy19  1  0.447807  0.750000  0.997822  1
  Co  Co20  1  0.066259  0.750000  0.991579  1
  Co  Co21  1  0.933741  0.250000  0.008421  1
  Co  Co22  1  0.566259  0.250000  0.508421  1
  Co  Co23  1  0.433741  0.750000  0.491579  1
  Bi  Bi24  1  0.571762  0.509570  0.827132  1
  Bi  Bi25  1  0.428238  0.490430  0.172868  1
  Bi  Bi26  1  0.071762  0.490430  0.672868  1
  Bi  Bi27  1  0.428238  0.009570  0.172868  1
  Bi  Bi28  1  0.928238  0.509570  0.327132  1
  Bi  Bi29  1  0.571762  0.990430  0.827132  1
  Bi  Bi30  1  0.928238  0.990430  0.327132  1
  Bi  Bi31  1  0.071762  0.009570  0.672868  1
