# generated using pymatgen
data_Pr2Zn14Rh3
_symmetry_space_group_name_H-M   'P 1'
_cell_length_a   6.88280462
_cell_length_b   6.88280508
_cell_length_c   6.88280476
_cell_angle_alpha   82.34905566
_cell_angle_beta   97.65094042
_cell_angle_gamma   97.65094326
_symmetry_Int_Tables_number   1
_chemical_formula_structural   Pr2Zn14Rh3
_chemical_formula_sum   'Pr2 Zn14 Rh3'
_cell_volume   318.06111124
_cell_formula_units_Z   1
loop_
 _symmetry_equiv_pos_site_id
 _symmetry_equiv_pos_as_xyz
  1  'x, y, z'
loop_
 _atom_site_type_symbol
 _atom_site_label
 _atom_site_symmetry_multiplicity
 _atom_site_fract_x
 _atom_site_fract_y
 _atom_site_fract_z
 _atom_site_occupancy
  Pr  Pr0  1  0.667413  0.332586  0.332587  1
  Pr  Pr1  1  0.332586  0.667412  0.667413  1
  Zn  Zn2  1  0.708074  0.708074  0.000000  1
  Zn  Zn3  1  0.291927  0.291926  0.000000  1
  Zn  Zn4  1  0.899735  0.100264  0.100264  1
  Zn  Zn5  1  0.348165  0.651836  0.157319  1
  Zn  Zn6  1  0.291926  0.000000  0.291926  1
  Zn  Zn7  1  0.000000  0.708074  0.291927  1
  Zn  Zn8  1  0.651836  0.842680  0.348163  1
  Zn  Zn9  1  0.157320  0.348164  0.348164  1
  Zn  Zn10  1  0.348164  0.157320  0.651835  1
  Zn  Zn11  1  0.842681  0.651836  0.651835  1
  Zn  Zn12  1  0.000000  0.291927  0.708074  1
  Zn  Zn13  1  0.708074  0.000000  0.708074  1
  Zn  Zn14  1  0.651836  0.348164  0.842680  1
  Zn  Zn15  1  0.100263  0.899736  0.899736  1
  Rh  Rh16  1  0.000000  0.499999  0.999999  1
  Rh  Rh17  1  0.499999  0.000001  0.000000  1
  Rh  Rh18  1  0.000000  0.000000  0.499999  1
