# generated using pymatgen
data_Ho3Er7Zn3Ru
_symmetry_space_group_name_H-M   'P 1'
_cell_length_a   9.34492500
_cell_length_b   9.34554189
_cell_length_c   9.54504700
_cell_angle_alpha   90.00000000
_cell_angle_beta   90.00000000
_cell_angle_gamma   120.00102627
_symmetry_Int_Tables_number   1
_chemical_formula_structural   Ho3Er7Zn3Ru
_chemical_formula_sum   'Ho6 Er14 Zn6 Ru2'
_cell_volume   721.91243144
_cell_formula_units_Z   2
loop_
 _symmetry_equiv_pos_site_id
 _symmetry_equiv_pos_as_xyz
  1  'x, y, z'
loop_
 _atom_site_type_symbol
 _atom_site_label
 _atom_site_symmetry_multiplicity
 _atom_site_fract_x
 _atom_site_fract_y
 _atom_site_fract_z
 _atom_site_occupancy
  Ho  Ho0  1  0.541043  0.458958  0.250000  1
  Ho  Ho1  1  0.541074  0.082113  0.250000  1
  Ho  Ho2  1  0.917900  0.458945  0.250000  1
  Ho  Ho3  1  0.458957  0.541042  0.750000  1
  Ho  Ho4  1  0.458926  0.917887  0.750000  1
  Ho  Ho5  1  0.082100  0.541055  0.750000  1
  Er  Er6  1  0.000000  0.000000  0.500000  1
  Er  Er7  1  0.000000  0.000000  0.000000  1
  Er  Er8  1  0.207780  0.792200  0.441699  1
  Er  Er9  1  0.207801  0.415569  0.441652  1
  Er  Er10  1  0.584439  0.792209  0.441674  1
  Er  Er11  1  0.792220  0.207800  0.558301  1
  Er  Er12  1  0.792199  0.584431  0.558348  1
  Er  Er13  1  0.415561  0.207791  0.558326  1
  Er  Er14  1  0.792220  0.207800  0.941699  1
  Er  Er15  1  0.792199  0.584431  0.941652  1
  Er  Er16  1  0.415561  0.207791  0.941674  1
  Er  Er17  1  0.207780  0.792200  0.058301  1
  Er  Er18  1  0.207801  0.415569  0.058348  1
  Er  Er19  1  0.584439  0.792209  0.058326  1
  Zn  Zn20  1  0.886210  0.113837  0.250000  1
  Zn  Zn21  1  0.886148  0.772358  0.250000  1
  Zn  Zn22  1  0.227624  0.113879  0.250000  1
  Zn  Zn23  1  0.113790  0.886163  0.750000  1
  Zn  Zn24  1  0.113852  0.227642  0.750000  1
  Zn  Zn25  1  0.772376  0.886121  0.750000  1
  Ru  Ru26  1  0.333291  0.666664  0.250000  1
  Ru  Ru27  1  0.666709  0.333336  0.750000  1
