# generated using pymatgen
data_Li7Ac5Pt12
_symmetry_space_group_name_H-M   'P 1'
_cell_length_a   5.61854795
_cell_length_b   5.61854584
_cell_length_c   16.97330588
_cell_angle_alpha   80.47307732
_cell_angle_beta   80.47308016
_cell_angle_gamma   59.99999858
_symmetry_Int_Tables_number   1
_chemical_formula_structural   Li7Ac5Pt12
_chemical_formula_sum   'Li7 Ac5 Pt12'
_cell_volume   455.47575587
_cell_formula_units_Z   1
loop_
 _symmetry_equiv_pos_site_id
 _symmetry_equiv_pos_as_xyz
  1  'x, y, z'
loop_
 _atom_site_type_symbol
 _atom_site_label
 _atom_site_symmetry_multiplicity
 _atom_site_fract_x
 _atom_site_fract_y
 _atom_site_fract_z
 _atom_site_occupancy
  Li  Li0  1  0.500000  0.500000  0.500000  1
  Li  Li1  1  0.749160  0.749161  0.752518  1
  Li  Li2  1  0.250839  0.250839  0.247483  1
  Li  Li3  1  0.666715  0.666715  0.999855  1
  Li  Li4  1  0.333285  0.333285  0.000145  1
  Li  Li5  1  0.583719  0.583719  0.248846  1
  Li  Li6  1  0.416281  0.416281  0.751154  1
  Ac  Ac7  1  0.000000  0.000000  0.000000  1
  Ac  Ac8  1  0.925104  0.925104  0.224690  1
  Ac  Ac9  1  0.074896  0.074896  0.775310  1
  Ac  Ac10  1  0.849486  0.849486  0.451541  1
  Ac  Ac11  1  0.150514  0.150514  0.548459  1
  Pt  Pt12  1  0.375522  0.375522  0.371732  1
  Pt  Pt13  1  0.877224  0.375522  0.371732  1
  Pt  Pt14  1  0.375522  0.877224  0.371732  1
  Pt  Pt15  1  0.624478  0.624478  0.628268  1
  Pt  Pt16  1  0.122776  0.624478  0.628268  1
  Pt  Pt17  1  0.624478  0.122776  0.628268  1
  Pt  Pt18  1  0.459301  0.459301  0.122792  1
  Pt  Pt19  1  0.958604  0.459301  0.122792  1
  Pt  Pt20  1  0.459301  0.958604  0.122792  1
  Pt  Pt21  1  0.540699  0.540699  0.877208  1
  Pt  Pt22  1  0.041396  0.540699  0.877208  1
  Pt  Pt23  1  0.540699  0.041396  0.877208  1
