# generated using pymatgen
data_Ca6Al24FeOs7
_symmetry_space_group_name_H-M   'P 1'
_cell_length_a   8.82914500
_cell_length_b   8.82914450
_cell_length_c   9.62630500
_cell_angle_alpha   90.00000000
_cell_angle_beta   90.00000000
_cell_angle_gamma   120.00000561
_symmetry_Int_Tables_number   1
_chemical_formula_structural   Ca6Al24FeOs7
_chemical_formula_sum   'Ca6 Al24 Fe1 Os7'
_cell_volume   649.87151108
_cell_formula_units_Z   1
loop_
 _symmetry_equiv_pos_site_id
 _symmetry_equiv_pos_as_xyz
  1  'x, y, z'
loop_
 _atom_site_type_symbol
 _atom_site_label
 _atom_site_symmetry_multiplicity
 _atom_site_fract_x
 _atom_site_fract_y
 _atom_site_fract_z
 _atom_site_occupancy
  Ca  Ca0  1  0.194553  0.389107  0.250817  1
  Ca  Ca1  1  0.805447  0.610893  0.749183  1
  Ca  Ca2  1  0.610893  0.805447  0.250817  1
  Ca  Ca3  1  0.389107  0.194553  0.749183  1
  Ca  Ca4  1  0.194553  0.805447  0.250817  1
  Ca  Ca5  1  0.805447  0.194553  0.749183  1
  Al  Al6  1  0.333333  0.666667  0.997748  1
  Al  Al7  1  0.666667  0.333333  0.002252  1
  Al  Al8  1  0.666667  0.333333  0.501737  1
  Al  Al9  1  0.333333  0.666667  0.498263  1
  Al  Al10  1  0.161920  0.323840  0.573599  1
  Al  Al11  1  0.838080  0.676160  0.426401  1
  Al  Al12  1  0.676160  0.838080  0.573599  1
  Al  Al13  1  0.841248  0.682496  0.071629  1
  Al  Al14  1  0.323840  0.161920  0.426401  1
  Al  Al15  1  0.158752  0.317504  0.928371  1
  Al  Al16  1  0.161920  0.838080  0.573599  1
  Al  Al17  1  0.317504  0.158752  0.071629  1
  Al  Al18  1  0.838080  0.161920  0.426401  1
  Al  Al19  1  0.682496  0.841248  0.928371  1
  Al  Al20  1  0.841248  0.158752  0.071629  1
  Al  Al21  1  0.158752  0.841248  0.928371  1
  Al  Al22  1  0.560914  0.121826  0.249320  1
  Al  Al23  1  0.439086  0.878174  0.750680  1
  Al  Al24  1  0.878174  0.439086  0.249320  1
  Al  Al25  1  0.121826  0.560914  0.750680  1
  Al  Al26  1  0.560914  0.439086  0.249320  1
  Al  Al27  1  0.439086  0.560914  0.750680  1
  Al  Al28  1  0.000000  0.000000  0.242751  1
  Al  Al29  1  0.000000  0.000000  0.757249  1
  Fe  Fe30  1  0.000000  0.000000  0.000000  1
  Os  Os31  1  0.500000  0.000000  0.000000  1
  Os  Os32  1  0.000000  0.500000  0.000000  1
  Os  Os33  1  0.500000  0.000000  0.500000  1
  Os  Os34  1  0.500000  0.500000  0.000000  1
  Os  Os35  1  0.000000  0.500000  0.500000  1
  Os  Os36  1  0.500000  0.500000  0.500000  1
  Os  Os37  1  0.000000  0.000000  0.500000  1
