# generated using pymatgen
data_Tb3Dy(GaTc3)2
_symmetry_space_group_name_H-M   'P 1'
_cell_length_a   5.34777000
_cell_length_b   5.34776928
_cell_length_c   9.05875100
_cell_angle_alpha   90.00000000
_cell_angle_beta   90.00000000
_cell_angle_gamma   119.99997969
_symmetry_Int_Tables_number   1
_chemical_formula_structural   Tb3Dy(GaTc3)2
_chemical_formula_sum   'Tb3 Dy1 Ga2 Tc6'
_cell_volume   224.35948052
_cell_formula_units_Z   1
loop_
 _symmetry_equiv_pos_site_id
 _symmetry_equiv_pos_as_xyz
  1  'x, y, z'
loop_
 _atom_site_type_symbol
 _atom_site_label
 _atom_site_symmetry_multiplicity
 _atom_site_fract_x
 _atom_site_fract_y
 _atom_site_fract_z
 _atom_site_occupancy
  Tb  Tb0  1  0.333333  0.666667  0.431510  1
  Tb  Tb1  1  0.666667  0.333333  0.568467  1
  Tb  Tb2  1  0.666667  0.333333  0.931540  1
  Dy  Dy3  1  0.333333  0.666667  0.068541  1
  Ga  Ga4  1  0.000000  0.000000  0.500023  1
  Ga  Ga5  1  0.000000  0.000000  0.000023  1
  Tc  Tc6  1  0.829259  0.170741  0.249912  1
  Tc  Tc7  1  0.829259  0.658519  0.249912  1
  Tc  Tc8  1  0.341481  0.170741  0.249912  1
  Tc  Tc9  1  0.170786  0.829214  0.750053  1
  Tc  Tc10  1  0.170786  0.341571  0.750053  1
  Tc  Tc11  1  0.658429  0.829214  0.750053  1
