# generated using pymatgen
data_Sb12Os2PdRh
_symmetry_space_group_name_H-M   'P 1'
_cell_length_a   8.14060043
_cell_length_b   8.14801030
_cell_length_c   8.16232806
_cell_angle_alpha   109.54041918
_cell_angle_beta   109.37187268
_cell_angle_gamma   109.33860282
_symmetry_Int_Tables_number   1
_chemical_formula_structural   Sb12Os2PdRh
_chemical_formula_sum   'Sb12 Os2 Pd1 Rh1'
_cell_volume   417.60754754
_cell_formula_units_Z   1
loop_
 _symmetry_equiv_pos_site_id
 _symmetry_equiv_pos_as_xyz
  1  'x, y, z'
loop_
 _atom_site_type_symbol
 _atom_site_label
 _atom_site_symmetry_multiplicity
 _atom_site_fract_x
 _atom_site_fract_y
 _atom_site_fract_z
 _atom_site_occupancy
  Sb  Sb0  1  0.157981  0.811565  0.662973  1
  Sb  Sb1  1  0.842019  0.188435  0.337027  1
  Sb  Sb2  1  0.845667  0.506586  0.663703  1
  Sb  Sb3  1  0.154333  0.493414  0.336297  1
  Sb  Sb4  1  0.811445  0.654263  0.150080  1
  Sb  Sb5  1  0.188555  0.345737  0.849920  1
  Sb  Sb6  1  0.505356  0.661967  0.844593  1
  Sb  Sb7  1  0.494644  0.338033  0.155407  1
  Sb  Sb8  1  0.665854  0.155228  0.820974  1
  Sb  Sb9  1  0.334146  0.844772  0.179026  1
  Sb  Sb10  1  0.651470  0.842587  0.500716  1
  Sb  Sb11  1  0.348530  0.157413  0.499284  1
  Os  Os12  1  0.500000  0.000000  0.000000  1
  Os  Os13  1  0.000000  0.500000  0.000000  1
  Pd  Pd14  1  0.000000  0.000000  0.500000  1
  Rh  Rh15  1  0.500000  0.500000  0.500000  1
