# generated using pymatgen
data_Ce2AlGa5
_symmetry_space_group_name_H-M   'P 1'
_cell_length_a   6.46270400
_cell_length_b   6.43964476
_cell_length_c   4.54214100
_cell_angle_alpha   90.00000000
_cell_angle_beta   90.00000000
_cell_angle_gamma   120.11851328
_symmetry_Int_Tables_number   1
_chemical_formula_structural   Ce2AlGa5
_chemical_formula_sum   'Ce2 Al1 Ga5'
_cell_volume   163.51121176
_cell_formula_units_Z   1
loop_
 _symmetry_equiv_pos_site_id
 _symmetry_equiv_pos_as_xyz
  1  'x, y, z'
loop_
 _atom_site_type_symbol
 _atom_site_label
 _atom_site_symmetry_multiplicity
 _atom_site_fract_x
 _atom_site_fract_y
 _atom_site_fract_z
 _atom_site_occupancy
  Ce  Ce0  1  0.334453  0.668907  0.750000  1
  Ce  Ce1  1  0.666732  0.333463  0.250000  1
  Al  Al2  1  0.142151  0.284303  0.250000  1
  Ga  Ga3  1  0.706626  0.852620  0.250000  1
  Ga  Ga4  1  0.145994  0.852620  0.250000  1
  Ga  Ga5  1  0.853856  0.707711  0.750000  1
  Ga  Ga6  1  0.293236  0.150188  0.750000  1
  Ga  Ga7  1  0.856952  0.150188  0.750000  1
