# generated using pymatgen
data_Hf6MgTi3Al12Pt7
_symmetry_space_group_name_H-M   'P 1'
_cell_length_a   8.81772234
_cell_length_b   8.81772184
_cell_length_c   8.83513008
_cell_angle_alpha   60.06516019
_cell_angle_beta   60.06516097
_cell_angle_gamma   60.00000558
_symmetry_Int_Tables_number   1
_chemical_formula_structural   Hf6MgTi3Al12Pt7
_chemical_formula_sum   'Hf6 Mg1 Ti3 Al12 Pt7'
_cell_volume   486.22559681
_cell_formula_units_Z   1
loop_
 _symmetry_equiv_pos_site_id
 _symmetry_equiv_pos_as_xyz
  1  'x, y, z'
loop_
 _atom_site_type_symbol
 _atom_site_label
 _atom_site_symmetry_multiplicity
 _atom_site_fract_x
 _atom_site_fract_y
 _atom_site_fract_z
 _atom_site_occupancy
  Hf  Hf0  1  0.680815  0.680815  0.318927  1
  Hf  Hf1  1  0.319443  0.680815  0.318927  1
  Hf  Hf2  1  0.680815  0.319443  0.318927  1
  Hf  Hf3  1  0.317122  0.317122  0.683370  1
  Hf  Hf4  1  0.682388  0.317122  0.683370  1
  Hf  Hf5  1  0.317122  0.682388  0.683370  1
  Mg  Mg6  1  0.882850  0.882850  0.351450  1
  Ti  Ti7  1  0.879061  0.360069  0.881808  1
  Ti  Ti8  1  0.360069  0.879061  0.881808  1
  Ti  Ti9  1  0.879061  0.879061  0.881808  1
  Al  Al10  1  0.121206  0.121206  0.636382  1
  Al  Al11  1  0.119464  0.640583  0.120490  1
  Al  Al12  1  0.640583  0.119464  0.120490  1
  Al  Al13  1  0.119464  0.119464  0.120490  1
  Al  Al14  1  0.663723  0.663723  0.008829  1
  Al  Al15  1  0.665411  0.005948  0.663229  1
  Al  Al16  1  0.005948  0.665411  0.663229  1
  Al  Al17  1  0.665411  0.665411  0.663229  1
  Al  Al18  1  0.335515  0.335515  0.993457  1
  Al  Al19  1  0.336090  0.993029  0.334792  1
  Al  Al20  1  0.993029  0.336090  0.334792  1
  Al  Al21  1  0.336090  0.336090  0.334792  1
  Pt  Pt22  1  0.005616  0.005616  0.983152  1
  Pt  Pt23  1  0.000561  0.000561  0.506755  1
  Pt  Pt24  1  0.492123  0.000561  0.506755  1
  Pt  Pt25  1  0.000561  0.492123  0.506755  1
  Pt  Pt26  1  0.500832  0.500832  0.999538  1
  Pt  Pt27  1  0.998797  0.500832  0.999538  1
  Pt  Pt28  1  0.500832  0.998797  0.999538  1
