# generated using pymatgen
data_Pr6Al24Ir3Os4Pt
_symmetry_space_group_name_H-M   'P 1'
_cell_length_a   8.93396100
_cell_length_b   8.92974873
_cell_length_c   9.69826698
_cell_angle_alpha   89.88219498
_cell_angle_beta   90.00000000
_cell_angle_gamma   120.01560163
_symmetry_Int_Tables_number   1
_chemical_formula_structural   Pr6Al24Ir3Os4Pt
_chemical_formula_sum   'Pr6 Al24 Ir3 Os4 Pt1'
_cell_volume   669.94405206
_cell_formula_units_Z   1
loop_
 _symmetry_equiv_pos_site_id
 _symmetry_equiv_pos_as_xyz
  1  'x, y, z'
loop_
 _atom_site_type_symbol
 _atom_site_label
 _atom_site_symmetry_multiplicity
 _atom_site_fract_x
 _atom_site_fract_y
 _atom_site_fract_z
 _atom_site_occupancy
  Pr  Pr0  1  0.191473  0.382945  0.250007  1
  Pr  Pr1  1  0.808527  0.617055  0.749993  1
  Pr  Pr2  1  0.619731  0.808553  0.251021  1
  Pr  Pr3  1  0.380269  0.191447  0.748979  1
  Pr  Pr4  1  0.188822  0.808553  0.251021  1
  Pr  Pr5  1  0.811178  0.191447  0.748979  1
  Al  Al6  1  0.333693  0.667388  0.020782  1
  Al  Al7  1  0.666307  0.332612  0.979218  1
  Al  Al8  1  0.668912  0.337822  0.520011  1
  Al  Al9  1  0.331088  0.662178  0.479989  1
  Al  Al10  1  0.164650  0.329298  0.574145  1
  Al  Al11  1  0.835350  0.670702  0.425855  1
  Al  Al12  1  0.673487  0.831339  0.575366  1
  Al  Al13  1  0.836296  0.672592  0.074712  1
  Al  Al14  1  0.326513  0.168661  0.424634  1
  Al  Al15  1  0.163704  0.327408  0.925288  1
  Al  Al16  1  0.157853  0.831339  0.575366  1
  Al  Al17  1  0.327075  0.163559  0.074327  1
  Al  Al18  1  0.842147  0.168661  0.424634  1
  Al  Al19  1  0.672925  0.836441  0.925673  1
  Al  Al20  1  0.836484  0.163559  0.074327  1
  Al  Al21  1  0.163516  0.836441  0.925673  1
  Al  Al22  1  0.563852  0.127704  0.247125  1
  Al  Al23  1  0.436148  0.872296  0.752875  1
  Al  Al24  1  0.873626  0.437445  0.250526  1
  Al  Al25  1  0.126374  0.562555  0.749474  1
  Al  Al26  1  0.563819  0.437445  0.250526  1
  Al  Al27  1  0.436181  0.562555  0.749474  1
  Al  Al28  1  0.999693  0.999385  0.250028  1
  Al  Al29  1  0.000307  0.000615  0.749972  1
  Ir  Ir30  1  0.500000  0.000000  0.000000  1
  Ir  Ir31  1  0.000000  0.500000  0.000000  1
  Ir  Ir32  1  0.500000  0.500000  0.000000  1
  Os  Os33  1  0.000000  0.500000  0.500000  1
  Os  Os34  1  0.500000  0.500000  0.500000  1
  Os  Os35  1  0.000000  0.000000  0.000000  1
  Os  Os36  1  0.000000  0.000000  0.500000  1
  Pt  Pt37  1  0.500000  0.000000  0.500000  1
