# generated using pymatgen
data_Tm4Th6Bi5PbC2
_symmetry_space_group_name_H-M   'P 1'
_cell_length_a   9.29904576
_cell_length_b   9.29904656
_cell_length_c   6.46001900
_cell_angle_alpha   90.00000000
_cell_angle_beta   90.00000000
_cell_angle_gamma   119.83393720
_symmetry_Int_Tables_number   1
_chemical_formula_structural   Tm4Th6Bi5PbC2
_chemical_formula_sum   'Tm4 Th6 Bi5 Pb1 C2'
_cell_volume   484.58005543
_cell_formula_units_Z   1
loop_
 _symmetry_equiv_pos_site_id
 _symmetry_equiv_pos_as_xyz
  1  'x, y, z'
loop_
 _atom_site_type_symbol
 _atom_site_label
 _atom_site_symmetry_multiplicity
 _atom_site_fract_x
 _atom_site_fract_y
 _atom_site_fract_z
 _atom_site_occupancy
  Tm  Tm0  1  0.666182  0.333556  0.999129  1
  Tm  Tm1  1  0.333556  0.666182  0.999129  1
  Tm  Tm2  1  0.333556  0.666182  0.500871  1
  Tm  Tm3  1  0.666182  0.333556  0.500871  1
  Th  Th4  1  0.778098  0.778098  0.750000  1
  Th  Th5  1  0.221226  0.001328  0.750000  1
  Th  Th6  1  0.001328  0.221226  0.750000  1
  Th  Th7  1  0.221617  0.221617  0.250000  1
  Th  Th8  1  0.779118  0.999522  0.250000  1
  Th  Th9  1  0.999522  0.779118  0.250000  1
  Bi  Bi10  1  0.593621  0.999877  0.750000  1
  Bi  Bi11  1  0.999877  0.593621  0.750000  1
  Bi  Bi12  1  0.592762  0.592762  0.250000  1
  Bi  Bi13  1  0.406563  0.000323  0.250000  1
  Bi  Bi14  1  0.000323  0.406563  0.250000  1
  Pb  Pb15  1  0.407134  0.407134  0.750000  1
  C  C16  1  0.999667  0.999667  0.000285  1
  C  C17  1  0.999667  0.999667  0.499715  1
