# generated using pymatgen
data_Tb16CdCo3NiHg3
_symmetry_space_group_name_H-M   'P 1'
_cell_length_a   9.51162597
_cell_length_b   9.50902339
_cell_length_c   9.51162524
_cell_angle_alpha   60.20485349
_cell_angle_beta   60.19907070
_cell_angle_gamma   60.20485540
_symmetry_Int_Tables_number   1
_chemical_formula_structural   Tb16CdCo3NiHg3
_chemical_formula_sum   'Tb16 Cd1 Co3 Ni1 Hg3'
_cell_volume   611.11281561
_cell_formula_units_Z   1
loop_
 _symmetry_equiv_pos_site_id
 _symmetry_equiv_pos_as_xyz
  1  'x, y, z'
loop_
 _atom_site_type_symbol
 _atom_site_label
 _atom_site_symmetry_multiplicity
 _atom_site_fract_x
 _atom_site_fract_y
 _atom_site_fract_z
 _atom_site_occupancy
  Tb  Tb0  1  0.439841  0.438940  0.055950  1
  Tb  Tb1  1  0.595893  0.596120  0.595893  1
  Tb  Tb2  1  0.189784  0.811338  0.812100  1
  Tb  Tb3  1  0.060600  0.060099  0.436849  1
  Tb  Tb4  1  0.436849  0.060099  0.060600  1
  Tb  Tb5  1  0.812203  0.189115  0.812203  1
  Tb  Tb6  1  0.440300  0.054907  0.440300  1
  Tb  Tb7  1  0.601671  0.202154  0.601671  1
  Tb  Tb8  1  0.812100  0.811338  0.189784  1
  Tb  Tb9  1  0.204765  0.601125  0.600711  1
  Tb  Tb10  1  0.812273  0.187827  0.188553  1
  Tb  Tb11  1  0.055950  0.438940  0.439841  1
  Tb  Tb12  1  0.188436  0.811751  0.188436  1
  Tb  Tb13  1  0.600711  0.601125  0.204765  1
  Tb  Tb14  1  0.188553  0.187827  0.812273  1
  Tb  Tb15  1  0.061236  0.435420  0.061236  1
  Cd  Cd16  1  0.829746  0.510240  0.829746  1
  Co  Co17  1  0.826317  0.391738  0.392317  1
  Co  Co18  1  0.392288  0.825845  0.392288  1
  Co  Co19  1  0.392317  0.391738  0.826317  1
  Ni  Ni20  1  0.392727  0.392010  0.392727  1
  Hg  Hg21  1  0.835238  0.833759  0.496071  1
  Hg  Hg22  1  0.834133  0.832784  0.834133  1
  Hg  Hg23  1  0.496071  0.833759  0.835238  1
