# generated using pymatgen
data_Y4ThPd14Au
_symmetry_space_group_name_H-M   'P 1'
_cell_length_a   4.18534100
_cell_length_b   4.14479900
_cell_length_c   20.79111800
_cell_angle_alpha   90.00000000
_cell_angle_beta   90.00000000
_cell_angle_gamma   90.00000000
_symmetry_Int_Tables_number   1
_chemical_formula_structural   Y4ThPd14Au
_chemical_formula_sum   'Y4 Th1 Pd14 Au1'
_cell_volume   360.67178200
_cell_formula_units_Z   1
loop_
 _symmetry_equiv_pos_site_id
 _symmetry_equiv_pos_as_xyz
  1  'x, y, z'
loop_
 _atom_site_type_symbol
 _atom_site_label
 _atom_site_symmetry_multiplicity
 _atom_site_fract_x
 _atom_site_fract_y
 _atom_site_fract_z
 _atom_site_occupancy
  Y  Y0  1  0.000000  0.000000  0.202367  1
  Y  Y1  1  0.000000  0.000000  0.396800  1
  Y  Y2  1  0.000000  0.000000  0.603200  1
  Y  Y3  1  0.000000  0.000000  0.797633  1
  Th  Th4  1  0.000000  0.000000  0.000000  1
  Pd  Pd5  1  0.500000  0.500000  0.000000  1
  Pd  Pd6  1  0.500000  0.500000  0.200581  1
  Pd  Pd7  1  0.500000  0.500000  0.399619  1
  Pd  Pd8  1  0.500000  0.500000  0.600381  1
  Pd  Pd9  1  0.500000  0.500000  0.799419  1
  Pd  Pd10  1  0.500000  0.000000  0.100619  1
  Pd  Pd11  1  0.500000  0.000000  0.300357  1
  Pd  Pd12  1  0.500000  0.000000  0.699643  1
  Pd  Pd13  1  0.500000  0.000000  0.899381  1
  Pd  Pd14  1  0.000000  0.500000  0.100651  1
  Pd  Pd15  1  0.000000  0.500000  0.300268  1
  Pd  Pd16  1  0.000000  0.500000  0.500000  1
  Pd  Pd17  1  0.000000  0.500000  0.699732  1
  Pd  Pd18  1  0.000000  0.500000  0.899349  1
  Au  Au19  1  0.500000  0.000000  0.500000  1
