# generated using pymatgen
data_YEr15In4(IrPt)2
_symmetry_space_group_name_H-M   'P 1'
_cell_length_a   9.60876890
_cell_length_b   9.61591297
_cell_length_c   9.61269411
_cell_angle_alpha   60.06282669
_cell_angle_beta   59.98595023
_cell_angle_gamma   59.97966547
_symmetry_Int_Tables_number   1
_chemical_formula_structural   YEr15In4(IrPt)2
_chemical_formula_sum   'Y1 Er15 In4 Ir2 Pt2'
_cell_volume   628.17574984
_cell_formula_units_Z   1
loop_
 _symmetry_equiv_pos_site_id
 _symmetry_equiv_pos_as_xyz
  1  'x, y, z'
loop_
 _atom_site_type_symbol
 _atom_site_label
 _atom_site_symmetry_multiplicity
 _atom_site_fract_x
 _atom_site_fract_y
 _atom_site_fract_z
 _atom_site_occupancy
  Y  Y0  1  0.061796  0.061154  0.436527  1
  Er  Er1  1  0.650624  0.051874  0.645431  1
  Er  Er2  1  0.187417  0.808720  0.193970  1
  Er  Er3  1  0.441077  0.061613  0.436691  1
  Er  Er4  1  0.187387  0.194141  0.809156  1
  Er  Er5  1  0.654230  0.649888  0.650257  1
  Er  Er6  1  0.048500  0.648565  0.648611  1
  Er  Er7  1  0.439094  0.061497  0.060979  1
  Er  Er8  1  0.650666  0.645327  0.051731  1
  Er  Er9  1  0.191262  0.808566  0.809622  1
  Er  Er10  1  0.809201  0.193995  0.810239  1
  Er  Er11  1  0.809385  0.190098  0.189866  1
  Er  Er12  1  0.809610  0.809564  0.194049  1
  Er  Er13  1  0.061192  0.440061  0.439178  1
  Er  Er14  1  0.439571  0.436253  0.062450  1
  Er  Er15  1  0.060974  0.437967  0.059825  1
  In  In16  1  0.749630  0.417039  0.416654  1
  In  In17  1  0.416638  0.416787  0.749921  1
  In  In18  1  0.416934  0.749507  0.416866  1
  In  In19  1  0.415815  0.416247  0.416345  1
  Ir  Ir20  1  0.857699  0.858892  0.425686  1
  Ir  Ir21  1  0.858330  0.425750  0.859084  1
  Pt  Pt22  1  0.856704  0.857638  0.858327  1
  Pt  Pt23  1  0.426267  0.858860  0.858536  1
