# generated using pymatgen
data_Nd3Al12Ru3Pt
_symmetry_space_group_name_H-M   'P 1'
_cell_length_a   8.90098500
_cell_length_b   8.92996730
_cell_length_c   9.65277556
_cell_angle_alpha   89.94000639
_cell_angle_beta   90.00000000
_cell_angle_gamma   119.89270844
_symmetry_Int_Tables_number   1
_chemical_formula_structural   Nd3Al12Ru3Pt
_chemical_formula_sum   'Nd6 Al24 Ru6 Pt2'
_cell_volume   665.17968927
_cell_formula_units_Z   2
loop_
 _symmetry_equiv_pos_site_id
 _symmetry_equiv_pos_as_xyz
  1  'x, y, z'
loop_
 _atom_site_type_symbol
 _atom_site_label
 _atom_site_symmetry_multiplicity
 _atom_site_fract_x
 _atom_site_fract_y
 _atom_site_fract_z
 _atom_site_occupancy
  Nd  Nd0  1  0.190657  0.381311  0.250784  1
  Nd  Nd1  1  0.809343  0.618689  0.749216  1
  Nd  Nd2  1  0.617493  0.809857  0.251195  1
  Nd  Nd3  1  0.382507  0.190143  0.748805  1
  Nd  Nd4  1  0.192365  0.809857  0.251195  1
  Nd  Nd5  1  0.807635  0.190143  0.748805  1
  Al  Al6  1  0.336430  0.672860  0.017755  1
  Al  Al7  1  0.663570  0.327140  0.982245  1
  Al  Al8  1  0.666580  0.333159  0.517744  1
  Al  Al9  1  0.333420  0.666841  0.482256  1
  Al  Al10  1  0.163565  0.327130  0.574148  1
  Al  Al11  1  0.836435  0.672870  0.425852  1
  Al  Al12  1  0.672794  0.836410  0.575147  1
  Al  Al13  1  0.838482  0.676966  0.077455  1
  Al  Al14  1  0.327206  0.163590  0.424853  1
  Al  Al15  1  0.161518  0.323034  0.922545  1
  Al  Al16  1  0.163617  0.836410  0.575147  1
  Al  Al17  1  0.324804  0.157640  0.077393  1
  Al  Al18  1  0.836383  0.163590  0.424853  1
  Al  Al19  1  0.675196  0.842360  0.922607  1
  Al  Al20  1  0.832836  0.157640  0.077393  1
  Al  Al21  1  0.167164  0.842360  0.922607  1
  Al  Al22  1  0.561945  0.123890  0.249017  1
  Al  Al23  1  0.438055  0.876110  0.750983  1
  Al  Al24  1  0.873169  0.436760  0.252928  1
  Al  Al25  1  0.126831  0.563240  0.747072  1
  Al  Al26  1  0.563591  0.436760  0.252928  1
  Al  Al27  1  0.436409  0.563240  0.747072  1
  Al  Al28  1  0.001026  0.002051  0.250410  1
  Al  Al29  1  0.998974  0.997949  0.749590  1
  Ru  Ru30  1  0.500000  0.000000  0.000000  1
  Ru  Ru31  1  0.500000  0.000000  0.500000  1
  Ru  Ru32  1  0.000000  0.500000  0.500000  1
  Ru  Ru33  1  0.500000  0.500000  0.500000  1
  Ru  Ru34  1  0.000000  0.000000  0.000000  1
  Ru  Ru35  1  0.000000  0.000000  0.500000  1
  Pt  Pt36  1  0.000000  0.500000  0.000000  1
  Pt  Pt37  1  0.500000  0.500000  0.000000  1
