# generated using pymatgen
data_Al11Cr3Ga
_symmetry_space_group_name_H-M   'P 1'
_cell_length_a   5.11221724
_cell_length_b   5.14837279
_cell_length_c   9.04314862
_cell_angle_alpha   74.06897055
_cell_angle_beta   86.71990110
_cell_angle_gamma   79.83875264
_symmetry_Int_Tables_number   1
_chemical_formula_structural   Al11Cr3Ga
_chemical_formula_sum   'Al11 Cr3 Ga1'
_cell_volume   225.27115560
_cell_formula_units_Z   1
loop_
 _symmetry_equiv_pos_site_id
 _symmetry_equiv_pos_as_xyz
  1  'x, y, z'
loop_
 _atom_site_type_symbol
 _atom_site_label
 _atom_site_symmetry_multiplicity
 _atom_site_fract_x
 _atom_site_fract_y
 _atom_site_fract_z
 _atom_site_occupancy
  Al  Al0  1  0.099317  0.313247  0.395307  1
  Al  Al1  1  0.853427  0.696761  0.625291  1
  Al  Al2  1  0.845701  0.473963  0.108343  1
  Al  Al3  1  0.166835  0.540365  0.866927  1
  Al  Al4  1  0.983850  0.986183  0.020150  1
  Al  Al5  1  0.446334  0.109761  0.100643  1
  Al  Al6  1  0.526133  0.888664  0.865877  1
  Al  Al7  1  0.452407  0.337597  0.634013  1
  Al  Al8  1  0.593872  0.670150  0.362594  1
  Al  Al9  1  0.089935  0.841880  0.339180  1
  Al  Al10  1  0.987059  0.128978  0.713351  1
  Cr  Cr11  1  0.337944  0.865441  0.590474  1
  Cr  Cr12  1  0.328473  0.601244  0.140046  1
  Cr  Cr13  1  0.679817  0.380599  0.867688  1
  Ga  Ga14  1  0.608895  0.165166  0.370118  1
