# generated using pymatgen
data_Ca13Dy7Si15P
_symmetry_space_group_name_H-M   'P 1'
_cell_length_a   7.51132657
_cell_length_b   7.81234981
_cell_length_c   15.29290900
_cell_angle_alpha   90.24293950
_cell_angle_beta   89.19760076
_cell_angle_gamma   90.29120535
_symmetry_Int_Tables_number   1
_chemical_formula_structural   Ca13Dy7Si15P
_chemical_formula_sum   'Ca13 Dy7 Si15 P1'
_cell_volume   897.29749604
_cell_formula_units_Z   1
loop_
 _symmetry_equiv_pos_site_id
 _symmetry_equiv_pos_as_xyz
  1  'x, y, z'
loop_
 _atom_site_type_symbol
 _atom_site_label
 _atom_site_symmetry_multiplicity
 _atom_site_fract_x
 _atom_site_fract_y
 _atom_site_fract_z
 _atom_site_occupancy
  Ca  Ca0  1  0.648177  0.981063  0.250357  1
  Ca  Ca1  1  0.148429  0.518540  0.251016  1
  Ca  Ca2  1  0.850170  0.482803  0.749917  1
  Ca  Ca3  1  0.354551  0.017681  0.750396  1
  Ca  Ca4  1  0.976387  0.816006  0.096067  1
  Ca  Ca5  1  0.472414  0.682900  0.404782  1
  Ca  Ca6  1  0.523375  0.314350  0.903608  1
  Ca  Ca7  1  0.028754  0.184167  0.596579  1
  Ca  Ca8  1  0.025063  0.183253  0.902766  1
  Ca  Ca9  1  0.529334  0.315839  0.596465  1
  Ca  Ca10  1  0.467526  0.689707  0.097260  1
  Ca  Ca11  1  0.972080  0.817482  0.404707  1
  Ca  Ca12  1  0.685525  0.819542  0.880374  1
  Dy  Dy13  1  0.183844  0.676590  0.621834  1
  Dy  Dy14  1  0.817677  0.323524  0.120395  1
  Dy  Dy15  1  0.314822  0.176935  0.379293  1
  Dy  Dy16  1  0.315736  0.176671  0.122047  1
  Dy  Dy17  1  0.814394  0.324290  0.378757  1
  Dy  Dy18  1  0.183647  0.677274  0.877085  1
  Dy  Dy19  1  0.683928  0.823770  0.621628  1
  Si  Si20  1  0.754436  0.604697  0.248357  1
  Si  Si21  1  0.251385  0.896570  0.249910  1
  Si  Si22  1  0.749500  0.108465  0.747921  1
  Si  Si23  1  0.241866  0.392365  0.749861  1
  Si  Si24  1  0.024017  0.118051  0.250296  1
  Si  Si25  1  0.524516  0.384025  0.249354  1
  Si  Si26  1  0.472946  0.611388  0.747734  1
  Si  Si27  1  0.977533  0.886265  0.748867  1
  Si  Si28  1  0.359574  0.965280  0.538212  1
  Si  Si29  1  0.637293  0.038593  0.039281  1
  Si  Si30  1  0.138659  0.466030  0.461093  1
  Si  Si31  1  0.147190  0.465577  0.037155  1
  Si  Si32  1  0.639096  0.034427  0.460893  1
  Si  Si33  1  0.352571  0.965015  0.964229  1
  Si  Si34  1  0.859812  0.535421  0.537914  1
  P  P35  1  0.873771  0.525437  0.963594  1
