# generated using pymatgen
data_NdHoEr4(SbO7)2
_symmetry_space_group_name_H-M   'P 1'
_cell_length_a   6.44015396
_cell_length_b   6.44015474
_cell_length_c   7.52340400
_cell_angle_alpha   90.03128951
_cell_angle_beta   89.96871049
_cell_angle_gamma   109.33280500
_symmetry_Int_Tables_number   1
_chemical_formula_structural   NdHoEr4(SbO7)2
_chemical_formula_sum   'Nd1 Ho1 Er4 Sb2 O14'
_cell_volume   294.44222506
_cell_formula_units_Z   1
loop_
 _symmetry_equiv_pos_site_id
 _symmetry_equiv_pos_as_xyz
  1  'x, y, z'
loop_
 _atom_site_type_symbol
 _atom_site_label
 _atom_site_symmetry_multiplicity
 _atom_site_fract_x
 _atom_site_fract_y
 _atom_site_fract_z
 _atom_site_occupancy
  Nd  Nd0  1  0.500000  0.500000  0.000000  1
  Ho  Ho1  1  0.500000  0.500000  0.500000  1
  Er  Er2  1  0.531405  0.000691  0.746946  1
  Er  Er3  1  0.000691  0.531405  0.253054  1
  Er  Er4  1  0.468595  0.999309  0.253054  1
  Er  Er5  1  0.999309  0.468595  0.746946  1
  Sb  Sb6  1  0.000000  0.000000  0.500000  1
  Sb  Sb7  1  0.000000  0.000000  0.000000  1
  O  O8  1  0.676990  0.927588  0.470084  1
  O  O9  1  0.927588  0.676990  0.529916  1
  O  O10  1  0.676489  0.930856  0.030417  1
  O  O11  1  0.930856  0.676489  0.969583  1
  O  O12  1  0.323010  0.072412  0.529916  1
  O  O13  1  0.072412  0.323010  0.470084  1
  O  O14  1  0.323511  0.069144  0.969583  1
  O  O15  1  0.069144  0.323511  0.030417  1
  O  O16  1  0.928842  0.071158  0.750192  1
  O  O17  1  0.071158  0.928842  0.249808  1
  O  O18  1  0.365563  0.634437  0.740641  1
  O  O19  1  0.634437  0.365563  0.259359  1
  O  O20  1  0.640559  0.359441  0.741577  1
  O  O21  1  0.359441  0.640559  0.258423  1
