# generated using pymatgen
data_Tm5BiRuO12
_symmetry_space_group_name_H-M   'P 1'
_cell_length_a   6.41349451
_cell_length_b   6.39428740
_cell_length_c   6.41346400
_cell_angle_alpha   98.72617853
_cell_angle_beta   98.87178655
_cell_angle_gamma   98.69403395
_symmetry_Int_Tables_number   1
_chemical_formula_structural   Tm5BiRuO12
_chemical_formula_sum   'Tm5 Bi1 Ru1 O12'
_cell_volume   252.72333582
_cell_formula_units_Z   1
loop_
 _symmetry_equiv_pos_site_id
 _symmetry_equiv_pos_as_xyz
  1  'x, y, z'
loop_
 _atom_site_type_symbol
 _atom_site_label
 _atom_site_symmetry_multiplicity
 _atom_site_fract_x
 _atom_site_fract_y
 _atom_site_fract_z
 _atom_site_occupancy
  Tm  Tm0  1  0.384343  0.687282  0.855983  1
  Tm  Tm1  1  0.859604  0.390725  0.699301  1
  Tm  Tm2  1  0.306409  0.146221  0.616393  1
  Tm  Tm3  1  0.607779  0.307746  0.136088  1
  Tm  Tm4  1  0.139874  0.604684  0.306926  1
  Bi  Bi5  1  0.692457  0.861689  0.392184  1
  Ru  Ru6  1  0.001610  0.997246  0.004005  1
  O  O7  1  0.430394  0.586577  0.175601  1
  O  O8  1  0.174446  0.435692  0.588189  1
  O  O9  1  0.585411  0.182646  0.434145  1
  O  O10  1  0.564047  0.410672  0.821094  1
  O  O11  1  0.819574  0.565067  0.414362  1
  O  O12  1  0.417373  0.822842  0.567368  1
  O  O13  1  0.936491  0.046801  0.695867  1
  O  O14  1  0.956128  0.303839  0.073858  1
  O  O15  1  0.305831  0.069812  0.955428  1
  O  O16  1  0.074248  0.960342  0.300970  1
  O  O17  1  0.041910  0.694673  0.929865  1
  O  O18  1  0.702074  0.925444  0.032373  1
