# generated using pymatgen
data_Lu2Mn14(SiC)3
_symmetry_space_group_name_H-M   'P 1'
_cell_length_a   6.38561063
_cell_length_b   6.38561054
_cell_length_c   6.38560880
_cell_angle_alpha   82.31698325
_cell_angle_beta   82.31698509
_cell_angle_gamma   82.31697203
_symmetry_Int_Tables_number   1
_chemical_formula_structural   Lu2Mn14(SiC)3
_chemical_formula_sum   'Lu2 Mn14 Si3 C3'
_cell_volume   253.94140980
_cell_formula_units_Z   1
loop_
 _symmetry_equiv_pos_site_id
 _symmetry_equiv_pos_as_xyz
  1  'x, y, z'
loop_
 _atom_site_type_symbol
 _atom_site_label
 _atom_site_symmetry_multiplicity
 _atom_site_fract_x
 _atom_site_fract_y
 _atom_site_fract_z
 _atom_site_occupancy
  Lu  Lu0  1  0.343322  0.343322  0.343322  1
  Lu  Lu1  1  0.656678  0.656678  0.656678  1
  Mn  Mn2  1  0.095260  0.095260  0.095260  1
  Mn  Mn3  1  0.904740  0.904740  0.904740  1
  Mn  Mn4  1  0.725615  0.274385  0.000000  1
  Mn  Mn5  1  0.274385  0.000000  0.725615  1
  Mn  Mn6  1  0.000000  0.725615  0.274385  1
  Mn  Mn7  1  0.274385  0.725615  0.000000  1
  Mn  Mn8  1  0.725615  0.000000  0.274385  1
  Mn  Mn9  1  0.000000  0.274385  0.725615  1
  Mn  Mn10  1  0.148118  0.651323  0.651323  1
  Mn  Mn11  1  0.651323  0.651323  0.148118  1
  Mn  Mn12  1  0.651323  0.148118  0.651323  1
  Mn  Mn13  1  0.348677  0.851882  0.348677  1
  Mn  Mn14  1  0.348677  0.348677  0.851882  1
  Mn  Mn15  1  0.851882  0.348677  0.348677  1
  Si  Si16  1  0.000000  0.000000  0.500000  1
  Si  Si17  1  0.000000  0.500000  0.000000  1
  Si  Si18  1  0.500000  0.000000  0.000000  1
  C  C19  1  0.500000  0.500000  0.000000  1
  C  C20  1  0.500000  0.000000  0.500000  1
  C  C21  1  0.000000  0.500000  0.500000  1
