# generated using pymatgen
data_Zr12AlSi3(Ir2N)4
_symmetry_space_group_name_H-M   'P 1'
_cell_length_a   8.52522438
_cell_length_b   8.53797267
_cell_length_c   8.52522500
_cell_angle_alpha   60.04938147
_cell_angle_beta   60.00000149
_cell_angle_gamma   60.04937650
_symmetry_Int_Tables_number   1
_chemical_formula_structural   Zr12AlSi3(Ir2N)4
_chemical_formula_sum   'Zr12 Al1 Si3 Ir8 N4'
_cell_volume   439.11186686
_cell_formula_units_Z   1
loop_
 _symmetry_equiv_pos_site_id
 _symmetry_equiv_pos_as_xyz
  1  'x, y, z'
loop_
 _atom_site_type_symbol
 _atom_site_label
 _atom_site_symmetry_multiplicity
 _atom_site_fract_x
 _atom_site_fract_y
 _atom_site_fract_z
 _atom_site_occupancy
  Zr  Zr0  1  0.807752  0.807119  0.192565  1
  Zr  Zr1  1  0.191886  0.192516  0.807799  1
  Zr  Zr2  1  0.807799  0.192516  0.807799  1
  Zr  Zr3  1  0.192565  0.807119  0.192565  1
  Zr  Zr4  1  0.192565  0.807119  0.807752  1
  Zr  Zr5  1  0.807799  0.192516  0.191886  1
  Zr  Zr6  1  0.442248  0.442881  0.057435  1
  Zr  Zr7  1  0.058114  0.057484  0.442201  1
  Zr  Zr8  1  0.442201  0.057484  0.442201  1
  Zr  Zr9  1  0.057435  0.442881  0.057435  1
  Zr  Zr10  1  0.057435  0.442881  0.442248  1
  Zr  Zr11  1  0.442201  0.057484  0.058114  1
  Al  Al12  1  0.625000  0.125000  0.625000  1
  Si  Si13  1  0.125000  0.625000  0.625000  1
  Si  Si14  1  0.625000  0.625000  0.125000  1
  Si  Si15  1  0.625000  0.625000  0.625000  1
  Ir  Ir16  1  0.751037  0.419670  0.414647  1
  Ir  Ir17  1  0.416401  0.750798  0.416401  1
  Ir  Ir18  1  0.414647  0.419670  0.751037  1
  Ir  Ir19  1  0.414647  0.419670  0.414647  1
  Ir  Ir20  1  0.498963  0.830330  0.835353  1
  Ir  Ir21  1  0.833599  0.499202  0.833599  1
  Ir  Ir22  1  0.835353  0.830330  0.498963  1
  Ir  Ir23  1  0.835353  0.830330  0.835353  1
  N  N24  1  0.625000  0.125000  0.125000  1
  N  N25  1  0.125000  0.625000  0.125000  1
  N  N26  1  0.125000  0.125000  0.625000  1
  N  N27  1  0.125000  0.125000  0.125000  1
