# generated using pymatgen
data_Ho8GaPdPt23
_symmetry_space_group_name_H-M   'P 1'
_cell_length_a   8.35879900
_cell_length_b   8.34411600
_cell_length_c   8.34411600
_cell_angle_alpha   90.00000000
_cell_angle_beta   90.00000000
_cell_angle_gamma   90.00000000
_symmetry_Int_Tables_number   1
_chemical_formula_structural   Ho8GaPdPt23
_chemical_formula_sum   'Ho8 Ga1 Pd1 Pt23'
_cell_volume   581.97529368
_cell_formula_units_Z   1
loop_
 _symmetry_equiv_pos_site_id
 _symmetry_equiv_pos_as_xyz
  1  'x, y, z'
loop_
 _atom_site_type_symbol
 _atom_site_label
 _atom_site_symmetry_multiplicity
 _atom_site_fract_x
 _atom_site_fract_y
 _atom_site_fract_z
 _atom_site_occupancy
  Ho  Ho0  1  0.251246  0.250868  0.749132  1
  Ho  Ho1  1  0.251246  0.749132  0.250868  1
  Ho  Ho2  1  0.748322  0.251501  0.251501  1
  Ho  Ho3  1  0.748322  0.748499  0.748499  1
  Ho  Ho4  1  0.748322  0.748499  0.251501  1
  Ho  Ho5  1  0.748322  0.251501  0.748499  1
  Ho  Ho6  1  0.251246  0.749132  0.749132  1
  Ho  Ho7  1  0.251246  0.250868  0.250868  1
  Ga  Ga8  1  0.002571  0.000000  0.000000  1
  Pd  Pd9  1  0.707519  0.000000  0.000000  1
  Pt  Pt10  1  0.499812  0.500000  0.746658  1
  Pt  Pt11  1  0.499812  0.253342  0.500000  1
  Pt  Pt12  1  0.253623  0.500000  0.500000  1
  Pt  Pt13  1  0.499812  0.500000  0.253342  1
  Pt  Pt14  1  0.499812  0.746658  0.500000  1
  Pt  Pt15  1  0.746447  0.500000  0.500000  1
  Pt  Pt16  1  0.999025  0.000000  0.705506  1
  Pt  Pt17  1  0.999025  0.294494  0.000000  1
  Pt  Pt18  1  0.297667  0.000000  0.000000  1
  Pt  Pt19  1  0.999025  0.000000  0.294494  1
  Pt  Pt20  1  0.999025  0.705506  0.000000  1
  Pt  Pt21  1  0.000034  0.500000  0.738613  1
  Pt  Pt22  1  0.500221  0.261094  0.000000  1
  Pt  Pt23  1  0.261070  0.000000  0.500000  1
  Pt  Pt24  1  0.000034  0.261387  0.500000  1
  Pt  Pt25  1  0.500221  0.000000  0.738906  1
  Pt  Pt26  1  0.261070  0.500000  0.000000  1
  Pt  Pt27  1  0.000034  0.500000  0.261387  1
  Pt  Pt28  1  0.500221  0.738906  0.000000  1
  Pt  Pt29  1  0.000034  0.738613  0.500000  1
  Pt  Pt30  1  0.500221  0.000000  0.261094  1
  Pt  Pt31  1  0.737697  0.000000  0.500000  1
  Pt  Pt32  1  0.737697  0.500000  0.000000  1
