# generated using pymatgen
data_Li3(SnAu)2
_symmetry_space_group_name_H-M   'P 1'
_cell_length_a   7.36750950
_cell_length_b   7.36750992
_cell_length_c   7.36750814
_cell_angle_alpha   37.28623673
_cell_angle_beta   37.28623208
_cell_angle_gamma   37.28623177
_symmetry_Int_Tables_number   1
_chemical_formula_structural   Li3(SnAu)2
_chemical_formula_sum   'Li3 Sn2 Au2'
_cell_volume   131.56976967
_cell_formula_units_Z   1
loop_
 _symmetry_equiv_pos_site_id
 _symmetry_equiv_pos_as_xyz
  1  'x, y, z'
loop_
 _atom_site_type_symbol
 _atom_site_label
 _atom_site_symmetry_multiplicity
 _atom_site_fract_x
 _atom_site_fract_y
 _atom_site_fract_z
 _atom_site_occupancy
  Li  Li0  1  0.638753  0.638753  0.638753  1
  Li  Li1  1  0.361247  0.361247  0.361247  1
  Li  Li2  1  0.500000  0.500000  0.500000  1
  Sn  Sn3  1  0.918820  0.918820  0.918820  1
  Sn  Sn4  1  0.081180  0.081180  0.081180  1
  Au  Au5  1  0.767138  0.767138  0.767138  1
  Au  Au6  1  0.232863  0.232863  0.232863  1
