# generated using pymatgen
data_TbErGa2NiRh
_symmetry_space_group_name_H-M   'P 1'
_cell_length_a   4.26806600
_cell_length_b   6.75930900
_cell_length_c   7.62937200
_cell_angle_alpha   90.00000000
_cell_angle_beta   90.00000000
_cell_angle_gamma   90.00000000
_symmetry_Int_Tables_number   1
_chemical_formula_structural   TbErGa2NiRh
_chemical_formula_sum   'Tb2 Er2 Ga4 Ni2 Rh2'
_cell_volume   220.10110267
_cell_formula_units_Z   2
loop_
 _symmetry_equiv_pos_site_id
 _symmetry_equiv_pos_as_xyz
  1  'x, y, z'
loop_
 _atom_site_type_symbol
 _atom_site_label
 _atom_site_symmetry_multiplicity
 _atom_site_fract_x
 _atom_site_fract_y
 _atom_site_fract_z
 _atom_site_occupancy
  Tb  Tb0  1  0.750000  0.026161  0.685409  1
  Tb  Tb1  1  0.750000  0.526161  0.814591  1
  Er  Er2  1  0.250000  0.974959  0.311414  1
  Er  Er3  1  0.250000  0.474959  0.188586  1
  Ga  Ga4  1  0.250000  0.346701  0.576230  1
  Ga  Ga5  1  0.250000  0.846701  0.923770  1
  Ga  Ga6  1  0.750000  0.659424  0.440400  1
  Ga  Ga7  1  0.750000  0.159424  0.059600  1
  Ni  Ni8  1  0.250000  0.222103  0.887247  1
  Ni  Ni9  1  0.250000  0.722103  0.612753  1
  Rh  Rh10  1  0.750000  0.770652  0.112577  1
  Rh  Rh11  1  0.750000  0.270652  0.387423  1
