# generated using pymatgen
data_Er4Tm5Lu3In2Fe3
_symmetry_space_group_name_H-M   'P 1'
_cell_length_a   8.24225081
_cell_length_b   8.23868447
_cell_length_c   8.23868300
_cell_angle_alpha   108.48139345
_cell_angle_beta   108.43717634
_cell_angle_gamma   111.49640866
_symmetry_Int_Tables_number   1
_chemical_formula_structural   Er4Tm5Lu3In2Fe3
_chemical_formula_sum   'Er4 Tm5 Lu3 In2 Fe3'
_cell_volume   430.35292568
_cell_formula_units_Z   1
loop_
 _symmetry_equiv_pos_site_id
 _symmetry_equiv_pos_as_xyz
  1  'x, y, z'
loop_
 _atom_site_type_symbol
 _atom_site_label
 _atom_site_symmetry_multiplicity
 _atom_site_fract_x
 _atom_site_fract_y
 _atom_site_fract_z
 _atom_site_occupancy
  Er  Er0  1  0.307373  0.307346  0.614279  1
  Er  Er1  1  0.692813  0.692480  0.385436  1
  Er  Er2  1  0.692813  0.307377  0.000333  1
  Er  Er3  1  0.307373  0.693094  0.000028  1
  Tm  Tm4  1  0.190620  0.426563  0.236351  1
  Tm  Tm5  1  0.809490  0.573855  0.764151  1
  Tm  Tm6  1  0.190620  0.954268  0.764057  1
  Tm  Tm7  1  0.953635  0.189892  0.763745  1
  Tm  Tm8  1  0.809490  0.045340  0.235635  1
  Lu  Lu9  1  0.046093  0.810251  0.235841  1
  Lu  Lu10  1  0.425682  0.189672  0.236011  1
  Lu  Lu11  1  0.573990  0.809954  0.764036  1
  In  In12  1  0.000035  0.500010  0.500025  1
  In  In13  1  0.499452  0.999749  0.499703  1
  Fe  Fe14  1  0.384336  0.384184  0.000151  1
  Fe  Fe15  1  0.616173  0.616153  0.000020  1
  Fe  Fe16  1  0.000011  0.999812  0.000199  1
