# generated using pymatgen
data_Tm3ThMgRh
_symmetry_space_group_name_H-M   'P 1'
_cell_length_a   9.70883323
_cell_length_b   9.70883339
_cell_length_c   9.70883300
_cell_angle_alpha   59.99999791
_cell_angle_beta   59.99999739
_cell_angle_gamma   59.99999681
_symmetry_Int_Tables_number   1
_chemical_formula_structural   Tm3ThMgRh
_chemical_formula_sum   'Tm12 Th4 Mg4 Rh4'
_cell_volume   647.12189881
_cell_formula_units_Z   4
loop_
 _symmetry_equiv_pos_site_id
 _symmetry_equiv_pos_as_xyz
  1  'x, y, z'
loop_
 _atom_site_type_symbol
 _atom_site_label
 _atom_site_symmetry_multiplicity
 _atom_site_fract_x
 _atom_site_fract_y
 _atom_site_fract_z
 _atom_site_occupancy
  Tm  Tm0  1  0.063371  0.436629  0.436629  1
  Tm  Tm1  1  0.436629  0.063371  0.063371  1
  Tm  Tm2  1  0.436629  0.063371  0.436629  1
  Tm  Tm3  1  0.063371  0.436629  0.063371  1
  Tm  Tm4  1  0.436629  0.436629  0.063371  1
  Tm  Tm5  1  0.063371  0.063371  0.436629  1
  Tm  Tm6  1  0.183297  0.816703  0.816703  1
  Tm  Tm7  1  0.816703  0.183297  0.183297  1
  Tm  Tm8  1  0.816703  0.183297  0.816703  1
  Tm  Tm9  1  0.183297  0.816703  0.183297  1
  Tm  Tm10  1  0.816703  0.816703  0.183297  1
  Tm  Tm11  1  0.183297  0.183297  0.816703  1
  Th  Th12  1  0.599279  0.599279  0.599279  1
  Th  Th13  1  0.599279  0.599279  0.202162  1
  Th  Th14  1  0.599279  0.202162  0.599279  1
  Th  Th15  1  0.202162  0.599279  0.599279  1
  Mg  Mg16  1  0.830927  0.830927  0.830927  1
  Mg  Mg17  1  0.830927  0.830927  0.507219  1
  Mg  Mg18  1  0.830927  0.507219  0.830927  1
  Mg  Mg19  1  0.507219  0.830927  0.830927  1
  Rh  Rh20  1  0.393300  0.393300  0.393300  1
  Rh  Rh21  1  0.393300  0.393300  0.820100  1
  Rh  Rh22  1  0.393300  0.820100  0.393300  1
  Rh  Rh23  1  0.820100  0.393300  0.393300  1
