# generated using pymatgen
data_SrMnWO6
_symmetry_space_group_name_H-M   'P 1'
_cell_length_a   5.15684403
_cell_length_b   5.15696685
_cell_length_c   5.45136300
_cell_angle_alpha   90.00398549
_cell_angle_beta   90.00254124
_cell_angle_gamma   120.01969091
_symmetry_Int_Tables_number   1
_chemical_formula_structural   SrMnWO6
_chemical_formula_sum   'Sr1 Mn1 W1 O6'
_cell_volume   125.52431513
_cell_formula_units_Z   1
loop_
 _symmetry_equiv_pos_site_id
 _symmetry_equiv_pos_as_xyz
  1  'x, y, z'
loop_
 _atom_site_type_symbol
 _atom_site_label
 _atom_site_symmetry_multiplicity
 _atom_site_fract_x
 _atom_site_fract_y
 _atom_site_fract_z
 _atom_site_occupancy
  Sr  Sr0  1  0.000078  0.999939  0.499997  1
  Mn  Mn1  1  0.666490  0.333457  0.000002  1
  W  W2  1  0.333224  0.666742  0.999998  1
  O  O3  1  0.997825  0.619468  0.198804  1
  O  O4  1  0.621732  0.002195  0.198729  1
  O  O5  1  0.380535  0.378242  0.198846  1
  O  O6  1  0.621765  0.619475  0.801155  1
  O  O7  1  0.997817  0.378282  0.801278  1
  O  O8  1  0.380541  0.002193  0.801187  1
