# generated using pymatgen
data_Dy3Lu5(SiI6)2
_symmetry_space_group_name_H-M   'P 1'
_cell_length_a   4.18550200
_cell_length_b   13.82594625
_cell_length_c   14.62185500
_cell_angle_alpha   90.17054143
_cell_angle_beta   90.00000000
_cell_angle_gamma   90.00000000
_symmetry_Int_Tables_number   1
_chemical_formula_structural   Dy3Lu5(SiI6)2
_chemical_formula_sum   'Dy3 Lu5 Si2 I12'
_cell_volume   846.14144309
_cell_formula_units_Z   1
loop_
 _symmetry_equiv_pos_site_id
 _symmetry_equiv_pos_as_xyz
  1  'x, y, z'
loop_
 _atom_site_type_symbol
 _atom_site_label
 _atom_site_symmetry_multiplicity
 _atom_site_fract_x
 _atom_site_fract_y
 _atom_site_fract_z
 _atom_site_occupancy
  Dy  Dy0  1  0.500000  0.115782  0.347596  1
  Dy  Dy1  1  0.500000  0.884598  0.652819  1
  Dy  Dy2  1  0.500000  0.615020  0.152050  1
  Lu  Lu3  1  0.500000  0.385584  0.848306  1
  Lu  Lu4  1  0.000000  0.108075  0.573911  1
  Lu  Lu5  1  0.000000  0.892523  0.427206  1
  Lu  Lu6  1  0.000000  0.607301  0.927446  1
  Lu  Lu7  1  0.000000  0.392908  0.072853  1
  Si  Si8  1  0.500000  0.000500  0.500428  1
  Si  Si9  1  0.500000  0.499036  0.998648  1
  I  I10  1  0.500000  0.251655  0.161126  1
  I  I11  1  0.500000  0.746556  0.836798  1
  I  I12  1  0.500000  0.752090  0.337178  1
  I  I13  1  0.500000  0.249433  0.664802  1
  I  I14  1  0.000000  0.260892  0.420010  1
  I  I15  1  0.000000  0.739203  0.580736  1
  I  I16  1  0.000000  0.760426  0.080793  1
  I  I17  1  0.000000  0.243223  0.915147  1
  I  I18  1  0.000000  0.997690  0.240264  1
  I  I19  1  0.000000  0.002443  0.760555  1
  I  I20  1  0.000000  0.497680  0.259809  1
  I  I21  1  0.000000  0.497380  0.741520  1
