# generated using pymatgen
data_Cs12InMo3Se16
_symmetry_space_group_name_H-M   'P 1'
_cell_length_a   10.41138886
_cell_length_b   10.55088043
_cell_length_c   12.12782400
_cell_angle_alpha   90.00000000
_cell_angle_beta   90.00000000
_cell_angle_gamma   89.72359440
_symmetry_Int_Tables_number   1
_chemical_formula_structural   Cs12InMo3Se16
_chemical_formula_sum   'Cs12 In1 Mo3 Se16'
_cell_volume   1332.21770555
_cell_formula_units_Z   1
loop_
 _symmetry_equiv_pos_site_id
 _symmetry_equiv_pos_as_xyz
  1  'x, y, z'
loop_
 _atom_site_type_symbol
 _atom_site_label
 _atom_site_symmetry_multiplicity
 _atom_site_fract_x
 _atom_site_fract_y
 _atom_site_fract_z
 _atom_site_occupancy
  Cs  Cs0  1  0.545586  0.708401  0.038805  1
  Cs  Cs1  1  0.053550  0.802028  0.467620  1
  Cs  Cs2  1  0.439961  0.285284  0.546296  1
  Cs  Cs3  1  0.966650  0.194539  0.944623  1
  Cs  Cs4  1  0.439961  0.285284  0.953704  1
  Cs  Cs5  1  0.966650  0.194539  0.555377  1
  Cs  Cs6  1  0.545586  0.708401  0.461195  1
  Cs  Cs7  1  0.053550  0.802028  0.032380  1
  Cs  Cs8  1  0.351417  0.078467  0.250000  1
  Cs  Cs9  1  0.854655  0.410661  0.250000  1
  Cs  Cs10  1  0.634027  0.919391  0.750000  1
  Cs  Cs11  1  0.149150  0.597830  0.750000  1
  In  In12  1  0.227351  0.019307  0.750000  1
  Mo  Mo13  1  0.274631  0.517006  0.250000  1
  Mo  Mo14  1  0.777856  0.981316  0.250000  1
  Mo  Mo15  1  0.724743  0.480365  0.750000  1
  Se  Se16  1  0.291346  0.738848  0.250000  1
  Se  Se17  1  0.794222  0.757609  0.250000  1
  Se  Se18  1  0.705709  0.258803  0.750000  1
  Se  Se19  1  0.203649  0.270798  0.750000  1
  Se  Se20  1  0.482860  0.425242  0.250000  1
  Se  Se21  1  0.985749  0.070159  0.250000  1
  Se  Se22  1  0.518013  0.570540  0.750000  1
  Se  Se23  1  0.992871  0.922345  0.750000  1
  Se  Se24  1  0.162862  0.456109  0.090204  1
  Se  Se25  1  0.668480  0.047754  0.408282  1
  Se  Se26  1  0.834421  0.541727  0.589793  1
  Se  Se27  1  0.344365  0.954814  0.935170  1
  Se  Se28  1  0.834421  0.541727  0.910207  1
  Se  Se29  1  0.344365  0.954814  0.564830  1
  Se  Se30  1  0.162862  0.456109  0.409796  1
  Se  Se31  1  0.668480  0.047754  0.091718  1
