# generated using pymatgen
data_Tm2Lu10In2Fe2Ir
_symmetry_space_group_name_H-M   'P 1'
_cell_length_a   8.21241567
_cell_length_b   8.21241655
_cell_length_c   8.20687800
_cell_angle_alpha   108.55564923
_cell_angle_beta   108.55563657
_cell_angle_gamma   111.34471870
_symmetry_Int_Tables_number   1
_chemical_formula_structural   Tm2Lu10In2Fe2Ir
_chemical_formula_sum   'Tm2 Lu10 In2 Fe2 Ir1'
_cell_volume   425.60972193
_cell_formula_units_Z   1
loop_
 _symmetry_equiv_pos_site_id
 _symmetry_equiv_pos_as_xyz
  1  'x, y, z'
loop_
 _atom_site_type_symbol
 _atom_site_label
 _atom_site_symmetry_multiplicity
 _atom_site_fract_x
 _atom_site_fract_y
 _atom_site_fract_z
 _atom_site_occupancy
  Tm  Tm0  1  0.691574  0.308426  0.000000  1
  Tm  Tm1  1  0.308426  0.691574  0.000000  1
  Lu  Lu2  1  0.193161  0.430401  0.238338  1
  Lu  Lu3  1  0.806839  0.569599  0.761662  1
  Lu  Lu4  1  0.192061  0.954824  0.761662  1
  Lu  Lu5  1  0.954824  0.192061  0.761662  1
  Lu  Lu6  1  0.807939  0.045176  0.238338  1
  Lu  Lu7  1  0.045176  0.807939  0.238338  1
  Lu  Lu8  1  0.430401  0.193161  0.238338  1
  Lu  Lu9  1  0.569599  0.806839  0.761662  1
  Lu  Lu10  1  0.308764  0.308764  0.617528  1
  Lu  Lu11  1  0.691236  0.691236  0.382472  1
  In  In12  1  0.000000  0.500000  0.500000  1
  In  In13  1  0.500000  0.000000  0.500000  1
  Fe  Fe14  1  0.384564  0.384564  0.000000  1
  Fe  Fe15  1  0.615436  0.615436  0.000000  1
  Ir  Ir16  1  0.000000  0.000000  0.000000  1
