# generated using pymatgen
data_Er4Fe3(CoO4)5
_symmetry_space_group_name_H-M   'P 1'
_cell_length_a   5.72928200
_cell_length_b   7.23436857
_cell_length_c   8.46189897
_cell_angle_alpha   89.86749645
_cell_angle_beta   90.00000000
_cell_angle_gamma   90.00000000
_symmetry_Int_Tables_number   1
_chemical_formula_structural   Er4Fe3(CoO4)5
_chemical_formula_sum   'Er4 Fe3 Co5 O20'
_cell_volume   350.72563077
_cell_formula_units_Z   1
loop_
 _symmetry_equiv_pos_site_id
 _symmetry_equiv_pos_as_xyz
  1  'x, y, z'
loop_
 _atom_site_type_symbol
 _atom_site_label
 _atom_site_symmetry_multiplicity
 _atom_site_fract_x
 _atom_site_fract_y
 _atom_site_fract_z
 _atom_site_occupancy
  Er  Er0  1  0.000000  0.139502  0.167812  1
  Er  Er1  1  0.000000  0.861884  0.830254  1
  Er  Er2  1  0.000000  0.636940  0.330055  1
  Er  Er3  1  0.000000  0.368960  0.672949  1
  Fe  Fe4  1  0.500000  0.394242  0.353756  1
  Fe  Fe5  1  0.500000  0.608764  0.647044  1
  Fe  Fe6  1  0.500000  0.892006  0.145729  1
  Co  Co7  1  0.250063  0.001623  0.500217  1
  Co  Co8  1  0.748577  0.496221  0.000825  1
  Co  Co9  1  0.749937  0.001623  0.500217  1
  Co  Co10  1  0.251423  0.496221  0.000825  1
  Co  Co11  1  0.500000  0.090680  0.847427  1
  O  O12  1  0.269274  0.004086  0.996005  1
  O  O13  1  0.737576  0.501882  0.499903  1
  O  O14  1  0.730726  0.004086  0.996005  1
  O  O15  1  0.262424  0.501882  0.499903  1
  O  O16  1  0.000000  0.162136  0.446647  1
  O  O17  1  0.000000  0.841393  0.556998  1
  O  O18  1  0.000000  0.658289  0.055540  1
  O  O19  1  0.000000  0.335442  0.942667  1
  O  O20  1  0.500000  0.149810  0.433595  1
  O  O21  1  0.500000  0.852194  0.564453  1
  O  O22  1  0.500000  0.647874  0.070802  1
  O  O23  1  0.500000  0.350071  0.936661  1
  O  O24  1  0.238300  0.394305  0.203905  1
  O  O25  1  0.238933  0.604016  0.796503  1
  O  O26  1  0.762213  0.899264  0.295680  1
  O  O27  1  0.756362  0.103509  0.705769  1
  O  O28  1  0.761067  0.604016  0.796503  1
  O  O29  1  0.761700  0.394305  0.203905  1
  O  O30  1  0.243638  0.103509  0.705769  1
  O  O31  1  0.237787  0.899264  0.295680  1
