# generated using pymatgen
data_CsHoBeSe3
_symmetry_space_group_name_H-M   'P 1'
_cell_length_a   8.36360676
_cell_length_b   8.36360681
_cell_length_c   10.85223700
_cell_angle_alpha   90.00000000
_cell_angle_beta   90.00000000
_cell_angle_gamma   151.70795433
_symmetry_Int_Tables_number   1
_chemical_formula_structural   CsHoBeSe3
_chemical_formula_sum   'Cs2 Ho2 Be2 Se6'
_cell_volume   359.79377244
_cell_formula_units_Z   2
loop_
 _symmetry_equiv_pos_site_id
 _symmetry_equiv_pos_as_xyz
  1  'x, y, z'
loop_
 _atom_site_type_symbol
 _atom_site_label
 _atom_site_symmetry_multiplicity
 _atom_site_fract_x
 _atom_site_fract_y
 _atom_site_fract_z
 _atom_site_occupancy
  Cs  Cs0  1  0.240766  0.759234  0.250000  1
  Cs  Cs1  1  0.759234  0.240766  0.750000  1
  Ho  Ho2  1  0.500000  0.500000  0.000000  1
  Ho  Ho3  1  0.500000  0.500000  0.500000  1
  Be  Be4  1  0.963037  0.036962  0.250000  1
  Be  Be5  1  0.036962  0.963037  0.750000  1
  Se  Se6  1  0.888675  0.111324  0.076221  1
  Se  Se7  1  0.549203  0.450797  0.250000  1
  Se  Se8  1  0.888675  0.111324  0.423779  1
  Se  Se9  1  0.111324  0.888675  0.576221  1
  Se  Se10  1  0.450797  0.549203  0.750000  1
  Se  Se11  1  0.111324  0.888675  0.923779  1
