# generated using pymatgen
data_Pr3Nd5Zn3Si12Pt
_symmetry_space_group_name_H-M   'P 1'
_cell_length_a   8.20853903
_cell_length_b   8.20888024
_cell_length_c   8.62342900
_cell_angle_alpha   89.99638108
_cell_angle_beta   90.00329697
_cell_angle_gamma   120.01550276
_symmetry_Int_Tables_number   1
_chemical_formula_structural   Pr3Nd5Zn3Si12Pt
_chemical_formula_sum   'Pr3 Nd5 Zn3 Si12 Pt1'
_cell_volume   503.14428599
_cell_formula_units_Z   1
loop_
 _symmetry_equiv_pos_site_id
 _symmetry_equiv_pos_as_xyz
  1  'x, y, z'
loop_
 _atom_site_type_symbol
 _atom_site_label
 _atom_site_symmetry_multiplicity
 _atom_site_fract_x
 _atom_site_fract_y
 _atom_site_fract_z
 _atom_site_occupancy
  Pr  Pr0  1  0.999966  0.000040  0.750351  1
  Pr  Pr1  1  0.999980  0.000020  0.249791  1
  Pr  Pr2  1  0.499828  0.500170  0.749346  1
  Nd  Nd3  1  0.499617  0.999220  0.749511  1
  Nd  Nd4  1  0.000780  0.500383  0.749512  1
  Nd  Nd5  1  0.500152  0.499846  0.250489  1
  Nd  Nd6  1  0.999753  0.499913  0.250466  1
  Nd  Nd7  1  0.500090  0.000251  0.250466  1
  Zn  Zn8  1  0.666870  0.333135  0.999813  1
  Zn  Zn9  1  0.666878  0.333128  0.501352  1
  Zn  Zn10  1  0.333206  0.666788  0.497000  1
  Si  Si11  1  0.835890  0.164095  0.000262  1
  Si  Si12  1  0.835971  0.671861  0.000557  1
  Si  Si13  1  0.328133  0.164019  0.000557  1
  Si  Si14  1  0.833471  0.166521  0.499702  1
  Si  Si15  1  0.833692  0.667021  0.499240  1
  Si  Si16  1  0.332967  0.166296  0.499239  1
  Si  Si17  1  0.166839  0.833170  0.500195  1
  Si  Si18  1  0.666486  0.833406  0.499708  1
  Si  Si19  1  0.166604  0.333525  0.499708  1
  Si  Si20  1  0.167929  0.832081  0.999909  1
  Si  Si21  1  0.663950  0.832149  0.000483  1
  Si  Si22  1  0.167864  0.336065  0.000482  1
  Pt  Pt23  1  0.333088  0.666896  0.001862  1
