# generated using pymatgen
data_Ce2Ga2OsRh
_symmetry_space_group_name_H-M   'P 1'
_cell_length_a   4.39503400
_cell_length_b   6.83381359
_cell_length_c   7.89949200
_cell_angle_alpha   89.81249633
_cell_angle_beta   90.00000000
_cell_angle_gamma   90.00000000
_symmetry_Int_Tables_number   1
_chemical_formula_structural   Ce2Ga2OsRh
_chemical_formula_sum   'Ce4 Ga4 Os2 Rh2'
_cell_volume   237.25873226
_cell_formula_units_Z   2
loop_
 _symmetry_equiv_pos_site_id
 _symmetry_equiv_pos_as_xyz
  1  'x, y, z'
loop_
 _atom_site_type_symbol
 _atom_site_label
 _atom_site_symmetry_multiplicity
 _atom_site_fract_x
 _atom_site_fract_y
 _atom_site_fract_z
 _atom_site_occupancy
  Ce  Ce0  1  0.250000  0.536132  0.191496  1
  Ce  Ce1  1  0.750000  0.463868  0.808504  1
  Ce  Ce2  1  0.750000  0.968520  0.684924  1
  Ce  Ce3  1  0.250000  0.031480  0.315076  1
  Ga  Ga4  1  0.250000  0.649717  0.567810  1
  Ga  Ga5  1  0.750000  0.350283  0.432190  1
  Ga  Ga6  1  0.750000  0.855005  0.066740  1
  Ga  Ga7  1  0.250000  0.144995  0.933260  1
  Os  Os8  1  0.750000  0.742154  0.386773  1
  Os  Os9  1  0.250000  0.257846  0.613227  1
  Rh  Rh10  1  0.250000  0.755080  0.893935  1
  Rh  Rh11  1  0.750000  0.244920  0.106065  1
