# generated using pymatgen
data_Y4Tm6SiBi5
_symmetry_space_group_name_H-M   'P 1'
_cell_length_a   8.08120700
_cell_length_b   9.32177500
_cell_length_c   11.96925500
_cell_angle_alpha   90.00000000
_cell_angle_beta   90.00000000
_cell_angle_gamma   90.00000000
_symmetry_Int_Tables_number   1
_chemical_formula_structural   Y4Tm6SiBi5
_chemical_formula_sum   'Y8 Tm12 Si2 Bi10'
_cell_volume   901.65826305
_cell_formula_units_Z   2
loop_
 _symmetry_equiv_pos_site_id
 _symmetry_equiv_pos_as_xyz
  1  'x, y, z'
loop_
 _atom_site_type_symbol
 _atom_site_label
 _atom_site_symmetry_multiplicity
 _atom_site_fract_x
 _atom_site_fract_y
 _atom_site_fract_z
 _atom_site_occupancy
  Y  Y0  1  0.168736  0.750000  0.710233  1
  Y  Y1  1  0.668736  0.750000  0.789767  1
  Y  Y2  1  0.813664  0.250000  0.279993  1
  Y  Y3  1  0.313664  0.250000  0.220007  1
  Y  Y4  1  0.350414  0.750000  0.205327  1
  Y  Y5  1  0.850414  0.750000  0.294673  1
  Y  Y6  1  0.652084  0.250000  0.783199  1
  Y  Y7  1  0.152084  0.250000  0.716801  1
  Tm  Tm8  1  0.038608  0.750000  0.988111  1
  Tm  Tm9  1  0.538608  0.750000  0.511889  1
  Tm  Tm10  1  0.982757  0.250000  0.008147  1
  Tm  Tm11  1  0.482757  0.250000  0.491853  1
  Tm  Tm12  1  0.312031  0.453476  0.939619  1
  Tm  Tm13  1  0.812031  0.046524  0.560381  1
  Tm  Tm14  1  0.683481  0.927782  0.054643  1
  Tm  Tm15  1  0.183481  0.572218  0.445357  1
  Tm  Tm16  1  0.683481  0.572218  0.054643  1
  Tm  Tm17  1  0.183481  0.927782  0.445357  1
  Tm  Tm18  1  0.312031  0.046524  0.939619  1
  Tm  Tm19  1  0.812031  0.453476  0.560381  1
  Si  Si20  1  0.414347  0.750000  0.966681  1
  Si  Si21  1  0.914347  0.750000  0.533319  1
  Bi  Bi22  1  0.435781  0.000735  0.673689  1
  Bi  Bi23  1  0.935781  0.499265  0.826311  1
  Bi  Bi24  1  0.560839  0.504234  0.326185  1
  Bi  Bi25  1  0.060839  0.995766  0.173815  1
  Bi  Bi26  1  0.560839  0.995766  0.326185  1
  Bi  Bi27  1  0.060839  0.504234  0.173815  1
  Bi  Bi28  1  0.435781  0.499265  0.673689  1
  Bi  Bi29  1  0.935781  0.000735  0.826311  1
  Bi  Bi30  1  0.595127  0.250000  0.041247  1
  Bi  Bi31  1  0.095127  0.250000  0.458753  1
