# generated using pymatgen
data_V11ReSi3P
_symmetry_space_group_name_H-M   'P 1'
_cell_length_a   4.73921800
_cell_length_b   4.67862100
_cell_length_c   9.34165500
_cell_angle_alpha   90.00000000
_cell_angle_beta   90.00000000
_cell_angle_gamma   90.00000000
_symmetry_Int_Tables_number   1
_chemical_formula_structural   V11ReSi3P
_chemical_formula_sum   'V11 Re1 Si3 P1'
_cell_volume   207.13256170
_cell_formula_units_Z   1
loop_
 _symmetry_equiv_pos_site_id
 _symmetry_equiv_pos_as_xyz
  1  'x, y, z'
loop_
 _atom_site_type_symbol
 _atom_site_label
 _atom_site_symmetry_multiplicity
 _atom_site_fract_x
 _atom_site_fract_y
 _atom_site_fract_z
 _atom_site_occupancy
  V  V0  1  0.000661  0.500000  0.124051  1
  V  V1  1  0.998259  0.500000  0.623954  1
  V  V2  1  0.500499  0.252943  0.752514  1
  V  V3  1  0.500499  0.252943  0.247486  1
  V  V4  1  0.747349  0.000000  0.000000  1
  V  V5  1  0.000661  0.500000  0.875949  1
  V  V6  1  0.998259  0.500000  0.376046  1
  V  V7  1  0.500499  0.747057  0.752514  1
  V  V8  1  0.500499  0.747057  0.247486  1
  V  V9  1  0.254953  0.000000  0.000000  1
  V  V10  1  0.249808  0.000000  0.500000  1
  Re  Re11  1  0.749116  0.000000  0.500000  1
  Si  Si12  1  0.493800  0.500000  0.500000  1
  Si  Si13  1  0.003305  0.000000  0.752231  1
  Si  Si14  1  0.003305  0.000000  0.247769  1
  P  P15  1  0.498527  0.500000  0.000000  1
