# generated using pymatgen
data_HfZr7(Cu2Hg)4
_symmetry_space_group_name_H-M   'P 1'
_cell_length_a   7.21715615
_cell_length_b   7.21715612
_cell_length_c   6.84807500
_cell_angle_alpha   90.00000000
_cell_angle_beta   90.00000000
_cell_angle_gamma   90.23337042
_symmetry_Int_Tables_number   1
_chemical_formula_structural   HfZr7(Cu2Hg)4
_chemical_formula_sum   'Hf1 Zr7 Cu8 Hg4'
_cell_volume   356.69507003
_cell_formula_units_Z   1
loop_
 _symmetry_equiv_pos_site_id
 _symmetry_equiv_pos_as_xyz
  1  'x, y, z'
loop_
 _atom_site_type_symbol
 _atom_site_label
 _atom_site_symmetry_multiplicity
 _atom_site_fract_x
 _atom_site_fract_y
 _atom_site_fract_z
 _atom_site_occupancy
  Hf  Hf0  1  0.193512  0.193512  0.500000  1
  Zr  Zr1  1  0.148771  0.148771  0.000000  1
  Zr  Zr2  1  0.850775  0.850775  0.000000  1
  Zr  Zr3  1  0.648453  0.350126  0.500000  1
  Zr  Zr4  1  0.350126  0.648453  0.500000  1
  Zr  Zr5  1  0.693439  0.306169  0.000000  1
  Zr  Zr6  1  0.306169  0.693439  0.000000  1
  Zr  Zr7  1  0.806670  0.806670  0.500000  1
  Cu  Cu8  1  0.375277  0.375277  0.203974  1
  Cu  Cu9  1  0.622855  0.622855  0.798506  1
  Cu  Cu10  1  0.622855  0.622855  0.201494  1
  Cu  Cu11  1  0.878409  0.124512  0.700731  1
  Cu  Cu12  1  0.878409  0.124512  0.299269  1
  Cu  Cu13  1  0.375277  0.375277  0.796026  1
  Cu  Cu14  1  0.124512  0.878409  0.299269  1
  Cu  Cu15  1  0.124512  0.878409  0.700731  1
  Hg  Hg16  1  0.499896  0.000093  0.251153  1
  Hg  Hg17  1  0.499896  0.000093  0.748847  1
  Hg  Hg18  1  0.000093  0.499896  0.251153  1
  Hg  Hg19  1  0.000093  0.499896  0.748847  1
