# generated using pymatgen
data_TmV(FeGe)2
_symmetry_space_group_name_H-M   'P 1'
_cell_length_a   4.00203600
_cell_length_b   4.00203614
_cell_length_c   13.16604200
_cell_angle_alpha   90.00000000
_cell_angle_beta   90.00000000
_cell_angle_gamma   119.99999888
_symmetry_Int_Tables_number   1
_chemical_formula_structural   TmV(FeGe)2
_chemical_formula_sum   'Tm2 V2 Fe4 Ge4'
_cell_volume   182.61980282
_cell_formula_units_Z   2
loop_
 _symmetry_equiv_pos_site_id
 _symmetry_equiv_pos_as_xyz
  1  'x, y, z'
loop_
 _atom_site_type_symbol
 _atom_site_label
 _atom_site_symmetry_multiplicity
 _atom_site_fract_x
 _atom_site_fract_y
 _atom_site_fract_z
 _atom_site_occupancy
  Tm  Tm0  1  0.000000  0.000000  0.250000  1
  Tm  Tm1  1  0.000000  0.000000  0.750000  1
  V  V2  1  0.000000  0.000000  0.000000  1
  V  V3  1  0.000000  0.000000  0.500000  1
  Fe  Fe4  1  0.666666  0.333334  0.062393  1
  Fe  Fe5  1  0.666666  0.333334  0.437607  1
  Fe  Fe6  1  0.333333  0.666665  0.562393  1
  Fe  Fe7  1  0.333333  0.666665  0.937607  1
  Ge  Ge8  1  0.333333  0.666665  0.120008  1
  Ge  Ge9  1  0.333333  0.666665  0.379992  1
  Ge  Ge10  1  0.666666  0.333334  0.620008  1
  Ge  Ge11  1  0.666666  0.333334  0.879992  1
