# generated using pymatgen
data_Ta5Nb7AlSi3(PtN)4
_symmetry_space_group_name_H-M   'P 1'
_cell_length_a   7.02132522
_cell_length_b   7.02132543
_cell_length_c   7.02132600
_cell_angle_alpha   89.94513046
_cell_angle_beta   89.94513046
_cell_angle_gamma   89.94513506
_symmetry_Int_Tables_number   1
_chemical_formula_structural   Ta5Nb7AlSi3(PtN)4
_chemical_formula_sum   'Ta5 Nb7 Al1 Si3 Pt4 N4'
_cell_volume   346.14394017
_cell_formula_units_Z   1
loop_
 _symmetry_equiv_pos_site_id
 _symmetry_equiv_pos_as_xyz
  1  'x, y, z'
loop_
 _atom_site_type_symbol
 _atom_site_label
 _atom_site_symmetry_multiplicity
 _atom_site_fract_x
 _atom_site_fract_y
 _atom_site_fract_z
 _atom_site_occupancy
  Ta  Ta0  1  0.787103  0.953100  0.381624  1
  Ta  Ta1  1  0.710471  0.046375  0.880159  1
  Ta  Ta2  1  0.214648  0.453449  0.119390  1
  Ta  Ta3  1  0.287382  0.547746  0.618305  1
  Ta  Ta4  1  0.950753  0.380144  0.785673  1
  Nb  Nb5  1  0.048942  0.880010  0.713926  1
  Nb  Nb6  1  0.452195  0.119580  0.216665  1
  Nb  Nb7  1  0.549847  0.620543  0.284578  1
  Nb  Nb8  1  0.380555  0.786873  0.952154  1
  Nb  Nb9  1  0.880817  0.711273  0.047180  1
  Nb  Nb10  1  0.118307  0.214378  0.453849  1
  Nb  Nb11  1  0.617736  0.287450  0.547085  1
  Al  Al12  1  0.073360  0.070950  0.072435  1
  Si  Si13  1  0.572341  0.427962  0.928067  1
  Si  Si14  1  0.427262  0.928457  0.571880  1
  Si  Si15  1  0.927251  0.571117  0.427955  1
  Pt  Pt16  1  0.178165  0.817176  0.324478  1
  Pt  Pt17  1  0.323049  0.182418  0.820993  1
  Pt  Pt18  1  0.821174  0.320807  0.176668  1
  Pt  Pt19  1  0.678757  0.679488  0.677386  1
  N  N20  1  0.872041  0.125278  0.628175  1
  N  N21  1  0.629281  0.877291  0.125699  1
  N  N22  1  0.127084  0.620531  0.871870  1
  N  N23  1  0.371478  0.377605  0.373806  1
