# generated using pymatgen
data_PH(OF)2
_symmetry_space_group_name_H-M   'P 1'
_cell_length_a   5.23893887
_cell_length_b   5.00559319
_cell_length_c   7.94787900
_cell_angle_alpha   90.00000000
_cell_angle_beta   90.00000000
_cell_angle_gamma   84.58558940
_symmetry_Int_Tables_number   1
_chemical_formula_structural   PH(OF)2
_chemical_formula_sum   'P2 H2 O4 F4'
_cell_volume   207.49521458
_cell_formula_units_Z   2
loop_
 _symmetry_equiv_pos_site_id
 _symmetry_equiv_pos_as_xyz
  1  'x, y, z'
loop_
 _atom_site_type_symbol
 _atom_site_label
 _atom_site_symmetry_multiplicity
 _atom_site_fract_x
 _atom_site_fract_y
 _atom_site_fract_z
 _atom_site_occupancy
  P  P0  1  0.102172  0.912367  0.369296  1
  P  P1  1  0.397828  0.087633  0.869296  1
  H  H2  1  0.099774  0.935164  0.702740  1
  H  H3  1  0.400226  0.064836  0.202740  1
  O  O4  1  0.372873  0.978147  0.321827  1
  O  O5  1  0.127127  0.021853  0.821827  1
  O  O6  1  0.068733  0.812689  0.542164  1
  O  O7  1  0.431267  0.187311  0.042164  1
  F  F8  1  0.014210  0.710401  0.236950  1
  F  F9  1  0.485790  0.289599  0.736950  1
  F  F10  1  0.585558  0.836093  0.827023  1
  F  F11  1  0.914442  0.163907  0.327023  1
