# generated using pymatgen
data_BaCoTcP2
_symmetry_space_group_name_H-M   'P 1'
_cell_length_a   6.82379536
_cell_length_b   6.82379649
_cell_length_c   6.82379527
_cell_angle_alpha   146.33311715
_cell_angle_beta   146.33311965
_cell_angle_gamma   48.35223554
_symmetry_Int_Tables_number   1
_chemical_formula_structural   BaCoTcP2
_chemical_formula_sum   'Ba1 Co1 Tc1 P2'
_cell_volume   97.23888571
_cell_formula_units_Z   1
loop_
 _symmetry_equiv_pos_site_id
 _symmetry_equiv_pos_as_xyz
  1  'x, y, z'
loop_
 _atom_site_type_symbol
 _atom_site_label
 _atom_site_symmetry_multiplicity
 _atom_site_fract_x
 _atom_site_fract_y
 _atom_site_fract_z
 _atom_site_occupancy
  Ba  Ba0  1  0.000000  0.000000  0.000000  1
  Co  Co1  1  0.750000  0.250000  0.500000  1
  Tc  Tc2  1  0.250000  0.750000  0.500000  1
  P  P3  1  0.656292  0.656292  0.000000  1
  P  P4  1  0.343708  0.343708  0.000000  1
