# generated using pymatgen
data_Y5Bi3S
_symmetry_space_group_name_H-M   'P 1'
_cell_length_a   9.21362400
_cell_length_b   9.21362548
_cell_length_c   6.59968200
_cell_angle_alpha   90.00000000
_cell_angle_beta   90.00000000
_cell_angle_gamma   120.00000905
_symmetry_Int_Tables_number   1
_chemical_formula_structural   Y5Bi3S
_chemical_formula_sum   'Y10 Bi6 S2'
_cell_volume   485.19312901
_cell_formula_units_Z   2
loop_
 _symmetry_equiv_pos_site_id
 _symmetry_equiv_pos_as_xyz
  1  'x, y, z'
loop_
 _atom_site_type_symbol
 _atom_site_label
 _atom_site_symmetry_multiplicity
 _atom_site_fract_x
 _atom_site_fract_y
 _atom_site_fract_z
 _atom_site_occupancy
  Y  Y0  1  0.753538  0.753538  0.750000  1
  Y  Y1  1  0.246462  0.000000  0.750000  1
  Y  Y2  1  0.000000  0.246462  0.750000  1
  Y  Y3  1  0.246462  0.246462  0.250000  1
  Y  Y4  1  0.753538  0.000000  0.250000  1
  Y  Y5  1  0.000000  0.753538  0.250000  1
  Y  Y6  1  0.666667  0.333333  0.000000  1
  Y  Y7  1  0.333333  0.666667  0.000000  1
  Y  Y8  1  0.333333  0.666667  0.500000  1
  Y  Y9  1  0.666667  0.333333  0.500000  1
  Bi  Bi10  1  0.396652  0.396652  0.750000  1
  Bi  Bi11  1  0.603348  0.000000  0.750000  1
  Bi  Bi12  1  0.000000  0.603348  0.750000  1
  Bi  Bi13  1  0.603348  0.603348  0.250000  1
  Bi  Bi14  1  0.396652  0.000000  0.250000  1
  Bi  Bi15  1  0.000000  0.396652  0.250000  1
  S  S16  1  0.000000  0.000000  0.000000  1
  S  S17  1  0.000000  0.000000  0.500000  1
