# generated using pymatgen
data_Tb4Zn8Cd3Hg
_symmetry_space_group_name_H-M   'P 1'
_cell_length_a   4.45034700
_cell_length_b   7.20862747
_cell_length_c   10.06772800
_cell_angle_alpha   90.02072102
_cell_angle_beta   90.00000000
_cell_angle_gamma   90.00000000
_symmetry_Int_Tables_number   1
_chemical_formula_structural   Tb4Zn8Cd3Hg
_chemical_formula_sum   'Tb4 Zn8 Cd3 Hg1'
_cell_volume   322.98169006
_cell_formula_units_Z   1
loop_
 _symmetry_equiv_pos_site_id
 _symmetry_equiv_pos_as_xyz
  1  'x, y, z'
loop_
 _atom_site_type_symbol
 _atom_site_label
 _atom_site_symmetry_multiplicity
 _atom_site_fract_x
 _atom_site_fract_y
 _atom_site_fract_z
 _atom_site_occupancy
  Tb  Tb0  1  0.250000  0.302323  0.673413  1
  Tb  Tb1  1  0.750000  0.696497  0.327931  1
  Tb  Tb2  1  0.250000  0.806568  0.824281  1
  Tb  Tb3  1  0.750000  0.194976  0.172625  1
  Zn  Zn4  1  0.750000  0.312349  0.462871  1
  Zn  Zn5  1  0.250000  0.684747  0.535976  1
  Zn  Zn6  1  0.750000  0.812648  0.036782  1
  Zn  Zn7  1  0.250000  0.187673  0.963240  1
  Zn  Zn8  1  0.750000  0.586294  0.644701  1
  Zn  Zn9  1  0.250000  0.412373  0.355246  1
  Zn  Zn10  1  0.750000  0.090021  0.857320  1
  Zn  Zn11  1  0.250000  0.911114  0.144437  1
  Cd  Cd12  1  0.250000  0.531399  0.097972  1
  Cd  Cd13  1  0.750000  0.470130  0.901902  1
  Cd  Cd14  1  0.250000  0.031831  0.400923  1
  Hg  Hg15  1  0.750000  0.969057  0.600380  1
