# generated using pymatgen
data_Ho2Tm4ReB14Os
_symmetry_space_group_name_H-M   'P 1'
_cell_length_a   7.97148825
_cell_length_b   7.97148801
_cell_length_c   9.27809700
_cell_angle_alpha   90.00000000
_cell_angle_beta   90.00000000
_cell_angle_gamma   154.59046508
_symmetry_Int_Tables_number   1
_chemical_formula_structural   Ho2Tm4ReB14Os
_chemical_formula_sum   'Ho2 Tm4 Re1 B14 Os1'
_cell_volume   252.97727557
_cell_formula_units_Z   1
loop_
 _symmetry_equiv_pos_site_id
 _symmetry_equiv_pos_as_xyz
  1  'x, y, z'
loop_
 _atom_site_type_symbol
 _atom_site_label
 _atom_site_symmetry_multiplicity
 _atom_site_fract_x
 _atom_site_fract_y
 _atom_site_fract_z
 _atom_site_occupancy
  Ho  Ho0  1  0.244570  0.755430  0.250000  1
  Ho  Ho1  1  0.755895  0.244105  0.750000  1
  Tm  Tm2  1  0.894400  0.105600  0.058893  1
  Tm  Tm3  1  0.105680  0.894320  0.560064  1
  Tm  Tm4  1  0.105680  0.894320  0.939936  1
  Tm  Tm5  1  0.894400  0.105600  0.441107  1
  Re  Re6  1  0.948043  0.051957  0.750000  1
  B  B7  1  0.454269  0.545731  0.250000  1
  B  B8  1  0.546285  0.453715  0.750000  1
  B  B9  1  0.727042  0.272958  0.034516  1
  B  B10  1  0.272294  0.727706  0.533345  1
  B  B11  1  0.272294  0.727706  0.966655  1
  B  B12  1  0.727042  0.272958  0.465484  1
  B  B13  1  0.631736  0.368264  0.349198  1
  B  B14  1  0.367712  0.632288  0.849462  1
  B  B15  1  0.367712  0.632288  0.650538  1
  B  B16  1  0.631736  0.368264  0.150802  1
  B  B17  1  0.519834  0.480166  0.404355  1
  B  B18  1  0.480241  0.519759  0.905279  1
  B  B19  1  0.480241  0.519759  0.594721  1
  B  B20  1  0.519834  0.480166  0.095645  1
  Os  Os21  1  0.053060  0.946940  0.250000  1
