# generated using pymatgen
data_Tm2P7Ru11Pt
_symmetry_space_group_name_H-M   'P 1'
_cell_length_a   9.34464020
_cell_length_b   9.45318121
_cell_length_c   3.94101000
_cell_angle_alpha   90.00000000
_cell_angle_beta   90.00000000
_cell_angle_gamma   119.29536882
_symmetry_Int_Tables_number   1
_chemical_formula_structural   Tm2P7Ru11Pt
_chemical_formula_sum   'Tm2 P7 Ru11 Pt1'
_cell_volume   303.61189755
_cell_formula_units_Z   1
loop_
 _symmetry_equiv_pos_site_id
 _symmetry_equiv_pos_as_xyz
  1  'x, y, z'
loop_
 _atom_site_type_symbol
 _atom_site_label
 _atom_site_symmetry_multiplicity
 _atom_site_fract_x
 _atom_site_fract_y
 _atom_site_fract_z
 _atom_site_occupancy
  Tm  Tm0  1  0.671190  0.337417  0.500000  1
  Tm  Tm1  1  0.327795  0.657278  0.000000  1
  P  P2  1  0.597549  0.704858  0.500000  1
  P  P3  1  0.997415  0.001110  0.000000  1
  P  P4  1  0.270708  0.876591  0.500000  1
  P  P5  1  0.118765  0.401839  0.500000  1
  P  P6  1  0.887302  0.580588  0.000000  1
  P  P7  1  0.427640  0.308679  0.000000  1
  P  P8  1  0.705710  0.128192  0.000000  1
  Ru  Ru9  1  0.390283  0.438912  0.500000  1
  Ru  Ru10  1  0.910233  0.128624  0.500000  1
  Ru  Ru11  1  0.212596  0.087063  0.500000  1
  Ru  Ru12  1  0.875337  0.793415  0.500000  1
  Ru  Ru13  1  0.723672  0.893468  0.000000  1
  Ru  Ru14  1  0.111791  0.840142  0.000000  1
  Ru  Ru15  1  0.163474  0.269728  0.000000  1
  Ru  Ru16  1  0.435143  0.069079  0.000000  1
  Ru  Ru17  1  0.938793  0.367132  0.000000  1
  Ru  Ru18  1  0.640275  0.574045  0.000000  1
  Ru  Ru19  1  0.052534  0.609147  0.500000  1
  Pt  Pt20  1  0.541797  0.932694  0.500000  1
