# generated using pymatgen
data_TbLuZn3Pt4
_symmetry_space_group_name_H-M   'P 1'
_cell_length_a   8.10956917
_cell_length_b   8.10956877
_cell_length_c   7.59230800
_cell_angle_alpha   90.12779556
_cell_angle_beta   89.87220444
_cell_angle_gamma   139.96362971
_symmetry_Int_Tables_number   1
_chemical_formula_structural   TbLuZn3Pt4
_chemical_formula_sum   'Tb2 Lu2 Zn6 Pt8'
_cell_volume   321.19144420
_cell_formula_units_Z   2
loop_
 _symmetry_equiv_pos_site_id
 _symmetry_equiv_pos_as_xyz
  1  'x, y, z'
loop_
 _atom_site_type_symbol
 _atom_site_label
 _atom_site_symmetry_multiplicity
 _atom_site_fract_x
 _atom_site_fract_y
 _atom_site_fract_z
 _atom_site_occupancy
  Tb  Tb0  1  0.390599  0.609401  0.908785  1
  Tb  Tb1  1  0.609401  0.390599  0.091215  1
  Lu  Lu2  1  0.108650  0.891350  0.410314  1
  Lu  Lu3  1  0.891350  0.108650  0.589686  1
  Zn  Zn4  1  0.000000  0.000000  0.000000  1
  Zn  Zn5  1  0.500000  0.500000  0.500000  1
  Zn  Zn6  1  0.021719  0.478161  0.251107  1
  Zn  Zn7  1  0.478161  0.021719  0.748893  1
  Zn  Zn8  1  0.978281  0.521839  0.748893  1
  Zn  Zn9  1  0.521839  0.978281  0.251107  1
  Pt  Pt10  1  0.190192  0.306787  0.253264  1
  Pt  Pt11  1  0.306787  0.190192  0.746736  1
  Pt  Pt12  1  0.809808  0.693213  0.746736  1
  Pt  Pt13  1  0.693213  0.809808  0.253264  1
  Pt  Pt14  1  0.177084  0.822916  0.029159  1
  Pt  Pt15  1  0.822916  0.177084  0.970841  1
  Pt  Pt16  1  0.323712  0.676288  0.528168  1
  Pt  Pt17  1  0.676288  0.323712  0.471832  1
