# generated using pymatgen
data_Ce4In2Ni3Ir
_symmetry_space_group_name_H-M   'P 1'
_cell_length_a   7.59242747
_cell_length_b   7.59242747
_cell_length_c   3.69740900
_cell_angle_alpha   90.00000000
_cell_angle_beta   90.00000000
_cell_angle_gamma   90.07134402
_symmetry_Int_Tables_number   1
_chemical_formula_structural   Ce4In2Ni3Ir
_chemical_formula_sum   'Ce4 In2 Ni3 Ir1'
_cell_volume   213.13680986
_cell_formula_units_Z   1
loop_
 _symmetry_equiv_pos_site_id
 _symmetry_equiv_pos_as_xyz
  1  'x, y, z'
loop_
 _atom_site_type_symbol
 _atom_site_label
 _atom_site_symmetry_multiplicity
 _atom_site_fract_x
 _atom_site_fract_y
 _atom_site_fract_z
 _atom_site_occupancy
  Ce  Ce0  1  0.670972  0.170972  0.500000  1
  Ce  Ce1  1  0.171420  0.325518  0.500000  1
  Ce  Ce2  1  0.825518  0.671420  0.500000  1
  Ce  Ce3  1  0.327610  0.827610  0.500000  1
  In  In4  1  0.001658  0.995164  0.000000  1
  In  In5  1  0.495164  0.501658  0.000000  1
  Ni  Ni6  1  0.623181  0.874664  0.000000  1
  Ni  Ni7  1  0.134797  0.634797  0.000000  1
  Ni  Ni8  1  0.374664  0.123181  0.000000  1
  Ir  Ir9  1  0.875015  0.375015  0.000000  1
