# generated using pymatgen
data_Al3Ga13Si2B6O37
_symmetry_space_group_name_H-M   'P 1'
_cell_length_a   8.21820151
_cell_length_b   8.20287408
_cell_length_c   15.64266354
_cell_angle_alpha   92.43731329
_cell_angle_beta   92.38939414
_cell_angle_gamma   41.18720358
_symmetry_Int_Tables_number   1
_chemical_formula_structural   Al3Ga13Si2B6O37
_chemical_formula_sum   'Al3 Ga13 Si2 B6 O37'
_cell_volume   693.71851308
_cell_formula_units_Z   1
loop_
 _symmetry_equiv_pos_site_id
 _symmetry_equiv_pos_as_xyz
  1  'x, y, z'
loop_
 _atom_site_type_symbol
 _atom_site_label
 _atom_site_symmetry_multiplicity
 _atom_site_fract_x
 _atom_site_fract_y
 _atom_site_fract_z
 _atom_site_occupancy
  Al  Al0  1  0.500000  0.000000  0.000000  1
  Al  Al1  1  0.000000  0.500000  0.000000  1
  Al  Al2  1  0.000000  0.500001  0.500000  1
  Ga  Ga3  1  0.321929  0.323372  0.157021  1
  Ga  Ga4  1  0.128580  0.130892  0.154797  1
  Ga  Ga5  1  0.743470  0.245010  0.259873  1
  Ga  Ga6  1  0.249198  0.742506  0.259139  1
  Ga  Ga7  1  0.184388  0.193522  0.342568  1
  Ga  Ga8  1  0.425844  0.427292  0.432876  1
  Ga  Ga9  1  0.500001  0.000000  0.500000  1
  Ga  Ga10  1  0.574157  0.572709  0.567124  1
  Ga  Ga11  1  0.815612  0.806478  0.657432  1
  Ga  Ga12  1  0.750802  0.257495  0.740860  1
  Ga  Ga13  1  0.256531  0.754990  0.740126  1
  Ga  Ga14  1  0.871420  0.869108  0.845204  1
  Ga  Ga15  1  0.678071  0.676628  0.842980  1
  Si  Si16  1  0.575989  0.575366  0.076920  1
  Si  Si17  1  0.424010  0.424633  0.923080  1
  B  B18  1  0.861590  0.862319  0.134561  1
  B  B19  1  0.620726  0.621128  0.382453  1
  B  B20  1  0.898473  0.891717  0.400436  1
  B  B21  1  0.101527  0.108283  0.599564  1
  B  B22  1  0.379273  0.378871  0.617547  1
  B  B23  1  0.138410  0.137681  0.865439  1
  O  O24  1  0.500000  0.500000  0.000000  1
  O  O25  1  0.674556  0.674809  0.039302  1
  O  O26  1  0.206975  0.206568  0.061115  1
  O  O27  1  0.624218  0.036067  0.098296  1
  O  O28  1  0.035788  0.624828  0.097874  1
  O  O29  1  0.795715  0.330477  0.135441  1
  O  O30  1  0.331886  0.795253  0.136177  1
  O  O31  1  0.919779  0.918746  0.203617  1
  O  O32  1  0.424367  0.423110  0.221760  1
  O  O33  1  0.227704  0.235080  0.230424  1
  O  O34  1  0.073507  0.075240  0.275865  1
  O  O35  1  0.575613  0.570626  0.299296  1
  O  O36  1  0.721527  0.135306  0.370199  1
  O  O37  1  0.139349  0.721582  0.368930  1
  O  O38  1  0.885622  0.471426  0.397045  1
  O  O39  1  0.467375  0.888994  0.392709  1
  O  O40  1  0.290173  0.307013  0.437409  1
  O  O41  1  0.552541  0.558652  0.448262  1
  O  O42  1  0.842706  0.821772  0.459753  1
  O  O43  1  0.157294  0.178228  0.540247  1
  O  O44  1  0.447459  0.441348  0.551738  1
  O  O45  1  0.709827  0.692987  0.562591  1
  O  O46  1  0.532625  0.111006  0.607291  1
  O  O47  1  0.114378  0.528574  0.602955  1
  O  O48  1  0.860650  0.278418  0.631070  1
  O  O49  1  0.278473  0.864693  0.629801  1
  O  O50  1  0.424386  0.429373  0.700704  1
  O  O51  1  0.926493  0.924760  0.724135  1
  O  O52  1  0.772296  0.764920  0.769576  1
  O  O53  1  0.575634  0.576891  0.778241  1
  O  O54  1  0.080222  0.081255  0.796384  1
  O  O55  1  0.668115  0.204747  0.863823  1
  O  O56  1  0.204285  0.669524  0.864559  1
  O  O57  1  0.964211  0.375171  0.902127  1
  O  O58  1  0.375781  0.963932  0.901705  1
  O  O59  1  0.793025  0.793432  0.938885  1
  O  O60  1  0.325444  0.325191  0.960698  1
