# generated using pymatgen
data_Pr7NdNp4O24
_symmetry_space_group_name_H-M   'P 1'
_cell_length_a   5.64310910
_cell_length_b   9.61658838
_cell_length_c   10.61833959
_cell_angle_alpha   90.03205282
_cell_angle_beta   89.97934572
_cell_angle_gamma   90.00461342
_symmetry_Int_Tables_number   1
_chemical_formula_structural   Pr7NdNp4O24
_chemical_formula_sum   'Pr7 Nd1 Np4 O24'
_cell_volume   576.23016161
_cell_formula_units_Z   1
loop_
 _symmetry_equiv_pos_site_id
 _symmetry_equiv_pos_as_xyz
  1  'x, y, z'
loop_
 _atom_site_type_symbol
 _atom_site_label
 _atom_site_symmetry_multiplicity
 _atom_site_fract_x
 _atom_site_fract_y
 _atom_site_fract_z
 _atom_site_occupancy
  Pr  Pr0  1  0.474117  0.601461  0.535853  1
  Pr  Pr1  1  0.974116  0.898602  0.463926  1
  Pr  Pr2  1  0.525868  0.101576  0.964116  1
  Pr  Pr3  1  0.025731  0.398375  0.036055  1
  Pr  Pr4  1  0.960662  0.782828  0.868137  1
  Pr  Pr5  1  0.460736  0.717247  0.131947  1
  Pr  Pr6  1  0.039531  0.282705  0.631624  1
  Nd  Nd7  1  0.539941  0.216954  0.368368  1
  Np  Np8  1  0.461566  0.994969  0.648379  1
  Np  Np9  1  0.961415  0.504671  0.351427  1
  Np  Np10  1  0.538548  0.494744  0.851360  1
  Np  Np11  1  0.038569  0.005650  0.148974  1
  O  O12  1  0.254203  0.086436  0.505133  1
  O  O13  1  0.752721  0.413315  0.493925  1
  O  O14  1  0.746934  0.586070  0.994203  1
  O  O15  1  0.246877  0.914133  0.006066  1
  O  O16  1  0.733563  0.115868  0.563743  1
  O  O17  1  0.235216  0.383815  0.434960  1
  O  O18  1  0.266039  0.615459  0.935614  1
  O  O19  1  0.766342  0.884729  0.064563  1
  O  O20  1  0.588019  0.842261  0.531093  1
  O  O21  1  0.087796  0.657463  0.468825  1
  O  O22  1  0.411992  0.342225  0.968917  1
  O  O23  1  0.912544  0.157687  0.031172  1
  O  O24  1  0.178081  0.857482  0.260892  1
  O  O25  1  0.678691  0.642730  0.739080  1
  O  O26  1  0.819928  0.356635  0.239578  1
  O  O27  1  0.321302  0.142756  0.760838  1
  O  O28  1  0.825702  0.049275  0.301547  1
  O  O29  1  0.326970  0.451558  0.698597  1
  O  O30  1  0.172422  0.548373  0.198674  1
  O  O31  1  0.672875  0.951667  0.801260  1
  O  O32  1  0.328265  0.137154  0.182170  1
  O  O33  1  0.827765  0.363077  0.819092  1
  O  O34  1  0.672607  0.636750  0.319130  1
  O  O35  1  0.172346  0.863301  0.680764  1
