# generated using pymatgen
data_LiDy16Cd3(IrPt)2
_symmetry_space_group_name_H-M   'P 1'
_cell_length_a   9.67661321
_cell_length_b   9.67661349
_cell_length_c   9.65279879
_cell_angle_alpha   59.89072800
_cell_angle_beta   59.89073103
_cell_angle_gamma   60.02942862
_symmetry_Int_Tables_number   1
_chemical_formula_structural   LiDy16Cd3(IrPt)2
_chemical_formula_sum   'Li1 Dy16 Cd3 Ir2 Pt2'
_cell_volume   638.20755349
_cell_formula_units_Z   1
loop_
 _symmetry_equiv_pos_site_id
 _symmetry_equiv_pos_as_xyz
  1  'x, y, z'
loop_
 _atom_site_type_symbol
 _atom_site_label
 _atom_site_symmetry_multiplicity
 _atom_site_fract_x
 _atom_site_fract_y
 _atom_site_fract_z
 _atom_site_occupancy
  Li  Li0  1  0.821194  0.821194  0.820948  1
  Dy  Dy1  1  0.601712  0.601712  0.597884  1
  Dy  Dy2  1  0.599775  0.599775  0.205283  1
  Dy  Dy3  1  0.603895  0.199743  0.599561  1
  Dy  Dy4  1  0.199743  0.603895  0.599561  1
  Dy  Dy5  1  0.056193  0.441954  0.440944  1
  Dy  Dy6  1  0.435466  0.059014  0.064616  1
  Dy  Dy7  1  0.441954  0.056193  0.440944  1
  Dy  Dy8  1  0.059014  0.435466  0.064616  1
  Dy  Dy9  1  0.442582  0.442582  0.058067  1
  Dy  Dy10  1  0.062969  0.062969  0.433904  1
  Dy  Dy11  1  0.188058  0.815300  0.811417  1
  Dy  Dy12  1  0.814529  0.185998  0.186519  1
  Dy  Dy13  1  0.815300  0.188058  0.811417  1
  Dy  Dy14  1  0.185998  0.814529  0.186519  1
  Dy  Dy15  1  0.813014  0.813014  0.187529  1
  Dy  Dy16  1  0.185954  0.185954  0.813079  1
  Cd  Cd17  1  0.832812  0.832812  0.504293  1
  Cd  Cd18  1  0.832693  0.504701  0.832619  1
  Cd  Cd19  1  0.504701  0.832693  0.832619  1
  Ir  Ir20  1  0.392878  0.823913  0.394781  1
  Ir  Ir21  1  0.823913  0.392878  0.394781  1
  Pt  Pt22  1  0.392309  0.392309  0.395419  1
  Pt  Pt23  1  0.393344  0.393344  0.822676  1
