# generated using pymatgen
data_Ta8Si2B4MoW
_symmetry_space_group_name_H-M   'P 1'
_cell_length_a   7.25518986
_cell_length_b   7.25520666
_cell_length_c   7.25519620
_cell_angle_alpha   129.58342425
_cell_angle_beta   129.58330771
_cell_angle_gamma   74.07370933
_symmetry_Int_Tables_number   1
_chemical_formula_structural   Ta8Si2B4MoW
_chemical_formula_sum   'Ta8 Si2 B4 Mo1 W1'
_cell_volume   221.19874138
_cell_formula_units_Z   1
loop_
 _symmetry_equiv_pos_site_id
 _symmetry_equiv_pos_as_xyz
  1  'x, y, z'
loop_
 _atom_site_type_symbol
 _atom_site_label
 _atom_site_symmetry_multiplicity
 _atom_site_fract_x
 _atom_site_fract_y
 _atom_site_fract_z
 _atom_site_occupancy
  Ta  Ta0  1  0.806363  0.971414  0.499452  1
  Ta  Ta1  1  0.306913  0.806363  0.834950  1
  Ta  Ta2  1  0.193637  0.028586  0.500548  1
  Ta  Ta3  1  0.528037  0.693087  0.499451  1
  Ta  Ta4  1  0.028587  0.528037  0.834950  1
  Ta  Ta5  1  0.693087  0.193637  0.165050  1
  Ta  Ta6  1  0.971413  0.471963  0.165050  1
  Ta  Ta7  1  0.471963  0.306913  0.500549  1
  Si  Si8  1  0.750086  0.750086  0.000000  1
  Si  Si9  1  0.249914  0.249914  0.000000  1
  B  B10  1  0.380237  0.880811  0.261048  1
  B  B11  1  0.880811  0.619763  0.500574  1
  B  B12  1  0.619763  0.119189  0.738952  1
  B  B13  1  0.119189  0.380237  0.499426  1
  Mo  Mo14  1  0.500000  0.500000  0.000000  1
  W  W15  1  0.000000  0.000000  0.000000  1
