# generated using pymatgen
data_Li2Ta3CoNi8P7
_symmetry_space_group_name_H-M   'P 1'
_cell_length_a   9.24057135
_cell_length_b   9.22549398
_cell_length_c   3.64005000
_cell_angle_alpha   90.00000000
_cell_angle_beta   90.00000000
_cell_angle_gamma   120.11537915
_symmetry_Int_Tables_number   1
_chemical_formula_structural   Li2Ta3CoNi8P7
_chemical_formula_sum   'Li2 Ta3 Co1 Ni8 P7'
_cell_volume   268.42337544
_cell_formula_units_Z   1
loop_
 _symmetry_equiv_pos_site_id
 _symmetry_equiv_pos_as_xyz
  1  'x, y, z'
loop_
 _atom_site_type_symbol
 _atom_site_label
 _atom_site_symmetry_multiplicity
 _atom_site_fract_x
 _atom_site_fract_y
 _atom_site_fract_z
 _atom_site_occupancy
  Li  Li0  1  0.335733  0.666850  0.000000  1
  Li  Li1  1  0.666169  0.333574  0.500000  1
  Ta  Ta2  1  0.873054  0.773285  0.500000  1
  Ta  Ta3  1  0.900950  0.128093  0.500000  1
  Ta  Ta4  1  0.225359  0.099123  0.500000  1
  Co  Co5  1  0.715220  0.877327  0.000000  1
  Ni  Ni6  1  0.162959  0.288248  0.000000  1
  Ni  Ni7  1  0.124558  0.836837  0.000000  1
  Ni  Ni8  1  0.628340  0.565199  0.000000  1
  Ni  Ni9  1  0.934888  0.370544  0.000000  1
  Ni  Ni10  1  0.435681  0.062475  0.000000  1
  Ni  Ni11  1  0.556738  0.946783  0.500000  1
  Ni  Ni12  1  0.390149  0.444626  0.500000  1
  Ni  Ni13  1  0.052531  0.609558  0.500000  1
  P  P14  1  0.580167  0.712948  0.500000  1
  P  P15  1  0.133071  0.422564  0.500000  1
  P  P16  1  0.288815  0.867833  0.500000  1
  P  P17  1  0.996961  0.998879  0.000000  1
  P  P18  1  0.879492  0.576816  0.000000  1
  P  P19  1  0.696861  0.116022  0.000000  1
  P  P20  1  0.422306  0.302416  0.000000  1
