# generated using pymatgen
data_YUS6
_symmetry_space_group_name_H-M   'P 1'
_cell_length_a   3.94902200
_cell_length_b   5.39765529
_cell_length_c   9.49576978
_cell_angle_alpha   82.72712223
_cell_angle_beta   90.00000000
_cell_angle_gamma   90.00000000
_symmetry_Int_Tables_number   1
_chemical_formula_structural   YUS6
_chemical_formula_sum   'Y1 U1 S6'
_cell_volume   200.77822881
_cell_formula_units_Z   1
loop_
 _symmetry_equiv_pos_site_id
 _symmetry_equiv_pos_as_xyz
  1  'x, y, z'
loop_
 _atom_site_type_symbol
 _atom_site_label
 _atom_site_symmetry_multiplicity
 _atom_site_fract_x
 _atom_site_fract_y
 _atom_site_fract_z
 _atom_site_occupancy
  Y  Y0  1  0.250000  0.717413  0.146530  1
  U  U1  1  0.750000  0.279972  0.864963  1
  S  S2  1  0.250000  0.128821  0.691539  1
  S  S3  1  0.750000  0.873464  0.314999  1
  S  S4  1  0.750000  0.486193  0.314867  1
  S  S5  1  0.250000  0.508766  0.691904  1
  S  S6  1  0.750000  0.767211  0.922497  1
  S  S7  1  0.250000  0.238160  0.052701  1
