# generated using pymatgen
data_Yb11Sm5(HfIr3)4
_symmetry_space_group_name_H-M   'P 1'
_cell_length_a   6.19509959
_cell_length_b   10.87894017
_cell_length_c   10.87953700
_cell_angle_alpha   90.16961333
_cell_angle_beta   90.02495263
_cell_angle_gamma   89.83420490
_symmetry_Int_Tables_number   1
_chemical_formula_structural   Yb11Sm5(HfIr3)4
_chemical_formula_sum   'Yb11 Sm5 Hf4 Ir12'
_cell_volume   733.23220765
_cell_formula_units_Z   1
loop_
 _symmetry_equiv_pos_site_id
 _symmetry_equiv_pos_as_xyz
  1  'x, y, z'
loop_
 _atom_site_type_symbol
 _atom_site_label
 _atom_site_symmetry_multiplicity
 _atom_site_fract_x
 _atom_site_fract_y
 _atom_site_fract_z
 _atom_site_occupancy
  Yb  Yb0  1  0.354818  0.966914  0.835278  1
  Yb  Yb1  1  0.354684  0.533168  0.663489  1
  Yb  Yb2  1  0.853641  0.965688  0.665329  1
  Yb  Yb3  1  0.641412  0.167937  0.459240  1
  Yb  Yb4  1  0.141414  0.331741  0.459207  1
  Yb  Yb5  1  0.139495  0.167847  0.042107  1
  Yb  Yb6  1  0.639130  0.330439  0.043335  1
  Yb  Yb7  1  0.136578  0.456628  0.168878  1
  Yb  Yb8  1  0.638530  0.043108  0.169827  1
  Yb  Yb9  1  0.637955  0.457183  0.330460  1
  Yb  Yb10  1  0.139281  0.042964  0.331494  1
  Sm  Sm11  1  0.353379  0.837923  0.538332  1
  Sm  Sm12  1  0.852907  0.663929  0.536643  1
  Sm  Sm13  1  0.853095  0.840598  0.959799  1
  Sm  Sm14  1  0.352932  0.662636  0.961612  1
  Sm  Sm15  1  0.856653  0.534397  0.833878  1
  Hf  Hf16  1  0.506830  0.750310  0.249079  1
  Hf  Hf17  1  0.007073  0.750972  0.249018  1
  Hf  Hf18  1  0.008384  0.246630  0.750345  1
  Hf  Hf19  1  0.507908  0.249676  0.750438  1
  Ir  Ir20  1  0.253216  0.885522  0.107348  1
  Ir  Ir21  1  0.755710  0.615858  0.104473  1
  Ir  Ir22  1  0.751889  0.885052  0.392142  1
  Ir  Ir23  1  0.254099  0.616387  0.391545  1
  Ir  Ir24  1  0.754786  0.111169  0.889892  1
  Ir  Ir25  1  0.252745  0.388805  0.889739  1
  Ir  Ir26  1  0.258860  0.110547  0.610793  1
  Ir  Ir27  1  0.759110  0.389913  0.614158  1
  Ir  Ir28  1  0.104596  0.747861  0.750028  1
  Ir  Ir29  1  0.600219  0.748359  0.749761  1
  Ir  Ir30  1  0.889503  0.249948  0.251403  1
  Ir  Ir31  1  0.389169  0.249893  0.250928  1
