# generated using pymatgen
data_Tb13Yb3(TmIr3)4
_symmetry_space_group_name_H-M   'P 1'
_cell_length_a   10.87970529
_cell_length_b   10.91888551
_cell_length_c   6.36876058
_cell_angle_alpha   89.94627408
_cell_angle_beta   90.10919763
_cell_angle_gamma   90.11330539
_symmetry_Int_Tables_number   1
_chemical_formula_structural   Tb13Yb3(TmIr3)4
_chemical_formula_sum   'Tb13 Yb3 Tm4 Ir12'
_cell_volume   756.56899430
_cell_formula_units_Z   1
loop_
 _symmetry_equiv_pos_site_id
 _symmetry_equiv_pos_as_xyz
  1  'x, y, z'
loop_
 _atom_site_type_symbol
 _atom_site_label
 _atom_site_symmetry_multiplicity
 _atom_site_fract_x
 _atom_site_fract_y
 _atom_site_fract_z
 _atom_site_occupancy
  Tb  Tb0  1  0.708838  0.913978  0.378593  1
  Tb  Tb1  1  0.586844  0.793799  0.878015  1
  Tb  Tb2  1  0.586135  0.207188  0.378174  1
  Tb  Tb3  1  0.411352  0.793850  0.378374  1
  Tb  Tb4  1  0.413696  0.206359  0.878404  1
  Tb  Tb5  1  0.210523  0.412649  0.623159  1
  Tb  Tb6  1  0.210312  0.586761  0.122959  1
  Tb  Tb7  1  0.790375  0.412702  0.122108  1
  Tb  Tb8  1  0.789436  0.587338  0.621504  1
  Tb  Tb9  1  0.913037  0.710352  0.123103  1
  Tb  Tb10  1  0.912090  0.289140  0.623093  1
  Tb  Tb11  1  0.087270  0.710543  0.621957  1
  Tb  Tb12  1  0.088333  0.289466  0.122778  1
  Yb  Yb13  1  0.290045  0.086380  0.375428  1
  Yb  Yb14  1  0.289404  0.912890  0.875812  1
  Yb  Yb15  1  0.710475  0.086925  0.875893  1
  Tm  Tm16  1  0.001749  0.000257  0.498456  1
  Tm  Tm17  1  0.999502  0.000436  0.998742  1
  Tm  Tm18  1  0.500071  0.500207  0.998447  1
  Tm  Tm19  1  0.499540  0.500201  0.498604  1
  Ir  Ir20  1  0.851768  0.152376  0.255315  1
  Ir  Ir21  1  0.852578  0.844572  0.746911  1
  Ir  Ir22  1  0.146835  0.156490  0.753154  1
  Ir  Ir23  1  0.146338  0.843739  0.251653  1
  Ir  Ir24  1  0.649448  0.351889  0.748380  1
  Ir  Ir25  1  0.650410  0.652435  0.249533  1
  Ir  Ir26  1  0.349983  0.351566  0.246797  1
  Ir  Ir27  1  0.349512  0.648216  0.747642  1
  Ir  Ir28  1  0.501653  0.999216  0.123646  1
  Ir  Ir29  1  0.502226  0.998718  0.622072  1
  Ir  Ir30  1  0.000190  0.499831  0.880442  1
  Ir  Ir31  1  0.000032  0.499531  0.380853  1
