# generated using pymatgen
data_TbTm5Mn3(Co5P4)3
_symmetry_space_group_name_H-M   'P 1'
_cell_length_a   3.68304300
_cell_length_b   10.52068000
_cell_length_c   12.12310700
_cell_angle_alpha   90.00000000
_cell_angle_beta   90.00000000
_cell_angle_gamma   90.00000000
_symmetry_Int_Tables_number   1
_chemical_formula_structural   TbTm5Mn3(Co5P4)3
_chemical_formula_sum   'Tb1 Tm5 Mn3 Co15 P12'
_cell_volume   469.74756637
_cell_formula_units_Z   1
loop_
 _symmetry_equiv_pos_site_id
 _symmetry_equiv_pos_as_xyz
  1  'x, y, z'
loop_
 _atom_site_type_symbol
 _atom_site_label
 _atom_site_symmetry_multiplicity
 _atom_site_fract_x
 _atom_site_fract_y
 _atom_site_fract_z
 _atom_site_occupancy
  Tb  Tb0  1  0.500000  0.000000  0.476749  1
  Tm  Tm1  1  0.000000  0.500000  0.524068  1
  Tm  Tm2  1  0.500000  0.818699  0.204570  1
  Tm  Tm3  1  0.500000  0.181301  0.204570  1
  Tm  Tm4  1  0.000000  0.680170  0.795916  1
  Tm  Tm5  1  0.000000  0.319830  0.795916  1
  Mn  Mn6  1  0.500000  0.500000  0.154792  1
  Mn  Mn7  1  0.000000  0.000000  0.841519  1
  Mn  Mn8  1  0.000000  0.500000  0.988239  1
  Co  Co9  1  0.500000  0.500000  0.699763  1
  Co  Co10  1  0.000000  0.000000  0.296731  1
  Co  Co11  1  0.500000  0.000000  0.013275  1
  Co  Co12  1  0.500000  0.330306  0.993946  1
  Co  Co13  1  0.500000  0.669694  0.993946  1
  Co  Co14  1  0.000000  0.165276  0.005388  1
  Co  Co15  1  0.000000  0.834724  0.005388  1
  Co  Co16  1  0.500000  0.297096  0.430713  1
  Co  Co17  1  0.500000  0.702904  0.430713  1
  Co  Co18  1  0.000000  0.204728  0.570097  1
  Co  Co19  1  0.000000  0.795272  0.570097  1
  Co  Co20  1  0.500000  0.878671  0.709590  1
  Co  Co21  1  0.500000  0.121329  0.709590  1
  Co  Co22  1  0.000000  0.621648  0.291746  1
  Co  Co23  1  0.000000  0.378352  0.291746  1
  P  P24  1  0.500000  0.500000  0.881701  1
  P  P25  1  0.000000  0.000000  0.117727  1
  P  P26  1  0.500000  0.500000  0.347927  1
  P  P27  1  0.000000  0.000000  0.655307  1
  P  P28  1  0.500000  0.311610  0.617145  1
  P  P29  1  0.500000  0.688390  0.617145  1
  P  P30  1  0.000000  0.189137  0.383102  1
  P  P31  1  0.000000  0.810863  0.383102  1
  P  P32  1  0.500000  0.846696  0.892038  1
  P  P33  1  0.500000  0.153304  0.892038  1
  P  P34  1  0.000000  0.655448  0.106848  1
  P  P35  1  0.000000  0.344552  0.106848  1
