# generated using pymatgen
data_Ho6Er6ZnGaCo4
_symmetry_space_group_name_H-M   'P 1'
_cell_length_a   8.20195168
_cell_length_b   8.19226065
_cell_length_c   8.19226052
_cell_angle_alpha   111.88929489
_cell_angle_beta   109.72105187
_cell_angle_gamma   106.79829606
_symmetry_Int_Tables_number   1
_chemical_formula_structural   Ho6Er6ZnGaCo4
_chemical_formula_sum   'Ho6 Er6 Zn1 Ga1 Co4'
_cell_volume   423.13949505
_cell_formula_units_Z   1
loop_
 _symmetry_equiv_pos_site_id
 _symmetry_equiv_pos_as_xyz
  1  'x, y, z'
loop_
 _atom_site_type_symbol
 _atom_site_label
 _atom_site_symmetry_multiplicity
 _atom_site_fract_x
 _atom_site_fract_y
 _atom_site_fract_z
 _atom_site_occupancy
  Ho  Ho0  1  0.566849  0.262380  0.304469  1
  Ho  Ho1  1  0.433151  0.737620  0.695531  1
  Ho  Ho2  1  0.179980  0.779948  0.960511  1
  Ho  Ho3  1  0.820020  0.780532  0.599969  1
  Ho  Ho4  1  0.179980  0.219468  0.400031  1
  Ho  Ho5  1  0.820020  0.220052  0.039489  1
  Er  Er6  1  0.958357  0.262495  0.695861  1
  Er  Er7  1  0.041643  0.737505  0.304139  1
  Er  Er8  1  0.673858  0.861541  0.188610  1
  Er  Er9  1  0.326142  0.514754  0.187683  1
  Er  Er10  1  0.326142  0.138459  0.811390  1
  Er  Er11  1  0.673858  0.485246  0.812317  1
  Zn  Zn12  1  0.000000  0.500000  0.500000  1
  Ga  Ga13  1  0.500000  0.000000  0.500000  1
  Co  Co14  1  0.115400  0.115980  0.999420  1
  Co  Co15  1  0.884600  0.884020  0.000580  1
  Co  Co16  1  0.662906  0.500217  0.162688  1
  Co  Co17  1  0.337094  0.499783  0.837312  1
