# generated using pymatgen
data_Y19HoTcAg6Pd
_symmetry_space_group_name_H-M   'P 1'
_cell_length_a   9.57762390
_cell_length_b   9.57762363
_cell_length_c   9.71059554
_cell_angle_alpha   90.07340629
_cell_angle_beta   89.92659679
_cell_angle_gamma   119.96745597
_symmetry_Int_Tables_number   1
_chemical_formula_structural   Y19HoTcAg6Pd
_chemical_formula_sum   'Y19 Ho1 Tc1 Ag6 Pd1'
_cell_volume   771.67404767
_cell_formula_units_Z   1
loop_
 _symmetry_equiv_pos_site_id
 _symmetry_equiv_pos_as_xyz
  1  'x, y, z'
loop_
 _atom_site_type_symbol
 _atom_site_label
 _atom_site_symmetry_multiplicity
 _atom_site_fract_x
 _atom_site_fract_y
 _atom_site_fract_z
 _atom_site_occupancy
  Y  Y0  1  0.208776  0.417828  0.941129  1
  Y  Y1  1  0.582172  0.791224  0.941129  1
  Y  Y2  1  0.793577  0.206423  0.055786  1
  Y  Y3  1  0.793886  0.586913  0.055585  1
  Y  Y4  1  0.413087  0.206114  0.055585  1
  Y  Y5  1  0.793437  0.206563  0.444143  1
  Y  Y6  1  0.793530  0.586786  0.444150  1
  Y  Y7  1  0.413214  0.206470  0.444150  1
  Y  Y8  1  0.208707  0.791293  0.559349  1
  Y  Y9  1  0.208976  0.417922  0.559204  1
  Y  Y10  1  0.582078  0.791024  0.559204  1
  Y  Y11  1  0.540259  0.459741  0.749977  1
  Y  Y12  1  0.539674  0.079771  0.750327  1
  Y  Y13  1  0.920229  0.460326  0.750327  1
  Y  Y14  1  0.456853  0.543147  0.249979  1
  Y  Y15  1  0.456454  0.913253  0.249581  1
  Y  Y16  1  0.086746  0.543546  0.249581  1
  Y  Y17  1  0.000474  0.999526  0.000463  1
  Y  Y18  1  0.000016  0.999984  0.499007  1
  Ho  Ho19  1  0.209088  0.790912  0.940513  1
  Tc  Tc20  1  0.332129  0.667871  0.751229  1
  Ag  Ag21  1  0.882894  0.117107  0.750119  1
  Ag  Ag22  1  0.882912  0.765786  0.749950  1
  Ag  Ag23  1  0.234214  0.117088  0.749950  1
  Ag  Ag24  1  0.116078  0.883922  0.249752  1
  Ag  Ag25  1  0.115933  0.231995  0.250010  1
  Ag  Ag26  1  0.768005  0.884067  0.250010  1
  Pd  Pd27  1  0.666605  0.333394  0.249810  1
