# generated using pymatgen
data_Tb4NdY(Al3Os)8
_symmetry_space_group_name_H-M   'P 1'
_cell_length_a   8.84219600
_cell_length_b   8.84134786
_cell_length_c   9.63116900
_cell_angle_alpha   90.00000000
_cell_angle_beta   90.00000000
_cell_angle_gamma   120.00317334
_symmetry_Int_Tables_number   1
_chemical_formula_structural   Tb4NdY(Al3Os)8
_chemical_formula_sum   'Tb4 Nd1 Y1 Al24 Os8'
_cell_volume   652.04018608
_cell_formula_units_Z   1
loop_
 _symmetry_equiv_pos_site_id
 _symmetry_equiv_pos_as_xyz
  1  'x, y, z'
loop_
 _atom_site_type_symbol
 _atom_site_label
 _atom_site_symmetry_multiplicity
 _atom_site_fract_x
 _atom_site_fract_y
 _atom_site_fract_z
 _atom_site_occupancy
  Tb  Tb0  1  0.613575  0.807114  0.250000  1
  Tb  Tb1  1  0.385844  0.192935  0.750000  1
  Tb  Tb2  1  0.193539  0.807114  0.250000  1
  Tb  Tb3  1  0.807091  0.192935  0.750000  1
  Nd  Nd4  1  0.191826  0.383652  0.250000  1
  Y  Y5  1  0.806901  0.613802  0.750000  1
  Al  Al6  1  0.333802  0.667605  0.014288  1
  Al  Al7  1  0.666625  0.333248  0.983039  1
  Al  Al8  1  0.666625  0.333248  0.516961  1
  Al  Al9  1  0.333802  0.667605  0.485712  1
  Al  Al10  1  0.163516  0.327033  0.577055  1
  Al  Al11  1  0.836589  0.673179  0.425820  1
  Al  Al12  1  0.673356  0.836563  0.574711  1
  Al  Al13  1  0.836589  0.673179  0.074180  1
  Al  Al14  1  0.327822  0.163110  0.426598  1
  Al  Al15  1  0.163516  0.327033  0.922945  1
  Al  Al16  1  0.163208  0.836563  0.574711  1
  Al  Al17  1  0.327822  0.163110  0.073402  1
  Al  Al18  1  0.835286  0.163110  0.426598  1
  Al  Al19  1  0.673356  0.836563  0.925289  1
  Al  Al20  1  0.835286  0.163110  0.073402  1
  Al  Al21  1  0.163208  0.836563  0.925289  1
  Al  Al22  1  0.561293  0.122584  0.250000  1
  Al  Al23  1  0.438890  0.877782  0.750000  1
  Al  Al24  1  0.875851  0.439238  0.250000  1
  Al  Al25  1  0.122084  0.561429  0.750000  1
  Al  Al26  1  0.563388  0.439238  0.250000  1
  Al  Al27  1  0.439346  0.561429  0.750000  1
  Al  Al28  1  0.998292  0.996585  0.250000  1
  Al  Al29  1  0.999795  0.999588  0.750000  1
  Os  Os30  1  0.500158  0.000316  0.999688  1
  Os  Os31  1  0.999237  0.500653  0.998965  1
  Os  Os32  1  0.500158  0.000316  0.500312  1
  Os  Os33  1  0.501416  0.500653  0.998965  1
  Os  Os34  1  0.999237  0.500653  0.501035  1
  Os  Os35  1  0.501416  0.500653  0.501035  1
  Os  Os36  1  0.000129  0.000256  0.999839  1
  Os  Os37  1  0.000129  0.000256  0.500161  1
