# generated using pymatgen
data_SmH6Ir
_symmetry_space_group_name_H-M   'P 1'
_cell_length_a   4.69838011
_cell_length_b   4.69838098
_cell_length_c   4.70274922
_cell_angle_alpha   57.85333360
_cell_angle_beta   57.85336258
_cell_angle_gamma   57.86194570
_symmetry_Int_Tables_number   1
_chemical_formula_structural   SmH6Ir
_chemical_formula_sum   'Sm1 H6 Ir1'
_cell_volume   69.79366792
_cell_formula_units_Z   1
loop_
 _symmetry_equiv_pos_site_id
 _symmetry_equiv_pos_as_xyz
  1  'x, y, z'
loop_
 _atom_site_type_symbol
 _atom_site_label
 _atom_site_symmetry_multiplicity
 _atom_site_fract_x
 _atom_site_fract_y
 _atom_site_fract_z
 _atom_site_occupancy
  Sm  Sm0  1  0.500000  0.500000  0.500000  1
  H  H1  1  0.567208  0.099676  0.099734  1
  H  H2  1  0.099676  0.567208  0.099734  1
  H  H3  1  0.900576  0.900576  0.432201  1
  H  H4  1  0.099424  0.099424  0.567798  1
  H  H5  1  0.900324  0.432791  0.900266  1
  H  H6  1  0.432791  0.900324  0.900266  1
  Ir  Ir7  1  0.000000  0.000000  0.000000  1
