# generated using pymatgen
data_ScGa7Co8
_symmetry_space_group_name_H-M   'P 1'
_cell_length_a   13.66583862
_cell_length_b   13.66583874
_cell_length_c   13.66583823
_cell_angle_alpha   17.33154709
_cell_angle_beta   17.33154588
_cell_angle_gamma   17.33154340
_symmetry_Int_Tables_number   1
_chemical_formula_structural   ScGa7Co8
_chemical_formula_sum   'Sc1 Ga7 Co8'
_cell_volume   197.64253687
_cell_formula_units_Z   1
loop_
 _symmetry_equiv_pos_site_id
 _symmetry_equiv_pos_as_xyz
  1  'x, y, z'
loop_
 _atom_site_type_symbol
 _atom_site_label
 _atom_site_symmetry_multiplicity
 _atom_site_fract_x
 _atom_site_fract_y
 _atom_site_fract_z
 _atom_site_occupancy
  Sc  Sc0  1  0.000000  0.000000  0.000000  1
  Ga  Ga1  1  0.126036  0.126036  0.126036  1
  Ga  Ga2  1  0.375131  0.375131  0.375131  1
  Ga  Ga3  1  0.624869  0.624869  0.624869  1
  Ga  Ga4  1  0.873964  0.873964  0.873964  1
  Ga  Ga5  1  0.248829  0.248829  0.248829  1
  Ga  Ga6  1  0.500000  0.500000  0.500000  1
  Ga  Ga7  1  0.751171  0.751171  0.751171  1
  Co  Co8  1  0.812728  0.812728  0.812728  1
  Co  Co9  1  0.065262  0.065262  0.065262  1
  Co  Co10  1  0.309439  0.309439  0.309439  1
  Co  Co11  1  0.561528  0.561528  0.561528  1
  Co  Co12  1  0.438472  0.438472  0.438472  1
  Co  Co13  1  0.690561  0.690561  0.690561  1
  Co  Co14  1  0.934738  0.934738  0.934738  1
  Co  Co15  1  0.187272  0.187272  0.187272  1
