# generated using pymatgen
data_Pa2Ni2Te
_symmetry_space_group_name_H-M   'P 1'
_cell_length_a   6.91756898
_cell_length_b   6.91756871
_cell_length_c   3.59102000
_cell_angle_alpha   90.00000000
_cell_angle_beta   90.00000000
_cell_angle_gamma   144.35016134
_symmetry_Int_Tables_number   1
_chemical_formula_structural   Pa2Ni2Te
_chemical_formula_sum   'Pa2 Ni2 Te1'
_cell_volume   100.15363596
_cell_formula_units_Z   1
loop_
 _symmetry_equiv_pos_site_id
 _symmetry_equiv_pos_as_xyz
  1  'x, y, z'
loop_
 _atom_site_type_symbol
 _atom_site_label
 _atom_site_symmetry_multiplicity
 _atom_site_fract_x
 _atom_site_fract_y
 _atom_site_fract_z
 _atom_site_occupancy
  Pa  Pa0  1  0.634999  0.365001  0.500000  1
  Pa  Pa1  1  0.365001  0.634999  0.500000  1
  Ni  Ni2  1  0.797938  0.202062  0.000000  1
  Ni  Ni3  1  0.202062  0.797938  0.000000  1
  Te  Te4  1  0.000000  0.000000  0.000000  1
