# generated using pymatgen
data_Y8Hf12Si15Rh
_symmetry_space_group_name_H-M   'P 1'
_cell_length_a   7.30693282
_cell_length_b   7.28407910
_cell_length_c   13.40961451
_cell_angle_alpha   90.12776253
_cell_angle_beta   89.90933326
_cell_angle_gamma   89.90442517
_symmetry_Int_Tables_number   1
_chemical_formula_structural   Y8Hf12Si15Rh
_chemical_formula_sum   'Y8 Hf12 Si15 Rh1'
_cell_volume   713.71336687
_cell_formula_units_Z   1
loop_
 _symmetry_equiv_pos_site_id
 _symmetry_equiv_pos_as_xyz
  1  'x, y, z'
loop_
 _atom_site_type_symbol
 _atom_site_label
 _atom_site_symmetry_multiplicity
 _atom_site_fract_x
 _atom_site_fract_y
 _atom_site_fract_z
 _atom_site_occupancy
  Y  Y0  1  0.496407  0.155202  0.535275  1
  Y  Y1  1  0.500097  0.841841  0.034216  1
  Y  Y2  1  0.654742  0.004036  0.286206  1
  Y  Y3  1  0.344417  0.995638  0.783947  1
  Y  Y4  1  0.848296  0.504771  0.964677  1
  Y  Y5  1  0.153843  0.495155  0.464664  1
  Y  Y6  1  0.003768  0.654732  0.715275  1
  Y  Y7  1  0.995568  0.343612  0.213939  1
  Hf  Hf8  1  0.676783  0.324040  0.748948  1
  Hf  Hf9  1  0.324741  0.673876  0.250169  1
  Hf  Hf10  1  0.824197  0.824568  0.500119  1
  Hf  Hf11  1  0.174758  0.175218  0.001579  1
  Hf  Hf12  1  0.502746  0.348853  0.123458  1
  Hf  Hf13  1  0.503542  0.648310  0.625118  1
  Hf  Hf14  1  0.848849  0.006396  0.877523  1
  Hf  Hf15  1  0.149022  0.996302  0.375280  1
  Hf  Hf16  1  0.647771  0.503137  0.375782  1
  Hf  Hf17  1  0.350525  0.499246  0.874006  1
  Hf  Hf18  1  0.002175  0.856447  0.128189  1
  Hf  Hf19  1  0.995900  0.147264  0.624145  1
  Si  Si20  1  0.204825  0.860443  0.568247  1
  Si  Si21  1  0.639432  0.703591  0.816635  1
  Si  Si22  1  0.360537  0.295908  0.317016  1
  Si  Si23  1  0.860559  0.203680  0.433432  1
  Si  Si24  1  0.140564  0.796341  0.932158  1
  Si  Si25  1  0.700407  0.640267  0.184429  1
  Si  Si26  1  0.295604  0.360696  0.682612  1
  Si  Si27  1  0.547180  0.209065  0.933600  1
  Si  Si28  1  0.449776  0.794241  0.435975  1
  Si  Si29  1  0.705332  0.950084  0.685719  1
  Si  Si30  1  0.296681  0.049901  0.187667  1
  Si  Si31  1  0.795235  0.450672  0.564404  1
  Si  Si32  1  0.207981  0.551907  0.063635  1
  Si  Si33  1  0.949709  0.705141  0.315442  1
  Si  Si34  1  0.051450  0.294105  0.812220  1
  Rh  Rh35  1  0.796584  0.135314  0.064294  1
