# generated using pymatgen
data_ErAl2Ni2Pt7
_symmetry_space_group_name_H-M   'P 1'
_cell_length_a   3.99585300
_cell_length_b   3.99585300
_cell_length_c   11.23919100
_cell_angle_alpha   90.00000000
_cell_angle_beta   90.00000000
_cell_angle_gamma   90.00000000
_symmetry_Int_Tables_number   1
_chemical_formula_structural   ErAl2Ni2Pt7
_chemical_formula_sum   'Er1 Al2 Ni2 Pt7'
_cell_volume   179.45437789
_cell_formula_units_Z   1
loop_
 _symmetry_equiv_pos_site_id
 _symmetry_equiv_pos_as_xyz
  1  'x, y, z'
loop_
 _atom_site_type_symbol
 _atom_site_label
 _atom_site_symmetry_multiplicity
 _atom_site_fract_x
 _atom_site_fract_y
 _atom_site_fract_z
 _atom_site_occupancy
  Er  Er0  1  0.000000  0.000000  0.000000  1
  Al  Al1  1  0.000000  0.000000  0.343431  1
  Al  Al2  1  0.000000  0.000000  0.656569  1
  Ni  Ni3  1  0.500000  0.500000  0.343837  1
  Ni  Ni4  1  0.500000  0.500000  0.656163  1
  Pt  Pt5  1  0.500000  0.500000  0.000000  1
  Pt  Pt6  1  0.500000  0.000000  0.190548  1
  Pt  Pt7  1  0.500000  0.000000  0.500000  1
  Pt  Pt8  1  0.500000  0.000000  0.809452  1
  Pt  Pt9  1  0.000000  0.500000  0.190548  1
  Pt  Pt10  1  0.000000  0.500000  0.500000  1
  Pt  Pt11  1  0.000000  0.500000  0.809452  1
