# generated using pymatgen
data_Yb16Tl5Ga
_symmetry_space_group_name_H-M   'P 1'
_cell_length_a   9.50406537
_cell_length_b   9.51788266
_cell_length_c   9.60898500
_cell_angle_alpha   98.98908503
_cell_angle_beta   101.29956373
_cell_angle_gamma   119.70780182
_symmetry_Int_Tables_number   1
_chemical_formula_structural   Yb16Tl5Ga
_chemical_formula_sum   'Yb16 Tl5 Ga1'
_cell_volume   706.82463525
_cell_formula_units_Z   1
loop_
 _symmetry_equiv_pos_site_id
 _symmetry_equiv_pos_as_xyz
  1  'x, y, z'
loop_
 _atom_site_type_symbol
 _atom_site_label
 _atom_site_symmetry_multiplicity
 _atom_site_fract_x
 _atom_site_fract_y
 _atom_site_fract_z
 _atom_site_occupancy
  Yb  Yb0  1  0.077663  0.735944  0.105591  1
  Yb  Yb1  1  0.323492  0.370866  0.110570  1
  Yb  Yb2  1  0.710067  0.998777  0.111089  1
  Yb  Yb3  1  0.538822  0.203187  0.292439  1
  Yb  Yb4  1  0.768739  0.654503  0.295762  1
  Yb  Yb5  1  0.040083  0.441943  0.329197  1
  Yb  Yb6  1  0.467047  0.797530  0.350112  1
  Yb  Yb7  1  0.119829  0.098925  0.346204  1
  Yb  Yb8  1  0.880171  0.901075  0.653796  1
  Yb  Yb9  1  0.532953  0.202471  0.649889  1
  Yb  Yb10  1  0.959916  0.558057  0.670803  1
  Yb  Yb11  1  0.231261  0.345496  0.704238  1
  Yb  Yb12  1  0.461178  0.796812  0.707561  1
  Yb  Yb13  1  0.289933  0.001223  0.888911  1
  Yb  Yb14  1  0.676508  0.629133  0.889430  1
  Yb  Yb15  1  0.922337  0.264056  0.894409  1
  Tl  Tl16  1  0.676980  0.338338  0.022469  1
  Tl  Tl17  1  0.826246  0.160834  0.500223  1
  Tl  Tl18  1  0.500000  0.500000  0.500000  1
  Tl  Tl19  1  0.173754  0.839167  0.499777  1
  Tl  Tl20  1  0.323020  0.661661  0.977531  1
  Ga  Ga21  1  0.000000  0.000000  0.000000  1
