# generated using pymatgen
data_Pr4Al23Ni6
_symmetry_space_group_name_H-M   'P 1'
_cell_length_a   8.32657212
_cell_length_b   8.32657128
_cell_length_c   18.36402514
_cell_angle_alpha   68.06110116
_cell_angle_beta   68.06110378
_cell_angle_gamma   28.68523456
_symmetry_Int_Tables_number   1
_chemical_formula_structural   Pr4Al23Ni6
_chemical_formula_sum   'Pr4 Al23 Ni6'
_cell_volume   563.86672223
_cell_formula_units_Z   1
loop_
 _symmetry_equiv_pos_site_id
 _symmetry_equiv_pos_as_xyz
  1  'x, y, z'
loop_
 _atom_site_type_symbol
 _atom_site_label
 _atom_site_symmetry_multiplicity
 _atom_site_fract_x
 _atom_site_fract_y
 _atom_site_fract_z
 _atom_site_occupancy
  Pr  Pr0  1  0.265544  0.265544  0.781450  1
  Pr  Pr1  1  0.568124  0.568124  0.593920  1
  Pr  Pr2  1  0.734456  0.734456  0.218550  1
  Pr  Pr3  1  0.431876  0.431876  0.406080  1
  Al  Al4  1  0.468271  0.468271  0.782442  1
  Al  Al5  1  0.083202  0.083202  0.311773  1
  Al  Al6  1  0.607723  0.607723  0.840408  1
  Al  Al7  1  0.256723  0.256723  0.954008  1
  Al  Al8  1  0.625247  0.625247  0.405481  1
  Al  Al9  1  0.090490  0.090490  0.952206  1
  Al  Al10  1  0.531729  0.531729  0.217558  1
  Al  Al11  1  0.203980  0.203980  0.478461  1
  Al  Al12  1  0.909637  0.909637  0.277935  1
  Al  Al13  1  0.392277  0.392277  0.159592  1
  Al  Al14  1  0.909510  0.909510  0.047794  1
  Al  Al15  1  0.743277  0.743277  0.045992  1
  Al  Al16  1  0.374753  0.374753  0.594519  1
  Al  Al17  1  0.278068  0.278068  0.324200  1
  Al  Al18  1  0.856603  0.856603  0.859176  1
  Al  Al19  1  0.143397  0.143397  0.140824  1
  Al  Al20  1  0.431816  0.431816  0.940434  1
  Al  Al21  1  0.796020  0.796020  0.521539  1
  Al  Al22  1  0.568184  0.568184  0.059566  1
  Al  Al23  1  0.721932  0.721932  0.675800  1
  Al  Al24  1  0.916798  0.916798  0.688227  1
  Al  Al25  1  0.090363  0.090363  0.722065  1
  Al  Al26  1  0.000000  0.000000  0.500000  1
  Ni  Ni27  1  0.992433  0.992433  0.133310  1
  Ni  Ni28  1  0.007567  0.007567  0.866690  1
  Ni  Ni29  1  0.310064  0.310064  0.066424  1
  Ni  Ni30  1  0.689936  0.689936  0.933576  1
  Ni  Ni31  1  0.774527  0.774527  0.397203  1
  Ni  Ni32  1  0.225473  0.225473  0.602797  1
