# generated using pymatgen
data_DyY3(HfIr)4
_symmetry_space_group_name_H-M   'P 1'
_cell_length_a   4.53855900
_cell_length_b   7.08398701
_cell_length_c   8.32576024
_cell_angle_alpha   90.21493589
_cell_angle_beta   90.00000000
_cell_angle_gamma   90.00000000
_symmetry_Int_Tables_number   1
_chemical_formula_structural   DyY3(HfIr)4
_chemical_formula_sum   'Dy1 Y3 Hf4 Ir4'
_cell_volume   267.68040807
_cell_formula_units_Z   1
loop_
 _symmetry_equiv_pos_site_id
 _symmetry_equiv_pos_as_xyz
  1  'x, y, z'
loop_
 _atom_site_type_symbol
 _atom_site_label
 _atom_site_symmetry_multiplicity
 _atom_site_fract_x
 _atom_site_fract_y
 _atom_site_fract_z
 _atom_site_occupancy
  Dy  Dy0  1  0.250000  0.982923  0.322872  1
  Y  Y1  1  0.250000  0.486299  0.177227  1
  Y  Y2  1  0.750000  0.014461  0.677795  1
  Y  Y3  1  0.750000  0.516174  0.822813  1
  Hf  Hf4  1  0.250000  0.357461  0.571835  1
  Hf  Hf5  1  0.250000  0.860546  0.927953  1
  Hf  Hf6  1  0.750000  0.638782  0.427846  1
  Hf  Hf7  1  0.750000  0.143168  0.072553  1
  Ir  Ir8  1  0.250000  0.231440  0.907259  1
  Ir  Ir9  1  0.250000  0.729382  0.591280  1
  Ir  Ir10  1  0.750000  0.772130  0.093028  1
  Ir  Ir11  1  0.750000  0.267235  0.407537  1
