# generated using pymatgen
data_Er10Zn3Bi2Au
_symmetry_space_group_name_H-M   'P 1'
_cell_length_a   8.60614222
_cell_length_b   8.60614231
_cell_length_c   8.60386272
_cell_angle_alpha   124.07750218
_cell_angle_beta   124.07750241
_cell_angle_gamma   83.08881158
_symmetry_Int_Tables_number   1
_chemical_formula_structural   Er10Zn3Bi2Au
_chemical_formula_sum   'Er10 Zn3 Bi2 Au1'
_cell_volume   419.41254392
_cell_formula_units_Z   1
loop_
 _symmetry_equiv_pos_site_id
 _symmetry_equiv_pos_as_xyz
  1  'x, y, z'
loop_
 _atom_site_type_symbol
 _atom_site_label
 _atom_site_symmetry_multiplicity
 _atom_site_fract_x
 _atom_site_fract_y
 _atom_site_fract_z
 _atom_site_occupancy
  Er  Er0  1  0.499697  0.499529  0.999226  1
  Er  Er1  1  0.000471  0.000303  0.000774  1
  Er  Er2  1  0.510383  0.011663  0.805476  1
  Er  Er3  1  0.204905  0.706185  0.194524  1
  Er  Er4  1  0.011720  0.205328  0.500000  1
  Er  Er5  1  0.705835  0.511430  0.500000  1
  Er  Er6  1  0.488337  0.989617  0.194524  1
  Er  Er7  1  0.793815  0.295095  0.805476  1
  Er  Er8  1  0.988570  0.794165  0.500000  1
  Er  Er9  1  0.294672  0.488280  0.500000  1
  Zn  Zn10  1  0.137780  0.639372  0.777151  1
  Zn  Zn11  1  0.860628  0.362220  0.222849  1
  Zn  Zn12  1  0.639671  0.860329  0.500000  1
  Bi  Bi13  1  0.249499  0.250501  0.000000  1
  Bi  Bi14  1  0.749499  0.750501  0.000000  1
  Au  Au15  1  0.364518  0.135482  0.500000  1
