# generated using pymatgen
data_Dy2Ho2Sn6Rh7
_symmetry_space_group_name_H-M   'P 1'
_cell_length_a   7.61330281
_cell_length_b   7.61239187
_cell_length_c   7.61330401
_cell_angle_alpha   109.47144359
_cell_angle_beta   109.47563196
_cell_angle_gamma   109.47143724
_symmetry_Int_Tables_number   1
_chemical_formula_structural   Dy2Ho2Sn6Rh7
_chemical_formula_sum   'Dy2 Ho2 Sn6 Rh7'
_cell_volume   339.64053670
_cell_formula_units_Z   1
loop_
 _symmetry_equiv_pos_site_id
 _symmetry_equiv_pos_as_xyz
  1  'x, y, z'
loop_
 _atom_site_type_symbol
 _atom_site_label
 _atom_site_symmetry_multiplicity
 _atom_site_fract_x
 _atom_site_fract_y
 _atom_site_fract_z
 _atom_site_occupancy
  Dy  Dy0  1  0.000000  0.500000  0.000000  1
  Dy  Dy1  1  0.500000  0.500000  0.500000  1
  Ho  Ho2  1  0.000000  0.000000  0.500000  1
  Ho  Ho3  1  0.500000  0.000000  0.000000  1
  Sn  Sn4  1  0.683943  0.683995  0.000052  1
  Sn  Sn5  1  0.316057  0.000000  0.316057  1
  Sn  Sn6  1  0.999948  0.316005  0.316057  1
  Sn  Sn7  1  0.316057  0.316005  0.999948  1
  Sn  Sn8  1  0.683943  0.000000  0.683943  1
  Sn  Sn9  1  0.000052  0.683995  0.683943  1
  Rh  Rh10  1  0.750000  0.249948  0.499948  1
  Rh  Rh11  1  0.750000  0.500000  0.250000  1
  Rh  Rh12  1  0.499948  0.249948  0.750000  1
  Rh  Rh13  1  0.250000  0.500000  0.750000  1
  Rh  Rh14  1  0.250000  0.750052  0.500052  1
  Rh  Rh15  1  0.500052  0.750052  0.250000  1
  Rh  Rh16  1  0.000000  0.000000  0.000000  1
