# generated using pymatgen
data_La5CoPd2
_symmetry_space_group_name_H-M   'P 1'
_cell_length_a   8.55566000
_cell_length_b   8.22563600
_cell_length_c   12.38652800
_cell_angle_alpha   90.00000000
_cell_angle_beta   90.00000000
_cell_angle_gamma   90.00000000
_symmetry_Int_Tables_number   1
_chemical_formula_structural   La5CoPd2
_chemical_formula_sum   'La20 Co4 Pd8'
_cell_volume   871.71113472
_cell_formula_units_Z   4
loop_
 _symmetry_equiv_pos_site_id
 _symmetry_equiv_pos_as_xyz
  1  'x, y, z'
loop_
 _atom_site_type_symbol
 _atom_site_label
 _atom_site_symmetry_multiplicity
 _atom_site_fract_x
 _atom_site_fract_y
 _atom_site_fract_z
 _atom_site_occupancy
  La  La0  1  0.827689  0.750000  0.787871  1
  La  La1  1  0.172311  0.250000  0.212129  1
  La  La2  1  0.327689  0.250000  0.712129  1
  La  La3  1  0.672311  0.750000  0.287871  1
  La  La4  1  0.360961  0.750000  0.699854  1
  La  La5  1  0.639039  0.250000  0.300146  1
  La  La6  1  0.860961  0.250000  0.800146  1
  La  La7  1  0.139039  0.750000  0.199854  1
  La  La8  1  0.966039  0.750000  0.496238  1
  La  La9  1  0.033961  0.250000  0.503762  1
  La  La10  1  0.466039  0.250000  0.003762  1
  La  La11  1  0.533961  0.750000  0.996238  1
  La  La12  1  0.666064  0.030354  0.576697  1
  La  La13  1  0.333936  0.969646  0.423303  1
  La  La14  1  0.166064  0.969646  0.923303  1
  La  La15  1  0.333936  0.530354  0.423303  1
  La  La16  1  0.833936  0.030354  0.076697  1
  La  La17  1  0.666064  0.469646  0.576697  1
  La  La18  1  0.833936  0.469646  0.076697  1
  La  La19  1  0.166064  0.530354  0.923303  1
  Co  Co20  1  0.557918  0.750000  0.508247  1
  Co  Co21  1  0.442082  0.250000  0.491753  1
  Co  Co22  1  0.057918  0.250000  0.991753  1
  Co  Co23  1  0.942082  0.750000  0.008247  1
  Pd  Pd24  1  0.556554  0.482829  0.824652  1
  Pd  Pd25  1  0.443446  0.517171  0.175348  1
  Pd  Pd26  1  0.056554  0.517171  0.675348  1
  Pd  Pd27  1  0.443446  0.982829  0.175348  1
  Pd  Pd28  1  0.943446  0.482829  0.324652  1
  Pd  Pd29  1  0.556554  0.017171  0.824652  1
  Pd  Pd30  1  0.943446  0.017171  0.324652  1
  Pd  Pd31  1  0.056554  0.982829  0.675348  1
