# generated using pymatgen
data_Lu4HfZr3Pt4
_symmetry_space_group_name_H-M   'P 1'
_cell_length_a   4.66243600
_cell_length_b   6.96497630
_cell_length_c   8.21780560
_cell_angle_alpha   89.85249433
_cell_angle_beta   90.00000000
_cell_angle_gamma   90.00000000
_symmetry_Int_Tables_number   1
_chemical_formula_structural   Lu4HfZr3Pt4
_chemical_formula_sum   'Lu4 Hf1 Zr3 Pt4'
_cell_volume   266.86213146
_cell_formula_units_Z   1
loop_
 _symmetry_equiv_pos_site_id
 _symmetry_equiv_pos_as_xyz
  1  'x, y, z'
loop_
 _atom_site_type_symbol
 _atom_site_label
 _atom_site_symmetry_multiplicity
 _atom_site_fract_x
 _atom_site_fract_y
 _atom_site_fract_z
 _atom_site_occupancy
  Lu  Lu0  1  0.250000  0.982714  0.320870  1
  Lu  Lu1  1  0.250000  0.484432  0.178253  1
  Lu  Lu2  1  0.750000  0.016163  0.677430  1
  Lu  Lu3  1  0.750000  0.515201  0.822321  1
  Hf  Hf4  1  0.750000  0.648290  0.421843  1
  Zr  Zr5  1  0.250000  0.849795  0.920127  1
  Zr  Zr6  1  0.250000  0.352458  0.579099  1
  Zr  Zr7  1  0.750000  0.148349  0.079935  1
  Pt  Pt8  1  0.250000  0.235310  0.905187  1
  Pt  Pt9  1  0.250000  0.736323  0.590763  1
  Pt  Pt10  1  0.750000  0.762759  0.099161  1
  Pt  Pt11  1  0.750000  0.268206  0.405012  1
