# generated using pymatgen
data_Zr12SiAs3
_symmetry_space_group_name_H-M   'P 1'
_cell_length_a   11.02198125
_cell_length_b   11.05806624
_cell_length_c   5.48059200
_cell_angle_alpha   90.00000000
_cell_angle_beta   90.00000000
_cell_angle_gamma   90.02417432
_symmetry_Int_Tables_number   1
_chemical_formula_structural   Zr12SiAs3
_chemical_formula_sum   'Zr24 Si2 As6'
_cell_volume   667.98435184
_cell_formula_units_Z   2
loop_
 _symmetry_equiv_pos_site_id
 _symmetry_equiv_pos_as_xyz
  1  'x, y, z'
loop_
 _atom_site_type_symbol
 _atom_site_label
 _atom_site_symmetry_multiplicity
 _atom_site_fract_x
 _atom_site_fract_y
 _atom_site_fract_z
 _atom_site_occupancy
  Zr  Zr0  1  0.918793  0.607859  0.540408  1
  Zr  Zr1  1  0.081207  0.392141  0.540408  1
  Zr  Zr2  1  0.894835  0.415592  0.031299  1
  Zr  Zr3  1  0.105165  0.584408  0.031299  1
  Zr  Zr4  1  0.582404  0.894753  0.964237  1
  Zr  Zr5  1  0.417596  0.105247  0.964237  1
  Zr  Zr6  1  0.606414  0.082976  0.464378  1
  Zr  Zr7  1  0.393586  0.917024  0.464378  1
  Zr  Zr8  1  0.862125  0.974368  0.718246  1
  Zr  Zr9  1  0.137875  0.025632  0.718246  1
  Zr  Zr10  1  0.526396  0.359934  0.216627  1
  Zr  Zr11  1  0.473604  0.640066  0.216627  1
  Zr  Zr12  1  0.639547  0.525734  0.783892  1
  Zr  Zr13  1  0.360453  0.474266  0.783892  1
  Zr  Zr14  1  0.973506  0.141255  0.281695  1
  Zr  Zr15  1  0.026494  0.858745  0.281695  1
  Zr  Zr16  1  0.819278  0.716123  0.006743  1
  Zr  Zr17  1  0.180722  0.283877  0.006743  1
  Zr  Zr18  1  0.786665  0.319269  0.511658  1
  Zr  Zr19  1  0.213335  0.680731  0.511658  1
  Zr  Zr20  1  0.681926  0.784840  0.491604  1
  Zr  Zr21  1  0.318074  0.215160  0.491604  1
  Zr  Zr22  1  0.716810  0.180706  0.988517  1
  Zr  Zr23  1  0.283190  0.819294  0.988517  1
  Si  Si24  1  0.959215  0.204665  0.787763  1
  Si  Si25  1  0.040785  0.795335  0.787763  1
  As  As26  1  0.794475  0.959465  0.212870  1
  As  As27  1  0.205525  0.040535  0.212870  1
  As  As28  1  0.540344  0.293838  0.712343  1
  As  As29  1  0.459656  0.706162  0.712343  1
  As  As30  1  0.706878  0.540612  0.287721  1
  As  As31  1  0.293122  0.459388  0.287721  1
