# generated using pymatgen
data_Ba3UBi2O9
_symmetry_space_group_name_H-M   'P 1'
_cell_length_a   6.37797500
_cell_length_b   6.37797443
_cell_length_c   15.26281000
_cell_angle_alpha   90.00000000
_cell_angle_beta   90.00000000
_cell_angle_gamma   119.99999779
_symmetry_Int_Tables_number   1
_chemical_formula_structural   Ba3UBi2O9
_chemical_formula_sum   'Ba6 U2 Bi4 O18'
_cell_volume   537.68847199
_cell_formula_units_Z   2
loop_
 _symmetry_equiv_pos_site_id
 _symmetry_equiv_pos_as_xyz
  1  'x, y, z'
loop_
 _atom_site_type_symbol
 _atom_site_label
 _atom_site_symmetry_multiplicity
 _atom_site_fract_x
 _atom_site_fract_y
 _atom_site_fract_z
 _atom_site_occupancy
  Ba  Ba0  1  0.333333  0.666667  0.088720  1
  Ba  Ba1  1  0.666667  0.333333  0.911280  1
  Ba  Ba2  1  0.333333  0.666667  0.588720  1
  Ba  Ba3  1  0.666667  0.333333  0.411280  1
  Ba  Ba4  1  0.000000  0.000000  0.250000  1
  Ba  Ba5  1  0.000000  0.000000  0.750000  1
  U  U6  1  0.000000  0.000000  0.000000  1
  U  U7  1  0.000000  0.000000  0.500000  1
  Bi  Bi8  1  0.333333  0.666667  0.831295  1
  Bi  Bi9  1  0.666667  0.333333  0.168705  1
  Bi  Bi10  1  0.333333  0.666667  0.331295  1
  Bi  Bi11  1  0.666667  0.333333  0.668705  1
  O  O12  1  0.931107  0.701022  0.578015  1
  O  O13  1  0.000000  0.572959  0.250000  1
  O  O14  1  0.230085  0.298978  0.921985  1
  O  O15  1  0.931107  0.230085  0.078015  1
  O  O16  1  0.769915  0.068893  0.578015  1
  O  O17  1  0.769915  0.701022  0.078015  1
  O  O18  1  0.701022  0.769915  0.421985  1
  O  O19  1  0.427041  0.000000  0.750000  1
  O  O20  1  0.572959  0.572959  0.750000  1
  O  O21  1  0.298978  0.230085  0.578015  1
  O  O22  1  0.068893  0.298978  0.421985  1
  O  O23  1  0.230085  0.931107  0.421985  1
  O  O24  1  0.298978  0.068893  0.078015  1
  O  O25  1  0.572959  0.000000  0.250000  1
  O  O26  1  0.427041  0.427041  0.250000  1
  O  O27  1  0.000000  0.427041  0.750000  1
  O  O28  1  0.068893  0.769915  0.921985  1
  O  O29  1  0.701022  0.931107  0.921985  1
