# generated using pymatgen
data_CaEr7(B6Ru)4
_symmetry_space_group_name_H-M   'P 1'
_cell_length_a   3.63643300
_cell_length_b   9.10685731
_cell_length_c   11.49237516
_cell_angle_alpha   89.90238417
_cell_angle_beta   90.00000000
_cell_angle_gamma   90.00000000
_symmetry_Int_Tables_number   1
_chemical_formula_structural   CaEr7(B6Ru)4
_chemical_formula_sum   'Ca1 Er7 B24 Ru4'
_cell_volume   380.58641905
_cell_formula_units_Z   1
loop_
 _symmetry_equiv_pos_site_id
 _symmetry_equiv_pos_as_xyz
  1  'x, y, z'
loop_
 _atom_site_type_symbol
 _atom_site_label
 _atom_site_symmetry_multiplicity
 _atom_site_fract_x
 _atom_site_fract_y
 _atom_site_fract_z
 _atom_site_occupancy
  Ca  Ca0  1  0.000000  0.323006  0.413826  1
  Er  Er1  1  0.000000  0.675784  0.585079  1
  Er  Er2  1  0.000000  0.822792  0.086336  1
  Er  Er3  1  0.000000  0.177863  0.914635  1
  Er  Er4  1  0.000000  0.944142  0.371254  1
  Er  Er5  1  0.000000  0.057253  0.628236  1
  Er  Er6  1  0.000000  0.443573  0.129092  1
  Er  Er7  1  0.000000  0.555743  0.872236  1
  B  B8  1  0.500000  0.554804  0.432851  1
  B  B9  1  0.500000  0.446278  0.567698  1
  B  B10  1  0.500000  0.053375  0.066342  1
  B  B11  1  0.500000  0.945861  0.932867  1
  B  B12  1  0.500000  0.748799  0.419575  1
  B  B13  1  0.500000  0.251569  0.581393  1
  B  B14  1  0.500000  0.248069  0.079998  1
  B  B15  1  0.500000  0.751438  0.919894  1
  B  B16  1  0.500000  0.792295  0.265815  1
  B  B17  1  0.500000  0.208698  0.734539  1
  B  B18  1  0.500000  0.290662  0.233038  1
  B  B19  1  0.500000  0.708432  0.766203  1
  B  B20  1  0.500000  0.632659  0.185324  1
  B  B21  1  0.500000  0.368024  0.815404  1
  B  B22  1  0.500000  0.131132  0.313788  1
  B  B23  1  0.500000  0.867991  0.685080  1
  B  B24  1  0.500000  0.983207  0.211820  1
  B  B25  1  0.500000  0.016516  0.787402  1
  B  B26  1  0.500000  0.484567  0.287173  1
  B  B27  1  0.500000  0.516551  0.712890  1
  B  B28  1  0.500000  0.608146  0.029879  1
  B  B29  1  0.500000  0.392122  0.970485  1
  B  B30  1  0.500000  0.103626  0.471369  1
  B  B31  1  0.500000  0.894293  0.529181  1
  Ru  Ru32  1  0.000000  0.640546  0.320130  1
  Ru  Ru33  1  0.000000  0.361608  0.680923  1
  Ru  Ru34  1  0.000000  0.136795  0.177178  1
  Ru  Ru35  1  0.000000  0.861781  0.821066  1
