# generated using pymatgen
data_NdTh2Al2GaPd3
_symmetry_space_group_name_H-M   'P 1'
_cell_length_a   7.32966159
_cell_length_b   7.32966225
_cell_length_c   4.17754100
_cell_angle_alpha   90.00000000
_cell_angle_beta   90.00000000
_cell_angle_gamma   120.08023709
_symmetry_Int_Tables_number   1
_chemical_formula_structural   NdTh2Al2GaPd3
_chemical_formula_sum   'Nd1 Th2 Al2 Ga1 Pd3'
_cell_volume   194.20818734
_cell_formula_units_Z   1
loop_
 _symmetry_equiv_pos_site_id
 _symmetry_equiv_pos_as_xyz
  1  'x, y, z'
loop_
 _atom_site_type_symbol
 _atom_site_label
 _atom_site_symmetry_multiplicity
 _atom_site_fract_x
 _atom_site_fract_y
 _atom_site_fract_z
 _atom_site_occupancy
  Nd  Nd0  1  0.420608  0.420608  0.500000  1
  Th  Th1  1  0.583010  0.998174  0.500000  1
  Th  Th2  1  0.998174  0.583010  0.500000  1
  Al  Al3  1  0.232619  0.003274  0.000000  1
  Al  Al4  1  0.003274  0.232619  0.000000  1
  Ga  Ga5  1  0.762452  0.762452  0.000000  1
  Pd  Pd6  1  0.673051  0.324472  0.000000  1
  Pd  Pd7  1  0.324472  0.673051  0.000000  1
  Pd  Pd8  1  0.002339  0.002339  0.500000  1
