# generated using pymatgen
data_Sc8Ga4Ag3Ir
_symmetry_space_group_name_H-M   'P 1'
_cell_length_a   6.75425200
_cell_length_b   6.74266400
_cell_length_c   6.75468400
_cell_angle_alpha   90.00000000
_cell_angle_beta   89.99983042
_cell_angle_gamma   90.00000000
_symmetry_Int_Tables_number   1
_chemical_formula_structural   Sc8Ga4Ag3Ir
_chemical_formula_sum   'Sc8 Ga4 Ag3 Ir1'
_cell_volume   307.61946693
_cell_formula_units_Z   1
loop_
 _symmetry_equiv_pos_site_id
 _symmetry_equiv_pos_as_xyz
  1  'x, y, z'
loop_
 _atom_site_type_symbol
 _atom_site_label
 _atom_site_symmetry_multiplicity
 _atom_site_fract_x
 _atom_site_fract_y
 _atom_site_fract_z
 _atom_site_occupancy
  Sc  Sc0  1  0.255848  0.493795  0.244094  1
  Sc  Sc1  1  0.255848  0.006205  0.244094  1
  Sc  Sc2  1  0.744124  0.006842  0.244150  1
  Sc  Sc3  1  0.744124  0.493158  0.244150  1
  Sc  Sc4  1  0.255846  0.493779  0.755901  1
  Sc  Sc5  1  0.255846  0.006221  0.755901  1
  Sc  Sc6  1  0.744131  0.006857  0.755856  1
  Sc  Sc7  1  0.744131  0.493143  0.755856  1
  Ga  Ga8  1  0.000561  0.250000  0.000007  1
  Ga  Ga9  1  0.999562  0.750000  0.999999  1
  Ga  Ga10  1  0.500449  0.750000  0.499999  1
  Ga  Ga11  1  0.499538  0.250000  0.500003  1
  Ag  Ag12  1  0.500694  0.750000  0.999999  1
  Ag  Ag13  1  0.000657  0.250000  0.499951  1
  Ag  Ag14  1  0.999327  0.750000  0.500035  1
  Ir  Ir15  1  0.499314  0.250000  0.000007  1
