# generated using pymatgen
data_Ce2VFe11P7
_symmetry_space_group_name_H-M   'P 1'
_cell_length_a   9.05935871
_cell_length_b   9.07261807
_cell_length_c   3.65122500
_cell_angle_alpha   90.00000000
_cell_angle_beta   90.00000000
_cell_angle_gamma   119.82986580
_symmetry_Int_Tables_number   1
_chemical_formula_structural   Ce2VFe11P7
_chemical_formula_sum   'Ce2 V1 Fe11 P7'
_cell_volume   260.34024581
_cell_formula_units_Z   1
loop_
 _symmetry_equiv_pos_site_id
 _symmetry_equiv_pos_as_xyz
  1  'x, y, z'
loop_
 _atom_site_type_symbol
 _atom_site_label
 _atom_site_symmetry_multiplicity
 _atom_site_fract_x
 _atom_site_fract_y
 _atom_site_fract_z
 _atom_site_occupancy
  Ce  Ce0  1  0.668095  0.334688  0.499999  1
  Ce  Ce1  1  0.331876  0.662999  0.000000  1
  V  V2  1  0.213362  0.107125  0.499999  1
  Fe  Fe3  1  0.899443  0.117103  0.499999  1
  Fe  Fe4  1  0.883512  0.786363  0.499999  1
  Fe  Fe5  1  0.147890  0.269947  0.000000  1
  Fe  Fe6  1  0.726342  0.878021  0.000000  1
  Fe  Fe7  1  0.119655  0.845832  0.000000  1
  Fe  Fe8  1  0.433370  0.060396  0.000000  1
  Fe  Fe9  1  0.938628  0.366637  0.000000  1
  Fe  Fe10  1  0.634342  0.573790  0.000000  1
  Fe  Fe11  1  0.383156  0.436608  0.499999  1
  Fe  Fe12  1  0.565760  0.947700  0.499999  1
  Fe  Fe13  1  0.052424  0.616468  0.499999  1
  P  P14  1  0.104676  0.395400  0.499999  1
  P  P15  1  0.605356  0.710476  0.499999  1
  P  P16  1  0.290044  0.887786  0.499999  1
  P  P17  1  0.995071  0.995942  0.000000  1
  P  P18  1  0.409352  0.306114  0.000000  1
  P  P19  1  0.702713  0.106628  0.000000  1
  P  P20  1  0.894932  0.593973  0.000000  1
