# generated using pymatgen
data_La3Nd(SbAu)4
_symmetry_space_group_name_H-M   'P 1'
_cell_length_a   4.69966300
_cell_length_b   4.69966364
_cell_length_c   16.90327500
_cell_angle_alpha   90.00000000
_cell_angle_beta   90.00000000
_cell_angle_gamma   120.00000252
_symmetry_Int_Tables_number   1
_chemical_formula_structural   La3Nd(SbAu)4
_chemical_formula_sum   'La3 Nd1 Sb4 Au4'
_cell_volume   323.32178742
_cell_formula_units_Z   1
loop_
 _symmetry_equiv_pos_site_id
 _symmetry_equiv_pos_as_xyz
  1  'x, y, z'
loop_
 _atom_site_type_symbol
 _atom_site_label
 _atom_site_symmetry_multiplicity
 _atom_site_fract_x
 _atom_site_fract_y
 _atom_site_fract_z
 _atom_site_occupancy
  La  La0  1  0.000000  0.000000  0.500639  1
  La  La1  1  0.000000  0.000000  0.999361  1
  La  La2  1  0.000000  0.000000  0.250000  1
  Nd  Nd3  1  0.000000  0.000000  0.750000  1
  Sb  Sb4  1  0.333333  0.666667  0.388944  1
  Sb  Sb5  1  0.666667  0.333333  0.611661  1
  Sb  Sb6  1  0.666667  0.333333  0.888339  1
  Sb  Sb7  1  0.333333  0.666667  0.111056  1
  Au  Au8  1  0.666667  0.333333  0.340716  1
  Au  Au9  1  0.333333  0.666667  0.661123  1
  Au  Au10  1  0.333333  0.666667  0.838877  1
  Au  Au11  1  0.666667  0.333333  0.159284  1
