# generated using pymatgen
data_Th2TaBe2Ru5
_symmetry_space_group_name_H-M   'P 1'
_cell_length_a   9.84852000
_cell_length_b   9.84852000
_cell_length_c   3.31611100
_cell_angle_alpha   90.00000000
_cell_angle_beta   90.00000000
_cell_angle_gamma   90.00000000
_symmetry_Int_Tables_number   1
_chemical_formula_structural   Th2TaBe2Ru5
_chemical_formula_sum   'Th4 Ta2 Be4 Ru10'
_cell_volume   321.64070223
_cell_formula_units_Z   2
loop_
 _symmetry_equiv_pos_site_id
 _symmetry_equiv_pos_as_xyz
  1  'x, y, z'
loop_
 _atom_site_type_symbol
 _atom_site_label
 _atom_site_symmetry_multiplicity
 _atom_site_fract_x
 _atom_site_fract_y
 _atom_site_fract_z
 _atom_site_occupancy
  Th  Th0  1  0.825890  0.674110  0.000000  1
  Th  Th1  1  0.174110  0.325890  0.000000  1
  Th  Th2  1  0.325890  0.825890  0.000000  1
  Th  Th3  1  0.674110  0.174110  0.000000  1
  Ta  Ta4  1  0.500000  0.500000  0.000000  1
  Ta  Ta5  1  0.000000  0.000000  0.000000  1
  Be  Be6  1  0.620458  0.879542  0.000000  1
  Be  Be7  1  0.379542  0.120458  0.000000  1
  Be  Be8  1  0.120458  0.620458  0.000000  1
  Be  Be9  1  0.879542  0.379542  0.000000  1
  Ru  Ru10  1  0.571597  0.709645  0.500000  1
  Ru  Ru11  1  0.428403  0.290355  0.500000  1
  Ru  Ru12  1  0.071597  0.790355  0.500000  1
  Ru  Ru13  1  0.928403  0.209645  0.500000  1
  Ru  Ru14  1  0.290355  0.571597  0.500000  1
  Ru  Ru15  1  0.709645  0.428403  0.500000  1
  Ru  Ru16  1  0.209645  0.071597  0.500000  1
  Ru  Ru17  1  0.790355  0.928403  0.500000  1
  Ru  Ru18  1  0.500000  0.000000  0.500000  1
  Ru  Ru19  1  0.000000  0.500000  0.500000  1
