# generated using pymatgen
data_Ta(Mn6Se13)2
_symmetry_space_group_name_H-M   'P 1'
_cell_length_a   8.98854134
_cell_length_b   9.57470181
_cell_length_c   11.28784701
_cell_angle_alpha   73.59649512
_cell_angle_beta   75.69180626
_cell_angle_gamma   85.21391857
_symmetry_Int_Tables_number   1
_chemical_formula_structural   Ta(Mn6Se13)2
_chemical_formula_sum   'Ta1 Mn12 Se26'
_cell_volume   902.91474426
_cell_formula_units_Z   1
loop_
 _symmetry_equiv_pos_site_id
 _symmetry_equiv_pos_as_xyz
  1  'x, y, z'
loop_
 _atom_site_type_symbol
 _atom_site_label
 _atom_site_symmetry_multiplicity
 _atom_site_fract_x
 _atom_site_fract_y
 _atom_site_fract_z
 _atom_site_occupancy
  Ta  Ta0  1  0.000000  0.000000  0.000000  1
  Mn  Mn1  1  0.229374  0.693979  0.076851  1
  Mn  Mn2  1  0.770626  0.306021  0.923149  1
  Mn  Mn3  1  0.694212  0.076941  0.229659  1
  Mn  Mn4  1  0.305788  0.923059  0.770341  1
  Mn  Mn5  1  0.923019  0.770256  0.306273  1
  Mn  Mn6  1  0.076981  0.229744  0.693727  1
  Mn  Mn7  1  0.154495  0.461486  0.385565  1
  Mn  Mn8  1  0.845505  0.538514  0.614435  1
  Mn  Mn9  1  0.461793  0.385885  0.154071  1
  Mn  Mn10  1  0.538207  0.614115  0.845929  1
  Mn  Mn11  1  0.614018  0.845707  0.538803  1
  Mn  Mn12  1  0.385982  0.154293  0.461197  1
  Se  Se13  1  0.947011  0.723805  0.095644  1
  Se  Se14  1  0.052989  0.276195  0.904356  1
  Se  Se15  1  0.708131  0.042823  0.016094  1
  Se  Se16  1  0.291869  0.957177  0.983906  1
  Se  Se17  1  0.026565  0.963325  0.776603  1
  Se  Se18  1  0.973435  0.036675  0.223397  1
  Se  Se19  1  0.644079  0.813571  0.324360  1
  Se  Se20  1  0.355921  0.186429  0.675640  1
  Se  Se21  1  0.798539  0.274872  0.708344  1
  Se  Se22  1  0.201461  0.725128  0.291656  1
  Se  Se23  1  0.259799  0.659024  0.862788  1
  Se  Se24  1  0.740201  0.340976  0.137212  1
  Se  Se25  1  0.876195  0.506994  0.400396  1
  Se  Se26  1  0.123805  0.493006  0.599604  1
  Se  Se27  1  0.492440  0.351194  0.940128  1
  Se  Se28  1  0.507560  0.648806  0.059872  1
  Se  Se29  1  0.336443  0.890884  0.556082  1
  Se  Se30  1  0.663557  0.109116  0.443918  1
  Se  Se31  1  0.184308  0.430286  0.170240  1
  Se  Se32  1  0.815692  0.569714  0.829760  1
  Se  Se33  1  0.415720  0.121670  0.247591  1
  Se  Se34  1  0.584280  0.878330  0.752409  1
  Se  Se35  1  0.106929  0.198853  0.479146  1
  Se  Se36  1  0.893071  0.801147  0.520854  1
  Se  Se37  1  0.566522  0.581772  0.631470  1
  Se  Se38  1  0.433478  0.418228  0.368530  1
