# generated using pymatgen
data_Dy16Zn3InRh4
_symmetry_space_group_name_H-M   'P 1'
_cell_length_a   9.53335892
_cell_length_b   9.53335850
_cell_length_c   9.53335985
_cell_angle_alpha   59.90563096
_cell_angle_beta   59.90563362
_cell_angle_gamma   59.90563219
_symmetry_Int_Tables_number   1
_chemical_formula_structural   Dy16Zn3InRh4
_chemical_formula_sum   'Dy16 Zn3 In1 Rh4'
_cell_volume   611.35309393
_cell_formula_units_Z   1
loop_
 _symmetry_equiv_pos_site_id
 _symmetry_equiv_pos_as_xyz
  1  'x, y, z'
loop_
 _atom_site_type_symbol
 _atom_site_label
 _atom_site_symmetry_multiplicity
 _atom_site_fract_x
 _atom_site_fract_y
 _atom_site_fract_z
 _atom_site_occupancy
  Dy  Dy0  1  0.692227  0.308764  0.308764  1
  Dy  Dy1  1  0.691478  0.691478  0.309491  1
  Dy  Dy2  1  0.308764  0.692227  0.308764  1
  Dy  Dy3  1  0.934821  0.934821  0.558859  1
  Dy  Dy4  1  0.146818  0.146818  0.557348  1
  Dy  Dy5  1  0.562925  0.937005  0.562925  1
  Dy  Dy6  1  0.148310  0.148310  0.148310  1
  Dy  Dy7  1  0.308764  0.308764  0.692227  1
  Dy  Dy8  1  0.937005  0.562925  0.562925  1
  Dy  Dy9  1  0.562925  0.562925  0.937005  1
  Dy  Dy10  1  0.558859  0.934821  0.934821  1
  Dy  Dy11  1  0.934821  0.558859  0.934821  1
  Dy  Dy12  1  0.146818  0.557348  0.146818  1
  Dy  Dy13  1  0.309491  0.691478  0.691478  1
  Dy  Dy14  1  0.691478  0.309491  0.691478  1
  Dy  Dy15  1  0.557348  0.146818  0.146818  1
  Zn  Zn16  1  0.920790  0.920790  0.244034  1
  Zn  Zn17  1  0.244034  0.920790  0.920790  1
  Zn  Zn18  1  0.920790  0.244034  0.920790  1
  In  In19  1  0.922378  0.922378  0.922378  1
  Rh  Rh20  1  0.357392  0.357392  0.357392  1
  Rh  Rh21  1  0.929106  0.356329  0.356329  1
  Rh  Rh22  1  0.356329  0.356329  0.929106  1
  Rh  Rh23  1  0.356329  0.929106  0.356329  1
