# generated using pymatgen
data_LaEu3(Pd2Pb)2
_symmetry_space_group_name_H-M   'P 1'
_cell_length_a   8.08983210
_cell_length_b   8.08983210
_cell_length_c   3.92401600
_cell_angle_alpha   90.00000000
_cell_angle_beta   90.00000000
_cell_angle_gamma   90.91535891
_symmetry_Int_Tables_number   1
_chemical_formula_structural   LaEu3(Pd2Pb)2
_chemical_formula_sum   'La1 Eu3 Pd4 Pb2'
_cell_volume   256.77595910
_cell_formula_units_Z   1
loop_
 _symmetry_equiv_pos_site_id
 _symmetry_equiv_pos_as_xyz
  1  'x, y, z'
loop_
 _atom_site_type_symbol
 _atom_site_label
 _atom_site_symmetry_multiplicity
 _atom_site_fract_x
 _atom_site_fract_y
 _atom_site_fract_z
 _atom_site_occupancy
  La  La0  1  0.323747  0.823747  0.500000  1
  Eu  Eu1  1  0.676760  0.176760  0.500000  1
  Eu  Eu2  1  0.174982  0.324556  0.500000  1
  Eu  Eu3  1  0.824556  0.674982  0.500000  1
  Pd  Pd4  1  0.374105  0.118606  0.000000  1
  Pd  Pd5  1  0.127541  0.627541  0.000000  1
  Pd  Pd6  1  0.618606  0.874105  0.000000  1
  Pd  Pd7  1  0.878357  0.378357  0.000000  1
  Pb  Pb8  1  0.998206  0.003141  0.000000  1
  Pb  Pb9  1  0.503141  0.498206  0.000000  1
