# generated using pymatgen
data_Tb5Dy11Cd4(IrPt)2
_symmetry_space_group_name_H-M   'P 1'
_cell_length_a   9.67467511
_cell_length_b   9.67245507
_cell_length_c   9.64828317
_cell_angle_alpha   60.06670951
_cell_angle_beta   60.03396764
_cell_angle_gamma   60.28286837
_symmetry_Int_Tables_number   1
_chemical_formula_structural   Tb5Dy11Cd4(IrPt)2
_chemical_formula_sum   'Tb5 Dy11 Cd4 Ir2 Pt2'
_cell_volume   640.26440050
_cell_formula_units_Z   1
loop_
 _symmetry_equiv_pos_site_id
 _symmetry_equiv_pos_as_xyz
  1  'x, y, z'
loop_
 _atom_site_type_symbol
 _atom_site_label
 _atom_site_symmetry_multiplicity
 _atom_site_fract_x
 _atom_site_fract_y
 _atom_site_fract_z
 _atom_site_occupancy
  Tb  Tb0  1  0.813091  0.188188  0.187451  1
  Tb  Tb1  1  0.815295  0.188107  0.811315  1
  Tb  Tb2  1  0.188071  0.813077  0.187099  1
  Tb  Tb3  1  0.813269  0.812778  0.187602  1
  Tb  Tb4  1  0.187590  0.187166  0.811568  1
  Dy  Dy5  1  0.599385  0.599223  0.596641  1
  Dy  Dy6  1  0.601477  0.601894  0.200518  1
  Dy  Dy7  1  0.606025  0.194096  0.601452  1
  Dy  Dy8  1  0.194028  0.606065  0.601385  1
  Dy  Dy9  1  0.056544  0.441569  0.439304  1
  Dy  Dy10  1  0.439206  0.057391  0.063093  1
  Dy  Dy11  1  0.441248  0.056574  0.439617  1
  Dy  Dy12  1  0.057481  0.439440  0.062879  1
  Dy  Dy13  1  0.440755  0.441115  0.059468  1
  Dy  Dy14  1  0.061513  0.061517  0.436896  1
  Dy  Dy15  1  0.188713  0.814754  0.810931  1
  Cd  Cd16  1  0.831203  0.830856  0.831012  1
  Cd  Cd17  1  0.831022  0.831116  0.505164  1
  Cd  Cd18  1  0.830550  0.506041  0.831263  1
  Cd  Cd19  1  0.505632  0.830626  0.831262  1
  Ir  Ir20  1  0.390688  0.823104  0.393779  1
  Ir  Ir21  1  0.823147  0.390816  0.393382  1
  Pt  Pt22  1  0.392469  0.392535  0.395075  1
  Pt  Pt23  1  0.391602  0.391956  0.821846  1
