# generated using pymatgen
data_Th6In8HgSe
_symmetry_space_group_name_H-M   'P 1'
_cell_length_a   8.54572331
_cell_length_b   8.54571183
_cell_length_c   8.54573600
_cell_angle_alpha   119.60408030
_cell_angle_beta   119.60411370
_cell_angle_gamma   90.68680428
_symmetry_Int_Tables_number   1
_chemical_formula_structural   Th6In8HgSe
_chemical_formula_sum   'Th6 In8 Hg1 Se1'
_cell_volume   443.90494623
_cell_formula_units_Z   1
loop_
 _symmetry_equiv_pos_site_id
 _symmetry_equiv_pos_as_xyz
  1  'x, y, z'
loop_
 _atom_site_type_symbol
 _atom_site_label
 _atom_site_symmetry_multiplicity
 _atom_site_fract_x
 _atom_site_fract_y
 _atom_site_fract_z
 _atom_site_occupancy
  Th  Th0  1  0.761012  0.761012  0.000000  1
  Th  Th1  1  0.238988  0.238988  0.000000  1
  Th  Th2  1  0.667558  0.148347  0.815905  1
  Th  Th3  1  0.332442  0.851653  0.184095  1
  Th  Th4  1  0.148339  0.332453  0.480793  1
  Th  Th5  1  0.851661  0.667547  0.519207  1
  In  In6  1  0.334328  0.817202  0.789530  1
  In  In7  1  0.665672  0.182798  0.210470  1
  In  In8  1  0.027672  0.544798  0.210471  1
  In  In9  1  0.817189  0.027679  0.482878  1
  In  In10  1  0.455199  0.665688  0.482878  1
  In  In11  1  0.972328  0.455202  0.789529  1
  In  In12  1  0.182811  0.972321  0.517122  1
  In  In13  1  0.544801  0.334312  0.517122  1
  Hg  Hg14  1  0.500000  0.500000  0.000000  1
  Se  Se15  1  0.000000  0.000000  0.000000  1
