# generated using pymatgen
data_TbMoN2
_symmetry_space_group_name_H-M   'P 1'
_cell_length_a   3.22710200
_cell_length_b   5.73687100
_cell_length_c   10.63071300
_cell_angle_alpha   90.00000000
_cell_angle_beta   90.00000000
_cell_angle_gamma   90.00000000
_symmetry_Int_Tables_number   1
_chemical_formula_structural   TbMoN2
_chemical_formula_sum   'Tb4 Mo4 N8'
_cell_volume   196.81136364
_cell_formula_units_Z   4
loop_
 _symmetry_equiv_pos_site_id
 _symmetry_equiv_pos_as_xyz
  1  'x, y, z'
loop_
 _atom_site_type_symbol
 _atom_site_label
 _atom_site_symmetry_multiplicity
 _atom_site_fract_x
 _atom_site_fract_y
 _atom_site_fract_z
 _atom_site_occupancy
  Tb  Tb0  1  0.250000  0.079659  0.853946  1
  Tb  Tb1  1  0.250000  0.579659  0.646054  1
  Tb  Tb2  1  0.750000  0.920341  0.146054  1
  Tb  Tb3  1  0.750000  0.420341  0.353946  1
  Mo  Mo4  1  0.250000  0.434177  0.093392  1
  Mo  Mo5  1  0.250000  0.934177  0.406608  1
  Mo  Mo6  1  0.750000  0.565823  0.906608  1
  Mo  Mo7  1  0.750000  0.065823  0.593392  1
  N  N8  1  0.250000  0.163862  0.250109  1
  N  N9  1  0.250000  0.663862  0.249891  1
  N  N10  1  0.750000  0.836138  0.749891  1
  N  N11  1  0.750000  0.336138  0.750109  1
  N  N12  1  0.250000  0.756714  0.992613  1
  N  N13  1  0.250000  0.256714  0.507387  1
  N  N14  1  0.750000  0.243286  0.007387  1
  N  N15  1  0.750000  0.743286  0.492613  1
