# generated using pymatgen
data_Pr4Al18ZnIr4Rh
_symmetry_space_group_name_H-M   'P 1'
_cell_length_a   7.65100135
_cell_length_b   7.65100067
_cell_length_c   9.62193693
_cell_angle_alpha   89.91474925
_cell_angle_beta   89.91475210
_cell_angle_gamma   119.37400137
_symmetry_Int_Tables_number   1
_chemical_formula_structural   Pr4Al18ZnIr4Rh
_chemical_formula_sum   'Pr4 Al18 Zn1 Ir4 Rh1'
_cell_volume   490.83200241
_cell_formula_units_Z   1
loop_
 _symmetry_equiv_pos_site_id
 _symmetry_equiv_pos_as_xyz
  1  'x, y, z'
loop_
 _atom_site_type_symbol
 _atom_site_label
 _atom_site_symmetry_multiplicity
 _atom_site_fract_x
 _atom_site_fract_y
 _atom_site_fract_z
 _atom_site_occupancy
  Pr  Pr0  1  0.995216  0.675263  0.248822  1
  Pr  Pr1  1  0.004970  0.324994  0.751082  1
  Pr  Pr2  1  0.675006  0.995030  0.248918  1
  Pr  Pr3  1  0.324737  0.004784  0.751178  1
  Al  Al4  1  0.138617  0.138571  0.258506  1
  Al  Al5  1  0.861429  0.861383  0.741494  1
  Al  Al6  1  0.004389  0.345547  0.076960  1
  Al  Al7  1  0.994919  0.654169  0.923156  1
  Al  Al8  1  0.999190  0.664100  0.569275  1
  Al  Al9  1  0.335900  0.000810  0.430725  1
  Al  Al10  1  0.000579  0.335888  0.430671  1
  Al  Al11  1  0.664112  0.999421  0.569329  1
  Al  Al12  1  0.654453  0.995611  0.923040  1
  Al  Al13  1  0.345831  0.005081  0.076844  1
  Al  Al14  1  0.333918  0.333895  0.545720  1
  Al  Al15  1  0.666105  0.666082  0.454280  1
  Al  Al16  1  0.655647  0.655203  0.055531  1
  Al  Al17  1  0.344797  0.344353  0.944469  1
  Al  Al18  1  0.339135  0.548423  0.251570  1
  Al  Al19  1  0.660989  0.451282  0.748553  1
  Al  Al20  1  0.548718  0.339011  0.251447  1
  Al  Al21  1  0.451577  0.660865  0.748430  1
  Zn  Zn22  1  0.000060  0.999940  0.000000  1
  Ir  Ir23  1  0.329171  0.670829  0.000000  1
  Ir  Ir24  1  0.329493  0.670507  0.500000  1
  Ir  Ir25  1  0.670381  0.329619  0.500000  1
  Ir  Ir26  1  0.999916  0.000084  0.500000  1
  Rh  Rh27  1  0.670749  0.329251  0.000000  1
