# generated using pymatgen
data_Y4Ir3OsF28
_symmetry_space_group_name_H-M   'P 1'
_cell_length_a   5.61857500
_cell_length_b   8.94214305
_cell_length_c   12.00583763
_cell_angle_alpha   62.55123736
_cell_angle_beta   90.24029821
_cell_angle_gamma   89.82206703
_symmetry_Int_Tables_number   1
_chemical_formula_structural   Y4Ir3OsF28
_chemical_formula_sum   'Y4 Ir3 Os1 F28'
_cell_volume   535.27913885
_cell_formula_units_Z   1
loop_
 _symmetry_equiv_pos_site_id
 _symmetry_equiv_pos_as_xyz
  1  'x, y, z'
loop_
 _atom_site_type_symbol
 _atom_site_label
 _atom_site_symmetry_multiplicity
 _atom_site_fract_x
 _atom_site_fract_y
 _atom_site_fract_z
 _atom_site_occupancy
  Y  Y0  1  0.758494  0.818343  0.763407  1
  Y  Y1  1  0.258007  0.186964  0.728421  1
  Y  Y2  1  0.237476  0.182795  0.243447  1
  Y  Y3  1  0.739386  0.806169  0.270882  1
  Ir  Ir4  1  0.255846  0.724309  0.546623  1
  Ir  Ir5  1  0.242350  0.727196  0.043302  1
  Ir  Ir6  1  0.742368  0.272713  0.456487  1
  Os  Os7  1  0.758011  0.274035  0.954960  1
  F  F8  1  0.449571  0.706430  0.918511  1
  F  F9  1  0.944665  0.293973  0.584152  1
  F  F10  1  0.558720  0.295910  0.076513  1
  F  F11  1  0.050487  0.704290  0.420255  1
  F  F12  1  0.447807  0.282372  0.544184  1
  F  F13  1  0.951558  0.716889  0.951540  1
  F  F14  1  0.546007  0.715513  0.456074  1
  F  F15  1  0.046212  0.281787  0.042622  1
  F  F16  1  0.767635  0.515306  0.859373  1
  F  F17  1  0.266448  0.476663  0.646552  1
  F  F18  1  0.233972  0.478378  0.140184  1
  F  F19  1  0.733536  0.518401  0.358416  1
  F  F20  1  0.756763  0.033223  0.046060  1
  F  F21  1  0.256285  0.972039  0.450927  1
  F  F22  1  0.241254  0.975285  0.946773  1
  F  F23  1  0.740631  0.026487  0.551020  1
  F  F24  1  0.973327  0.727195  0.643358  1
  F  F25  1  0.476937  0.270983  0.862305  1
  F  F26  1  0.028173  0.270377  0.361703  1
  F  F27  1  0.525931  0.732960  0.140338  1
  F  F28  1  0.040178  0.747962  0.170440  1
  F  F29  1  0.547255  0.253755  0.325459  1
  F  F30  1  0.953954  0.256408  0.828769  1
  F  F31  1  0.458313  0.742981  0.675019  1
  F  F32  1  0.426462  0.977418  0.230633  1
  F  F33  1  0.919461  0.029118  0.263273  1
  F  F34  1  0.584205  0.033672  0.767848  1
  F  F35  1  0.082316  0.971702  0.730173  1
