# generated using pymatgen
data_Tb2Zr2CN3
_symmetry_space_group_name_H-M   'P 1'
_cell_length_a   11.28867865
_cell_length_b   11.28867899
_cell_length_c   11.28867967
_cell_angle_alpha   17.26511977
_cell_angle_beta   17.26511345
_cell_angle_gamma   17.26511658
_symmetry_Int_Tables_number   1
_chemical_formula_structural   Tb2Zr2CN3
_chemical_formula_sum   'Tb2 Zr2 C1 N3'
_cell_volume   110.57125324
_cell_formula_units_Z   1
loop_
 _symmetry_equiv_pos_site_id
 _symmetry_equiv_pos_as_xyz
  1  'x, y, z'
loop_
 _atom_site_type_symbol
 _atom_site_label
 _atom_site_symmetry_multiplicity
 _atom_site_fract_x
 _atom_site_fract_y
 _atom_site_fract_z
 _atom_site_occupancy
  Tb  Tb0  1  0.876699  0.876699  0.876699  1
  Tb  Tb1  1  0.123301  0.123301  0.123301  1
  Zr  Zr2  1  0.372791  0.372791  0.372791  1
  Zr  Zr3  1  0.627209  0.627209  0.627209  1
  C  C4  1  0.000000  0.000000  0.000000  1
  N  N5  1  0.253716  0.253716  0.253716  1
  N  N6  1  0.500000  0.500000  0.500000  1
  N  N7  1  0.746284  0.746284  0.746284  1
