# generated using pymatgen
data_Nb6AlSi(PtN)2
_symmetry_space_group_name_H-M   'P 1'
_cell_length_a   7.03229945
_cell_length_b   7.03333200
_cell_length_c   7.03255745
_cell_angle_alpha   90.00000000
_cell_angle_beta   89.90434989
_cell_angle_gamma   90.00000000
_symmetry_Int_Tables_number   1
_chemical_formula_structural   Nb6AlSi(PtN)2
_chemical_formula_sum   'Nb12 Al2 Si2 Pt4 N4'
_cell_volume   347.83330023
_cell_formula_units_Z   2
loop_
 _symmetry_equiv_pos_site_id
 _symmetry_equiv_pos_as_xyz
  1  'x, y, z'
loop_
 _atom_site_type_symbol
 _atom_site_label
 _atom_site_symmetry_multiplicity
 _atom_site_fract_x
 _atom_site_fract_y
 _atom_site_fract_z
 _atom_site_occupancy
  Nb  Nb0  1  0.786411  0.953639  0.378442  1
  Nb  Nb1  1  0.709891  0.046368  0.877193  1
  Nb  Nb2  1  0.213589  0.453639  0.121558  1
  Nb  Nb3  1  0.290109  0.546368  0.622807  1
  Nb  Nb4  1  0.952915  0.377797  0.789557  1
  Nb  Nb5  1  0.047085  0.877797  0.710443  1
  Nb  Nb6  1  0.454406  0.122118  0.213033  1
  Nb  Nb7  1  0.545594  0.622118  0.286967  1
  Nb  Nb8  1  0.378050  0.787933  0.952594  1
  Nb  Nb9  1  0.877590  0.711426  0.045320  1
  Nb  Nb10  1  0.122410  0.211426  0.454680  1
  Nb  Nb11  1  0.621950  0.287933  0.547406  1
  Al  Al12  1  0.927863  0.571924  0.427747  1
  Al  Al13  1  0.072137  0.071924  0.072253  1
  Si  Si14  1  0.571886  0.427934  0.928375  1
  Si  Si15  1  0.428114  0.927934  0.571625  1
  Pt  Pt16  1  0.180603  0.822024  0.323027  1
  Pt  Pt17  1  0.323783  0.178695  0.820469  1
  Pt  Pt18  1  0.819397  0.322024  0.176973  1
  Pt  Pt19  1  0.676217  0.678695  0.679531  1
  N  N20  1  0.875863  0.124432  0.625043  1
  N  N21  1  0.624613  0.875710  0.123691  1
  N  N22  1  0.124137  0.624432  0.874957  1
  N  N23  1  0.375387  0.375710  0.376309  1
