# generated using pymatgen
data_ZrV2MoBr18
_symmetry_space_group_name_H-M   'P 1'
_cell_length_a   8.22892600
_cell_length_b   10.26255026
_cell_length_c   10.81912228
_cell_angle_alpha   101.72784262
_cell_angle_beta   96.95556981
_cell_angle_gamma   96.10556335
_symmetry_Int_Tables_number   1
_chemical_formula_structural   ZrV2MoBr18
_chemical_formula_sum   'Zr1 V2 Mo1 Br18'
_cell_volume   879.91450502
_cell_formula_units_Z   1
loop_
 _symmetry_equiv_pos_site_id
 _symmetry_equiv_pos_as_xyz
  1  'x, y, z'
loop_
 _atom_site_type_symbol
 _atom_site_label
 _atom_site_symmetry_multiplicity
 _atom_site_fract_x
 _atom_site_fract_y
 _atom_site_fract_z
 _atom_site_occupancy
  Zr  Zr0  1  0.883841  0.364468  0.323178  1
  V  V1  1  0.546812  0.188737  0.779163  1
  V  V2  1  0.452938  0.810980  0.220765  1
  Mo  Mo3  1  0.109765  0.627302  0.666049  1
  Br  Br4  1  0.656531  0.895816  0.124146  1
  Br  Br5  1  0.342845  0.103893  0.876233  1
  Br  Br6  1  0.201630  0.488014  0.461506  1
  Br  Br7  1  0.807426  0.523350  0.553428  1
  Br  Br8  1  0.079862  0.810625  0.553181  1
  Br  Br9  1  0.924560  0.181241  0.455025  1
  Br  Br10  1  0.997895  0.750857  0.850807  1
  Br  Br11  1  0.015081  0.242862  0.138811  1
  Br  Br12  1  0.112809  0.427764  0.759520  1
  Br  Br13  1  0.889886  0.585114  0.237981  1
  Br  Br14  1  0.402463  0.708565  0.749212  1
  Br  Br15  1  0.576856  0.291031  0.250086  1
  Br  Br16  1  0.440964  0.196070  0.577886  1
  Br  Br17  1  0.558735  0.804444  0.422196  1
  Br  Br18  1  0.749264  0.054026  0.772558  1
  Br  Br19  1  0.250340  0.944768  0.227379  1
  Br  Br20  1  0.656276  0.398082  0.889685  1
  Br  Br21  1  0.343223  0.601992  0.111205  1
