# generated using pymatgen
data_CeSm2Er3(SiPd5)2
_symmetry_space_group_name_H-M   'P 1'
_cell_length_a   8.26483165
_cell_length_b   8.27703349
_cell_length_c   8.27703354
_cell_angle_alpha   127.70940168
_cell_angle_beta   125.78249873
_cell_angle_gamma   78.70892356
_symmetry_Int_Tables_number   1
_chemical_formula_structural   CeSm2Er3(SiPd5)2
_chemical_formula_sum   'Ce1 Sm2 Er3 Si2 Pd10'
_cell_volume   351.64944359
_cell_formula_units_Z   1
loop_
 _symmetry_equiv_pos_site_id
 _symmetry_equiv_pos_as_xyz
  1  'x, y, z'
loop_
 _atom_site_type_symbol
 _atom_site_label
 _atom_site_symmetry_multiplicity
 _atom_site_fract_x
 _atom_site_fract_y
 _atom_site_fract_z
 _atom_site_occupancy
  Ce  Ce0  1  0.615214  0.749734  0.865480  1
  Sm  Sm1  1  0.174514  0.950399  0.224115  1
  Sm  Sm2  1  0.386334  0.250224  0.136111  1
  Er  Er3  1  0.223883  0.449180  0.774703  1
  Er  Er4  1  0.775979  0.549421  0.226558  1
  Er  Er5  1  0.824160  0.051443  0.772718  1
  Si  Si6  1  0.787830  0.250206  0.537624  1
  Si  Si7  1  0.215526  0.749853  0.465674  1
  Pd  Pd8  1  0.165476  0.402789  0.359183  1
  Pd  Pd9  1  0.829683  0.187624  0.230197  1
  Pd  Pd10  1  0.458558  0.099151  0.766841  1
  Pd  Pd11  1  0.545755  0.316375  0.647959  1
  Pd  Pd12  1  0.998807  0.500287  0.000786  1
  Pd  Pd13  1  0.998807  0.998021  0.498519  1
  Pd  Pd14  1  0.458558  0.691718  0.359407  1
  Pd  Pd15  1  0.545755  0.897796  0.229380  1
  Pd  Pd16  1  0.165476  0.806293  0.762687  1
  Pd  Pd17  1  0.829683  0.599486  0.642059  1
