# generated using pymatgen
data_Dy2Ho4TiAl23Os8
_symmetry_space_group_name_H-M   'P 1'
_cell_length_a   8.85010900
_cell_length_b   8.84571175
_cell_length_c   9.55792400
_cell_angle_alpha   90.00093480
_cell_angle_beta   90.00000000
_cell_angle_gamma   120.01645570
_symmetry_Int_Tables_number   1
_chemical_formula_structural   Dy2Ho4TiAl23Os8
_chemical_formula_sum   'Dy2 Ho4 Ti1 Al23 Os8'
_cell_volume   647.89341989
_cell_formula_units_Z   1
loop_
 _symmetry_equiv_pos_site_id
 _symmetry_equiv_pos_as_xyz
  1  'x, y, z'
loop_
 _atom_site_type_symbol
 _atom_site_label
 _atom_site_symmetry_multiplicity
 _atom_site_fract_x
 _atom_site_fract_y
 _atom_site_fract_z
 _atom_site_occupancy
  Dy  Dy0  1  0.193715  0.387430  0.250013  1
  Dy  Dy1  1  0.807129  0.614256  0.748317  1
  Ho  Ho2  1  0.611382  0.805624  0.249856  1
  Ho  Ho3  1  0.386964  0.193527  0.748224  1
  Ho  Ho4  1  0.194242  0.805626  0.249855  1
  Ho  Ho5  1  0.806561  0.193524  0.748224  1
  Ti  Ti6  1  0.333335  0.666673  0.992202  1
  Al  Al7  1  0.666680  0.333361  0.980891  1
  Al  Al8  1  0.666704  0.333410  0.516869  1
  Al  Al9  1  0.333331  0.666663  0.481721  1
  Al  Al10  1  0.162400  0.324801  0.575412  1
  Al  Al11  1  0.837312  0.674624  0.424151  1
  Al  Al12  1  0.675174  0.837721  0.575191  1
  Al  Al13  1  0.836885  0.673770  0.077000  1
  Al  Al14  1  0.325365  0.162536  0.424413  1
  Al  Al15  1  0.159614  0.319228  0.925673  1
  Al  Al16  1  0.162547  0.837720  0.575191  1
  Al  Al17  1  0.326258  0.163013  0.076779  1
  Al  Al18  1  0.837171  0.162536  0.424413  1
  Al  Al19  1  0.680746  0.840529  0.925958  1
  Al  Al20  1  0.836755  0.163012  0.076779  1
  Al  Al21  1  0.159783  0.840528  0.925959  1
  Al  Al22  1  0.561450  0.122900  0.253180  1
  Al  Al23  1  0.441163  0.882327  0.750232  1
  Al  Al24  1  0.876819  0.438453  0.253169  1
  Al  Al25  1  0.117942  0.558916  0.750206  1
  Al  Al26  1  0.561634  0.438453  0.253169  1
  Al  Al27  1  0.440973  0.558916  0.750206  1
  Al  Al28  1  0.999485  0.998968  0.250087  1
  Al  Al29  1  0.000474  0.000947  0.749491  1
  Os  Os30  1  0.499057  0.998111  0.002783  1
  Os  Os31  1  0.001884  0.500957  0.002764  1
  Os  Os32  1  0.499584  0.999165  0.502999  1
  Os  Os33  1  0.499072  0.500958  0.002761  1
  Os  Os34  1  0.000913  0.500430  0.502960  1
  Os  Os35  1  0.499519  0.500435  0.502963  1
  Os  Os36  1  0.999996  0.999990  0.000153  1
  Os  Os37  1  0.999982  0.999963  0.499786  1
