# generated using pymatgen
data_LaYb3Pr5Pt6
_symmetry_space_group_name_H-M   'P 1'
_cell_length_a   7.70756095
_cell_length_b   7.72538891
_cell_length_c   7.70750041
_cell_angle_alpha   71.01617596
_cell_angle_beta   71.03100404
_cell_angle_gamma   70.90139425
_symmetry_Int_Tables_number   1
_chemical_formula_structural   LaYb3Pr5Pt6
_chemical_formula_sum   'La1 Yb3 Pr5 Pt6'
_cell_volume   397.62311421
_cell_formula_units_Z   1
loop_
 _symmetry_equiv_pos_site_id
 _symmetry_equiv_pos_as_xyz
  1  'x, y, z'
loop_
 _atom_site_type_symbol
 _atom_site_label
 _atom_site_symmetry_multiplicity
 _atom_site_fract_x
 _atom_site_fract_y
 _atom_site_fract_z
 _atom_site_occupancy
  La  La0  1  0.395687  0.155629  0.670765  1
  Yb  Yb1  1  0.999156  0.999736  0.000601  1
  Yb  Yb2  1  0.805685  0.804099  0.804837  1
  Yb  Yb3  1  0.194696  0.195449  0.195738  1
  Pr  Pr4  1  0.331102  0.603138  0.844685  1
  Pr  Pr5  1  0.844113  0.331264  0.603175  1
  Pr  Pr6  1  0.603725  0.843216  0.330656  1
  Pr  Pr7  1  0.669877  0.396994  0.155234  1
  Pr  Pr8  1  0.155692  0.670087  0.395993  1
  Pt  Pt9  1  0.166401  0.957591  0.585579  1
  Pt  Pt10  1  0.585010  0.166512  0.956742  1
  Pt  Pt11  1  0.957354  0.585665  0.165504  1
  Pt  Pt12  1  0.834027  0.042559  0.414111  1
  Pt  Pt13  1  0.414257  0.834159  0.042673  1
  Pt  Pt14  1  0.043218  0.413900  0.833706  1
