# generated using pymatgen
data_Nd6Si4IrRh3
_symmetry_space_group_name_H-M   'P 1'
_cell_length_a   5.79417190
_cell_length_b   5.79417189
_cell_length_c   13.46609000
_cell_angle_alpha   90.00000000
_cell_angle_beta   90.00000000
_cell_angle_gamma   137.79380207
_symmetry_Int_Tables_number   1
_chemical_formula_structural   Nd6Si4IrRh3
_chemical_formula_sum   'Nd6 Si4 Ir1 Rh3'
_cell_volume   303.71394205
_cell_formula_units_Z   1
loop_
 _symmetry_equiv_pos_site_id
 _symmetry_equiv_pos_as_xyz
  1  'x, y, z'
loop_
 _atom_site_type_symbol
 _atom_site_label
 _atom_site_symmetry_multiplicity
 _atom_site_fract_x
 _atom_site_fract_y
 _atom_site_fract_z
 _atom_site_occupancy
  Nd  Nd0  1  0.772308  0.227692  0.603222  1
  Nd  Nd1  1  0.516076  0.483924  0.250000  1
  Nd  Nd2  1  0.227302  0.772698  0.396917  1
  Nd  Nd3  1  0.772308  0.227692  0.896778  1
  Nd  Nd4  1  0.482567  0.517433  0.750000  1
  Nd  Nd5  1  0.227302  0.772698  0.103083  1
  Si  Si6  1  0.060171  0.939829  0.587477  1
  Si  Si7  1  0.060171  0.939829  0.912523  1
  Si  Si8  1  0.940340  0.059660  0.412888  1
  Si  Si9  1  0.940340  0.059660  0.087112  1
  Ir  Ir10  1  0.184831  0.815169  0.750000  1
  Rh  Rh11  1  0.815555  0.184445  0.250000  1
  Rh  Rh12  1  0.500364  0.499636  0.000113  1
  Rh  Rh13  1  0.500364  0.499636  0.499887  1
