# generated using pymatgen
data_Ce2Pr7Ho(Al2Ru3)2
_symmetry_space_group_name_H-M   'P 1'
_cell_length_a   8.69971624
_cell_length_b   8.58342525
_cell_length_c   8.55584224
_cell_angle_alpha   110.31531998
_cell_angle_beta   109.15502485
_cell_angle_gamma   110.51203349
_symmetry_Int_Tables_number   1
_chemical_formula_structural   Ce2Pr7Ho(Al2Ru3)2
_chemical_formula_sum   'Ce2 Pr7 Ho1 Al4 Ru6'
_cell_volume   482.00520438
_cell_formula_units_Z   1
loop_
 _symmetry_equiv_pos_site_id
 _symmetry_equiv_pos_as_xyz
  1  'x, y, z'
loop_
 _atom_site_type_symbol
 _atom_site_label
 _atom_site_symmetry_multiplicity
 _atom_site_fract_x
 _atom_site_fract_y
 _atom_site_fract_z
 _atom_site_occupancy
  Ce  Ce0  1  0.944938  0.249126  0.195861  1
  Ce  Ce1  1  0.195638  0.943287  0.250252  1
  Pr  Pr2  1  0.316540  0.563308  0.755135  1
  Pr  Pr3  1  0.753869  0.316233  0.565618  1
  Pr  Pr4  1  0.562202  0.750029  0.310447  1
  Pr  Pr5  1  0.722946  0.504395  0.997666  1
  Pr  Pr6  1  0.999632  0.720646  0.506140  1
  Pr  Pr7  1  0.503158  0.989079  0.716587  1
  Pr  Pr8  1  0.252160  0.193168  0.937585  1
  Ho  Ho9  1  0.791635  0.794696  0.787923  1
  Al  Al10  1  0.418711  0.412732  0.414415  1
  Al  Al11  1  0.089088  0.490299  0.999811  1
  Al  Al12  1  0.997809  0.088791  0.493961  1
  Al  Al13  1  0.501243  0.013006  0.097006  1
  Ru  Ru14  1  0.872923  0.114723  0.736205  1
  Ru  Ru15  1  0.755125  0.916728  0.120214  1
  Ru  Ru16  1  0.127624  0.765259  0.922394  1
  Ru  Ru17  1  0.218742  0.576888  0.355202  1
  Ru  Ru18  1  0.350187  0.212907  0.582533  1
  Ru  Ru19  1  0.625833  0.384700  0.255043  1
