# generated using pymatgen
data_NdFeOs2C
_symmetry_space_group_name_H-M   'P 1'
_cell_length_a   5.76293452
_cell_length_b   5.76293602
_cell_length_c   7.38081800
_cell_angle_alpha   90.00000000
_cell_angle_beta   90.00000000
_cell_angle_gamma   139.69117319
_symmetry_Int_Tables_number   1
_chemical_formula_structural   NdFeOs2C
_chemical_formula_sum   'Nd2 Fe2 Os4 C2'
_cell_volume   158.57474027
_cell_formula_units_Z   2
loop_
 _symmetry_equiv_pos_site_id
 _symmetry_equiv_pos_as_xyz
  1  'x, y, z'
loop_
 _atom_site_type_symbol
 _atom_site_label
 _atom_site_symmetry_multiplicity
 _atom_site_fract_x
 _atom_site_fract_y
 _atom_site_fract_z
 _atom_site_occupancy
  Nd  Nd0  1  0.539636  0.460364  0.250000  1
  Nd  Nd1  1  0.460364  0.539636  0.750000  1
  Fe  Fe2  1  0.271504  0.728496  0.250000  1
  Fe  Fe3  1  0.728496  0.271504  0.750000  1
  Os  Os4  1  0.827936  0.172064  0.059756  1
  Os  Os5  1  0.172064  0.827936  0.940244  1
  Os  Os6  1  0.172064  0.827936  0.559756  1
  Os  Os7  1  0.827936  0.172064  0.440244  1
  C  C8  1  0.000000  0.000000  0.000000  1
  C  C9  1  0.000000  0.000000  0.500000  1
