# generated using pymatgen
data_Nd2AlIrRh
_symmetry_space_group_name_H-M   'P 1'
_cell_length_a   5.71611391
_cell_length_b   5.71611390
_cell_length_c   5.71611352
_cell_angle_alpha   137.32340371
_cell_angle_beta   117.53006240
_cell_angle_gamma   78.61471938
_symmetry_Int_Tables_number   1
_chemical_formula_structural   Nd2AlIrRh
_chemical_formula_sum   'Nd2 Al1 Ir1 Rh1'
_cell_volume   109.07090251
_cell_formula_units_Z   1
loop_
 _symmetry_equiv_pos_site_id
 _symmetry_equiv_pos_as_xyz
  1  'x, y, z'
loop_
 _atom_site_type_symbol
 _atom_site_label
 _atom_site_symmetry_multiplicity
 _atom_site_fract_x
 _atom_site_fract_y
 _atom_site_fract_z
 _atom_site_occupancy
  Nd  Nd0  1  0.698751  0.197692  0.501059  1
  Nd  Nd1  1  0.303368  0.802308  0.501059  1
  Al  Al2  1  0.997863  0.000000  0.997863  1
  Ir  Ir3  1  0.746040  0.500000  0.246040  1
  Rh  Rh4  1  0.253978  0.500000  0.753978  1
