# generated using pymatgen
data_Ta12Co8Os3WC4
_symmetry_space_group_name_H-M   'P 1'
_cell_length_a   8.09684232
_cell_length_b   8.14151200
_cell_length_c   8.13754100
_cell_angle_alpha   60.01612917
_cell_angle_beta   59.83358127
_cell_angle_gamma   59.84197469
_symmetry_Int_Tables_number   1
_chemical_formula_structural   Ta12Co8Os3WC4
_chemical_formula_sum   'Ta12 Co8 Os3 W1 C4'
_cell_volume   378.42719537
_cell_formula_units_Z   1
loop_
 _symmetry_equiv_pos_site_id
 _symmetry_equiv_pos_as_xyz
  1  'x, y, z'
loop_
 _atom_site_type_symbol
 _atom_site_label
 _atom_site_symmetry_multiplicity
 _atom_site_fract_x
 _atom_site_fract_y
 _atom_site_fract_z
 _atom_site_occupancy
  Ta  Ta0  1  0.805154  0.805246  0.194800  1
  Ta  Ta1  1  0.194268  0.188878  0.808427  1
  Ta  Ta2  1  0.805257  0.194822  0.805320  1
  Ta  Ta3  1  0.194417  0.808389  0.188850  1
  Ta  Ta4  1  0.194417  0.808389  0.808343  1
  Ta  Ta5  1  0.805257  0.194822  0.194601  1
  Ta  Ta6  1  0.444846  0.444754  0.055200  1
  Ta  Ta7  1  0.055732  0.061122  0.441573  1
  Ta  Ta8  1  0.444743  0.055178  0.444680  1
  Ta  Ta9  1  0.055583  0.441611  0.061150  1
  Ta  Ta10  1  0.055583  0.441611  0.441657  1
  Ta  Ta11  1  0.444743  0.055178  0.055399  1
  Co  Co12  1  0.729653  0.423517  0.423416  1
  Co  Co13  1  0.421015  0.735869  0.421558  1
  Co  Co14  1  0.421088  0.421672  0.735616  1
  Co  Co15  1  0.421088  0.421672  0.421623  1
  Co  Co16  1  0.520347  0.826483  0.826584  1
  Co  Co17  1  0.828985  0.514131  0.828442  1
  Co  Co18  1  0.828912  0.828328  0.514384  1
  Co  Co19  1  0.828912  0.828328  0.828377  1
  Os  Os20  1  0.625000  0.125000  0.625000  1
  Os  Os21  1  0.625000  0.625000  0.125000  1
  Os  Os22  1  0.625000  0.625000  0.625000  1
  W  W23  1  0.125000  0.625000  0.625000  1
  C  C24  1  0.625000  0.125000  0.125000  1
  C  C25  1  0.125000  0.625000  0.125000  1
  C  C26  1  0.125000  0.125000  0.625000  1
  C  C27  1  0.125000  0.125000  0.125000  1
