# generated using pymatgen
data_Sr2AlGa3Br16
_symmetry_space_group_name_H-M   'P 1'
_cell_length_a   7.52096762
_cell_length_b   7.73633334
_cell_length_c   14.20170900
_cell_angle_alpha   87.49407780
_cell_angle_beta   89.97672658
_cell_angle_gamma   89.98788814
_symmetry_Int_Tables_number   1
_chemical_formula_structural   Sr2AlGa3Br16
_chemical_formula_sum   'Sr2 Al1 Ga3 Br16'
_cell_volume   825.53206671
_cell_formula_units_Z   1
loop_
 _symmetry_equiv_pos_site_id
 _symmetry_equiv_pos_as_xyz
  1  'x, y, z'
loop_
 _atom_site_type_symbol
 _atom_site_label
 _atom_site_symmetry_multiplicity
 _atom_site_fract_x
 _atom_site_fract_y
 _atom_site_fract_z
 _atom_site_occupancy
  Sr  Sr0  1  0.772407  0.118046  0.840810  1
  Sr  Sr1  1  0.227766  0.119143  0.340094  1
  Al  Al2  1  0.447977  0.674961  0.274606  1
  Ga  Ga3  1  0.950083  0.172719  0.579844  1
  Ga  Ga4  1  0.050250  0.175275  0.080106  1
  Ga  Ga5  1  0.551539  0.672792  0.775517  1
  Br  Br6  1  0.422788  0.646755  0.630001  1
  Br  Br7  1  0.572166  0.649800  0.130691  1
  Br  Br8  1  0.860960  0.741235  0.766673  1
  Br  Br9  1  0.143561  0.741368  0.265858  1
  Br  Br10  1  0.013345  0.394214  0.465734  1
  Br  Br11  1  0.988397  0.394782  0.965041  1
  Br  Br12  1  0.940856  0.918206  0.015954  1
  Br  Br13  1  0.059807  0.917154  0.514111  1
  Br  Br14  1  0.646459  0.150966  0.622286  1
  Br  Br15  1  0.354064  0.154622  0.122651  1
  Br  Br16  1  0.502523  0.415330  0.872418  1
  Br  Br17  1  0.495237  0.420827  0.369139  1
  Br  Br18  1  0.427069  0.898564  0.865849  1
  Br  Br19  1  0.572763  0.895820  0.362878  1
  Br  Br20  1  0.898932  0.233117  0.222139  1
  Br  Br21  1  0.101052  0.229103  0.722001  1
