# generated using pymatgen
data_Ta2Co9W
_symmetry_space_group_name_H-M   'P 1'
_cell_length_a   6.88879516
_cell_length_b   6.88879557
_cell_length_c   6.88879591
_cell_angle_alpha   43.74370833
_cell_angle_beta   43.74370220
_cell_angle_gamma   43.74370687
_symmetry_Int_Tables_number   1
_chemical_formula_structural   Ta2Co9W
_chemical_formula_sum   'Ta2 Co9 W1'
_cell_volume   141.87819187
_cell_formula_units_Z   1
loop_
 _symmetry_equiv_pos_site_id
 _symmetry_equiv_pos_as_xyz
  1  'x, y, z'
loop_
 _atom_site_type_symbol
 _atom_site_label
 _atom_site_symmetry_multiplicity
 _atom_site_fract_x
 _atom_site_fract_y
 _atom_site_fract_z
 _atom_site_occupancy
  Ta  Ta0  1  0.780623  0.780623  0.780623  1
  Ta  Ta1  1  0.000123  0.000123  0.000123  1
  Co  Co2  1  0.285186  0.763774  0.285186  1
  Co  Co3  1  0.763774  0.285186  0.285186  1
  Co  Co4  1  0.285186  0.285186  0.763774  1
  Co  Co5  1  0.713853  0.241369  0.713853  1
  Co  Co6  1  0.241369  0.713853  0.713853  1
  Co  Co7  1  0.713853  0.713853  0.241369  1
  Co  Co8  1  0.002715  0.497162  0.497162  1
  Co  Co9  1  0.497162  0.497162  0.002715  1
  Co  Co10  1  0.497162  0.002715  0.497162  1
  W  W11  1  0.218995  0.218995  0.218995  1
