# generated using pymatgen
data_SrAl10Ge(PbO10)2
_symmetry_space_group_name_H-M   'P 1'
_cell_length_a   9.61618953
_cell_length_b   9.61619085
_cell_length_c   5.00080449
_cell_angle_alpha   74.99583695
_cell_angle_beta   74.99581967
_cell_angle_gamma   73.03535326
_symmetry_Int_Tables_number   1
_chemical_formula_structural   SrAl10Ge(PbO10)2
_chemical_formula_sum   'Sr1 Al10 Ge1 Pb2 O20'
_cell_volume   418.72992453
_cell_formula_units_Z   1
loop_
 _symmetry_equiv_pos_site_id
 _symmetry_equiv_pos_as_xyz
  1  'x, y, z'
loop_
 _atom_site_type_symbol
 _atom_site_label
 _atom_site_symmetry_multiplicity
 _atom_site_fract_x
 _atom_site_fract_y
 _atom_site_fract_z
 _atom_site_occupancy
  Sr  Sr0  1  0.000000  0.000000  0.000000  1
  Al  Al1  1  0.635235  0.364765  0.500000  1
  Al  Al2  1  0.364765  0.635235  0.500000  1
  Al  Al3  1  0.281743  0.007144  0.370688  1
  Al  Al4  1  0.992856  0.718257  0.629312  1
  Al  Al5  1  0.718257  0.992856  0.629312  1
  Al  Al6  1  0.007144  0.281743  0.370688  1
  Al  Al7  1  0.577786  0.150956  0.105090  1
  Al  Al8  1  0.849044  0.422214  0.894910  1
  Al  Al9  1  0.422214  0.849044  0.894910  1
  Al  Al10  1  0.150956  0.577786  0.105090  1
  Ge  Ge11  1  0.500000  0.500000  0.000000  1
  Pb  Pb12  1  0.725141  0.725141  0.227005  1
  Pb  Pb13  1  0.274859  0.274859  0.772995  1
  O  O14  1  0.565804  0.565804  0.262232  1
  O  O15  1  0.434196  0.434196  0.737768  1
  O  O16  1  0.100983  0.100983  0.313316  1
  O  O17  1  0.899017  0.899017  0.686684  1
  O  O18  1  0.400742  0.118442  0.149374  1
  O  O19  1  0.881558  0.599258  0.850626  1
  O  O20  1  0.599258  0.881558  0.850626  1
  O  O21  1  0.118442  0.400742  0.149374  1
  O  O22  1  0.339997  0.829045  0.267230  1
  O  O23  1  0.170955  0.660003  0.732770  1
  O  O24  1  0.660003  0.170955  0.732770  1
  O  O25  1  0.829045  0.339997  0.267230  1
  O  O26  1  0.985190  0.285227  0.729887  1
  O  O27  1  0.714773  0.014810  0.270113  1
  O  O28  1  0.014810  0.714773  0.270113  1
  O  O29  1  0.285227  0.985190  0.729887  1
  O  O30  1  0.688804  0.449793  0.753873  1
  O  O31  1  0.550207  0.311196  0.246127  1
  O  O32  1  0.311196  0.550207  0.246127  1
  O  O33  1  0.449793  0.688804  0.753873  1
