# generated using pymatgen
data_Dy7CoBr12
_symmetry_space_group_name_H-M   'P 1'
_cell_length_a   9.21399023
_cell_length_b   9.21399031
_cell_length_c   9.21399152
_cell_angle_alpha   106.69532933
_cell_angle_beta   106.69533078
_cell_angle_gamma   106.69533945
_symmetry_Int_Tables_number   1
_chemical_formula_structural   Dy7CoBr12
_chemical_formula_sum   'Dy7 Co1 Br12'
_cell_volume   656.80095824
_cell_formula_units_Z   1
loop_
 _symmetry_equiv_pos_site_id
 _symmetry_equiv_pos_as_xyz
  1  'x, y, z'
loop_
 _atom_site_type_symbol
 _atom_site_label
 _atom_site_symmetry_multiplicity
 _atom_site_fract_x
 _atom_site_fract_y
 _atom_site_fract_z
 _atom_site_occupancy
  Dy  Dy0  1  0.300576  0.096170  0.021466  1
  Dy  Dy1  1  0.096170  0.021466  0.300576  1
  Dy  Dy2  1  0.021466  0.300576  0.096170  1
  Dy  Dy3  1  0.699424  0.903830  0.978534  1
  Dy  Dy4  1  0.903830  0.978534  0.699424  1
  Dy  Dy5  1  0.978534  0.699424  0.903830  1
  Dy  Dy6  1  0.500000  0.500000  0.500000  1
  Co  Co7  1  0.000000  0.000000  0.000000  1
  Br  Br8  1  0.221460  0.070117  0.678501  1
  Br  Br9  1  0.070117  0.678501  0.221460  1
  Br  Br10  1  0.678501  0.221460  0.070117  1
  Br  Br11  1  0.778540  0.929883  0.321499  1
  Br  Br12  1  0.929883  0.321499  0.778540  1
  Br  Br13  1  0.321499  0.778540  0.929883  1
  Br  Br14  1  0.386929  0.460722  0.167768  1
  Br  Br15  1  0.460722  0.167768  0.386929  1
  Br  Br16  1  0.167768  0.386929  0.460722  1
  Br  Br17  1  0.613071  0.539278  0.832232  1
  Br  Br18  1  0.539278  0.832232  0.613071  1
  Br  Br19  1  0.832232  0.613071  0.539278  1
