# generated using pymatgen
data_La5Pr5In3Bi3Br2
_symmetry_space_group_name_H-M   'P 1'
_cell_length_a   9.80191699
_cell_length_b   9.76469395
_cell_length_c   6.90410600
_cell_angle_alpha   90.00000000
_cell_angle_beta   90.00000000
_cell_angle_gamma   120.32806442
_symmetry_Int_Tables_number   1
_chemical_formula_structural   La5Pr5In3Bi3Br2
_chemical_formula_sum   'La5 Pr5 In3 Bi3 Br2'
_cell_volume   570.37769876
_cell_formula_units_Z   1
loop_
 _symmetry_equiv_pos_site_id
 _symmetry_equiv_pos_as_xyz
  1  'x, y, z'
loop_
 _atom_site_type_symbol
 _atom_site_label
 _atom_site_symmetry_multiplicity
 _atom_site_fract_x
 _atom_site_fract_y
 _atom_site_fract_z
 _atom_site_occupancy
  La  La0  1  0.267252  0.995081  0.750000  1
  La  La1  1  0.730519  0.999283  0.250000  1
  La  La2  1  0.997102  0.266954  0.750000  1
  La  La3  1  0.002936  0.735591  0.250000  1
  La  La4  1  0.266500  0.264293  0.250000  1
  Pr  Pr5  1  0.735747  0.734178  0.750000  1
  Pr  Pr6  1  0.332470  0.673035  0.500064  1
  Pr  Pr7  1  0.666993  0.329166  0.500549  1
  Pr  Pr8  1  0.666993  0.329166  0.999451  1
  Pr  Pr9  1  0.332470  0.673035  0.999936  1
  In  In10  1  0.611175  0.998917  0.750000  1
  In  In11  1  0.390446  0.001013  0.250000  1
  In  In12  1  0.998464  0.612922  0.750000  1
  Bi  Bi13  1  0.000435  0.386302  0.250000  1
  Bi  Bi14  1  0.385720  0.385219  0.750000  1
  Bi  Bi15  1  0.615577  0.613864  0.250000  1
  Br  Br16  1  0.999601  0.000990  0.500014  1
  Br  Br17  1  0.999601  0.000990  0.999986  1
