# generated using pymatgen
data_Lu8Nb12Si15B
_symmetry_space_group_name_H-M   'P 1'
_cell_length_a   6.78502826
_cell_length_b   6.97379658
_cell_length_c   13.30146200
_cell_angle_alpha   90.00000000
_cell_angle_beta   90.00000000
_cell_angle_gamma   89.63930546
_symmetry_Int_Tables_number   1
_chemical_formula_structural   Lu8Nb12Si15B
_chemical_formula_sum   'Lu8 Nb12 Si15 B1'
_cell_volume   629.37821775
_cell_formula_units_Z   1
loop_
 _symmetry_equiv_pos_site_id
 _symmetry_equiv_pos_as_xyz
  1  'x, y, z'
loop_
 _atom_site_type_symbol
 _atom_site_label
 _atom_site_symmetry_multiplicity
 _atom_site_fract_x
 _atom_site_fract_y
 _atom_site_fract_z
 _atom_site_occupancy
  Lu  Lu0  1  0.502446  0.667328  0.597393  1
  Lu  Lu1  1  0.003717  0.825078  0.902038  1
  Lu  Lu2  1  0.498719  0.327623  0.095279  1
  Lu  Lu3  1  0.998368  0.173270  0.405515  1
  Lu  Lu4  1  0.498719  0.327623  0.404721  1
  Lu  Lu5  1  0.998368  0.173270  0.094485  1
  Lu  Lu6  1  0.502446  0.667328  0.902607  1
  Lu  Lu7  1  0.003717  0.825078  0.597962  1
  Nb  Nb8  1  0.650617  0.186857  0.630006  1
  Nb  Nb9  1  0.170591  0.325470  0.872098  1
  Nb  Nb10  1  0.339061  0.825030  0.124563  1
  Nb  Nb11  1  0.838126  0.675953  0.375460  1
  Nb  Nb12  1  0.339061  0.825030  0.375437  1
  Nb  Nb13  1  0.838126  0.675953  0.124540  1
  Nb  Nb14  1  0.650617  0.186857  0.869994  1
  Nb  Nb15  1  0.170591  0.325470  0.627902  1
  Nb  Nb16  1  0.829447  0.492629  0.750000  1
  Nb  Nb17  1  0.336819  0.010665  0.750000  1
  Nb  Nb18  1  0.163395  0.507829  0.250000  1
  Nb  Nb19  1  0.663455  0.993268  0.250000  1
  Si  Si20  1  0.665440  0.966088  0.463284  1
  Si  Si21  1  0.166428  0.535770  0.038464  1
  Si  Si22  1  0.334381  0.033818  0.959855  1
  Si  Si23  1  0.836537  0.464278  0.540949  1
  Si  Si24  1  0.334381  0.033818  0.540145  1
  Si  Si25  1  0.836537  0.464278  0.959051  1
  Si  Si26  1  0.665440  0.966088  0.036716  1
  Si  Si27  1  0.166428  0.535770  0.461536  1
  Si  Si28  1  0.956610  0.121764  0.750000  1
  Si  Si29  1  0.542361  0.620280  0.250000  1
  Si  Si30  1  0.041913  0.881071  0.250000  1
  Si  Si31  1  0.703956  0.870762  0.750000  1
  Si  Si32  1  0.216198  0.619200  0.750000  1
  Si  Si33  1  0.294757  0.132202  0.250000  1
  Si  Si34  1  0.795979  0.368038  0.250000  1
  B  B35  1  0.446248  0.369163  0.750000  1
