# generated using pymatgen
data_Zr4Fe3Si4Rh
_symmetry_space_group_name_H-M   'P 1'
_cell_length_a   3.98195900
_cell_length_b   6.49613387
_cell_length_c   7.14915146
_cell_angle_alpha   89.48013109
_cell_angle_beta   90.00000000
_cell_angle_gamma   90.00000000
_symmetry_Int_Tables_number   1
_chemical_formula_structural   Zr4Fe3Si4Rh
_chemical_formula_sum   'Zr4 Fe3 Si4 Rh1'
_cell_volume   184.92191009
_cell_formula_units_Z   1
loop_
 _symmetry_equiv_pos_site_id
 _symmetry_equiv_pos_as_xyz
  1  'x, y, z'
loop_
 _atom_site_type_symbol
 _atom_site_label
 _atom_site_symmetry_multiplicity
 _atom_site_fract_x
 _atom_site_fract_y
 _atom_site_fract_z
 _atom_site_occupancy
  Zr  Zr0  1  0.250000  0.994324  0.307519  1
  Zr  Zr1  1  0.250000  0.504951  0.201544  1
  Zr  Zr2  1  0.750000  0.995638  0.687848  1
  Zr  Zr3  1  0.750000  0.502243  0.798781  1
  Fe  Fe4  1  0.250000  0.653298  0.567242  1
  Fe  Fe5  1  0.750000  0.848178  0.068218  1
  Fe  Fe6  1  0.750000  0.348501  0.433244  1
  Si  Si7  1  0.250000  0.291643  0.595816  1
  Si  Si8  1  0.250000  0.783125  0.894079  1
  Si  Si9  1  0.750000  0.709324  0.394031  1
  Si  Si10  1  0.750000  0.212983  0.119761  1
  Rh  Rh11  1  0.250000  0.155794  0.931917  1
