# generated using pymatgen
data_Li15Zn4CdSn6
_symmetry_space_group_name_H-M   'P 1'
_cell_length_a   9.69079878
_cell_length_b   9.69079876
_cell_length_c   9.69079827
_cell_angle_alpha   48.58646798
_cell_angle_beta   48.58647872
_cell_angle_gamma   48.58646310
_symmetry_Int_Tables_number   1
_chemical_formula_structural   Li15Zn4CdSn6
_chemical_formula_sum   'Li15 Zn4 Cd1 Sn6'
_cell_volume   469.54158229
_cell_formula_units_Z   1
loop_
 _symmetry_equiv_pos_site_id
 _symmetry_equiv_pos_as_xyz
  1  'x, y, z'
loop_
 _atom_site_type_symbol
 _atom_site_label
 _atom_site_symmetry_multiplicity
 _atom_site_fract_x
 _atom_site_fract_y
 _atom_site_fract_z
 _atom_site_occupancy
  Li  Li0  1  0.289524  0.599324  0.972688  1
  Li  Li1  1  0.581822  0.581822  0.581822  1
  Li  Li2  1  0.211874  0.909697  0.536731  1
  Li  Li3  1  0.599324  0.972688  0.289524  1
  Li  Li4  1  0.069239  0.414743  0.707401  1
  Li  Li5  1  0.909697  0.536731  0.211874  1
  Li  Li6  1  0.802747  0.437788  0.097283  1
  Li  Li7  1  0.972688  0.289524  0.599324  1
  Li  Li8  1  0.536731  0.211874  0.909697  1
  Li  Li9  1  0.437788  0.097283  0.802747  1
  Li  Li10  1  0.707401  0.069239  0.414743  1
  Li  Li11  1  0.097283  0.802747  0.437788  1
  Li  Li12  1  0.468081  0.468081  0.468081  1
  Li  Li13  1  0.924272  0.924272  0.924272  1
  Li  Li14  1  0.414743  0.707401  0.069239  1
  Zn  Zn15  1  0.702782  0.702782  0.702782  1
  Zn  Zn16  1  0.349783  0.349783  0.349783  1
  Zn  Zn17  1  0.809913  0.809913  0.809913  1
  Zn  Zn18  1  0.161387  0.161387  0.161387  1
  Cd  Cd19  1  0.047807  0.047807  0.047807  1
  Sn  Sn20  1  0.182302  0.517913  0.828025  1
  Sn  Sn21  1  0.671229  0.334679  0.987710  1
  Sn  Sn22  1  0.828025  0.182302  0.517913  1
  Sn  Sn23  1  0.334679  0.987710  0.671229  1
  Sn  Sn24  1  0.987710  0.671229  0.334679  1
  Sn  Sn25  1  0.517913  0.828025  0.182302  1
