# generated using pymatgen
data_ScBiO4
_symmetry_space_group_name_H-M   'P 1'
_cell_length_a   4.92693179
_cell_length_b   5.94291393
_cell_length_c   5.94291273
_cell_angle_alpha   68.04270628
_cell_angle_beta   91.85710330
_cell_angle_gamma   91.85710323
_symmetry_Int_Tables_number   1
_chemical_formula_structural   ScBiO4
_chemical_formula_sum   'Sc2 Bi2 O8'
_cell_volume   161.26481607
_cell_formula_units_Z   2
loop_
 _symmetry_equiv_pos_site_id
 _symmetry_equiv_pos_as_xyz
  1  'x, y, z'
loop_
 _atom_site_type_symbol
 _atom_site_label
 _atom_site_symmetry_multiplicity
 _atom_site_fract_x
 _atom_site_fract_y
 _atom_site_fract_z
 _atom_site_occupancy
  Sc  Sc0  1  0.500000  0.499998  0.000000  1
  Sc  Sc1  1  0.500000  0.999998  0.500002  1
  Bi  Bi2  1  0.000000  0.000001  0.000000  1
  Bi  Bi3  1  0.000000  0.500001  0.500000  1
  O  O4  1  0.308715  0.154375  0.154378  1
  O  O5  1  0.308714  0.654378  0.654374  1
  O  O6  1  0.691285  0.345623  0.345625  1
  O  O7  1  0.691285  0.845626  0.845623  1
  O  O8  1  0.803572  0.848256  0.348255  1
  O  O9  1  0.803571  0.348256  0.848255  1
  O  O10  1  0.196428  0.151745  0.651744  1
  O  O11  1  0.196429  0.651745  0.151744  1
