# generated using pymatgen
data_Nd4TmPb4
_symmetry_space_group_name_H-M   'P 1'
_cell_length_a   8.36506600
_cell_length_b   8.47749800
_cell_length_c   16.16442800
_cell_angle_alpha   90.00000000
_cell_angle_beta   90.00000000
_cell_angle_gamma   90.00000000
_symmetry_Int_Tables_number   1
_chemical_formula_structural   Nd4TmPb4
_chemical_formula_sum   'Nd16 Tm4 Pb16'
_cell_volume   1146.29766827
_cell_formula_units_Z   4
loop_
 _symmetry_equiv_pos_site_id
 _symmetry_equiv_pos_as_xyz
  1  'x, y, z'
loop_
 _atom_site_type_symbol
 _atom_site_label
 _atom_site_symmetry_multiplicity
 _atom_site_fract_x
 _atom_site_fract_y
 _atom_site_fract_z
 _atom_site_occupancy
  Nd  Nd0  1  0.376474  0.842046  0.880570  1
  Nd  Nd1  1  0.876474  0.657954  0.619430  1
  Nd  Nd2  1  0.623526  0.157954  0.380570  1
  Nd  Nd3  1  0.123526  0.342046  0.119430  1
  Nd  Nd4  1  0.623526  0.157954  0.119430  1
  Nd  Nd5  1  0.123526  0.342046  0.380570  1
  Nd  Nd6  1  0.376474  0.842046  0.619430  1
  Nd  Nd7  1  0.876474  0.657954  0.880570  1
  Nd  Nd8  1  0.533803  0.322312  0.899737  1
  Nd  Nd9  1  0.033803  0.177688  0.600263  1
  Nd  Nd10  1  0.466197  0.677688  0.399737  1
  Nd  Nd11  1  0.966197  0.822312  0.100263  1
  Nd  Nd12  1  0.466197  0.677688  0.100263  1
  Nd  Nd13  1  0.966197  0.822312  0.399737  1
  Nd  Nd14  1  0.533803  0.322312  0.600263  1
  Nd  Nd15  1  0.033803  0.177688  0.899737  1
  Tm  Tm16  1  0.208147  0.503962  0.750000  1
  Tm  Tm17  1  0.708147  0.996038  0.750000  1
  Tm  Tm18  1  0.791853  0.496038  0.250000  1
  Tm  Tm19  1  0.291853  0.003962  0.250000  1
  Pb  Pb20  1  0.281319  0.030984  0.045928  1
  Pb  Pb21  1  0.781319  0.469016  0.454072  1
  Pb  Pb22  1  0.718681  0.969016  0.545928  1
  Pb  Pb23  1  0.218681  0.530984  0.954072  1
  Pb  Pb24  1  0.718681  0.969016  0.954072  1
  Pb  Pb25  1  0.218681  0.530984  0.545928  1
  Pb  Pb26  1  0.281319  0.030984  0.454072  1
  Pb  Pb27  1  0.781319  0.469016  0.045928  1
  Pb  Pb28  1  0.570666  0.625553  0.750000  1
  Pb  Pb29  1  0.070666  0.874447  0.750000  1
  Pb  Pb30  1  0.429334  0.374447  0.250000  1
  Pb  Pb31  1  0.929334  0.125553  0.250000  1
  Pb  Pb32  1  0.343522  0.153490  0.750000  1
  Pb  Pb33  1  0.843522  0.346510  0.750000  1
  Pb  Pb34  1  0.656478  0.846510  0.250000  1
  Pb  Pb35  1  0.156478  0.653490  0.250000  1
