# generated using pymatgen
data_TbCo4(Ni4B3)2
_symmetry_space_group_name_H-M   'P 1'
_cell_length_a   5.98787657
_cell_length_b   5.98067751
_cell_length_c   5.98787674
_cell_angle_alpha   104.41681682
_cell_angle_beta   104.28686509
_cell_angle_gamma   104.41682134
_symmetry_Int_Tables_number   1
_chemical_formula_structural   TbCo4(Ni4B3)2
_chemical_formula_sum   'Tb1 Co4 Ni8 B6'
_cell_volume   189.93323348
_cell_formula_units_Z   1
loop_
 _symmetry_equiv_pos_site_id
 _symmetry_equiv_pos_as_xyz
  1  'x, y, z'
loop_
 _atom_site_type_symbol
 _atom_site_label
 _atom_site_symmetry_multiplicity
 _atom_site_fract_x
 _atom_site_fract_y
 _atom_site_fract_z
 _atom_site_occupancy
  Tb  Tb0  1  0.999303  0.000000  0.000697  1
  Co  Co1  1  0.865683  0.132060  0.501007  1
  Co  Co2  1  0.133497  0.500000  0.866503  1
  Co  Co3  1  0.498993  0.867940  0.134317  1
  Co  Co4  1  0.867228  0.500000  0.132772  1
  Ni  Ni5  1  0.499641  0.130848  0.867498  1
  Ni  Ni6  1  0.132502  0.869152  0.500359  1
  Ni  Ni7  1  0.812513  0.550217  0.547758  1
  Ni  Ni8  1  0.547277  0.547142  0.815087  1
  Ni  Ni9  1  0.545230  0.811741  0.545822  1
  Ni  Ni10  1  0.184913  0.452858  0.452723  1
  Ni  Ni11  1  0.452242  0.449783  0.187487  1
  Ni  Ni12  1  0.454178  0.188259  0.454770  1
  B  B13  1  0.330487  0.765512  0.770913  1
  B  B14  1  0.764843  0.767631  0.320698  1
  B  B15  1  0.773034  0.334711  0.769955  1
  B  B16  1  0.679302  0.232369  0.235157  1
  B  B17  1  0.229087  0.234488  0.669513  1
  B  B18  1  0.230045  0.665289  0.226966  1
