# generated using pymatgen
data_Tb6Cd23Ge
_symmetry_space_group_name_H-M   'P 1'
_cell_length_a   9.97495934
_cell_length_b   9.97495942
_cell_length_c   9.97496000
_cell_angle_alpha   59.99999809
_cell_angle_beta   59.99999781
_cell_angle_gamma   59.99999690
_symmetry_Int_Tables_number   1
_chemical_formula_structural   Tb6Cd23Ge
_chemical_formula_sum   'Tb6 Cd23 Ge1'
_cell_volume   701.80815945
_cell_formula_units_Z   1
loop_
 _symmetry_equiv_pos_site_id
 _symmetry_equiv_pos_as_xyz
  1  'x, y, z'
loop_
 _atom_site_type_symbol
 _atom_site_label
 _atom_site_symmetry_multiplicity
 _atom_site_fract_x
 _atom_site_fract_y
 _atom_site_fract_z
 _atom_site_occupancy
  Tb  Tb0  1  0.794659  0.794659  0.205341  1
  Tb  Tb1  1  0.205341  0.794659  0.205341  1
  Tb  Tb2  1  0.794659  0.205341  0.205341  1
  Tb  Tb3  1  0.205341  0.205341  0.794659  1
  Tb  Tb4  1  0.794659  0.205341  0.794659  1
  Tb  Tb5  1  0.205341  0.794659  0.794659  1
  Cd  Cd6  1  0.838483  0.838483  0.484549  1
  Cd  Cd7  1  0.838483  0.484549  0.838483  1
  Cd  Cd8  1  0.484549  0.838483  0.838483  1
  Cd  Cd9  1  0.838483  0.838483  0.838483  1
  Cd  Cd10  1  0.161517  0.161517  0.515451  1
  Cd  Cd11  1  0.161517  0.515451  0.161517  1
  Cd  Cd12  1  0.515451  0.161517  0.161517  1
  Cd  Cd13  1  0.161517  0.161517  0.161517  1
  Cd  Cd14  1  0.622265  0.622265  0.133203  1
  Cd  Cd15  1  0.622265  0.133203  0.622265  1
  Cd  Cd16  1  0.133203  0.622265  0.622265  1
  Cd  Cd17  1  0.622265  0.622265  0.622265  1
  Cd  Cd18  1  0.377735  0.377735  0.866797  1
  Cd  Cd19  1  0.377735  0.866797  0.377735  1
  Cd  Cd20  1  0.866797  0.377735  0.377735  1
  Cd  Cd21  1  0.377735  0.377735  0.377735  1
  Cd  Cd22  1  0.000000  0.000000  0.500000  1
  Cd  Cd23  1  0.500000  0.000000  0.500000  1
  Cd  Cd24  1  0.000000  0.500000  0.500000  1
  Cd  Cd25  1  0.500000  0.500000  0.000000  1
  Cd  Cd26  1  0.000000  0.500000  0.000000  1
  Cd  Cd27  1  0.500000  0.000000  0.000000  1
  Cd  Cd28  1  0.500000  0.500000  0.500000  1
  Ge  Ge29  1  0.000000  0.000000  0.000000  1
