# generated using pymatgen
data_Bi2OsO6
_symmetry_space_group_name_H-M   'P 1'
_cell_length_a   8.40948440
_cell_length_b   8.40948365
_cell_length_c   8.22521568
_cell_angle_alpha   79.16198643
_cell_angle_beta   79.16198732
_cell_angle_gamma   26.00932687
_symmetry_Int_Tables_number   1
_chemical_formula_structural   Bi2OsO6
_chemical_formula_sum   'Bi4 Os2 O12'
_cell_volume   250.28301375
_cell_formula_units_Z   2
loop_
 _symmetry_equiv_pos_site_id
 _symmetry_equiv_pos_as_xyz
  1  'x, y, z'
loop_
 _atom_site_type_symbol
 _atom_site_label
 _atom_site_symmetry_multiplicity
 _atom_site_fract_x
 _atom_site_fract_y
 _atom_site_fract_z
 _atom_site_occupancy
  Bi  Bi0  1  0.318717  0.318717  0.609044  1
  Bi  Bi1  1  0.681283  0.681283  0.390956  1
  Bi  Bi2  1  0.662400  0.662400  0.928599  1
  Bi  Bi3  1  0.337600  0.337600  0.071401  1
  Os  Os4  1  0.995628  0.995628  0.701039  1
  Os  Os5  1  0.004372  0.004372  0.298961  1
  O  O6  1  0.248762  0.248762  0.880011  1
  O  O7  1  0.266918  0.266918  0.366939  1
  O  O8  1  0.077538  0.077538  0.479867  1
  O  O9  1  0.733082  0.733082  0.633061  1
  O  O10  1  0.918452  0.918452  0.183277  1
  O  O11  1  0.104314  0.104314  0.144212  1
  O  O12  1  0.922462  0.922462  0.520133  1
  O  O13  1  0.895686  0.895686  0.855788  1
  O  O14  1  0.751238  0.751238  0.119989  1
  O  O15  1  0.081548  0.081548  0.816723  1
  O  O16  1  0.494774  0.494774  0.698657  1
  O  O17  1  0.505226  0.505226  0.301343  1
