# generated using pymatgen
data_Y3Tm3Hg10
_symmetry_space_group_name_H-M   'P 1'
_cell_length_a   6.33986207
_cell_length_b   6.33986278
_cell_length_c   10.18755698
_cell_angle_alpha   89.91819287
_cell_angle_beta   89.91819322
_cell_angle_gamma   105.24224840
_symmetry_Int_Tables_number   1
_chemical_formula_structural   Y3Tm3Hg10
_chemical_formula_sum   'Y3 Tm3 Hg10'
_cell_volume   395.07188121
_cell_formula_units_Z   1
loop_
 _symmetry_equiv_pos_site_id
 _symmetry_equiv_pos_as_xyz
  1  'x, y, z'
loop_
 _atom_site_type_symbol
 _atom_site_label
 _atom_site_symmetry_multiplicity
 _atom_site_fract_x
 _atom_site_fract_y
 _atom_site_fract_z
 _atom_site_occupancy
  Y  Y0  1  0.214561  0.785439  0.000000  1
  Y  Y1  1  0.784603  0.215397  0.500000  1
  Y  Y2  1  0.785581  0.214419  0.000000  1
  Tm  Tm3  1  0.564484  0.565917  0.250220  1
  Tm  Tm4  1  0.434083  0.435516  0.749780  1
  Tm  Tm5  1  0.215436  0.784564  0.500000  1
  Hg  Hg6  1  0.965862  0.965292  0.250861  1
  Hg  Hg7  1  0.034708  0.034138  0.749139  1
  Hg  Hg8  1  0.294858  0.294808  0.028701  1
  Hg  Hg9  1  0.705192  0.705142  0.971299  1
  Hg  Hg10  1  0.294134  0.292934  0.472071  1
  Hg  Hg11  1  0.707066  0.705866  0.527929  1
  Hg  Hg12  1  0.475067  0.036138  0.251079  1
  Hg  Hg13  1  0.963862  0.524933  0.748921  1
  Hg  Hg14  1  0.521746  0.961244  0.748794  1
  Hg  Hg15  1  0.038756  0.478254  0.251206  1
