# generated using pymatgen
data_Tb4Ho12CdAg(HgPd2)2
_symmetry_space_group_name_H-M   'P 1'
_cell_length_a   9.66336453
_cell_length_b   9.66336370
_cell_length_c   9.66796600
_cell_angle_alpha   59.98425096
_cell_angle_beta   59.98425381
_cell_angle_gamma   60.00918132
_symmetry_Int_Tables_number   1
_chemical_formula_structural   Tb4Ho12CdAg(HgPd2)2
_chemical_formula_sum   'Tb4 Ho12 Cd1 Ag1 Hg2 Pd4'
_cell_volume   638.26863338
_cell_formula_units_Z   1
loop_
 _symmetry_equiv_pos_site_id
 _symmetry_equiv_pos_as_xyz
  1  'x, y, z'
loop_
 _atom_site_type_symbol
 _atom_site_label
 _atom_site_symmetry_multiplicity
 _atom_site_fract_x
 _atom_site_fract_y
 _atom_site_fract_z
 _atom_site_occupancy
  Tb  Tb0  1  0.355272  0.355128  0.351968  1
  Tb  Tb1  1  0.355272  0.355128  0.937631  1
  Tb  Tb2  1  0.360412  0.928470  0.355560  1
  Tb  Tb3  1  0.926194  0.360429  0.356689  1
  Ho  Ho4  1  0.811923  0.188833  0.188830  1
  Ho  Ho5  1  0.188568  0.811773  0.810649  1
  Ho  Ho6  1  0.188568  0.811773  0.189010  1
  Ho  Ho7  1  0.811923  0.188833  0.810414  1
  Ho  Ho8  1  0.189123  0.189329  0.810774  1
  Ho  Ho9  1  0.811177  0.811327  0.188748  1
  Ho  Ho10  1  0.934009  0.565507  0.566180  1
  Ho  Ho11  1  0.565166  0.936670  0.932079  1
  Ho  Ho12  1  0.565166  0.936670  0.566086  1
  Ho  Ho13  1  0.934009  0.565507  0.934305  1
  Ho  Ho14  1  0.566053  0.566239  0.933854  1
  Ho  Ho15  1  0.932548  0.937310  0.565071  1
  Cd  Cd16  1  0.254370  0.578066  0.583782  1
  Ag  Ag17  1  0.581450  0.246111  0.586219  1
  Hg  Hg18  1  0.585377  0.584725  0.590467  1
  Hg  Hg19  1  0.585377  0.584725  0.239429  1
  Pd  Pd20  1  0.143789  0.143817  0.147723  1
  Pd  Pd21  1  0.143789  0.143817  0.564672  1
  Pd  Pd22  1  0.142268  0.567931  0.144901  1
  Pd  Pd23  1  0.568197  0.141882  0.144962  1
