# generated using pymatgen
data_Er2LuPaPt4
_symmetry_space_group_name_H-M   'P 1'
_cell_length_a   4.52627000
_cell_length_b   5.54897055
_cell_length_c   6.91439266
_cell_angle_alpha   89.43210736
_cell_angle_beta   90.00000000
_cell_angle_gamma   90.00000000
_symmetry_Int_Tables_number   1
_chemical_formula_structural   Er2LuPaPt4
_chemical_formula_sum   'Er2 Lu1 Pa1 Pt4'
_cell_volume   173.65431642
_cell_formula_units_Z   1
loop_
 _symmetry_equiv_pos_site_id
 _symmetry_equiv_pos_as_xyz
  1  'x, y, z'
loop_
 _atom_site_type_symbol
 _atom_site_label
 _atom_site_symmetry_multiplicity
 _atom_site_fract_x
 _atom_site_fract_y
 _atom_site_fract_z
 _atom_site_occupancy
  Er  Er0  1  0.750000  0.353857  0.814485  1
  Er  Er1  1  0.250000  0.857966  0.683162  1
  Lu  Lu2  1  0.750000  0.145113  0.320875  1
  Pa  Pa3  1  0.250000  0.644948  0.182695  1
  Pt  Pt4  1  0.250000  0.161415  0.053138  1
  Pt  Pt5  1  0.750000  0.833761  0.961598  1
  Pt  Pt6  1  0.750000  0.659128  0.447553  1
  Pt  Pt7  1  0.250000  0.343810  0.536494  1
