# generated using pymatgen
data_Tb7(LuPb2)3
_symmetry_space_group_name_H-M   'P 1'
_cell_length_a   9.06424700
_cell_length_b   9.06424847
_cell_length_c   6.57772500
_cell_angle_alpha   90.00000000
_cell_angle_beta   90.00000000
_cell_angle_gamma   120.00000558
_symmetry_Int_Tables_number   1
_chemical_formula_structural   Tb7(LuPb2)3
_chemical_formula_sum   'Tb7 Lu3 Pb6'
_cell_volume   468.02586367
_cell_formula_units_Z   1
loop_
 _symmetry_equiv_pos_site_id
 _symmetry_equiv_pos_as_xyz
  1  'x, y, z'
loop_
 _atom_site_type_symbol
 _atom_site_label
 _atom_site_symmetry_multiplicity
 _atom_site_fract_x
 _atom_site_fract_y
 _atom_site_fract_z
 _atom_site_occupancy
  Tb  Tb0  1  0.333333  0.666667  0.500000  1
  Tb  Tb1  1  0.237926  0.000121  0.249670  1
  Tb  Tb2  1  0.237926  0.237804  0.750330  1
  Tb  Tb3  1  0.999879  0.762074  0.750330  1
  Tb  Tb4  1  0.999879  0.237804  0.249670  1
  Tb  Tb5  1  0.762196  0.762074  0.249670  1
  Tb  Tb6  1  0.762196  0.000121  0.750330  1
  Lu  Lu7  1  0.333333  0.666667  0.000000  1
  Lu  Lu8  1  0.666667  0.333333  0.500000  1
  Lu  Lu9  1  0.666667  0.333333  0.000000  1
  Pb  Pb10  1  0.604686  0.001410  0.248566  1
  Pb  Pb11  1  0.604686  0.603277  0.751434  1
  Pb  Pb12  1  0.998590  0.395314  0.751434  1
  Pb  Pb13  1  0.998590  0.603277  0.248566  1
  Pb  Pb14  1  0.396723  0.395314  0.248566  1
  Pb  Pb15  1  0.396723  0.001410  0.751434  1
