# generated using pymatgen
data_DyEr3(ScRu)4
_symmetry_space_group_name_H-M   'P 1'
_cell_length_a   4.26972300
_cell_length_b   7.11897470
_cell_length_c   8.61098100
_cell_angle_alpha   89.86865937
_cell_angle_beta   90.00000000
_cell_angle_gamma   90.00000000
_symmetry_Int_Tables_number   1
_chemical_formula_structural   DyEr3(ScRu)4
_chemical_formula_sum   'Dy1 Er3 Sc4 Ru4'
_cell_volume   261.73912160
_cell_formula_units_Z   1
loop_
 _symmetry_equiv_pos_site_id
 _symmetry_equiv_pos_as_xyz
  1  'x, y, z'
loop_
 _atom_site_type_symbol
 _atom_site_label
 _atom_site_symmetry_multiplicity
 _atom_site_fract_x
 _atom_site_fract_y
 _atom_site_fract_z
 _atom_site_occupancy
  Dy  Dy0  1  0.250000  0.974952  0.326861  1
  Er  Er1  1  0.250000  0.474043  0.172680  1
  Er  Er2  1  0.750000  0.026069  0.673645  1
  Er  Er3  1  0.750000  0.526035  0.826916  1
  Sc  Sc4  1  0.250000  0.357740  0.562016  1
  Sc  Sc5  1  0.250000  0.857151  0.938390  1
  Sc  Sc6  1  0.750000  0.642208  0.439193  1
  Sc  Sc7  1  0.750000  0.142339  0.060172  1
  Ru  Ru8  1  0.250000  0.235053  0.880620  1
  Ru  Ru9  1  0.250000  0.735246  0.620193  1
  Ru  Ru10  1  0.750000  0.762603  0.118343  1
  Ru  Ru11  1  0.750000  0.266564  0.380970  1
