# generated using pymatgen
data_SrCrAs2Rh
_symmetry_space_group_name_H-M   'P 1'
_cell_length_a   6.78410576
_cell_length_b   6.78410552
_cell_length_c   6.78410483
_cell_angle_alpha   144.98296902
_cell_angle_beta   144.98296337
_cell_angle_gamma   50.35990853
_symmetry_Int_Tables_number   1
_chemical_formula_structural   SrCrAs2Rh
_chemical_formula_sum   'Sr1 Cr1 As2 Rh1'
_cell_volume   102.29815196
_cell_formula_units_Z   1
loop_
 _symmetry_equiv_pos_site_id
 _symmetry_equiv_pos_as_xyz
  1  'x, y, z'
loop_
 _atom_site_type_symbol
 _atom_site_label
 _atom_site_symmetry_multiplicity
 _atom_site_fract_x
 _atom_site_fract_y
 _atom_site_fract_z
 _atom_site_occupancy
  Sr  Sr0  1  0.000000  0.000000  0.000000  1
  Cr  Cr1  1  0.250000  0.750000  0.500000  1
  As  As2  1  0.363513  0.363513  0.000000  1
  As  As3  1  0.636487  0.636487  0.000000  1
  Rh  Rh4  1  0.750000  0.250000  0.500000  1
