# generated using pymatgen
data_Pr2Cr3Co9As7
_symmetry_space_group_name_H-M   'P 1'
_cell_length_a   9.49678000
_cell_length_b   9.49677886
_cell_length_c   3.81296400
_cell_angle_alpha   90.00000000
_cell_angle_beta   90.00000000
_cell_angle_gamma   119.99999699
_symmetry_Int_Tables_number   1
_chemical_formula_structural   Pr2Cr3Co9As7
_chemical_formula_sum   'Pr2 Cr3 Co9 As7'
_cell_volume   297.81464654
_cell_formula_units_Z   1
loop_
 _symmetry_equiv_pos_site_id
 _symmetry_equiv_pos_as_xyz
  1  'x, y, z'
loop_
 _atom_site_type_symbol
 _atom_site_label
 _atom_site_symmetry_multiplicity
 _atom_site_fract_x
 _atom_site_fract_y
 _atom_site_fract_z
 _atom_site_occupancy
  Pr  Pr0  1  0.333333  0.666667  0.000000  1
  Pr  Pr1  1  0.666667  0.333333  0.500000  1
  Cr  Cr2  1  0.220863  0.112976  0.500000  1
  Cr  Cr3  1  0.887024  0.107888  0.500000  1
  Cr  Cr4  1  0.892112  0.779137  0.500000  1
  Co  Co5  1  0.428875  0.370266  0.000000  1
  Co  Co6  1  0.629734  0.058609  0.000000  1
  Co  Co7  1  0.941391  0.571125  0.000000  1
  Co  Co8  1  0.155433  0.877375  0.000000  1
  Co  Co9  1  0.122625  0.278058  0.000000  1
  Co  Co10  1  0.721942  0.844567  0.000000  1
  Co  Co11  1  0.381022  0.949376  0.500000  1
  Co  Co12  1  0.050624  0.431647  0.500000  1
  Co  Co13  1  0.568353  0.618978  0.500000  1
  As  As14  1  0.408842  0.109058  0.000000  1
  As  As15  1  0.890942  0.299784  0.000000  1
  As  As16  1  0.700216  0.591158  0.000000  1
  As  As17  1  0.111320  0.707400  0.500000  1
  As  As18  1  0.292600  0.403921  0.500000  1
  As  As19  1  0.596079  0.888680  0.500000  1
  As  As20  1  0.000000  0.000000  0.000000  1
