# generated using pymatgen
data_Sr5IrPd
_symmetry_space_group_name_H-M   'P 1'
_cell_length_a   9.42389458
_cell_length_b   9.42389464
_cell_length_c   8.03468234
_cell_angle_alpha   83.26016233
_cell_angle_beta   83.26016754
_cell_angle_gamma   44.55238611
_symmetry_Int_Tables_number   1
_chemical_formula_structural   Sr5IrPd
_chemical_formula_sum   'Sr10 Ir2 Pd2'
_cell_volume   496.56241792
_cell_formula_units_Z   2
loop_
 _symmetry_equiv_pos_site_id
 _symmetry_equiv_pos_as_xyz
  1  'x, y, z'
loop_
 _atom_site_type_symbol
 _atom_site_label
 _atom_site_symmetry_multiplicity
 _atom_site_fract_x
 _atom_site_fract_y
 _atom_site_fract_z
 _atom_site_occupancy
  Sr  Sr0  1  0.021163  0.800893  0.912471  1
  Sr  Sr1  1  0.199107  0.978837  0.587529  1
  Sr  Sr2  1  0.999291  0.184231  0.080995  1
  Sr  Sr3  1  0.815769  0.000709  0.419005  1
  Sr  Sr4  1  0.356188  0.210049  0.814611  1
  Sr  Sr5  1  0.789951  0.643812  0.685389  1
  Sr  Sr6  1  0.629079  0.797154  0.171543  1
  Sr  Sr7  1  0.202846  0.370921  0.328457  1
  Sr  Sr8  1  0.560861  0.439139  0.750000  1
  Sr  Sr9  1  0.428414  0.571586  0.250000  1
  Ir  Ir10  1  0.174488  0.605277  0.582413  1
  Ir  Ir11  1  0.394723  0.825512  0.917587  1
  Pd  Pd12  1  0.826022  0.397902  0.418806  1
  Pd  Pd13  1  0.602098  0.173979  0.081194  1
