# generated using pymatgen
data_Er2Zn2IrPd
_symmetry_space_group_name_H-M   'P 1'
_cell_length_a   4.05055400
_cell_length_b   6.95542860
_cell_length_c   8.18050820
_cell_angle_alpha   89.74876837
_cell_angle_beta   90.00000000
_cell_angle_gamma   90.00000000
_symmetry_Int_Tables_number   1
_chemical_formula_structural   Er2Zn2IrPd
_chemical_formula_sum   'Er4 Zn4 Ir2 Pd2'
_cell_volume   230.47001602
_cell_formula_units_Z   2
loop_
 _symmetry_equiv_pos_site_id
 _symmetry_equiv_pos_as_xyz
  1  'x, y, z'
loop_
 _atom_site_type_symbol
 _atom_site_label
 _atom_site_symmetry_multiplicity
 _atom_site_fract_x
 _atom_site_fract_y
 _atom_site_fract_z
 _atom_site_occupancy
  Er  Er0  1  0.250000  0.534837  0.177779  1
  Er  Er1  1  0.750000  0.465163  0.822221  1
  Er  Er2  1  0.750000  0.954383  0.689868  1
  Er  Er3  1  0.250000  0.045617  0.310132  1
  Zn  Zn4  1  0.250000  0.638095  0.566201  1
  Zn  Zn5  1  0.750000  0.361905  0.433799  1
  Zn  Zn6  1  0.750000  0.862663  0.063519  1
  Zn  Zn7  1  0.250000  0.137337  0.936481  1
  Ir  Ir8  1  0.250000  0.753803  0.875864  1
  Ir  Ir9  1  0.750000  0.246197  0.124136  1
  Pd  Pd10  1  0.750000  0.745398  0.379287  1
  Pd  Pd11  1  0.250000  0.254602  0.620713  1
