# generated using pymatgen
data_HoTm3(Al3Pt4)2
_symmetry_space_group_name_H-M   'P 1'
_cell_length_a   8.07588825
_cell_length_b   8.07588926
_cell_length_c   7.62904927
_cell_angle_alpha   90.02866167
_cell_angle_beta   89.97134052
_cell_angle_gamma   139.93725113
_symmetry_Int_Tables_number   1
_chemical_formula_structural   HoTm3(Al3Pt4)2
_chemical_formula_sum   'Ho1 Tm3 Al6 Pt8'
_cell_volume   320.24673653
_cell_formula_units_Z   1
loop_
 _symmetry_equiv_pos_site_id
 _symmetry_equiv_pos_as_xyz
  1  'x, y, z'
loop_
 _atom_site_type_symbol
 _atom_site_label
 _atom_site_symmetry_multiplicity
 _atom_site_fract_x
 _atom_site_fract_y
 _atom_site_fract_z
 _atom_site_occupancy
  Ho  Ho0  1  0.606584  0.393416  0.092142  1
  Tm  Tm1  1  0.106620  0.893380  0.408206  1
  Tm  Tm2  1  0.893425  0.106575  0.592050  1
  Tm  Tm3  1  0.393235  0.606765  0.907976  1
  Al  Al4  1  0.999793  0.000207  0.999892  1
  Al  Al5  1  0.499956  0.500044  0.499972  1
  Al  Al6  1  0.023414  0.476881  0.250237  1
  Al  Al7  1  0.476932  0.022864  0.749917  1
  Al  Al8  1  0.977136  0.523068  0.749917  1
  Al  Al9  1  0.523119  0.976586  0.250237  1
  Pt  Pt10  1  0.191539  0.308105  0.250216  1
  Pt  Pt11  1  0.307649  0.191758  0.749408  1
  Pt  Pt12  1  0.808242  0.692351  0.749408  1
  Pt  Pt13  1  0.691895  0.808461  0.250216  1
  Pt  Pt14  1  0.184393  0.815607  0.029003  1
  Pt  Pt15  1  0.815990  0.184010  0.970902  1
  Pt  Pt16  1  0.315889  0.684111  0.529052  1
  Pt  Pt17  1  0.684191  0.315809  0.471250  1
