# generated using pymatgen
data_TbY4IrRh
_symmetry_space_group_name_H-M   'P 1'
_cell_length_a   6.47046207
_cell_length_b   7.19752945
_cell_length_c   8.66320205
_cell_angle_alpha   96.62454953
_cell_angle_beta   111.92824000
_cell_angle_gamma   89.99999933
_symmetry_Int_Tables_number   1
_chemical_formula_structural   TbY4IrRh
_chemical_formula_sum   'Tb2 Y8 Ir2 Rh2'
_cell_volume   371.36238392
_cell_formula_units_Z   2
loop_
 _symmetry_equiv_pos_site_id
 _symmetry_equiv_pos_as_xyz
  1  'x, y, z'
loop_
 _atom_site_type_symbol
 _atom_site_label
 _atom_site_symmetry_multiplicity
 _atom_site_fract_x
 _atom_site_fract_y
 _atom_site_fract_z
 _atom_site_occupancy
  Tb  Tb0  1  0.428102  0.750000  0.000000  1
  Tb  Tb1  1  0.570911  0.250000  0.000000  1
  Y  Y2  1  0.980334  0.916078  0.187920  1
  Y  Y3  1  0.792414  0.583922  0.812080  1
  Y  Y4  1  0.023086  0.083534  0.814333  1
  Y  Y5  1  0.208753  0.416466  0.185667  1
  Y  Y6  1  0.650301  0.816418  0.437654  1
  Y  Y7  1  0.212647  0.683582  0.562346  1
  Y  Y8  1  0.348307  0.185296  0.560265  1
  Y  Y9  1  0.788041  0.314704  0.439735  1
  Ir  Ir10  1  0.177566  0.426142  0.777775  1
  Ir  Ir11  1  0.399791  0.073858  0.222225  1
  Rh  Rh12  1  0.820241  0.572345  0.220734  1
  Rh  Rh13  1  0.599507  0.927655  0.779266  1
