# generated using pymatgen
data_Sm3Y3Co16(ReP6)2
_symmetry_space_group_name_H-M   'P 1'
_cell_length_a   3.75317200
_cell_length_b   10.57531814
_cell_length_c   12.30420716
_cell_angle_alpha   90.01839406
_cell_angle_beta   90.00000000
_cell_angle_gamma   90.00000000
_symmetry_Int_Tables_number   1
_chemical_formula_structural   Sm3Y3Co16(ReP6)2
_chemical_formula_sum   'Sm3 Y3 Co16 Re2 P12'
_cell_volume   488.36611253
_cell_formula_units_Z   1
loop_
 _symmetry_equiv_pos_site_id
 _symmetry_equiv_pos_as_xyz
  1  'x, y, z'
loop_
 _atom_site_type_symbol
 _atom_site_label
 _atom_site_symmetry_multiplicity
 _atom_site_fract_x
 _atom_site_fract_y
 _atom_site_fract_z
 _atom_site_occupancy
  Sm  Sm0  1  0.000000  0.500542  0.523177  1
  Sm  Sm1  1  0.500000  0.000025  0.476285  1
  Sm  Sm2  1  0.000000  0.317562  0.794303  1
  Y  Y3  1  0.500000  0.817408  0.205916  1
  Y  Y4  1  0.500000  0.182162  0.204854  1
  Y  Y5  1  0.000000  0.682714  0.794925  1
  Co  Co6  1  0.500000  0.501296  0.703424  1
  Co  Co7  1  0.000000  0.999551  0.296303  1
  Co  Co8  1  0.000000  0.501068  0.988644  1
  Co  Co9  1  0.500000  0.999235  0.012752  1
  Co  Co10  1  0.500000  0.332447  0.991249  1
  Co  Co11  1  0.500000  0.668446  0.990244  1
  Co  Co12  1  0.000000  0.166750  0.010836  1
  Co  Co13  1  0.000000  0.832150  0.010675  1
  Co  Co14  1  0.500000  0.296382  0.428883  1
  Co  Co15  1  0.500000  0.704172  0.430207  1
  Co  Co16  1  0.000000  0.204091  0.568184  1
  Co  Co17  1  0.000000  0.796520  0.570106  1
  Co  Co18  1  0.500000  0.879150  0.710522  1
  Co  Co19  1  0.500000  0.118686  0.709420  1
  Co  Co20  1  0.000000  0.620165  0.289921  1
  Co  Co21  1  0.000000  0.379633  0.289029  1
  Re  Re22  1  0.500000  0.500771  0.154801  1
  Re  Re23  1  0.000000  0.999357  0.845490  1
  P  P24  1  0.500000  0.501318  0.882038  1
  P  P25  1  0.000000  0.999495  0.119458  1
  P  P26  1  0.500000  0.500131  0.345918  1
  P  P27  1  0.000000  0.000296  0.653873  1
  P  P28  1  0.500000  0.309221  0.614446  1
  P  P29  1  0.500000  0.690616  0.616575  1
  P  P30  1  0.000000  0.189894  0.382384  1
  P  P31  1  0.000000  0.809589  0.383496  1
  P  P32  1  0.500000  0.846223  0.893461  1
  P  P33  1  0.500000  0.152542  0.894493  1
  P  P34  1  0.000000  0.654377  0.107369  1
  P  P35  1  0.000000  0.346014  0.106338  1
