# generated using pymatgen
data_Ba6Ta3VS16
_symmetry_space_group_name_H-M   'P 1'
_cell_length_a   11.31923534
_cell_length_b   11.31923433
_cell_length_c   11.31923500
_cell_angle_alpha   51.63092690
_cell_angle_beta   51.63093094
_cell_angle_gamma   51.63093202
_symmetry_Int_Tables_number   1
_chemical_formula_structural   Ba6Ta3VS16
_chemical_formula_sum   'Ba6 Ta3 V1 S16'
_cell_volume   823.51272488
_cell_formula_units_Z   1
loop_
 _symmetry_equiv_pos_site_id
 _symmetry_equiv_pos_as_xyz
  1  'x, y, z'
loop_
 _atom_site_type_symbol
 _atom_site_label
 _atom_site_symmetry_multiplicity
 _atom_site_fract_x
 _atom_site_fract_y
 _atom_site_fract_z
 _atom_site_occupancy
  Ba  Ba0  1  0.750043  0.434392  0.067490  1
  Ba  Ba1  1  0.572381  0.929800  0.245872  1
  Ba  Ba2  1  0.067490  0.750043  0.434393  1
  Ba  Ba3  1  0.929801  0.245872  0.572381  1
  Ba  Ba4  1  0.434393  0.067491  0.750042  1
  Ba  Ba5  1  0.245872  0.572381  0.929801  1
  Ta  Ta6  1  0.160338  0.160338  0.160338  1
  Ta  Ta7  1  0.339543  0.339543  0.339543  1
  Ta  Ta8  1  0.660428  0.660428  0.660428  1
  V  V9  1  0.839432  0.839432  0.839432  1
  S  S10  1  0.622034  0.790321  0.031124  1
  S  S11  1  0.082195  0.082195  0.082195  1
  S  S12  1  0.542706  0.286209  0.110442  1
  S  S13  1  0.956938  0.388844  0.214760  1
  S  S14  1  0.110442  0.542705  0.286209  1
  S  S15  1  0.214759  0.956939  0.388844  1
  S  S16  1  0.417900  0.417900  0.417900  1
  S  S17  1  0.713616  0.889806  0.457616  1
  S  S18  1  0.286209  0.110442  0.542706  1
  S  S19  1  0.582236  0.582236  0.582236  1
  S  S20  1  0.790321  0.031124  0.622034  1
  S  S21  1  0.889806  0.457617  0.713616  1
  S  S22  1  0.031124  0.622034  0.790321  1
  S  S23  1  0.457617  0.713616  0.889806  1
  S  S24  1  0.913526  0.913526  0.913526  1
  S  S25  1  0.388845  0.214759  0.956938  1
