# generated using pymatgen
data_PrDyMn6P7Ir6
_symmetry_space_group_name_H-M   'P 1'
_cell_length_a   9.43695900
_cell_length_b   9.43695955
_cell_length_c   3.88073900
_cell_angle_alpha   90.00000000
_cell_angle_beta   90.00000000
_cell_angle_gamma   120.00000858
_symmetry_Int_Tables_number   1
_chemical_formula_structural   PrDyMn6P7Ir6
_chemical_formula_sum   'Pr1 Dy1 Mn6 P7 Ir6'
_cell_volume   299.30170519
_cell_formula_units_Z   1
loop_
 _symmetry_equiv_pos_site_id
 _symmetry_equiv_pos_as_xyz
  1  'x, y, z'
loop_
 _atom_site_type_symbol
 _atom_site_label
 _atom_site_symmetry_multiplicity
 _atom_site_fract_x
 _atom_site_fract_y
 _atom_site_fract_z
 _atom_site_occupancy
  Pr  Pr0  1  0.666667  0.333333  0.000000  1
  Dy  Dy1  1  0.333333  0.666667  0.500000  1
  Mn  Mn2  1  0.889854  0.730948  0.000000  1
  Mn  Mn3  1  0.269052  0.158906  0.000000  1
  Mn  Mn4  1  0.841095  0.110146  0.000000  1
  Mn  Mn5  1  0.118113  0.904325  0.500000  1
  Mn  Mn6  1  0.095675  0.213788  0.500000  1
  Mn  Mn7  1  0.786212  0.881887  0.500000  1
  P  P8  1  0.111001  0.700054  0.000000  1
  P  P9  1  0.299946  0.410946  0.000000  1
  P  P10  1  0.589054  0.888999  0.000000  1
  P  P11  1  0.722272  0.607044  0.500000  1
  P  P12  1  0.392956  0.115229  0.500000  1
  P  P13  1  0.884771  0.277728  0.500000  1
  P  P14  1  0.000000  0.000000  0.000000  1
  Ir  Ir15  1  0.360784  0.935355  0.000000  1
  Ir  Ir16  1  0.064645  0.425429  0.000000  1
  Ir  Ir17  1  0.574571  0.639216  0.000000  1
  Ir  Ir18  1  0.950711  0.563558  0.500000  1
  Ir  Ir19  1  0.436442  0.387154  0.500000  1
  Ir  Ir20  1  0.612846  0.049289  0.500000  1
