# generated using pymatgen
data_Pa2Fe7(P2Os)3
_symmetry_space_group_name_H-M   'P 1'
_cell_length_a   3.76796100
_cell_length_b   10.39174800
_cell_length_c   11.97349600
_cell_angle_alpha   90.00000000
_cell_angle_beta   90.00000000
_cell_angle_gamma   90.00000000
_symmetry_Int_Tables_number   1
_chemical_formula_structural   Pa2Fe7(P2Os)3
_chemical_formula_sum   'Pa4 Fe14 P12 Os6'
_cell_volume   468.83063153
_cell_formula_units_Z   2
loop_
 _symmetry_equiv_pos_site_id
 _symmetry_equiv_pos_as_xyz
  1  'x, y, z'
loop_
 _atom_site_type_symbol
 _atom_site_label
 _atom_site_symmetry_multiplicity
 _atom_site_fract_x
 _atom_site_fract_y
 _atom_site_fract_z
 _atom_site_occupancy
  Pa  Pa0  1  0.250000  0.581332  0.705052  1
  Pa  Pa1  1  0.250000  0.918668  0.205052  1
  Pa  Pa2  1  0.750000  0.421847  0.291486  1
  Pa  Pa3  1  0.750000  0.078153  0.791486  1
  Fe  Fe4  1  0.750000  0.599010  0.522499  1
  Fe  Fe5  1  0.750000  0.900990  0.022499  1
  Fe  Fe6  1  0.250000  0.228472  0.172628  1
  Fe  Fe7  1  0.250000  0.271528  0.672628  1
  Fe  Fe8  1  0.750000  0.774625  0.829087  1
  Fe  Fe9  1  0.750000  0.725375  0.329087  1
  Fe  Fe10  1  0.250000  0.883660  0.700727  1
  Fe  Fe11  1  0.250000  0.616340  0.200727  1
  Fe  Fe12  1  0.750000  0.114160  0.298489  1
  Fe  Fe13  1  0.750000  0.385840  0.798489  1
  Fe  Fe14  1  0.250000  0.464507  0.933332  1
  Fe  Fe15  1  0.250000  0.035493  0.433332  1
  Fe  Fe16  1  0.750000  0.537419  0.065427  1
  Fe  Fe17  1  0.750000  0.962581  0.565427  1
  P  P18  1  0.250000  0.425151  0.110749  1
  P  P19  1  0.250000  0.074849  0.610749  1
  P  P20  1  0.750000  0.577053  0.887689  1
  P  P21  1  0.750000  0.922947  0.387689  1
  P  P22  1  0.250000  0.277680  0.856070  1
  P  P23  1  0.250000  0.222320  0.356070  1
  P  P24  1  0.750000  0.725462  0.141739  1
  P  P25  1  0.750000  0.774538  0.641739  1
  P  P26  1  0.250000  0.606571  0.388255  1
  P  P27  1  0.250000  0.893429  0.888255  1
  P  P28  1  0.750000  0.397304  0.612802  1
  P  P29  1  0.750000  0.102696  0.112802  1
  Os  Os30  1  0.250000  0.707355  0.990243  1
  Os  Os31  1  0.250000  0.792645  0.490243  1
  Os  Os32  1  0.750000  0.294814  0.012303  1
  Os  Os33  1  0.750000  0.205186  0.512303  1
  Os  Os34  1  0.250000  0.405652  0.481424  1
  Os  Os35  1  0.250000  0.094348  0.981424  1
