# generated using pymatgen
data_Ba2HfZr(NiAs)4
_symmetry_space_group_name_H-M   'P 1'
_cell_length_a   4.06140900
_cell_length_b   8.13611051
_cell_length_c   7.23805072
_cell_angle_alpha   91.93936187
_cell_angle_beta   90.00000000
_cell_angle_gamma   90.00000000
_symmetry_Int_Tables_number   1
_chemical_formula_structural   Ba2HfZr(NiAs)4
_chemical_formula_sum   'Ba2 Hf1 Zr1 Ni4 As4'
_cell_volume   239.03767389
_cell_formula_units_Z   1
loop_
 _symmetry_equiv_pos_site_id
 _symmetry_equiv_pos_as_xyz
  1  'x, y, z'
loop_
 _atom_site_type_symbol
 _atom_site_label
 _atom_site_symmetry_multiplicity
 _atom_site_fract_x
 _atom_site_fract_y
 _atom_site_fract_z
 _atom_site_occupancy
  Ba  Ba0  1  0.250000  0.498687  0.239341  1
  Ba  Ba1  1  0.750000  0.500967  0.758691  1
  Hf  Hf2  1  0.250000  0.990233  0.288546  1
  Zr  Zr3  1  0.750000  0.009272  0.712777  1
  Ni  Ni4  1  0.250000  0.891477  0.932881  1
  Ni  Ni5  1  0.750000  0.108961  0.074916  1
  Ni  Ni6  1  0.750000  0.797446  0.418615  1
  Ni  Ni7  1  0.250000  0.203204  0.576778  1
  As  As8  1  0.250000  0.779636  0.595921  1
  As  As9  1  0.750000  0.220140  0.401934  1
  As  As10  1  0.750000  0.797087  0.088089  1
  As  As11  1  0.250000  0.202889  0.911511  1
