# generated using pymatgen
data_Tb3Er9(TcRh)2
_symmetry_space_group_name_H-M   'P 1'
_cell_length_a   6.30797951
_cell_length_b   7.31622659
_cell_length_c   9.13352900
_cell_angle_alpha   90.00000000
_cell_angle_beta   90.00000000
_cell_angle_gamma   89.95404398
_symmetry_Int_Tables_number   1
_chemical_formula_structural   Tb3Er9(TcRh)2
_chemical_formula_sum   'Tb3 Er9 Tc2 Rh2'
_cell_volume   421.51777537
_cell_formula_units_Z   1
loop_
 _symmetry_equiv_pos_site_id
 _symmetry_equiv_pos_as_xyz
  1  'x, y, z'
loop_
 _atom_site_type_symbol
 _atom_site_label
 _atom_site_symmetry_multiplicity
 _atom_site_fract_x
 _atom_site_fract_y
 _atom_site_fract_z
 _atom_site_occupancy
  Tb  Tb0  1  0.867676  0.960164  0.750000  1
  Tb  Tb1  1  0.367403  0.540064  0.250000  1
  Tb  Tb2  1  0.630682  0.461211  0.750000  1
  Er  Er3  1  0.671159  0.175850  0.065516  1
  Er  Er4  1  0.170444  0.323437  0.935087  1
  Er  Er5  1  0.833062  0.679148  0.438066  1
  Er  Er6  1  0.332316  0.821693  0.561400  1
  Er  Er7  1  0.332316  0.821693  0.938600  1
  Er  Er8  1  0.833062  0.679148  0.061934  1
  Er  Er9  1  0.170444  0.323437  0.564913  1
  Er  Er10  1  0.671159  0.175850  0.434484  1
  Er  Er11  1  0.130642  0.039069  0.250000  1
  Tc  Tc12  1  0.040139  0.612319  0.750000  1
  Tc  Tc13  1  0.539295  0.888211  0.250000  1
  Rh  Rh14  1  0.454810  0.115193  0.750000  1
  Rh  Rh15  1  0.955388  0.383514  0.250000  1
