# generated using pymatgen
data_La10N9
_symmetry_space_group_name_H-M   'P 1'
_cell_length_a   9.94005741
_cell_length_b   9.94005837
_cell_length_c   12.43530405
_cell_angle_alpha   62.88349169
_cell_angle_beta   62.88348963
_cell_angle_gamma   44.32101942
_symmetry_Int_Tables_number   1
_chemical_formula_structural   La10N9
_chemical_formula_sum   'La20 N18'
_cell_volume   747.27986490
_cell_formula_units_Z   2
loop_
 _symmetry_equiv_pos_site_id
 _symmetry_equiv_pos_as_xyz
  1  'x, y, z'
loop_
 _atom_site_type_symbol
 _atom_site_label
 _atom_site_symmetry_multiplicity
 _atom_site_fract_x
 _atom_site_fract_y
 _atom_site_fract_z
 _atom_site_occupancy
  La  La0  1  0.221634  0.480084  0.948296  1
  La  La1  1  0.722613  0.962551  0.958357  1
  La  La2  1  0.560034  0.332864  0.648357  1
  La  La3  1  0.439966  0.667136  0.351643  1
  La  La4  1  0.277387  0.037449  0.041643  1
  La  La5  1  0.082360  0.813455  0.644757  1
  La  La6  1  0.122046  0.372777  0.751139  1
  La  La7  1  0.917640  0.186545  0.355243  1
  La  La8  1  0.962551  0.722613  0.458357  1
  La  La9  1  0.778366  0.519916  0.051704  1
  La  La10  1  0.627223  0.877954  0.748861  1
  La  La11  1  0.813455  0.082360  0.144757  1
  La  La12  1  0.480084  0.221634  0.448296  1
  La  La13  1  0.667136  0.439966  0.851643  1
  La  La14  1  0.519916  0.778366  0.551704  1
  La  La15  1  0.332864  0.560034  0.148357  1
  La  La16  1  0.372777  0.122046  0.251139  1
  La  La17  1  0.186545  0.917640  0.855243  1
  La  La18  1  0.037449  0.277387  0.541643  1
  La  La19  1  0.877954  0.627223  0.248861  1
  N  N20  1  0.077352  0.317957  0.149123  1
  N  N21  1  0.922648  0.682043  0.850877  1
  N  N22  1  0.575609  0.832683  0.143269  1
  N  N23  1  0.776390  0.023948  0.550734  1
  N  N24  1  0.424391  0.167317  0.856731  1
  N  N25  1  0.619671  0.380329  0.250000  1
  N  N26  1  0.280880  0.530222  0.554790  1
  N  N27  1  0.469778  0.719120  0.945210  1
  N  N28  1  0.317957  0.077352  0.649123  1
  N  N29  1  0.167317  0.424391  0.356731  1
  N  N30  1  0.976052  0.223610  0.949266  1
  N  N31  1  0.832683  0.575609  0.643269  1
  N  N32  1  0.023948  0.776390  0.050734  1
  N  N33  1  0.682043  0.922648  0.350877  1
  N  N34  1  0.719120  0.469778  0.445210  1
  N  N35  1  0.530222  0.280880  0.054790  1
  N  N36  1  0.380329  0.619671  0.750000  1
  N  N37  1  0.223610  0.976052  0.449266  1
