# generated using pymatgen
data_Sc4Al3Ga3Tc2
_symmetry_space_group_name_H-M   'P 1'
_cell_length_a   5.30020100
_cell_length_b   5.27183052
_cell_length_c   8.68614900
_cell_angle_alpha   90.00000000
_cell_angle_beta   90.00000000
_cell_angle_gamma   120.17819844
_symmetry_Int_Tables_number   1
_chemical_formula_structural   Sc4Al3Ga3Tc2
_chemical_formula_sum   'Sc4 Al3 Ga3 Tc2'
_cell_volume   209.81138163
_cell_formula_units_Z   1
loop_
 _symmetry_equiv_pos_site_id
 _symmetry_equiv_pos_as_xyz
  1  'x, y, z'
loop_
 _atom_site_type_symbol
 _atom_site_label
 _atom_site_symmetry_multiplicity
 _atom_site_fract_x
 _atom_site_fract_y
 _atom_site_fract_z
 _atom_site_occupancy
  Sc  Sc0  1  0.332968  0.665935  0.048375  1
  Sc  Sc1  1  0.667394  0.334787  0.549931  1
  Sc  Sc2  1  0.332968  0.665935  0.451625  1
  Sc  Sc3  1  0.667394  0.334787  0.950069  1
  Al  Al4  1  0.328561  0.162098  0.250000  1
  Al  Al5  1  0.833538  0.162098  0.250000  1
  Al  Al6  1  0.164287  0.328575  0.750000  1
  Ga  Ga7  1  0.831685  0.663371  0.250000  1
  Ga  Ga8  1  0.165951  0.831372  0.750000  1
  Ga  Ga9  1  0.665421  0.831372  0.750000  1
  Tc  Tc10  1  0.004917  0.009836  0.499769  1
  Tc  Tc11  1  0.004917  0.009836  0.000231  1
