# generated using pymatgen
data_Ba8ReSb(IrO10)2
_symmetry_space_group_name_H-M   'P 1'
_cell_length_a   5.80753000
_cell_length_b   7.50956113
_cell_length_c   11.72846261
_cell_angle_alpha   89.58824380
_cell_angle_beta   90.00000000
_cell_angle_gamma   90.00000000
_symmetry_Int_Tables_number   1
_chemical_formula_structural   Ba8ReSb(IrO10)2
_chemical_formula_sum   'Ba8 Re1 Sb1 Ir2 O20'
_cell_volume   511.48852103
_cell_formula_units_Z   1
loop_
 _symmetry_equiv_pos_site_id
 _symmetry_equiv_pos_as_xyz
  1  'x, y, z'
loop_
 _atom_site_type_symbol
 _atom_site_label
 _atom_site_symmetry_multiplicity
 _atom_site_fract_x
 _atom_site_fract_y
 _atom_site_fract_z
 _atom_site_occupancy
  Ba  Ba0  1  0.750000  0.488349  0.274933  1
  Ba  Ba1  1  0.250000  0.530011  0.717702  1
  Ba  Ba2  1  0.750000  0.976675  0.205455  1
  Ba  Ba3  1  0.250000  0.023093  0.794379  1
  Ba  Ba4  1  0.750000  0.166675  0.588893  1
  Ba  Ba5  1  0.250000  0.819856  0.410796  1
  Ba  Ba6  1  0.750000  0.661074  0.927263  1
  Ba  Ba7  1  0.250000  0.333519  0.074664  1
  Re  Re8  1  0.250000  0.323934  0.439619  1
  Sb  Sb9  1  0.250000  0.825172  0.068168  1
  Ir  Ir10  1  0.750000  0.169755  0.935176  1
  Ir  Ir11  1  0.750000  0.670758  0.558891  1
  O  O12  1  0.481648  0.177942  0.393330  1
  O  O13  1  0.990770  0.822371  0.608633  1
  O  O14  1  0.997652  0.672717  0.123272  1
  O  O15  1  0.508368  0.320746  0.880025  1
  O  O16  1  0.509230  0.822371  0.608633  1
  O  O17  1  0.018352  0.177942  0.393330  1
  O  O18  1  0.991632  0.320746  0.880025  1
  O  O19  1  0.502348  0.672717  0.123272  1
  O  O20  1  0.495898  0.496765  0.499058  1
  O  O21  1  0.004102  0.496765  0.499058  1
  O  O22  1  0.996822  0.001652  0.997425  1
  O  O23  1  0.503178  0.001652  0.997425  1
  O  O24  1  0.750000  0.287597  0.086205  1
  O  O25  1  0.250000  0.714370  0.911943  1
  O  O26  1  0.750000  0.782218  0.405255  1
  O  O27  1  0.250000  0.230202  0.592424  1
  O  O28  1  0.750000  0.030243  0.798190  1
  O  O29  1  0.250000  0.985235  0.200498  1
  O  O30  1  0.750000  0.531175  0.695287  1
  O  O31  1  0.250000  0.465700  0.310777  1
