# generated using pymatgen
data_Er10Al2CoCu
_symmetry_space_group_name_H-M   'P 1'
_cell_length_a   9.34470800
_cell_length_b   9.34470803
_cell_length_c   9.41146500
_cell_angle_alpha   90.00000000
_cell_angle_beta   90.00000000
_cell_angle_gamma   120.19012153
_symmetry_Int_Tables_number   1
_chemical_formula_structural   Er10Al2CoCu
_chemical_formula_sum   'Er20 Al4 Co2 Cu2'
_cell_volume   710.36920459
_cell_formula_units_Z   2
loop_
 _symmetry_equiv_pos_site_id
 _symmetry_equiv_pos_as_xyz
  1  'x, y, z'
loop_
 _atom_site_type_symbol
 _atom_site_label
 _atom_site_symmetry_multiplicity
 _atom_site_fract_x
 _atom_site_fract_y
 _atom_site_fract_z
 _atom_site_occupancy
  Er  Er0  1  0.991317  0.008683  0.532728  1
  Er  Er1  1  0.991317  0.008683  0.967272  1
  Er  Er2  1  0.545511  0.454489  0.250000  1
  Er  Er3  1  0.539117  0.079650  0.250000  1
  Er  Er4  1  0.920350  0.460883  0.250000  1
  Er  Er5  1  0.462086  0.537914  0.750000  1
  Er  Er6  1  0.470923  0.910944  0.750000  1
  Er  Er7  1  0.089056  0.529077  0.750000  1
  Er  Er8  1  0.207706  0.792294  0.440569  1
  Er  Er9  1  0.212027  0.416786  0.435112  1
  Er  Er10  1  0.583214  0.787973  0.435112  1
  Er  Er11  1  0.786693  0.213307  0.560069  1
  Er  Er12  1  0.795736  0.586847  0.565017  1
  Er  Er13  1  0.413153  0.204264  0.565017  1
  Er  Er14  1  0.786693  0.213307  0.939931  1
  Er  Er15  1  0.795736  0.586847  0.934983  1
  Er  Er16  1  0.413153  0.204264  0.934983  1
  Er  Er17  1  0.207706  0.792294  0.059431  1
  Er  Er18  1  0.212027  0.416786  0.064888  1
  Er  Er19  1  0.583214  0.787973  0.064888  1
  Al  Al20  1  0.893582  0.106418  0.250000  1
  Al  Al21  1  0.895248  0.793849  0.250000  1
  Al  Al22  1  0.206151  0.104752  0.250000  1
  Al  Al23  1  0.123855  0.876145  0.750000  1
  Co  Co24  1  0.329348  0.670652  0.250000  1
  Co  Co25  1  0.662908  0.337092  0.750000  1
  Cu  Cu26  1  0.132949  0.250773  0.750000  1
  Cu  Cu27  1  0.749227  0.867051  0.750000  1
