# generated using pymatgen
data_SrDySi7Pd12
_symmetry_space_group_name_H-M   'P 1'
_cell_length_a   10.06718700
_cell_length_b   10.06718616
_cell_length_c   3.86870200
_cell_angle_alpha   90.00000000
_cell_angle_beta   90.00000000
_cell_angle_gamma   119.99999949
_symmetry_Int_Tables_number   1
_chemical_formula_structural   SrDySi7Pd12
_chemical_formula_sum   'Sr1 Dy1 Si7 Pd12'
_cell_volume   339.55657713
_cell_formula_units_Z   1
loop_
 _symmetry_equiv_pos_site_id
 _symmetry_equiv_pos_as_xyz
  1  'x, y, z'
loop_
 _atom_site_type_symbol
 _atom_site_label
 _atom_site_symmetry_multiplicity
 _atom_site_fract_x
 _atom_site_fract_y
 _atom_site_fract_z
 _atom_site_occupancy
  Sr  Sr0  1  0.000000  0.000000  0.749519  1
  Dy  Dy1  1  0.666667  0.333333  0.247620  1
  Si  Si2  1  0.333333  0.666667  0.468252  1
  Si  Si3  1  0.735524  0.780787  0.249154  1
  Si  Si4  1  0.045263  0.264476  0.249154  1
  Si  Si5  1  0.219213  0.954737  0.249154  1
  Si  Si6  1  0.925593  0.550463  0.749027  1
  Si  Si7  1  0.624872  0.074407  0.749027  1
  Si  Si8  1  0.449537  0.375128  0.749027  1
  Pd  Pd9  1  0.770839  0.049362  0.248472  1
  Pd  Pd10  1  0.278523  0.229161  0.248472  1
  Pd  Pd11  1  0.950638  0.721477  0.248472  1
  Pd  Pd12  1  0.891078  0.289848  0.750689  1
  Pd  Pd13  1  0.398769  0.108922  0.750689  1
  Pd  Pd14  1  0.710152  0.601231  0.750689  1
  Pd  Pd15  1  0.479497  0.554272  0.249694  1
  Pd  Pd16  1  0.074773  0.520503  0.249694  1
  Pd  Pd17  1  0.445728  0.925227  0.249694  1
  Pd  Pd18  1  0.189220  0.776901  0.748340  1
  Pd  Pd19  1  0.587681  0.810780  0.748340  1
  Pd  Pd20  1  0.223099  0.412319  0.748340  1
