# generated using pymatgen
data_Yb3SmBi3
_symmetry_space_group_name_H-M   'P 1'
_cell_length_a   8.25140466
_cell_length_b   8.41498405
_cell_length_c   8.41498326
_cell_angle_alpha   109.86164767
_cell_angle_beta   109.07791348
_cell_angle_gamma   109.07791281
_symmetry_Int_Tables_number   1
_chemical_formula_structural   Yb3SmBi3
_chemical_formula_sum   'Yb6 Sm2 Bi6'
_cell_volume   451.95750909
_cell_formula_units_Z   2
loop_
 _symmetry_equiv_pos_site_id
 _symmetry_equiv_pos_as_xyz
  1  'x, y, z'
loop_
 _atom_site_type_symbol
 _atom_site_label
 _atom_site_symmetry_multiplicity
 _atom_site_fract_x
 _atom_site_fract_y
 _atom_site_fract_z
 _atom_site_occupancy
  Yb  Yb0  1  0.500753  0.998305  0.646317  1
  Yb  Yb1  1  0.354436  0.351988  0.353683  1
  Yb  Yb2  1  0.502448  0.001695  0.148012  1
  Yb  Yb3  1  0.002448  0.648012  0.501695  1
  Yb  Yb4  1  0.854436  0.853683  0.851988  1
  Yb  Yb5  1  0.000753  0.146317  0.498305  1
  Sm  Sm6  1  0.140064  0.500000  0.000000  1
  Sm  Sm7  1  0.640064  0.500000  0.000000  1
  Bi  Bi8  1  0.376541  0.624053  0.753272  1
  Bi  Bi9  1  0.876541  0.253272  0.124053  1
  Bi  Bi10  1  0.623269  0.746728  0.370780  1
  Bi  Bi11  1  0.123269  0.870780  0.246728  1
  Bi  Bi12  1  0.252489  0.129220  0.875947  1
  Bi  Bi13  1  0.752489  0.375947  0.629220  1
