# generated using pymatgen
data_Tb6YCrO12
_symmetry_space_group_name_H-M   'P 1'
_cell_length_a   6.67419905
_cell_length_b   6.67420156
_cell_length_c   6.67420000
_cell_angle_alpha   93.51211626
_cell_angle_beta   93.51211758
_cell_angle_gamma   93.51211609
_symmetry_Int_Tables_number   1
_chemical_formula_structural   Tb6YCrO12
_chemical_formula_sum   'Tb6 Y1 Cr1 O12'
_cell_volume   295.55487741
_cell_formula_units_Z   1
loop_
 _symmetry_equiv_pos_site_id
 _symmetry_equiv_pos_as_xyz
  1  'x, y, z'
loop_
 _atom_site_type_symbol
 _atom_site_label
 _atom_site_symmetry_multiplicity
 _atom_site_fract_x
 _atom_site_fract_y
 _atom_site_fract_z
 _atom_site_occupancy
  Tb  Tb0  1  0.738070  0.922983  0.435434  1
  Tb  Tb1  1  0.435434  0.738070  0.922983  1
  Tb  Tb2  1  0.077017  0.564566  0.261930  1
  Tb  Tb3  1  0.922983  0.435434  0.738070  1
  Tb  Tb4  1  0.564566  0.261930  0.077017  1
  Tb  Tb5  1  0.261930  0.077017  0.564566  1
  Y  Y6  1  0.000000  0.000000  0.000000  1
  Cr  Cr7  1  0.500000  0.500000  0.500000  1
  O  O8  1  0.066782  0.906889  0.318807  1
  O  O9  1  0.681193  0.933218  0.093111  1
  O  O10  1  0.462217  0.797024  0.587509  1
  O  O11  1  0.093111  0.681193  0.933218  1
  O  O12  1  0.797024  0.587509  0.462217  1
  O  O13  1  0.412491  0.537783  0.202976  1
  O  O14  1  0.587509  0.462217  0.797024  1
  O  O15  1  0.202976  0.412491  0.537783  1
  O  O16  1  0.906889  0.318807  0.066782  1
  O  O17  1  0.537783  0.202976  0.412491  1
  O  O18  1  0.318807  0.066782  0.906889  1
  O  O19  1  0.933218  0.093111  0.681193  1
