# generated using pymatgen
data_Er15Tm5(Ir3Pt)3
_symmetry_space_group_name_H-M   'P 1'
_cell_length_a   10.85525346
_cell_length_b   10.85488614
_cell_length_c   6.29591000
_cell_angle_alpha   89.98657374
_cell_angle_beta   89.98289614
_cell_angle_gamma   90.24113209
_symmetry_Int_Tables_number   1
_chemical_formula_structural   Er15Tm5(Ir3Pt)3
_chemical_formula_sum   'Er15 Tm5 Ir9 Pt3'
_cell_volume   741.85644568
_cell_formula_units_Z   1
loop_
 _symmetry_equiv_pos_site_id
 _symmetry_equiv_pos_as_xyz
  1  'x, y, z'
loop_
 _atom_site_type_symbol
 _atom_site_label
 _atom_site_symmetry_multiplicity
 _atom_site_fract_x
 _atom_site_fract_y
 _atom_site_fract_z
 _atom_site_occupancy
  Er  Er0  1  0.293678  0.086240  0.371234  1
  Er  Er1  1  0.292934  0.909108  0.876270  1
  Er  Er2  1  0.705396  0.089461  0.873537  1
  Er  Er3  1  0.704350  0.910372  0.372748  1
  Er  Er4  1  0.584483  0.790702  0.877486  1
  Er  Er5  1  0.584869  0.209337  0.377252  1
  Er  Er6  1  0.411364  0.790983  0.377189  1
  Er  Er7  1  0.414761  0.209229  0.877094  1
  Er  Er8  1  0.209273  0.415450  0.622474  1
  Er  Er9  1  0.208981  0.588544  0.122826  1
  Er  Er10  1  0.790740  0.415089  0.122769  1
  Er  Er11  1  0.790780  0.585234  0.622923  1
  Er  Er12  1  0.913813  0.706253  0.128705  1
  Er  Er13  1  0.910581  0.294606  0.626421  1
  Er  Er14  1  0.090893  0.707074  0.623703  1
  Tm  Tm15  1  0.089600  0.295878  0.127125  1
  Tm  Tm16  1  0.001303  0.998108  0.499358  1
  Tm  Tm17  1  0.001937  0.998789  0.000655  1
  Tm  Tm18  1  0.499784  0.499867  0.000434  1
  Tm  Tm19  1  0.500116  0.500204  0.499595  1
  Ir  Ir20  1  0.152290  0.847711  0.250009  1
  Ir  Ir21  1  0.654217  0.345790  0.750015  1
  Ir  Ir22  1  0.654672  0.654254  0.249666  1
  Ir  Ir23  1  0.345576  0.345286  0.250242  1
  Ir  Ir24  1  0.346685  0.653306  0.749991  1
  Ir  Ir25  1  0.500364  0.000050  0.122673  1
  Ir  Ir26  1  0.500273  0.000178  0.624097  1
  Ir  Ir27  1  0.999877  0.499585  0.876059  1
  Ir  Ir28  1  0.000016  0.499501  0.377195  1
  Pt  Pt29  1  0.847249  0.152913  0.249928  1
  Pt  Pt30  1  0.845773  0.846545  0.749899  1
  Pt  Pt31  1  0.153374  0.154350  0.750426  1
