# generated using pymatgen
data_Y7Tm13Cd3Hg3Ru2
_symmetry_space_group_name_H-M   'P 1'
_cell_length_a   9.52582316
_cell_length_b   9.55079430
_cell_length_c   9.68508203
_cell_angle_alpha   89.99999985
_cell_angle_beta   90.07854777
_cell_angle_gamma   120.08675539
_symmetry_Int_Tables_number   1
_chemical_formula_structural   Y7Tm13Cd3Hg3Ru2
_chemical_formula_sum   'Y7 Tm13 Cd3 Hg3 Ru2'
_cell_volume   762.42138676
_cell_formula_units_Z   1
loop_
 _symmetry_equiv_pos_site_id
 _symmetry_equiv_pos_as_xyz
  1  'x, y, z'
loop_
 _atom_site_type_symbol
 _atom_site_label
 _atom_site_symmetry_multiplicity
 _atom_site_fract_x
 _atom_site_fract_y
 _atom_site_fract_z
 _atom_site_occupancy
  Y  Y0  1  0.582014  0.791007  0.060098  1
  Y  Y1  1  0.540010  0.458746  0.250635  1
  Y  Y2  1  0.540010  0.081265  0.250635  1
  Y  Y3  1  0.919631  0.459816  0.250029  1
  Y  Y4  1  0.459612  0.539793  0.749202  1
  Y  Y5  1  0.459612  0.919820  0.749202  1
  Y  Y6  1  0.081115  0.540557  0.749918  1
  Tm  Tm7  1  0.000109  0.000055  0.490787  1
  Tm  Tm8  1  0.001201  0.000601  0.008744  1
  Tm  Tm9  1  0.209390  0.790262  0.439334  1
  Tm  Tm10  1  0.209390  0.419129  0.439334  1
  Tm  Tm11  1  0.580474  0.790238  0.439949  1
  Tm  Tm12  1  0.790304  0.209859  0.559907  1
  Tm  Tm13  1  0.790304  0.580444  0.559907  1
  Tm  Tm14  1  0.419569  0.209784  0.559774  1
  Tm  Tm15  1  0.790733  0.210471  0.939810  1
  Tm  Tm16  1  0.790733  0.580262  0.939810  1
  Tm  Tm17  1  0.419874  0.209937  0.940208  1
  Tm  Tm18  1  0.208848  0.790242  0.060966  1
  Tm  Tm19  1  0.208848  0.418606  0.060966  1
  Cd  Cd20  1  0.111756  0.887043  0.749875  1
  Cd  Cd21  1  0.111756  0.224714  0.749875  1
  Cd  Cd22  1  0.775823  0.887912  0.749647  1
  Hg  Hg23  1  0.881263  0.120272  0.250058  1
  Hg  Hg24  1  0.881263  0.760992  0.250058  1
  Hg  Hg25  1  0.238848  0.119424  0.250066  1
  Ru  Ru26  1  0.331266  0.665633  0.251302  1
  Ru  Ru27  1  0.666240  0.333120  0.749903  1
