# generated using pymatgen
data_CeNd3(ZnIr)4
_symmetry_space_group_name_H-M   'P 1'
_cell_length_a   7.10146355
_cell_length_b   4.14070500
_cell_length_c   8.27631103
_cell_angle_alpha   90.00000000
_cell_angle_beta   90.37153130
_cell_angle_gamma   90.00000000
_symmetry_Int_Tables_number   1
_chemical_formula_structural   CeNd3(ZnIr)4
_chemical_formula_sum   'Ce1 Nd3 Zn4 Ir4'
_cell_volume   243.36035257
_cell_formula_units_Z   1
loop_
 _symmetry_equiv_pos_site_id
 _symmetry_equiv_pos_as_xyz
  1  'x, y, z'
loop_
 _atom_site_type_symbol
 _atom_site_label
 _atom_site_symmetry_multiplicity
 _atom_site_fract_x
 _atom_site_fract_y
 _atom_site_fract_z
 _atom_site_occupancy
  Ce  Ce0  1  0.534194  0.750000  0.685191  1
  Nd  Nd1  1  0.962935  0.250000  0.187066  1
  Nd  Nd2  1  0.467001  0.250000  0.311738  1
  Nd  Nd3  1  0.031954  0.750000  0.813095  1
  Zn  Zn4  1  0.863646  0.250000  0.565875  1
  Zn  Zn5  1  0.355675  0.250000  0.936947  1
  Zn  Zn6  1  0.143316  0.750000  0.435016  1
  Zn  Zn7  1  0.639390  0.750000  0.064642  1
  Ir  Ir8  1  0.727199  0.250000  0.871055  1
  Ir  Ir9  1  0.255238  0.250000  0.621735  1
  Ir  Ir10  1  0.257658  0.750000  0.118217  1
  Ir  Ir11  1  0.761795  0.750000  0.389424  1
