# generated using pymatgen
data_Y4BOs2C3
_symmetry_space_group_name_H-M   'P 1'
_cell_length_a   5.15415700
_cell_length_b   6.57625017
_cell_length_c   9.86285475
_cell_angle_alpha   90.26436479
_cell_angle_beta   90.00000000
_cell_angle_gamma   90.00000000
_symmetry_Int_Tables_number   1
_chemical_formula_structural   Y4BOs2C3
_chemical_formula_sum   'Y8 B2 Os4 C6'
_cell_volume   334.29815806
_cell_formula_units_Z   2
loop_
 _symmetry_equiv_pos_site_id
 _symmetry_equiv_pos_as_xyz
  1  'x, y, z'
loop_
 _atom_site_type_symbol
 _atom_site_label
 _atom_site_symmetry_multiplicity
 _atom_site_fract_x
 _atom_site_fract_y
 _atom_site_fract_z
 _atom_site_occupancy
  Y  Y0  1  0.250000  0.680719  0.549799  1
  Y  Y1  1  0.750000  0.319281  0.450201  1
  Y  Y2  1  0.750000  0.824814  0.052707  1
  Y  Y3  1  0.250000  0.175186  0.947293  1
  Y  Y4  1  0.250000  0.523625  0.211888  1
  Y  Y5  1  0.750000  0.476375  0.788112  1
  Y  Y6  1  0.750000  0.973393  0.715592  1
  Y  Y7  1  0.250000  0.026607  0.284408  1
  B  B8  1  0.250000  0.454137  0.757718  1
  B  B9  1  0.750000  0.545863  0.242282  1
  Os  Os10  1  0.250000  0.728705  0.862679  1
  Os  Os11  1  0.750000  0.271295  0.137321  1
  Os  Os12  1  0.750000  0.785337  0.369377  1
  Os  Os13  1  0.250000  0.214663  0.630623  1
  C  C14  1  0.750000  0.042752  0.260565  1
  C  C15  1  0.250000  0.957248  0.739435  1
  C  C16  1  0.250000  0.821126  0.049462  1
  C  C17  1  0.750000  0.178874  0.950538  1
  C  C18  1  0.750000  0.677041  0.551298  1
  C  C19  1  0.250000  0.322959  0.448702  1
