# generated using pymatgen
data_CeMnAl10Ir
_symmetry_space_group_name_H-M   'P 1'
_cell_length_a   6.85792790
_cell_length_b   6.85792703
_cell_length_c   9.13353300
_cell_angle_alpha   89.88484618
_cell_angle_beta   90.11515686
_cell_angle_gamma   97.38049812
_symmetry_Int_Tables_number   1
_chemical_formula_structural   CeMnAl10Ir
_chemical_formula_sum   'Ce2 Mn2 Al20 Ir2'
_cell_volume   426.00027521
_cell_formula_units_Z   2
loop_
 _symmetry_equiv_pos_site_id
 _symmetry_equiv_pos_as_xyz
  1  'x, y, z'
loop_
 _atom_site_type_symbol
 _atom_site_label
 _atom_site_symmetry_multiplicity
 _atom_site_fract_x
 _atom_site_fract_y
 _atom_site_fract_z
 _atom_site_occupancy
  Ce  Ce0  1  0.875356  0.124644  0.755902  1
  Ce  Ce1  1  0.124644  0.875356  0.244098  1
  Mn  Mn2  1  0.500000  0.000000  0.000000  1
  Mn  Mn3  1  0.000000  0.500000  0.000000  1
  Al  Al4  1  0.588758  0.862324  0.245065  1
  Al  Al5  1  0.778604  0.519637  0.245160  1
  Al  Al6  1  0.160899  0.839101  0.900673  1
  Al  Al7  1  0.411242  0.137676  0.754935  1
  Al  Al8  1  0.625203  0.374797  0.951824  1
  Al  Al9  1  0.842550  0.157450  0.396649  1
  Al  Al10  1  0.773445  0.773445  0.000000  1
  Al  Al11  1  0.862324  0.588758  0.754935  1
  Al  Al12  1  0.839101  0.160899  0.099327  1
  Al  Al13  1  0.221396  0.480363  0.754840  1
  Al  Al14  1  0.157450  0.842550  0.603351  1
  Al  Al15  1  0.776092  0.776092  0.500000  1
  Al  Al16  1  0.480363  0.221396  0.245160  1
  Al  Al17  1  0.622035  0.377965  0.553050  1
  Al  Al18  1  0.223908  0.223908  0.500000  1
  Al  Al19  1  0.377965  0.622035  0.446950  1
  Al  Al20  1  0.137676  0.411242  0.245065  1
  Al  Al21  1  0.519637  0.778604  0.754840  1
  Al  Al22  1  0.374797  0.625203  0.048176  1
  Al  Al23  1  0.226555  0.226555  0.000000  1
  Ir  Ir24  1  0.500000  0.000000  0.500000  1
  Ir  Ir25  1  0.000000  0.500000  0.500000  1
