# generated using pymatgen
data_Ho19Tm(Ga2Bi)4
_symmetry_space_group_name_H-M   'P 1'
_cell_length_a   8.02399900
_cell_length_b   8.02399900
_cell_length_c   13.25400600
_cell_angle_alpha   90.00000000
_cell_angle_beta   90.00000000
_cell_angle_gamma   90.00000000
_symmetry_Int_Tables_number   1
_chemical_formula_structural   Ho19Tm(Ga2Bi)4
_chemical_formula_sum   'Ho19 Tm1 Ga8 Bi4'
_cell_volume   853.35334391
_cell_formula_units_Z   1
loop_
 _symmetry_equiv_pos_site_id
 _symmetry_equiv_pos_as_xyz
  1  'x, y, z'
loop_
 _atom_site_type_symbol
 _atom_site_label
 _atom_site_symmetry_multiplicity
 _atom_site_fract_x
 _atom_site_fract_y
 _atom_site_fract_z
 _atom_site_occupancy
  Ho  Ho0  1  0.000000  0.500000  0.251135  1
  Ho  Ho1  1  0.500000  0.000000  0.248760  1
  Ho  Ho2  1  0.500000  0.000000  0.748858  1
  Ho  Ho3  1  0.654103  0.653253  0.609019  1
  Ho  Ho4  1  0.653774  0.346572  0.108934  1
  Ho  Ho5  1  0.846206  0.846564  0.391018  1
  Ho  Ho6  1  0.153573  0.846239  0.891043  1
  Ho  Ho7  1  0.345897  0.346747  0.609019  1
  Ho  Ho8  1  0.346226  0.653428  0.108934  1
  Ho  Ho9  1  0.153794  0.153436  0.391018  1
  Ho  Ho10  1  0.846427  0.153761  0.891043  1
  Ho  Ho11  1  0.653436  0.346206  0.391018  1
  Ho  Ho12  1  0.346239  0.346427  0.891043  1
  Ho  Ho13  1  0.153253  0.845897  0.609019  1
  Ho  Ho14  1  0.846572  0.846226  0.108934  1
  Ho  Ho15  1  0.346564  0.653794  0.391018  1
  Ho  Ho16  1  0.653761  0.653573  0.891043  1
  Ho  Ho17  1  0.846747  0.154103  0.609019  1
  Ho  Ho18  1  0.153428  0.153774  0.108934  1
  Tm  Tm19  1  0.000000  0.500000  0.751171  1
  Ga  Ga20  1  0.854408  0.853878  0.750016  1
  Ga  Ga21  1  0.854446  0.145723  0.249998  1
  Ga  Ga22  1  0.645723  0.645554  0.249998  1
  Ga  Ga23  1  0.353878  0.645592  0.750016  1
  Ga  Ga24  1  0.145592  0.146122  0.750016  1
  Ga  Ga25  1  0.145554  0.854277  0.249998  1
  Ga  Ga26  1  0.354277  0.354446  0.249998  1
  Ga  Ga27  1  0.646122  0.354408  0.750016  1
  Bi  Bi28  1  0.000000  0.500000  0.501062  1
  Bi  Bi29  1  0.000000  0.500000  0.000250  1
  Bi  Bi30  1  0.500000  0.000000  0.499299  1
  Bi  Bi31  1  0.500000  0.000000  0.999351  1
