# generated using pymatgen
data_YbTh7Ti8(Si4W)4
_symmetry_space_group_name_H-M   'P 1'
_cell_length_a   6.93462048
_cell_length_b   7.16414285
_cell_length_c   13.47337400
_cell_angle_alpha   89.87329429
_cell_angle_beta   89.86418451
_cell_angle_gamma   89.96478233
_symmetry_Int_Tables_number   1
_chemical_formula_structural   YbTh7Ti8(Si4W)4
_chemical_formula_sum   'Yb1 Th7 Ti8 Si16 W4'
_cell_volume   669.36182086
_cell_formula_units_Z   1
loop_
 _symmetry_equiv_pos_site_id
 _symmetry_equiv_pos_as_xyz
  1  'x, y, z'
loop_
 _atom_site_type_symbol
 _atom_site_label
 _atom_site_symmetry_multiplicity
 _atom_site_fract_x
 _atom_site_fract_y
 _atom_site_fract_z
 _atom_site_occupancy
  Yb  Yb0  1  0.998058  0.169458  0.096718  1
  Th  Th1  1  0.501437  0.331379  0.096677  1
  Th  Th2  1  0.000017  0.169021  0.402272  1
  Th  Th3  1  0.500547  0.668096  0.597099  1
  Th  Th4  1  0.999423  0.831175  0.904696  1
  Th  Th5  1  0.499038  0.667965  0.905140  1
  Th  Th6  1  0.001176  0.831584  0.597332  1
  Th  Th7  1  0.498939  0.330020  0.400836  1
  Ti  Ti8  1  0.834245  0.327363  0.626478  1
  Ti  Ti9  1  0.334389  0.173877  0.874546  1
  Ti  Ti10  1  0.169650  0.673608  0.125658  1
  Ti  Ti11  1  0.666873  0.828444  0.372990  1
  Ti  Ti12  1  0.163949  0.672738  0.372996  1
  Ti  Ti13  1  0.663651  0.825235  0.125281  1
  Ti  Ti14  1  0.832591  0.325895  0.875104  1
  Ti  Ti15  1  0.336071  0.173307  0.626065  1
  Si  Si16  1  0.660262  0.045574  0.545137  1
  Si  Si17  1  0.157712  0.452276  0.956521  1
  Si  Si18  1  0.335139  0.959500  0.047266  1
  Si  Si19  1  0.839842  0.545746  0.453666  1
  Si  Si20  1  0.340701  0.953442  0.452980  1
  Si  Si21  1  0.844135  0.540672  0.047466  1
  Si  Si22  1  0.657078  0.043953  0.955684  1
  Si  Si23  1  0.160363  0.454183  0.544781  1
  Si  Si24  1  0.539448  0.362159  0.750872  1
  Si  Si25  1  0.040357  0.138442  0.750982  1
  Si  Si26  1  0.459491  0.638228  0.249997  1
  Si  Si27  1  0.961455  0.865736  0.246920  1
  Si  Si28  1  0.807924  0.609735  0.751261  1
  Si  Si29  1  0.308160  0.889984  0.751194  1
  Si  Si30  1  0.188323  0.386413  0.246107  1
  Si  Si31  1  0.697925  0.110404  0.246842  1
  W  W32  1  0.666521  0.010730  0.751163  1
  W  W33  1  0.166994  0.489195  0.750302  1
  W  W34  1  0.335150  0.990510  0.249725  1
  W  W35  1  0.832965  0.513951  0.251245  1
