# generated using pymatgen
data_ErTh2Sc2(In2Fe)2
_symmetry_space_group_name_H-M   'P 1'
_cell_length_a   3.66207500
_cell_length_b   7.69816800
_cell_length_c   17.17653900
_cell_angle_alpha   90.00000000
_cell_angle_beta   90.00000000
_cell_angle_gamma   90.00000000
_symmetry_Int_Tables_number   1
_chemical_formula_structural   ErTh2Sc2(In2Fe)2
_chemical_formula_sum   'Er2 Th4 Sc4 In8 Fe4'
_cell_volume   484.22842420
_cell_formula_units_Z   2
loop_
 _symmetry_equiv_pos_site_id
 _symmetry_equiv_pos_as_xyz
  1  'x, y, z'
loop_
 _atom_site_type_symbol
 _atom_site_label
 _atom_site_symmetry_multiplicity
 _atom_site_fract_x
 _atom_site_fract_y
 _atom_site_fract_z
 _atom_site_occupancy
  Er  Er0  1  0.000000  0.000000  0.000000  1
  Er  Er1  1  0.000000  0.500000  0.500000  1
  Th  Th2  1  0.000000  0.763275  0.781608  1
  Th  Th3  1  0.000000  0.236725  0.218392  1
  Th  Th4  1  0.000000  0.263275  0.718392  1
  Th  Th5  1  0.000000  0.736725  0.281608  1
  Sc  Sc6  1  0.000000  0.895992  0.591848  1
  Sc  Sc7  1  0.000000  0.104008  0.408152  1
  Sc  Sc8  1  0.000000  0.395992  0.908152  1
  Sc  Sc9  1  0.000000  0.604008  0.091848  1
  In  In10  1  0.500000  0.810175  0.444687  1
  In  In11  1  0.500000  0.189825  0.555313  1
  In  In12  1  0.500000  0.310175  0.055313  1
  In  In13  1  0.500000  0.689825  0.944687  1
  In  In14  1  0.500000  0.901227  0.144144  1
  In  In15  1  0.500000  0.098773  0.855856  1
  In  In16  1  0.500000  0.401227  0.355856  1
  In  In17  1  0.500000  0.598773  0.644144  1
  Fe  Fe18  1  0.500000  0.986037  0.697529  1
  Fe  Fe19  1  0.500000  0.013963  0.302471  1
  Fe  Fe20  1  0.500000  0.486037  0.802471  1
  Fe  Fe21  1  0.500000  0.513963  0.197529  1
