# generated using pymatgen
data_TbDy3(Tc3Ge4)2
_symmetry_space_group_name_H-M   'P 1'
_cell_length_a   8.31145220
_cell_length_b   5.69306460
_cell_length_c   7.01856788
_cell_angle_alpha   76.27633358
_cell_angle_beta   90.01537182
_cell_angle_gamma   89.98403381
_symmetry_Int_Tables_number   1
_chemical_formula_structural   TbDy3(Tc3Ge4)2
_chemical_formula_sum   'Tb1 Dy3 Tc6 Ge8'
_cell_volume   322.62088576
_cell_formula_units_Z   1
loop_
 _symmetry_equiv_pos_site_id
 _symmetry_equiv_pos_as_xyz
  1  'x, y, z'
loop_
 _atom_site_type_symbol
 _atom_site_label
 _atom_site_symmetry_multiplicity
 _atom_site_fract_x
 _atom_site_fract_y
 _atom_site_fract_z
 _atom_site_occupancy
  Tb  Tb0  1  0.555694  0.076383  0.245282  1
  Dy  Dy1  1  0.055593  0.423484  0.754953  1
  Dy  Dy2  1  0.444349  0.923407  0.755031  1
  Dy  Dy3  1  0.944379  0.576519  0.245045  1
  Tc  Tc4  1  0.204861  0.112409  0.115447  1
  Tc  Tc5  1  0.705168  0.387836  0.884276  1
  Tc  Tc6  1  0.794994  0.887638  0.884431  1
  Tc  Tc7  1  0.294957  0.612334  0.115455  1
  Tc  Tc8  1  0.999965  0.000004  0.499976  1
  Tc  Tc9  1  0.499979  0.499900  0.500212  1
  Ge  Ge10  1  0.901527  0.120603  0.126568  1
  Ge  Ge11  1  0.401357  0.379650  0.873133  1
  Ge  Ge12  1  0.098629  0.879402  0.873344  1
  Ge  Ge13  1  0.598640  0.620545  0.126490  1
  Ge  Ge14  1  0.747557  0.222295  0.578338  1
  Ge  Ge15  1  0.247416  0.277955  0.421865  1
  Ge  Ge16  1  0.252399  0.777667  0.421851  1
  Ge  Ge17  1  0.752537  0.721969  0.578303  1
