# generated using pymatgen
data_HfZrNbGa3
_symmetry_space_group_name_H-M   'P 1'
_cell_length_a   5.53928100
_cell_length_b   8.52780300
_cell_length_c   9.21456300
_cell_angle_alpha   90.00000000
_cell_angle_beta   90.00000000
_cell_angle_gamma   90.00000000
_symmetry_Int_Tables_number   1
_chemical_formula_structural   HfZrNbGa3
_chemical_formula_sum   'Hf4 Zr4 Nb4 Ga12'
_cell_volume   435.27657909
_cell_formula_units_Z   4
loop_
 _symmetry_equiv_pos_site_id
 _symmetry_equiv_pos_as_xyz
  1  'x, y, z'
loop_
 _atom_site_type_symbol
 _atom_site_label
 _atom_site_symmetry_multiplicity
 _atom_site_fract_x
 _atom_site_fract_y
 _atom_site_fract_z
 _atom_site_occupancy
  Hf  Hf0  1  0.750000  0.366024  0.181771  1
  Hf  Hf1  1  0.250000  0.633976  0.818229  1
  Hf  Hf2  1  0.750000  0.866024  0.818229  1
  Hf  Hf3  1  0.250000  0.133976  0.181771  1
  Zr  Zr4  1  0.750000  0.468350  0.621064  1
  Zr  Zr5  1  0.250000  0.531650  0.378936  1
  Zr  Zr6  1  0.750000  0.968350  0.378936  1
  Zr  Zr7  1  0.250000  0.031650  0.621064  1
  Nb  Nb8  1  0.000000  0.750000  0.110190  1
  Nb  Nb9  1  0.500000  0.250000  0.889810  1
  Nb  Nb10  1  0.000000  0.250000  0.889810  1
  Nb  Nb11  1  0.500000  0.750000  0.110190  1
  Ga  Ga12  1  0.000000  0.750000  0.572925  1
  Ga  Ga13  1  0.500000  0.250000  0.427075  1
  Ga  Ga14  1  0.000000  0.250000  0.427075  1
  Ga  Ga15  1  0.500000  0.750000  0.572925  1
  Ga  Ga16  1  0.750000  0.044743  0.079978  1
  Ga  Ga17  1  0.250000  0.955257  0.920022  1
  Ga  Ga18  1  0.750000  0.544743  0.920022  1
  Ga  Ga19  1  0.250000  0.455257  0.079978  1
  Ga  Ga20  1  0.750000  0.131371  0.653674  1
  Ga  Ga21  1  0.250000  0.868629  0.346326  1
  Ga  Ga22  1  0.750000  0.631371  0.346326  1
  Ga  Ga23  1  0.250000  0.368629  0.653674  1
