# generated using pymatgen
data_CaEr4Si12Ir19
_symmetry_space_group_name_H-M   'P 1'
_cell_length_a   12.82398100
_cell_length_b   12.82398097
_cell_length_c   3.98248000
_cell_angle_alpha   90.00000000
_cell_angle_beta   90.00000000
_cell_angle_gamma   120.00000266
_symmetry_Int_Tables_number   1
_chemical_formula_structural   CaEr4Si12Ir19
_chemical_formula_sum   'Ca1 Er4 Si12 Ir19'
_cell_volume   567.19181403
_cell_formula_units_Z   1
loop_
 _symmetry_equiv_pos_site_id
 _symmetry_equiv_pos_as_xyz
  1  'x, y, z'
loop_
 _atom_site_type_symbol
 _atom_site_label
 _atom_site_symmetry_multiplicity
 _atom_site_fract_x
 _atom_site_fract_y
 _atom_site_fract_z
 _atom_site_occupancy
  Ca  Ca0  1  0.666667  0.333333  0.000000  1
  Er  Er1  1  0.333333  0.666667  0.000000  1
  Er  Er2  1  0.815331  0.815540  0.500000  1
  Er  Er3  1  0.184460  0.999791  0.500000  1
  Er  Er4  1  0.000209  0.184669  0.500000  1
  Si  Si5  1  0.687250  0.168467  0.500000  1
  Si  Si6  1  0.831533  0.518782  0.500000  1
  Si  Si7  1  0.481218  0.312750  0.500000  1
  Si  Si8  1  0.168242  0.687917  0.500000  1
  Si  Si9  1  0.519674  0.831758  0.500000  1
  Si  Si10  1  0.312083  0.480326  0.500000  1
  Si  Si11  1  0.631924  0.631140  0.000000  1
  Si  Si12  1  0.368860  0.000783  0.000000  1
  Si  Si13  1  0.999217  0.368076  0.000000  1
  Si  Si14  1  0.180998  0.181140  0.000000  1
  Si  Si15  1  0.818860  0.999858  0.000000  1
  Si  Si16  1  0.000142  0.819002  0.000000  1
  Ir  Ir17  1  0.806437  0.181843  0.000000  1
  Ir  Ir18  1  0.818157  0.624594  0.000000  1
  Ir  Ir19  1  0.375406  0.193563  0.000000  1
  Ir  Ir20  1  0.183278  0.806898  0.000000  1
  Ir  Ir21  1  0.623620  0.816722  0.000000  1
  Ir  Ir22  1  0.193102  0.376380  0.000000  1
  Ir  Ir23  1  0.445916  0.447639  0.000000  1
  Ir  Ir24  1  0.552361  0.998277  0.000000  1
  Ir  Ir25  1  0.001723  0.554084  0.000000  1
  Ir  Ir26  1  0.282290  0.282372  0.500000  1
  Ir  Ir27  1  0.717628  0.999918  0.500000  1
  Ir  Ir28  1  0.000082  0.717710  0.500000  1
  Ir  Ir29  1  0.875579  0.360925  0.500000  1
  Ir  Ir30  1  0.639075  0.514656  0.500000  1
  Ir  Ir31  1  0.485344  0.124421  0.500000  1
  Ir  Ir32  1  0.360854  0.871394  0.500000  1
  Ir  Ir33  1  0.510542  0.639146  0.500000  1
  Ir  Ir34  1  0.128606  0.489458  0.500000  1
  Ir  Ir35  1  0.000000  0.000000  0.000000  1
