# generated using pymatgen
data_Ac5Ce(SnIr)6
_symmetry_space_group_name_H-M   'P 1'
_cell_length_a   7.68012900
_cell_length_b   7.67058370
_cell_length_c   8.52361600
_cell_angle_alpha   90.00000000
_cell_angle_beta   90.00000000
_cell_angle_gamma   120.01882304
_symmetry_Int_Tables_number   1
_chemical_formula_structural   Ac5Ce(SnIr)6
_chemical_formula_sum   'Ac5 Ce1 Sn6 Ir6'
_cell_volume   434.77947133
_cell_formula_units_Z   1
loop_
 _symmetry_equiv_pos_site_id
 _symmetry_equiv_pos_as_xyz
  1  'x, y, z'
loop_
 _atom_site_type_symbol
 _atom_site_label
 _atom_site_symmetry_multiplicity
 _atom_site_fract_x
 _atom_site_fract_y
 _atom_site_fract_z
 _atom_site_occupancy
  Ac  Ac0  1  0.417233  0.999797  0.250000  1
  Ac  Ac1  1  0.583694  0.581539  0.750000  1
  Ac  Ac2  1  0.582863  0.586655  0.250000  1
  Ac  Ac3  1  0.995707  0.413162  0.250000  1
  Ac  Ac4  1  0.002141  0.418583  0.750000  1
  Ce  Ce5  1  0.412646  0.000355  0.750000  1
  Sn  Sn6  1  0.244650  0.243261  0.500328  1
  Sn  Sn7  1  0.244650  0.243261  0.999672  1
  Sn  Sn8  1  0.754739  0.999929  0.992067  1
  Sn  Sn9  1  0.001925  0.757223  0.500448  1
  Sn  Sn10  1  0.754739  0.999929  0.507933  1
  Sn  Sn11  1  0.001925  0.757223  0.999552  1
  Ir  Ir12  1  0.654700  0.315946  0.508625  1
  Ir  Ir13  1  0.654700  0.315946  0.991375  1
  Ir  Ir14  1  0.338694  0.683482  0.991524  1
  Ir  Ir15  1  0.338694  0.683482  0.508476  1
  Ir  Ir16  1  0.016778  0.000215  0.750000  1
  Ir  Ir17  1  0.999526  0.000009  0.250000  1
