# generated using pymatgen
data_La3Tb7Y6(CdNi)4
_symmetry_space_group_name_H-M   'P 1'
_cell_length_a   9.67562146
_cell_length_b   9.67082512
_cell_length_c   9.67097885
_cell_angle_alpha   59.87611378
_cell_angle_beta   60.05431202
_cell_angle_gamma   60.05046367
_symmetry_Int_Tables_number   1
_chemical_formula_structural   La3Tb7Y6(CdNi)4
_chemical_formula_sum   'La3 Tb7 Y6 Cd4 Ni4'
_cell_volume   639.78251257
_cell_formula_units_Z   1
loop_
 _symmetry_equiv_pos_site_id
 _symmetry_equiv_pos_as_xyz
  1  'x, y, z'
loop_
 _atom_site_type_symbol
 _atom_site_label
 _atom_site_symmetry_multiplicity
 _atom_site_fract_x
 _atom_site_fract_y
 _atom_site_fract_z
 _atom_site_occupancy
  La  La0  1  0.595498  0.598526  0.598482  1
  La  La1  1  0.595747  0.600548  0.201917  1
  La  La2  1  0.595751  0.201892  0.600534  1
  Tb  Tb3  1  0.195397  0.602961  0.602901  1
  Tb  Tb4  1  0.063694  0.438544  0.438543  1
  Tb  Tb5  1  0.437778  0.064087  0.064126  1
  Tb  Tb6  1  0.438653  0.063824  0.437128  1
  Tb  Tb7  1  0.064230  0.437091  0.062223  1
  Tb  Tb8  1  0.438655  0.437125  0.063842  1
  Tb  Tb9  1  0.064252  0.062223  0.437082  1
  Y  Y10  1  0.187972  0.815624  0.815643  1
  Y  Y11  1  0.815355  0.184578  0.184602  1
  Y  Y12  1  0.816268  0.184928  0.815569  1
  Y  Y13  1  0.185752  0.814318  0.184725  1
  Y  Y14  1  0.816270  0.815558  0.184950  1
  Y  Y15  1  0.185747  0.184710  0.814336  1
  Cd  Cd16  1  0.835971  0.828782  0.828801  1
  Cd  Cd17  1  0.835444  0.829186  0.503293  1
  Cd  Cd18  1  0.835445  0.503269  0.829206  1
  Cd  Cd19  1  0.503935  0.831411  0.831444  1
  Ni  Ni20  1  0.389727  0.392880  0.392842  1
  Ni  Ni21  1  0.387499  0.391612  0.826428  1
  Ni  Ni22  1  0.387458  0.826498  0.391584  1
  Ni  Ni23  1  0.827500  0.389824  0.389800  1
