# generated using pymatgen
data_Li3Pr5Pt4
_symmetry_space_group_name_H-M   'P 1'
_cell_length_a   4.19695600
_cell_length_b   7.44661303
_cell_length_c   8.91336300
_cell_angle_alpha   89.07423124
_cell_angle_beta   90.00000000
_cell_angle_gamma   90.00000000
_symmetry_Int_Tables_number   1
_chemical_formula_structural   Li3Pr5Pt4
_chemical_formula_sum   'Li3 Pr5 Pt4'
_cell_volume   278.53392701
_cell_formula_units_Z   1
loop_
 _symmetry_equiv_pos_site_id
 _symmetry_equiv_pos_as_xyz
  1  'x, y, z'
loop_
 _atom_site_type_symbol
 _atom_site_label
 _atom_site_symmetry_multiplicity
 _atom_site_fract_x
 _atom_site_fract_y
 _atom_site_fract_z
 _atom_site_occupancy
  Li  Li0  1  0.250000  0.152503  0.070724  1
  Li  Li1  1  0.750000  0.376302  0.550482  1
  Li  Li2  1  0.250000  0.627587  0.447076  1
  Pr  Pr3  1  0.750000  0.870402  0.939519  1
  Pr  Pr4  1  0.250000  0.514155  0.804883  1
  Pr  Pr5  1  0.250000  0.055318  0.660682  1
  Pr  Pr6  1  0.750000  0.958182  0.327047  1
  Pr  Pr7  1  0.750000  0.452637  0.192312  1
  Pt  Pt8  1  0.250000  0.731970  0.133249  1
  Pt  Pt9  1  0.250000  0.254117  0.379873  1
  Pt  Pt10  1  0.750000  0.753207  0.615999  1
  Pt  Pt11  1  0.750000  0.253617  0.878153  1
