# generated using pymatgen
data_TbNd2(ZnPt)4
_symmetry_space_group_name_H-M   'P 1'
_cell_length_a   8.34919049
_cell_length_b   8.34919136
_cell_length_c   8.34918991
_cell_angle_alpha   151.72890421
_cell_angle_beta   126.26425532
_cell_angle_gamma   61.82106767
_symmetry_Int_Tables_number   1
_chemical_formula_structural   TbNd2(ZnPt)4
_chemical_formula_sum   'Tb1 Nd2 Zn4 Pt4'
_cell_volume   220.45319086
_cell_formula_units_Z   1
loop_
 _symmetry_equiv_pos_site_id
 _symmetry_equiv_pos_as_xyz
  1  'x, y, z'
loop_
 _atom_site_type_symbol
 _atom_site_label
 _atom_site_symmetry_multiplicity
 _atom_site_fract_x
 _atom_site_fract_y
 _atom_site_fract_z
 _atom_site_occupancy
  Tb  Tb0  1  0.125908  0.125908  0.000000  1
  Nd  Nd1  1  0.499448  0.999448  0.500000  1
  Nd  Nd2  1  0.874671  0.874671  0.000000  1
  Zn  Zn3  1  0.475674  0.674359  0.801316  1
  Zn  Zn4  1  0.873044  0.674359  0.198684  1
  Zn  Zn5  1  0.132172  0.326330  0.805842  1
  Zn  Zn6  1  0.520489  0.326330  0.194158  1
  Pt  Pt7  1  0.276637  0.776637  0.500000  1
  Pt  Pt8  1  0.718828  0.218828  0.500000  1
  Pt  Pt9  1  0.806714  0.501563  0.305150  1
  Pt  Pt10  1  0.196413  0.501563  0.694850  1
