# generated using pymatgen
data_EuNb6GeSe12
_symmetry_space_group_name_H-M   'P 1'
_cell_length_a   6.11405300
_cell_length_b   6.11405220
_cell_length_c   14.89059600
_cell_angle_alpha   90.00000000
_cell_angle_beta   90.00000000
_cell_angle_gamma   120.00000977
_symmetry_Int_Tables_number   1
_chemical_formula_structural   EuNb6GeSe12
_chemical_formula_sum   'Eu1 Nb6 Ge1 Se12'
_cell_volume   482.05990502
_cell_formula_units_Z   1
loop_
 _symmetry_equiv_pos_site_id
 _symmetry_equiv_pos_as_xyz
  1  'x, y, z'
loop_
 _atom_site_type_symbol
 _atom_site_label
 _atom_site_symmetry_multiplicity
 _atom_site_fract_x
 _atom_site_fract_y
 _atom_site_fract_z
 _atom_site_occupancy
  Eu  Eu0  1  0.000000  0.000000  0.000000  1
  Nb  Nb1  1  0.333333  0.666667  0.258675  1
  Nb  Nb2  1  0.000000  0.000000  0.256425  1
  Nb  Nb3  1  0.000000  0.000000  0.743575  1
  Nb  Nb4  1  0.333333  0.666667  0.741325  1
  Nb  Nb5  1  0.666667  0.333333  0.741325  1
  Nb  Nb6  1  0.666667  0.333333  0.258675  1
  Ge  Ge7  1  0.000000  0.000000  0.500000  1
  Se  Se8  1  0.000000  0.666961  0.630500  1
  Se  Se9  1  0.000000  0.660586  0.853994  1
  Se  Se10  1  0.000000  0.339414  0.146006  1
  Se  Se11  1  0.000000  0.333039  0.369500  1
  Se  Se12  1  0.333039  0.333039  0.630500  1
  Se  Se13  1  0.339414  0.339414  0.853994  1
  Se  Se14  1  0.660586  0.660586  0.146006  1
  Se  Se15  1  0.666961  0.666961  0.369500  1
  Se  Se16  1  0.339414  0.000000  0.146006  1
  Se  Se17  1  0.333039  0.000000  0.369500  1
  Se  Se18  1  0.666961  0.000000  0.630500  1
  Se  Se19  1  0.660586  0.000000  0.853994  1
