# generated using pymatgen
data_Pr8Ho9Er3Sn16
_symmetry_space_group_name_H-M   'P 1'
_cell_length_a   8.13386807
_cell_length_b   8.29520507
_cell_length_c   15.65057500
_cell_angle_alpha   90.00000000
_cell_angle_beta   90.00000000
_cell_angle_gamma   90.01467529
_symmetry_Int_Tables_number   1
_chemical_formula_structural   Pr8Ho9Er3Sn16
_chemical_formula_sum   'Pr8 Ho9 Er3 Sn16'
_cell_volume   1055.97718331
_cell_formula_units_Z   1
loop_
 _symmetry_equiv_pos_site_id
 _symmetry_equiv_pos_as_xyz
  1  'x, y, z'
loop_
 _atom_site_type_symbol
 _atom_site_label
 _atom_site_symmetry_multiplicity
 _atom_site_fract_x
 _atom_site_fract_y
 _atom_site_fract_z
 _atom_site_occupancy
  Pr  Pr0  1  0.516995  0.320701  0.902670  1
  Pr  Pr1  1  0.016903  0.179135  0.597359  1
  Pr  Pr2  1  0.483057  0.679205  0.402622  1
  Pr  Pr3  1  0.983085  0.820766  0.097369  1
  Pr  Pr4  1  0.483057  0.679205  0.097378  1
  Pr  Pr5  1  0.983085  0.820766  0.402631  1
  Pr  Pr6  1  0.516995  0.320701  0.597330  1
  Pr  Pr7  1  0.016903  0.179135  0.902641  1
  Ho  Ho8  1  0.364185  0.836264  0.877654  1
  Ho  Ho9  1  0.863998  0.663871  0.622357  1
  Ho  Ho10  1  0.635864  0.163806  0.377631  1
  Ho  Ho11  1  0.135893  0.336219  0.122406  1
  Ho  Ho12  1  0.635864  0.163806  0.122369  1
  Ho  Ho13  1  0.135893  0.336219  0.377594  1
  Ho  Ho14  1  0.364185  0.836264  0.622346  1
  Ho  Ho15  1  0.863998  0.663871  0.877643  1
  Ho  Ho16  1  0.197428  0.503765  0.750000  1
  Er  Er17  1  0.697498  0.996122  0.750000  1
  Er  Er18  1  0.802517  0.496052  0.250000  1
  Er  Er19  1  0.302493  0.004023  0.250000  1
  Sn  Sn20  1  0.300199  0.039999  0.042498  1
  Sn  Sn21  1  0.800219  0.460026  0.457499  1
  Sn  Sn22  1  0.699780  0.959999  0.542453  1
  Sn  Sn23  1  0.199764  0.540024  0.957647  1
  Sn  Sn24  1  0.699780  0.959999  0.957547  1
  Sn  Sn25  1  0.199764  0.540024  0.542353  1
  Sn  Sn26  1  0.300199  0.039999  0.457502  1
  Sn  Sn27  1  0.800219  0.460026  0.042501  1
  Sn  Sn28  1  0.563587  0.624817  0.750000  1
  Sn  Sn29  1  0.063197  0.875438  0.750000  1
  Sn  Sn30  1  0.436820  0.375266  0.250000  1
  Sn  Sn31  1  0.936763  0.124717  0.250000  1
  Sn  Sn32  1  0.325124  0.141073  0.750000  1
  Sn  Sn33  1  0.825078  0.358661  0.750000  1
  Sn  Sn34  1  0.674836  0.858706  0.250000  1
  Sn  Sn35  1  0.174776  0.641333  0.250000  1
