# generated using pymatgen
data_Li4Ca3DySi7Ge
_symmetry_space_group_name_H-M   'P 1'
_cell_length_a   3.81400100
_cell_length_b   7.87853400
_cell_length_c   10.53183755
_cell_angle_alpha   89.90304933
_cell_angle_beta   90.00000000
_cell_angle_gamma   90.00000000
_symmetry_Int_Tables_number   1
_chemical_formula_structural   Li4Ca3DySi7Ge
_chemical_formula_sum   'Li4 Ca3 Dy1 Si7 Ge1'
_cell_volume   316.46795882
_cell_formula_units_Z   1
loop_
 _symmetry_equiv_pos_site_id
 _symmetry_equiv_pos_as_xyz
  1  'x, y, z'
loop_
 _atom_site_type_symbol
 _atom_site_label
 _atom_site_symmetry_multiplicity
 _atom_site_fract_x
 _atom_site_fract_y
 _atom_site_fract_z
 _atom_site_occupancy
  Li  Li0  1  0.250000  0.997428  0.388372  1
  Li  Li1  1  0.750000  0.001159  0.609839  1
  Li  Li2  1  0.250000  0.496291  0.109983  1
  Li  Li3  1  0.750000  0.507642  0.888072  1
  Ca  Ca4  1  0.750000  0.867705  0.136029  1
  Ca  Ca5  1  0.250000  0.634608  0.636712  1
  Ca  Ca6  1  0.750000  0.363339  0.365256  1
  Dy  Dy7  1  0.250000  0.130025  0.865168  1
  Si  Si8  1  0.750000  0.267137  0.060974  1
  Si  Si9  1  0.750000  0.766998  0.432002  1
  Si  Si10  1  0.250000  0.226772  0.573847  1
  Si  Si11  1  0.750000  0.846423  0.821028  1
  Si  Si12  1  0.250000  0.164263  0.169814  1
  Si  Si13  1  0.750000  0.330526  0.682422  1
  Si  Si14  1  0.250000  0.663909  0.324693  1
  Ge  Ge15  1  0.250000  0.735776  0.935788  1
