# generated using pymatgen
data_Tb11CeFeCo3
_symmetry_space_group_name_H-M   'P 1'
_cell_length_a   6.28310362
_cell_length_b   6.91048778
_cell_length_c   9.51975300
_cell_angle_alpha   90.00000000
_cell_angle_beta   90.00000000
_cell_angle_gamma   92.09957039
_symmetry_Int_Tables_number   1
_chemical_formula_structural   Tb11CeFeCo3
_chemical_formula_sum   'Tb11 Ce1 Fe1 Co3'
_cell_volume   413.06362543
_cell_formula_units_Z   1
loop_
 _symmetry_equiv_pos_site_id
 _symmetry_equiv_pos_as_xyz
  1  'x, y, z'
loop_
 _atom_site_type_symbol
 _atom_site_label
 _atom_site_symmetry_multiplicity
 _atom_site_fract_x
 _atom_site_fract_y
 _atom_site_fract_z
 _atom_site_occupancy
  Tb  Tb0  1  0.327026  0.672897  0.064554  1
  Tb  Tb1  1  0.171853  0.175922  0.430233  1
  Tb  Tb2  1  0.678686  0.326143  0.566456  1
  Tb  Tb3  1  0.826433  0.827218  0.931658  1
  Tb  Tb4  1  0.678686  0.326143  0.933544  1
  Tb  Tb5  1  0.826433  0.827218  0.568342  1
  Tb  Tb6  1  0.327026  0.672897  0.435446  1
  Tb  Tb7  1  0.171853  0.175922  0.069767  1
  Tb  Tb8  1  0.632941  0.047956  0.250000  1
  Tb  Tb9  1  0.143081  0.452993  0.750000  1
  Tb  Tb10  1  0.362071  0.956906  0.750000  1
  Ce  Ce11  1  0.860296  0.573580  0.250000  1
  Fe  Fe12  1  0.022695  0.848054  0.250000  1
  Co  Co13  1  0.477116  0.396901  0.250000  1
  Co  Co14  1  0.947811  0.110303  0.750000  1
  Co  Co15  1  0.545998  0.608949  0.750000  1
