# generated using pymatgen
data_Y7Er9(ZnCo)4
_symmetry_space_group_name_H-M   'P 1'
_cell_length_a   9.35117956
_cell_length_b   9.35007373
_cell_length_c   9.33954300
_cell_angle_alpha   60.02283009
_cell_angle_beta   60.02750926
_cell_angle_gamma   60.15164177
_symmetry_Int_Tables_number   1
_chemical_formula_structural   Y7Er9(ZnCo)4
_chemical_formula_sum   'Y7 Er9 Zn4 Co4'
_cell_volume   578.29947898
_cell_formula_units_Z   1
loop_
 _symmetry_equiv_pos_site_id
 _symmetry_equiv_pos_as_xyz
  1  'x, y, z'
loop_
 _atom_site_type_symbol
 _atom_site_label
 _atom_site_symmetry_multiplicity
 _atom_site_fract_x
 _atom_site_fract_y
 _atom_site_fract_z
 _atom_site_occupancy
  Y  Y0  1  0.059432  0.059579  0.440553  1
  Y  Y1  1  0.188778  0.811067  0.811919  1
  Y  Y2  1  0.811086  0.188710  0.188194  1
  Y  Y3  1  0.811121  0.188682  0.812005  1
  Y  Y4  1  0.188825  0.811014  0.188240  1
  Y  Y5  1  0.811380  0.811402  0.188607  1
  Y  Y6  1  0.188445  0.188383  0.811561  1
  Er  Er7  1  0.599610  0.599482  0.599939  1
  Er  Er8  1  0.599452  0.599294  0.201164  1
  Er  Er9  1  0.598717  0.201972  0.599482  1
  Er  Er10  1  0.201868  0.598646  0.599580  1
  Er  Er11  1  0.060011  0.440556  0.439740  1
  Er  Er12  1  0.440579  0.059792  0.059781  1
  Er  Er13  1  0.440516  0.060088  0.439809  1
  Er  Er14  1  0.059709  0.440611  0.059886  1
  Er  Er15  1  0.439836  0.439902  0.060345  1
  Zn  Zn16  1  0.826881  0.827003  0.826459  1
  Zn  Zn17  1  0.826919  0.826844  0.519732  1
  Zn  Zn18  1  0.826989  0.519431  0.826702  1
  Zn  Zn19  1  0.519488  0.827013  0.826693  1
  Co  Co20  1  0.391469  0.391538  0.391947  1
  Co  Co21  1  0.391465  0.391518  0.825106  1
  Co  Co22  1  0.394021  0.823415  0.391283  1
  Co  Co23  1  0.823403  0.394058  0.391273  1
