# generated using pymatgen
data_Nd7Np4PdO24
_symmetry_space_group_name_H-M   'P 1'
_cell_length_a   5.58094846
_cell_length_b   9.50092394
_cell_length_c   10.52187836
_cell_angle_alpha   89.87203554
_cell_angle_beta   91.00483371
_cell_angle_gamma   90.49662345
_symmetry_Int_Tables_number   1
_chemical_formula_structural   Nd7Np4PdO24
_chemical_formula_sum   'Nd7 Np4 Pd1 O24'
_cell_volume   557.80587433
_cell_formula_units_Z   1
loop_
 _symmetry_equiv_pos_site_id
 _symmetry_equiv_pos_as_xyz
  1  'x, y, z'
loop_
 _atom_site_type_symbol
 _atom_site_label
 _atom_site_symmetry_multiplicity
 _atom_site_fract_x
 _atom_site_fract_y
 _atom_site_fract_z
 _atom_site_occupancy
  Nd  Nd0  1  0.957483  0.875585  0.460014  1
  Nd  Nd1  1  0.523394  0.103345  0.962020  1
  Nd  Nd2  1  0.026001  0.401627  0.038170  1
  Nd  Nd3  1  0.960302  0.785433  0.869678  1
  Nd  Nd4  1  0.471590  0.716386  0.135117  1
  Nd  Nd5  1  0.029218  0.277663  0.628098  1
  Nd  Nd6  1  0.546562  0.218186  0.367426  1
  Np  Np7  1  0.447435  0.991391  0.646073  1
  Np  Np8  1  0.977839  0.504303  0.357881  1
  Np  Np9  1  0.533888  0.494280  0.845495  1
  Np  Np10  1  0.043295  0.005086  0.150600  1
  Pd  Pd11  1  0.429920  0.642104  0.598584  1
  O  O12  1  0.247560  0.075669  0.499811  1
  O  O13  1  0.760324  0.407406  0.486656  1
  O  O14  1  0.748224  0.585849  0.991591  1
  O  O15  1  0.248999  0.913989  0.006293  1
  O  O16  1  0.729128  0.106769  0.561584  1
  O  O17  1  0.203701  0.357089  0.424910  1
  O  O18  1  0.266122  0.615321  0.934209  1
  O  O19  1  0.767203  0.883769  0.063103  1
  O  O20  1  0.564630  0.827440  0.529963  1
  O  O21  1  0.143479  0.648204  0.477390  1
  O  O22  1  0.403815  0.341643  0.963237  1
  O  O23  1  0.910030  0.160454  0.032375  1
  O  O24  1  0.192597  0.855393  0.260894  1
  O  O25  1  0.690540  0.647282  0.735608  1
  O  O26  1  0.804813  0.371527  0.234731  1
  O  O27  1  0.324945  0.150839  0.755908  1
  O  O28  1  0.829053  0.043851  0.302764  1
  O  O29  1  0.310107  0.463241  0.685759  1
  O  O30  1  0.202349  0.536782  0.205410  1
  O  O31  1  0.652058  0.946725  0.803118  1
  O  O32  1  0.335077  0.140051  0.178198  1
  O  O33  1  0.820759  0.361946  0.816111  1
  O  O34  1  0.763242  0.665218  0.308179  1
  O  O35  1  0.134317  0.878154  0.683042  1
