# generated using pymatgen
data_Pa3Al3Ir2Os
_symmetry_space_group_name_H-M   'P 1'
_cell_length_a   7.08662300
_cell_length_b   7.08662278
_cell_length_c   4.03088600
_cell_angle_alpha   90.00000000
_cell_angle_beta   90.00000000
_cell_angle_gamma   120.00000570
_symmetry_Int_Tables_number   1
_chemical_formula_structural   Pa3Al3Ir2Os
_chemical_formula_sum   'Pa3 Al3 Ir2 Os1'
_cell_volume   175.31124249
_cell_formula_units_Z   1
loop_
 _symmetry_equiv_pos_site_id
 _symmetry_equiv_pos_as_xyz
  1  'x, y, z'
loop_
 _atom_site_type_symbol
 _atom_site_label
 _atom_site_symmetry_multiplicity
 _atom_site_fract_x
 _atom_site_fract_y
 _atom_site_fract_z
 _atom_site_occupancy
  Pa  Pa0  1  0.420718  0.418069  0.500000  1
  Pa  Pa1  1  0.581931  0.002648  0.500000  1
  Pa  Pa2  1  0.997352  0.579282  0.500000  1
  Al  Al3  1  0.764613  0.763905  0.000000  1
  Al  Al4  1  0.236095  0.000708  0.000000  1
  Al  Al5  1  0.999292  0.235387  0.000000  1
  Ir  Ir6  1  0.333333  0.666667  0.000000  1
  Ir  Ir7  1  0.000000  0.000000  0.500000  1
  Os  Os8  1  0.666667  0.333333  0.000000  1
