# generated using pymatgen
data_Tb5Er11Cd2(InNi2)2
_symmetry_space_group_name_H-M   'P 1'
_cell_length_a   9.47904255
_cell_length_b   9.51796517
_cell_length_c   9.52974881
_cell_angle_alpha   60.19265772
_cell_angle_beta   60.15430123
_cell_angle_gamma   60.10551882
_symmetry_Int_Tables_number   1
_chemical_formula_structural   Tb5Er11Cd2(InNi2)2
_chemical_formula_sum   'Tb5 Er11 Cd2 In2 Ni4'
_cell_volume   610.03633628
_cell_formula_units_Z   1
loop_
 _symmetry_equiv_pos_site_id
 _symmetry_equiv_pos_as_xyz
  1  'x, y, z'
loop_
 _atom_site_type_symbol
 _atom_site_label
 _atom_site_symmetry_multiplicity
 _atom_site_fract_x
 _atom_site_fract_y
 _atom_site_fract_z
 _atom_site_occupancy
  Tb  Tb0  1  0.346350  0.347480  0.349078  1
  Tb  Tb1  1  0.349046  0.350243  0.952659  1
  Tb  Tb2  1  0.350189  0.950722  0.349989  1
  Tb  Tb3  1  0.951514  0.350076  0.349352  1
  Tb  Tb4  1  0.813019  0.189209  0.187429  1
  Er  Er5  1  0.188276  0.812260  0.811634  1
  Er  Er6  1  0.190185  0.811200  0.188131  1
  Er  Er7  1  0.812037  0.188565  0.810742  1
  Er  Er8  1  0.188187  0.187503  0.813029  1
  Er  Er9  1  0.810686  0.810101  0.189640  1
  Er  Er10  1  0.937518  0.565871  0.564385  1
  Er  Er11  1  0.563726  0.937470  0.934160  1
  Er  Er12  1  0.564806  0.937454  0.564664  1
  Er  Er13  1  0.938090  0.564100  0.934231  1
  Er  Er14  1  0.564521  0.565434  0.934989  1
  Er  Er15  1  0.938124  0.937198  0.562038  1
  Cd  Cd16  1  0.580451  0.253094  0.583175  1
  Cd  Cd17  1  0.252935  0.580648  0.582842  1
  In  In18  1  0.581656  0.581836  0.583548  1
  In  In19  1  0.581655  0.582077  0.252943  1
  Ni  Ni20  1  0.142220  0.141286  0.143197  1
  Ni  Ni21  1  0.140688  0.140726  0.574791  1
  Ni  Ni22  1  0.140097  0.575371  0.141660  1
  Ni  Ni23  1  0.574025  0.140078  0.141697  1
