# generated using pymatgen
data_Nd16In4Ir3Pd
_symmetry_space_group_name_H-M   'P 1'
_cell_length_a   9.97248573
_cell_length_b   9.97248544
_cell_length_c   9.97248585
_cell_angle_alpha   60.54409184
_cell_angle_beta   60.54409193
_cell_angle_gamma   60.54409475
_symmetry_Int_Tables_number   1
_chemical_formula_structural   Nd16In4Ir3Pd
_chemical_formula_sum   'Nd16 In4 Ir3 Pd1'
_cell_volume   709.90699130
_cell_formula_units_Z   1
loop_
 _symmetry_equiv_pos_site_id
 _symmetry_equiv_pos_as_xyz
  1  'x, y, z'
loop_
 _atom_site_type_symbol
 _atom_site_label
 _atom_site_symmetry_multiplicity
 _atom_site_fract_x
 _atom_site_fract_y
 _atom_site_fract_z
 _atom_site_occupancy
  Nd  Nd0  1  0.346380  0.346380  0.346380  1
  Nd  Nd1  1  0.353216  0.353216  0.948165  1
  Nd  Nd2  1  0.353216  0.948165  0.353216  1
  Nd  Nd3  1  0.948165  0.353216  0.353216  1
  Nd  Nd4  1  0.802098  0.191521  0.191521  1
  Nd  Nd5  1  0.192074  0.808673  0.808673  1
  Nd  Nd6  1  0.191521  0.802098  0.191521  1
  Nd  Nd7  1  0.808673  0.192074  0.808673  1
  Nd  Nd8  1  0.191521  0.191521  0.802098  1
  Nd  Nd9  1  0.808673  0.808673  0.192074  1
  Nd  Nd10  1  0.942243  0.561686  0.561686  1
  Nd  Nd11  1  0.561989  0.941064  0.941064  1
  Nd  Nd12  1  0.561686  0.942243  0.561686  1
  Nd  Nd13  1  0.941064  0.561989  0.941064  1
  Nd  Nd14  1  0.561686  0.561686  0.942243  1
  Nd  Nd15  1  0.941064  0.941064  0.561989  1
  In  In16  1  0.581040  0.581040  0.581040  1
  In  In17  1  0.580829  0.580829  0.256280  1
  In  In18  1  0.580829  0.256280  0.580829  1
  In  In19  1  0.256280  0.580829  0.580829  1
  Ir  Ir20  1  0.139665  0.139665  0.573429  1
  Ir  Ir21  1  0.139665  0.573429  0.139665  1
  Ir  Ir22  1  0.573429  0.139665  0.139665  1
  Pd  Pd23  1  0.142993  0.142993  0.142993  1
