# generated using pymatgen
data_Y7CoSn23RuRh4
_symmetry_space_group_name_H-M   'P 1'
_cell_length_a   9.85895516
_cell_length_b   9.85794591
_cell_length_c   10.06798696
_cell_angle_alpha   90.14460711
_cell_angle_beta   89.87265428
_cell_angle_gamma   119.98838404
_symmetry_Int_Tables_number   1
_chemical_formula_structural   Y7CoSn23RuRh4
_chemical_formula_sum   'Y7 Co1 Sn23 Ru1 Rh4'
_cell_volume   847.50012354
_cell_formula_units_Z   1
loop_
 _symmetry_equiv_pos_site_id
 _symmetry_equiv_pos_as_xyz
  1  'x, y, z'
loop_
 _atom_site_type_symbol
 _atom_site_label
 _atom_site_symmetry_multiplicity
 _atom_site_fract_x
 _atom_site_fract_y
 _atom_site_fract_z
 _atom_site_occupancy
  Y  Y0  1  0.003682  0.003131  0.995967  1
  Y  Y1  1  0.042242  0.521708  0.307369  1
  Y  Y2  1  0.477942  0.956359  0.307454  1
  Y  Y3  1  0.479543  0.521167  0.307296  1
  Y  Y4  1  0.957763  0.479853  0.692504  1
  Y  Y5  1  0.520134  0.040892  0.692894  1
  Y  Y6  1  0.521884  0.479192  0.691942  1
  Co  Co7  1  0.830921  0.662385  0.198063  1
  Sn  Sn8  1  0.000795  0.001170  0.498300  1
  Sn  Sn9  1  0.111810  0.876141  0.277183  1
  Sn  Sn10  1  0.765275  0.876868  0.277157  1
  Sn  Sn11  1  0.119324  0.239193  0.282963  1
  Sn  Sn12  1  0.880270  0.117948  0.718861  1
  Sn  Sn13  1  0.236596  0.116467  0.719938  1
  Sn  Sn14  1  0.881968  0.762369  0.719207  1
  Sn  Sn15  1  0.349347  0.998739  0.999618  1
  Sn  Sn16  1  0.655288  0.649618  0.004780  1
  Sn  Sn17  1  0.999313  0.352509  0.000403  1
  Sn  Sn18  1  0.353299  0.352696  0.000220  1
  Sn  Sn19  1  0.995589  0.651885  0.003840  1
  Sn  Sn20  1  0.648642  0.000145  0.000229  1
  Sn  Sn21  1  0.780501  0.561215  0.449184  1
  Sn  Sn22  1  0.777918  0.221905  0.454569  1
  Sn  Sn23  1  0.444093  0.222097  0.455139  1
  Sn  Sn24  1  0.222271  0.444404  0.545814  1
  Sn  Sn25  1  0.221012  0.779101  0.545748  1
  Sn  Sn26  1  0.556967  0.778489  0.545325  1
  Sn  Sn27  1  0.668838  0.337764  0.181430  1
  Sn  Sn28  1  0.332076  0.667224  0.819711  1
  Sn  Sn29  1  0.666284  0.332359  0.880400  1
  Sn  Sn30  1  0.333374  0.665741  0.121227  1
  Ru  Ru31  1  0.166281  0.830277  0.802772  1
  Rh  Rh32  1  0.663258  0.829231  0.803281  1
  Rh  Rh33  1  0.168488  0.335741  0.802074  1
  Rh  Rh34  1  0.831530  0.166841  0.198568  1
  Rh  Rh35  1  0.335482  0.167182  0.198571  1
