# generated using pymatgen
data_TlPtF7
_symmetry_space_group_name_H-M   'P 1'
_cell_length_a   5.42053800
_cell_length_b   8.86089761
_cell_length_c   12.04282476
_cell_angle_alpha   62.75513443
_cell_angle_beta   90.00000000
_cell_angle_gamma   90.00000000
_symmetry_Int_Tables_number   1
_chemical_formula_structural   TlPtF7
_chemical_formula_sum   'Tl4 Pt4 F28'
_cell_volume   514.25515694
_cell_formula_units_Z   4
loop_
 _symmetry_equiv_pos_site_id
 _symmetry_equiv_pos_as_xyz
  1  'x, y, z'
loop_
 _atom_site_type_symbol
 _atom_site_label
 _atom_site_symmetry_multiplicity
 _atom_site_fract_x
 _atom_site_fract_y
 _atom_site_fract_z
 _atom_site_occupancy
  Tl  Tl0  1  0.762798  0.814606  0.763072  1
  Tl  Tl1  1  0.262798  0.185394  0.736928  1
  Tl  Tl2  1  0.237202  0.185394  0.236928  1
  Tl  Tl3  1  0.737202  0.814606  0.263072  1
  Pt  Pt4  1  0.760414  0.274563  0.955733  1
  Pt  Pt5  1  0.260414  0.725437  0.544267  1
  Pt  Pt6  1  0.239586  0.725437  0.044267  1
  Pt  Pt7  1  0.739586  0.274563  0.455733  1
  F  F8  1  0.423056  0.694490  0.915979  1
  F  F9  1  0.923056  0.305510  0.584021  1
  F  F10  1  0.576944  0.305510  0.084021  1
  F  F11  1  0.076944  0.694490  0.415979  1
  F  F12  1  0.424976  0.280661  0.535647  1
  F  F13  1  0.924976  0.719339  0.964353  1
  F  F14  1  0.575024  0.719339  0.464353  1
  F  F15  1  0.075024  0.280661  0.035647  1
  F  F16  1  0.785859  0.523531  0.852871  1
  F  F17  1  0.285859  0.476469  0.647129  1
  F  F18  1  0.214141  0.476469  0.147129  1
  F  F19  1  0.714141  0.523531  0.352871  1
  F  F20  1  0.755888  0.026401  0.045875  1
  F  F21  1  0.255888  0.973599  0.454125  1
  F  F22  1  0.244112  0.973599  0.954125  1
  F  F23  1  0.744112  0.026401  0.545875  1
  F  F24  1  0.947143  0.720611  0.628727  1
  F  F25  1  0.447143  0.279389  0.871273  1
  F  F26  1  0.052857  0.279389  0.371273  1
  F  F27  1  0.552857  0.720611  0.128727  1
  F  F28  1  0.068251  0.740237  0.184306  1
  F  F29  1  0.568251  0.259763  0.315694  1
  F  F30  1  0.931749  0.259763  0.815694  1
  F  F31  1  0.431749  0.740237  0.684306  1
  F  F32  1  0.393158  0.963467  0.226181  1
  F  F33  1  0.893158  0.036533  0.273819  1
  F  F34  1  0.606842  0.036533  0.773819  1
  F  F35  1  0.106842  0.963467  0.726181  1
