# generated using pymatgen
data_Dy3Er5Sc12Ga7Si9
_symmetry_space_group_name_H-M   'P 1'
_cell_length_a   7.15378548
_cell_length_b   7.39590284
_cell_length_c   14.24151075
_cell_angle_alpha   90.02772957
_cell_angle_beta   89.93533671
_cell_angle_gamma   90.05809141
_symmetry_Int_Tables_number   1
_chemical_formula_structural   Dy3Er5Sc12Ga7Si9
_chemical_formula_sum   'Dy3 Er5 Sc12 Ga7 Si9'
_cell_volume   753.49889838
_cell_formula_units_Z   1
loop_
 _symmetry_equiv_pos_site_id
 _symmetry_equiv_pos_as_xyz
  1  'x, y, z'
loop_
 _atom_site_type_symbol
 _atom_site_label
 _atom_site_symmetry_multiplicity
 _atom_site_fract_x
 _atom_site_fract_y
 _atom_site_fract_z
 _atom_site_occupancy
  Dy  Dy0  1  0.011838  0.173451  0.099047  1
  Dy  Dy1  1  0.990197  0.823495  0.901438  1
  Dy  Dy2  1  0.488941  0.676861  0.901871  1
  Er  Er3  1  0.989942  0.823178  0.599929  1
  Er  Er4  1  0.509731  0.322394  0.099841  1
  Er  Er5  1  0.009575  0.176491  0.399523  1
  Er  Er6  1  0.510077  0.322529  0.399645  1
  Er  Er7  1  0.490138  0.676908  0.599707  1
  Sc  Sc8  1  0.165740  0.501629  0.749411  1
  Sc  Sc9  1  0.835211  0.499260  0.249995  1
  Sc  Sc10  1  0.334089  0.001139  0.249245  1
  Sc  Sc11  1  0.665088  0.999430  0.749265  1
  Sc  Sc12  1  0.331081  0.172740  0.625522  1
  Sc  Sc13  1  0.667848  0.827504  0.373652  1
  Sc  Sc14  1  0.168268  0.672663  0.373620  1
  Sc  Sc15  1  0.666759  0.825853  0.126745  1
  Sc  Sc16  1  0.831381  0.327214  0.625833  1
  Sc  Sc17  1  0.330861  0.173572  0.874898  1
  Sc  Sc18  1  0.829971  0.327974  0.874154  1
  Sc  Sc19  1  0.172031  0.674585  0.125211  1
  Ga  Ga20  1  0.161965  0.463547  0.539041  1
  Ga  Ga21  1  0.837836  0.536527  0.460461  1
  Ga  Ga22  1  0.337743  0.962806  0.460528  1
  Ga  Ga23  1  0.838553  0.538229  0.040563  1
  Ga  Ga24  1  0.661972  0.036621  0.538997  1
  Ga  Ga25  1  0.160345  0.461431  0.961202  1
  Ga  Ga26  1  0.660709  0.039922  0.961893  1
  Si  Si27  1  0.032957  0.113507  0.750515  1
  Si  Si28  1  0.966669  0.885288  0.249795  1
  Si  Si29  1  0.466430  0.612010  0.249752  1
  Si  Si30  1  0.533201  0.386573  0.749757  1
  Si  Si31  1  0.285662  0.873412  0.750055  1
  Si  Si32  1  0.714197  0.127442  0.249442  1
  Si  Si33  1  0.214046  0.371923  0.249740  1
  Si  Si34  1  0.785432  0.627642  0.749884  1
  Si  Si35  1  0.343515  0.964247  0.039819  1
