# generated using pymatgen
data_Ce6Al24Tc5Pd3
_symmetry_space_group_name_H-M   'P 1'
_cell_length_a   8.97549100
_cell_length_b   8.97107986
_cell_length_c   9.60674481
_cell_angle_alpha   89.05342641
_cell_angle_beta   90.00000000
_cell_angle_gamma   120.01626317
_symmetry_Int_Tables_number   1
_chemical_formula_structural   Ce6Al24Tc5Pd3
_chemical_formula_sum   'Ce6 Al24 Tc5 Pd3'
_cell_volume   669.66804081
_cell_formula_units_Z   1
loop_
 _symmetry_equiv_pos_site_id
 _symmetry_equiv_pos_as_xyz
  1  'x, y, z'
loop_
 _atom_site_type_symbol
 _atom_site_label
 _atom_site_symmetry_multiplicity
 _atom_site_fract_x
 _atom_site_fract_y
 _atom_site_fract_z
 _atom_site_occupancy
  Ce  Ce0  1  0.806917  0.613832  0.741991  1
  Ce  Ce1  1  0.192913  0.807417  0.251164  1
  Ce  Ce2  1  0.614504  0.807417  0.251164  1
  Ce  Ce3  1  0.385496  0.192583  0.748836  1
  Ce  Ce4  1  0.807087  0.192583  0.748836  1
  Ce  Ce5  1  0.193083  0.386168  0.258009  1
  Al  Al6  1  0.331790  0.663581  0.491194  1
  Al  Al7  1  0.665368  0.330735  0.985858  1
  Al  Al8  1  0.668210  0.336419  0.508806  1
  Al  Al9  1  0.334632  0.669265  0.014142  1
  Al  Al10  1  0.161233  0.322467  0.582526  1
  Al  Al11  1  0.677144  0.835950  0.578685  1
  Al  Al12  1  0.158807  0.835950  0.578685  1
  Al  Al13  1  0.835276  0.156760  0.079552  1
  Al  Al14  1  0.841193  0.164050  0.421315  1
  Al  Al15  1  0.839394  0.678788  0.077974  1
  Al  Al16  1  0.321484  0.156760  0.079552  1
  Al  Al17  1  0.678516  0.843240  0.920448  1
  Al  Al18  1  0.160606  0.321212  0.922026  1
  Al  Al19  1  0.838767  0.677533  0.417474  1
  Al  Al20  1  0.000202  0.000403  0.250105  1
  Al  Al21  1  0.999798  0.999597  0.749895  1
  Al  Al22  1  0.563078  0.126157  0.246074  1
  Al  Al23  1  0.436795  0.562875  0.748883  1
  Al  Al24  1  0.126079  0.562875  0.748883  1
  Al  Al25  1  0.873921  0.437125  0.251117  1
  Al  Al26  1  0.563205  0.437125  0.251117  1
  Al  Al27  1  0.436922  0.873843  0.753926  1
  Al  Al28  1  0.164724  0.843240  0.920448  1
  Al  Al29  1  0.322856  0.164050  0.421315  1
  Tc  Tc30  1  0.000000  0.000000  0.500000  1
  Tc  Tc31  1  0.000000  0.000000  0.000000  1
  Tc  Tc32  1  0.000000  0.500000  0.500000  1
  Tc  Tc33  1  0.500000  0.500000  0.500000  1
  Tc  Tc34  1  0.500000  0.000000  0.000000  1
  Pd  Pd35  1  0.500000  0.000000  0.500000  1
  Pd  Pd36  1  0.500000  0.500000  0.000000  1
  Pd  Pd37  1  0.000000  0.500000  0.000000  1
