# generated using pymatgen
data_Zr6Zn19Pd4S
_symmetry_space_group_name_H-M   'P 1'
_cell_length_a   8.78077529
_cell_length_b   8.80688128
_cell_length_c   8.80690002
_cell_angle_alpha   59.99915172
_cell_angle_beta   59.90214478
_cell_angle_gamma   59.90247110
_symmetry_Int_Tables_number   1
_chemical_formula_structural   Zr6Zn19Pd4S
_chemical_formula_sum   'Zr6 Zn19 Pd4 S1'
_cell_volume   480.85864793
_cell_formula_units_Z   1
loop_
 _symmetry_equiv_pos_site_id
 _symmetry_equiv_pos_as_xyz
  1  'x, y, z'
loop_
 _atom_site_type_symbol
 _atom_site_label
 _atom_site_symmetry_multiplicity
 _atom_site_fract_x
 _atom_site_fract_y
 _atom_site_fract_z
 _atom_site_occupancy
  Zr  Zr0  1  0.704281  0.295614  0.295607  1
  Zr  Zr1  1  0.295717  0.704391  0.704384  1
  Zr  Zr2  1  0.295709  0.704399  0.295498  1
  Zr  Zr3  1  0.704294  0.295608  0.704503  1
  Zr  Zr4  1  0.295703  0.295502  0.704397  1
  Zr  Zr5  1  0.704291  0.704506  0.295603  1
  Zn  Zn6  1  0.123968  0.119747  0.119742  1
  Zn  Zn7  1  0.876038  0.880255  0.880251  1
  Zn  Zn8  1  0.123989  0.119714  0.636552  1
  Zn  Zn9  1  0.123989  0.636546  0.119715  1
  Zn  Zn10  1  0.876012  0.880276  0.363457  1
  Zn  Zn11  1  0.876014  0.363450  0.880277  1
  Zn  Zn12  1  0.634002  0.122004  0.122004  1
  Zn  Zn13  1  0.365994  0.877993  0.877995  1
  Zn  Zn14  1  0.999998  0.500002  0.500001  1
  Zn  Zn15  1  0.999998  0.500002  0.000003  1
  Zn  Zn16  1  0.000003  0.999997  0.500002  1
  Zn  Zn17  1  0.333145  0.334679  0.334679  1
  Zn  Zn18  1  0.666848  0.665321  0.665321  1
  Zn  Zn19  1  0.333160  0.334670  0.997490  1
  Zn  Zn20  1  0.333158  0.997496  0.334668  1
  Zn  Zn21  1  0.666842  0.665335  0.002499  1
  Zn  Zn22  1  0.666840  0.002505  0.665335  1
  Zn  Zn23  1  0.997088  0.334308  0.334309  1
  Zn  Zn24  1  0.002919  0.665691  0.665691  1
  Pd  Pd25  1  0.500000  0.999991  0.000010  1
  Pd  Pd26  1  0.500001  0.999998  0.499998  1
  Pd  Pd27  1  0.499998  0.500002  0.000005  1
  Pd  Pd28  1  0.999999  0.999993  0.000007  1
  S  S29  1  0.499999  0.500005  0.499997  1
