# generated using pymatgen
data_Tb3Ho3(Er3Co2)2
_symmetry_space_group_name_H-M   'P 1'
_cell_length_a   6.18183388
_cell_length_b   6.89664624
_cell_length_c   9.36387001
_cell_angle_alpha   89.99866310
_cell_angle_beta   89.70668264
_cell_angle_gamma   89.96947766
_symmetry_Int_Tables_number   1
_chemical_formula_structural   Tb3Ho3(Er3Co2)2
_chemical_formula_sum   'Tb3 Ho3 Er6 Co4'
_cell_volume   399.21321044
_cell_formula_units_Z   1
loop_
 _symmetry_equiv_pos_site_id
 _symmetry_equiv_pos_as_xyz
  1  'x, y, z'
loop_
 _atom_site_type_symbol
 _atom_site_label
 _atom_site_symmetry_multiplicity
 _atom_site_fract_x
 _atom_site_fract_y
 _atom_site_fract_z
 _atom_site_occupancy
  Tb  Tb0  1  0.639141  0.042552  0.250527  1
  Tb  Tb1  1  0.137353  0.457115  0.750100  1
  Tb  Tb2  1  0.362646  0.957090  0.749919  1
  Ho  Ho3  1  0.322900  0.675545  0.431447  1
  Ho  Ho4  1  0.176758  0.175947  0.068284  1
  Ho  Ho5  1  0.860746  0.542569  0.249468  1
  Er  Er6  1  0.325382  0.675241  0.067184  1
  Er  Er7  1  0.174210  0.175564  0.433144  1
  Er  Er8  1  0.674612  0.325086  0.567705  1
  Er  Er9  1  0.825660  0.824674  0.932206  1
  Er  Er10  1  0.675663  0.324263  0.932427  1
  Er  Er11  1  0.824614  0.823837  0.567599  1
  Co  Co12  1  0.050434  0.887695  0.250511  1
  Co  Co13  1  0.449947  0.388340  0.249482  1
  Co  Co14  1  0.948280  0.112241  0.746381  1
  Co  Co15  1  0.551654  0.612245  0.753616  1
