# generated using pymatgen
data_Gd3Dy2TmTa2O14
_symmetry_space_group_name_H-M   'P 1'
_cell_length_a   6.51689750
_cell_length_b   6.49330423
_cell_length_c   7.52158550
_cell_angle_alpha   90.01741476
_cell_angle_beta   89.97693717
_cell_angle_gamma   108.80484762
_symmetry_Int_Tables_number   1
_chemical_formula_structural   Gd3Dy2TmTa2O14
_chemical_formula_sum   'Gd3 Dy2 Tm1 Ta2 O14'
_cell_volume   301.29545809
_cell_formula_units_Z   1
loop_
 _symmetry_equiv_pos_site_id
 _symmetry_equiv_pos_as_xyz
  1  'x, y, z'
loop_
 _atom_site_type_symbol
 _atom_site_label
 _atom_site_symmetry_multiplicity
 _atom_site_fract_x
 _atom_site_fract_y
 _atom_site_fract_z
 _atom_site_occupancy
  Gd  Gd0  1  0.465976  0.000558  0.256022  1
  Gd  Gd1  1  0.472791  0.475082  0.000067  1
  Gd  Gd2  1  0.532082  0.529194  0.500668  1
  Dy  Dy3  1  0.999995  0.465805  0.744125  1
  Dy  Dy4  1  0.535299  0.000289  0.756433  1
  Tm  Tm5  1  0.001425  0.533704  0.244042  1
  Ta  Ta6  1  0.002900  0.002902  0.500364  1
  Ta  Ta7  1  0.997846  0.997620  0.999989  1
  O  O8  1  0.934541  0.069464  0.750139  1
  O  O9  1  0.641607  0.360807  0.749809  1
  O  O10  1  0.309552  0.056167  0.543303  1
  O  O11  1  0.948948  0.688480  0.961252  1
  O  O12  1  0.638716  0.375723  0.248398  1
  O  O13  1  0.924007  0.673344  0.524610  1
  O  O14  1  0.324062  0.080623  0.970633  1
  O  O15  1  0.074692  0.324708  0.031032  1
  O  O16  1  0.673407  0.917875  0.477433  1
  O  O17  1  0.367839  0.630238  0.750036  1
  O  O18  1  0.686345  0.938677  0.035659  1
  O  O19  1  0.049772  0.309202  0.455025  1
  O  O20  1  0.355330  0.637362  0.250917  1
  O  O21  1  0.062870  0.932176  0.250046  1
