# generated using pymatgen
data_Ca6Ti4Al12Ir7
_symmetry_space_group_name_H-M   'P 1'
_cell_length_a   9.01266898
_cell_length_b   9.01266959
_cell_length_c   9.01267000
_cell_angle_alpha   59.99999851
_cell_angle_beta   59.99999626
_cell_angle_gamma   60.00000188
_symmetry_Int_Tables_number   1
_chemical_formula_structural   Ca6Ti4Al12Ir7
_chemical_formula_sum   'Ca6 Ti4 Al12 Ir7'
_cell_volume   517.66086228
_cell_formula_units_Z   1
loop_
 _symmetry_equiv_pos_site_id
 _symmetry_equiv_pos_as_xyz
  1  'x, y, z'
loop_
 _atom_site_type_symbol
 _atom_site_label
 _atom_site_symmetry_multiplicity
 _atom_site_fract_x
 _atom_site_fract_y
 _atom_site_fract_z
 _atom_site_occupancy
  Ca  Ca0  1  0.705885  0.705885  0.294115  1
  Ca  Ca1  1  0.294115  0.705885  0.294115  1
  Ca  Ca2  1  0.705885  0.294115  0.294115  1
  Ca  Ca3  1  0.294115  0.294115  0.705885  1
  Ca  Ca4  1  0.705885  0.294115  0.705885  1
  Ca  Ca5  1  0.294115  0.705885  0.705885  1
  Ti  Ti6  1  0.881132  0.881132  0.356604  1
  Ti  Ti7  1  0.881132  0.356604  0.881132  1
  Ti  Ti8  1  0.356604  0.881132  0.881132  1
  Ti  Ti9  1  0.881132  0.881132  0.881132  1
  Al  Al10  1  0.119196  0.119196  0.642413  1
  Al  Al11  1  0.119196  0.642413  0.119196  1
  Al  Al12  1  0.642413  0.119196  0.119196  1
  Al  Al13  1  0.119196  0.119196  0.119196  1
  Al  Al14  1  0.670995  0.670995  0.987013  1
  Al  Al15  1  0.670995  0.987013  0.670995  1
  Al  Al16  1  0.987013  0.670995  0.670995  1
  Al  Al17  1  0.670995  0.670995  0.670995  1
  Al  Al18  1  0.328506  0.328506  0.014484  1
  Al  Al19  1  0.328506  0.014484  0.328506  1
  Al  Al20  1  0.014484  0.328506  0.328506  1
  Al  Al21  1  0.328506  0.328506  0.328506  1
  Ir  Ir22  1  0.000000  0.000000  0.000000  1
  Ir  Ir23  1  0.998544  0.998544  0.501456  1
  Ir  Ir24  1  0.501456  0.998544  0.501456  1
  Ir  Ir25  1  0.998544  0.501456  0.501456  1
  Ir  Ir26  1  0.501456  0.501456  0.998544  1
  Ir  Ir27  1  0.998544  0.501456  0.998544  1
  Ir  Ir28  1  0.501456  0.998544  0.998544  1
