# generated using pymatgen
data_YHo2In3CuPd2
_symmetry_space_group_name_H-M   'P 1'
_cell_length_a   7.62464615
_cell_length_b   7.59581546
_cell_length_c   3.88073000
_cell_angle_alpha   90.00000000
_cell_angle_beta   90.00000000
_cell_angle_gamma   119.87499771
_symmetry_Int_Tables_number   1
_chemical_formula_structural   YHo2In3CuPd2
_chemical_formula_sum   'Y1 Ho2 In3 Cu1 Pd2'
_cell_volume   194.88742668
_cell_formula_units_Z   1
loop_
 _symmetry_equiv_pos_site_id
 _symmetry_equiv_pos_as_xyz
  1  'x, y, z'
loop_
 _atom_site_type_symbol
 _atom_site_label
 _atom_site_symmetry_multiplicity
 _atom_site_fract_x
 _atom_site_fract_y
 _atom_site_fract_z
 _atom_site_occupancy
  Y  Y0  1  0.000000  0.591732  0.000000  1
  Ho  Ho1  1  0.408487  0.408402  0.000000  1
  Ho  Ho2  1  0.591513  0.999915  0.000000  1
  In  In3  1  0.748851  0.748810  0.500000  1
  In  In4  1  0.000000  0.251873  0.500000  1
  In  In5  1  0.251149  0.999959  0.500000  1
  Cu  Cu6  1  0.000000  0.000531  0.000000  1
  Pd  Pd7  1  0.335926  0.667353  0.500000  1
  Pd  Pd8  1  0.664074  0.331426  0.500000  1
