# generated using pymatgen
data_Ce3Er(Al3Ir)6
_symmetry_space_group_name_H-M   'P 1'
_cell_length_a   7.60931917
_cell_length_b   7.60618189
_cell_length_c   9.45071200
_cell_angle_alpha   90.00000000
_cell_angle_beta   90.00000000
_cell_angle_gamma   119.61728980
_symmetry_Int_Tables_number   1
_chemical_formula_structural   Ce3Er(Al3Ir)6
_chemical_formula_sum   'Ce3 Er1 Al18 Ir6'
_cell_volume   475.52090567
_cell_formula_units_Z   1
loop_
 _symmetry_equiv_pos_site_id
 _symmetry_equiv_pos_as_xyz
  1  'x, y, z'
loop_
 _atom_site_type_symbol
 _atom_site_label
 _atom_site_symmetry_multiplicity
 _atom_site_fract_x
 _atom_site_fract_y
 _atom_site_fract_z
 _atom_site_occupancy
  Ce  Ce0  1  0.003686  0.329464  0.750000  1
  Ce  Ce1  1  0.670383  0.996660  0.250000  1
  Ce  Ce2  1  0.329811  0.004001  0.750000  1
  Er  Er3  1  0.995141  0.671304  0.250000  1
  Al  Al4  1  0.128064  0.127911  0.250000  1
  Al  Al5  1  0.869891  0.868173  0.750000  1
  Al  Al6  1  0.002602  0.337853  0.077158  1
  Al  Al7  1  0.997906  0.664866  0.927192  1
  Al  Al8  1  0.997906  0.664866  0.572808  1
  Al  Al9  1  0.332797  0.000095  0.422870  1
  Al  Al10  1  0.002602  0.337853  0.422842  1
  Al  Al11  1  0.664699  0.996841  0.575181  1
  Al  Al12  1  0.664699  0.996841  0.924819  1
  Al  Al13  1  0.332797  0.000095  0.077130  1
  Al  Al14  1  0.334817  0.334755  0.550007  1
  Al  Al15  1  0.667246  0.665544  0.445813  1
  Al  Al16  1  0.667246  0.665544  0.054187  1
  Al  Al17  1  0.334817  0.334755  0.949993  1
  Al  Al18  1  0.340174  0.549131  0.250000  1
  Al  Al19  1  0.659694  0.453578  0.750000  1
  Al  Al20  1  0.550028  0.342186  0.250000  1
  Al  Al21  1  0.452736  0.657730  0.750000  1
  Ir  Ir22  1  0.672186  0.327483  0.999953  1
  Ir  Ir23  1  0.328030  0.672314  0.999821  1
  Ir  Ir24  1  0.328030  0.672314  0.500179  1
  Ir  Ir25  1  0.672186  0.327483  0.500047  1
  Ir  Ir26  1  0.999913  0.000180  0.999820  1
  Ir  Ir27  1  0.999913  0.000180  0.500180  1
