# generated using pymatgen
data_PPdCl9
_symmetry_space_group_name_H-M   'P 1'
_cell_length_a   7.16553135
_cell_length_b   9.29735571
_cell_length_c   9.82731321
_cell_angle_alpha   101.92789937
_cell_angle_beta   96.50826618
_cell_angle_gamma   95.05507557
_symmetry_Int_Tables_number   1
_chemical_formula_structural   PPdCl9
_chemical_formula_sum   'P2 Pd2 Cl18'
_cell_volume   632.23299715
_cell_formula_units_Z   2
loop_
 _symmetry_equiv_pos_site_id
 _symmetry_equiv_pos_as_xyz
  1  'x, y, z'
loop_
 _atom_site_type_symbol
 _atom_site_label
 _atom_site_symmetry_multiplicity
 _atom_site_fract_x
 _atom_site_fract_y
 _atom_site_fract_z
 _atom_site_occupancy
  P  P0  1  0.548601  0.189944  0.778731  1
  P  P1  1  0.451399  0.810056  0.221269  1
  Pd  Pd2  1  0.893934  0.374621  0.337772  1
  Pd  Pd3  1  0.106066  0.625379  0.662229  1
  Cl  Cl4  1  0.653365  0.890494  0.129669  1
  Cl  Cl5  1  0.346635  0.109506  0.870331  1
  Cl  Cl6  1  0.205067  0.481752  0.454018  1
  Cl  Cl7  1  0.794933  0.518248  0.545982  1
  Cl  Cl8  1  0.083335  0.830435  0.558386  1
  Cl  Cl9  1  0.916665  0.169565  0.441614  1
  Cl  Cl10  1  0.993308  0.758922  0.855864  1
  Cl  Cl11  1  0.006692  0.241078  0.144136  1
  Cl  Cl12  1  0.127608  0.428344  0.778513  1
  Cl  Cl13  1  0.872392  0.571656  0.221487  1
  Cl  Cl14  1  0.416200  0.712212  0.753021  1
  Cl  Cl15  1  0.583800  0.287788  0.246979  1
  Cl  Cl16  1  0.445003  0.201297  0.589381  1
  Cl  Cl17  1  0.554997  0.798703  0.410619  1
  Cl  Cl18  1  0.746598  0.056002  0.767802  1
  Cl  Cl19  1  0.253402  0.943998  0.232198  1
  Cl  Cl20  1  0.657467  0.384372  0.888360  1
  Cl  Cl21  1  0.342533  0.615628  0.111640  1
