# generated using pymatgen
data_Mg2Zn2CuRh
_symmetry_space_group_name_H-M   'P 1'
_cell_length_a   5.17358455
_cell_length_b   5.00468083
_cell_length_c   5.00468074
_cell_angle_alpha   119.37290584
_cell_angle_beta   117.49128095
_cell_angle_gamma   91.79139044
_symmetry_Int_Tables_number   1
_chemical_formula_structural   Mg2Zn2CuRh
_chemical_formula_sum   'Mg2 Zn2 Cu1 Rh1'
_cell_volume   94.44356600
_cell_formula_units_Z   1
loop_
 _symmetry_equiv_pos_site_id
 _symmetry_equiv_pos_as_xyz
  1  'x, y, z'
loop_
 _atom_site_type_symbol
 _atom_site_label
 _atom_site_symmetry_multiplicity
 _atom_site_fract_x
 _atom_site_fract_y
 _atom_site_fract_z
 _atom_site_occupancy
  Mg  Mg0  1  0.106117  0.867023  0.239094  1
  Mg  Mg1  1  0.893883  0.132977  0.760906  1
  Zn  Zn2  1  0.500000  0.500000  0.500000  1
  Zn  Zn3  1  0.500000  0.000000  0.000000  1
  Cu  Cu4  1  0.500000  0.500000  0.000000  1
  Rh  Rh5  1  0.000000  0.500000  0.500000  1
