# generated using pymatgen
data_ErLu11Tc3Ir
_symmetry_space_group_name_H-M   'P 1'
_cell_length_a   6.16319673
_cell_length_b   7.30105123
_cell_length_c   8.91350300
_cell_angle_alpha   90.00000000
_cell_angle_beta   90.00000000
_cell_angle_gamma   90.01683685
_symmetry_Int_Tables_number   1
_chemical_formula_structural   ErLu11Tc3Ir
_chemical_formula_sum   'Er1 Lu11 Tc3 Ir1'
_cell_volume   401.08814272
_cell_formula_units_Z   1
loop_
 _symmetry_equiv_pos_site_id
 _symmetry_equiv_pos_as_xyz
  1  'x, y, z'
loop_
 _atom_site_type_symbol
 _atom_site_label
 _atom_site_symmetry_multiplicity
 _atom_site_fract_x
 _atom_site_fract_y
 _atom_site_fract_z
 _atom_site_occupancy
  Er  Er0  1  0.128889  0.459339  0.750000  1
  Lu  Lu1  1  0.333518  0.676280  0.062928  1
  Lu  Lu2  1  0.162813  0.175072  0.438034  1
  Lu  Lu3  1  0.663977  0.323317  0.560358  1
  Lu  Lu4  1  0.835577  0.825431  0.939347  1
  Lu  Lu5  1  0.663977  0.323317  0.939642  1
  Lu  Lu6  1  0.835577  0.825431  0.560653  1
  Lu  Lu7  1  0.333518  0.676280  0.437072  1
  Lu  Lu8  1  0.162813  0.175072  0.061966  1
  Lu  Lu9  1  0.875219  0.538411  0.250000  1
  Lu  Lu10  1  0.624940  0.037208  0.250000  1
  Lu  Lu11  1  0.373741  0.961615  0.750000  1
  Tc  Tc12  1  0.041362  0.882937  0.250000  1
  Tc  Tc13  1  0.460815  0.385196  0.250000  1
  Tc  Tc14  1  0.959417  0.116884  0.750000  1
  Ir  Ir15  1  0.543847  0.618209  0.750000  1
