# generated using pymatgen
data_Er4CuTcRu6
_symmetry_space_group_name_H-M   'P 1'
_cell_length_a   5.21299201
_cell_length_b   5.35670303
_cell_length_c   8.87920300
_cell_angle_alpha   90.00000000
_cell_angle_beta   90.00000000
_cell_angle_gamma   121.44092813
_symmetry_Int_Tables_number   1
_chemical_formula_structural   Er4CuTcRu6
_chemical_formula_sum   'Er4 Cu1 Tc1 Ru6'
_cell_volume   211.54290781
_cell_formula_units_Z   1
loop_
 _symmetry_equiv_pos_site_id
 _symmetry_equiv_pos_as_xyz
  1  'x, y, z'
loop_
 _atom_site_type_symbol
 _atom_site_label
 _atom_site_symmetry_multiplicity
 _atom_site_fract_x
 _atom_site_fract_y
 _atom_site_fract_z
 _atom_site_occupancy
  Er  Er0  1  0.335268  0.665867  0.433929  1
  Er  Er1  1  0.662693  0.330330  0.564806  1
  Er  Er2  1  0.662693  0.330330  0.935194  1
  Er  Er3  1  0.335268  0.665867  0.066071  1
  Cu  Cu4  1  0.834248  0.169994  0.250000  1
  Tc  Tc5  1  0.662641  0.832738  0.750000  1
  Ru  Ru6  1  0.996798  0.990569  0.498850  1
  Ru  Ru7  1  0.996798  0.990569  0.001150  1
  Ru  Ru8  1  0.823469  0.663842  0.250000  1
  Ru  Ru9  1  0.343367  0.180166  0.250000  1
  Ru  Ru10  1  0.169891  0.832507  0.750000  1
  Ru  Ru11  1  0.176868  0.347221  0.750000  1
