# generated using pymatgen
data_Yb4Re2B16RuW
_symmetry_space_group_name_H-M   'P 1'
_cell_length_a   3.53057900
_cell_length_b   6.01180489
_cell_length_c   11.62707770
_cell_angle_alpha   89.91152900
_cell_angle_beta   90.00000000
_cell_angle_gamma   90.00000000
_symmetry_Int_Tables_number   1
_chemical_formula_structural   Yb4Re2B16RuW
_chemical_formula_sum   'Yb4 Re2 B16 Ru1 W1'
_cell_volume   246.78619840
_cell_formula_units_Z   1
loop_
 _symmetry_equiv_pos_site_id
 _symmetry_equiv_pos_as_xyz
  1  'x, y, z'
loop_
 _atom_site_type_symbol
 _atom_site_label
 _atom_site_symmetry_multiplicity
 _atom_site_fract_x
 _atom_site_fract_y
 _atom_site_fract_z
 _atom_site_occupancy
  Yb  Yb0  1  0.500000  0.628897  0.150924  1
  Yb  Yb1  1  0.500000  0.374721  0.848777  1
  Yb  Yb2  1  0.500000  0.128099  0.351144  1
  Yb  Yb3  1  0.500000  0.871319  0.651174  1
  Re  Re4  1  0.500000  0.630162  0.417508  1
  Re  Re5  1  0.500000  0.370572  0.584343  1
  B  B6  1  0.000000  0.971855  0.193448  1
  B  B7  1  0.000000  0.022700  0.806859  1
  B  B8  1  0.000000  0.476248  0.307912  1
  B  B9  1  0.000000  0.525669  0.693424  1
  B  B10  1  0.000000  0.783926  0.315746  1
  B  B11  1  0.000000  0.213896  0.685590  1
  B  B12  1  0.000000  0.288566  0.187019  1
  B  B13  1  0.000000  0.716850  0.815444  1
  B  B14  1  0.000000  0.865768  0.468784  1
  B  B15  1  0.000000  0.133514  0.532067  1
  B  B16  1  0.000000  0.368590  0.029145  1
  B  B17  1  0.000000  0.635721  0.966180  1
  B  B18  1  0.000000  0.880409  0.044779  1
  B  B19  1  0.000000  0.110899  0.948820  1
  B  B20  1  0.000000  0.384036  0.452800  1
  B  B21  1  0.000000  0.614866  0.548771  1
  Ru  Ru22  1  0.500000  0.870624  0.914982  1
  W  W23  1  0.500000  0.132092  0.084359  1
