# generated using pymatgen
data_Pm4Fe3RhO12
_symmetry_space_group_name_H-M   'P 1'
_cell_length_a   5.46114962
_cell_length_b   5.72600132
_cell_length_c   7.82346758
_cell_angle_alpha   89.68867417
_cell_angle_beta   90.31844690
_cell_angle_gamma   90.08630891
_symmetry_Int_Tables_number   1
_chemical_formula_structural   Pm4Fe3RhO12
_chemical_formula_sum   'Pm4 Fe3 Rh1 O12'
_cell_volume   244.63647683
_cell_formula_units_Z   1
loop_
 _symmetry_equiv_pos_site_id
 _symmetry_equiv_pos_as_xyz
  1  'x, y, z'
loop_
 _atom_site_type_symbol
 _atom_site_label
 _atom_site_symmetry_multiplicity
 _atom_site_fract_x
 _atom_site_fract_y
 _atom_site_fract_z
 _atom_site_occupancy
  Pm  Pm0  1  0.978942  0.063664  0.249737  1
  Pm  Pm1  1  0.513672  0.564824  0.249311  1
  Pm  Pm2  1  0.486329  0.435176  0.750689  1
  Pm  Pm3  1  0.021057  0.936336  0.750263  1
  Fe  Fe4  1  0.000000  0.499999  0.000000  1
  Fe  Fe5  1  0.500000  0.000000  0.500000  1
  Fe  Fe6  1  0.000000  0.499999  0.500000  1
  Rh  Rh7  1  0.500000  0.000000  0.000000  1
  O  O8  1  0.697431  0.303688  0.053010  1
  O  O9  1  0.807329  0.795368  0.054197  1
  O  O10  1  0.098875  0.468042  0.249989  1
  O  O11  1  0.393523  0.966812  0.253173  1
  O  O12  1  0.698678  0.299575  0.447170  1
  O  O13  1  0.800211  0.800058  0.447745  1
  O  O14  1  0.199790  0.199942  0.552256  1
  O  O15  1  0.301323  0.700425  0.552831  1
  O  O16  1  0.606478  0.033188  0.746827  1
  O  O17  1  0.901126  0.531958  0.750011  1
  O  O18  1  0.192672  0.204632  0.945804  1
  O  O19  1  0.302570  0.696312  0.946991  1
