# generated using pymatgen
data_Ta5Nb11Cu2(Ni3N2)2
_symmetry_space_group_name_H-M   'P 1'
_cell_length_a   8.24546352
_cell_length_b   8.25854120
_cell_length_c   8.25586213
_cell_angle_alpha   60.08413236
_cell_angle_beta   60.07751330
_cell_angle_gamma   60.10072283
_symmetry_Int_Tables_number   1
_chemical_formula_structural   Ta5Nb11Cu2(Ni3N2)2
_chemical_formula_sum   'Ta5 Nb11 Cu2 Ni6 N4'
_cell_volume   398.31404782
_cell_formula_units_Z   1
loop_
 _symmetry_equiv_pos_site_id
 _symmetry_equiv_pos_as_xyz
  1  'x, y, z'
loop_
 _atom_site_type_symbol
 _atom_site_label
 _atom_site_symmetry_multiplicity
 _atom_site_fract_x
 _atom_site_fract_y
 _atom_site_fract_z
 _atom_site_occupancy
  Ta  Ta0  1  0.123093  0.622371  0.628044  1
  Ta  Ta1  1  0.622217  0.123288  0.626897  1
  Ta  Ta2  1  0.624554  0.624416  0.120436  1
  Ta  Ta3  1  0.623626  0.624903  0.631269  1
  Ta  Ta4  1  0.433845  0.067961  0.064170  1
  Nb  Nb5  1  0.816517  0.815951  0.183689  1
  Nb  Nb6  1  0.182511  0.182439  0.817156  1
  Nb  Nb7  1  0.817352  0.182943  0.816230  1
  Nb  Nb8  1  0.183088  0.816674  0.183432  1
  Nb  Nb9  1  0.182519  0.817454  0.817141  1
  Nb  Nb10  1  0.818691  0.181350  0.181706  1
  Nb  Nb11  1  0.432269  0.432775  0.067819  1
  Nb  Nb12  1  0.065634  0.065969  0.434434  1
  Nb  Nb13  1  0.433135  0.068328  0.433693  1
  Nb  Nb14  1  0.067887  0.433514  0.065328  1
  Nb  Nb15  1  0.067744  0.433766  0.433960  1
  Cu  Cu16  1  0.745742  0.418951  0.418018  1
  Cu  Cu17  1  0.418586  0.747622  0.416049  1
  Ni  Ni18  1  0.421218  0.419064  0.739706  1
  Ni  Ni19  1  0.420654  0.421522  0.420225  1
  Ni  Ni20  1  0.511362  0.829951  0.830060  1
  Ni  Ni21  1  0.829378  0.511320  0.829554  1
  Ni  Ni22  1  0.829383  0.829034  0.511823  1
  Ni  Ni23  1  0.828111  0.829797  0.830053  1
  N  N24  1  0.622488  0.124384  0.124842  1
  N  N25  1  0.124873  0.624190  0.125593  1
  N  N26  1  0.125315  0.125352  0.623685  1
  N  N27  1  0.128211  0.124707  0.124985  1
