# generated using pymatgen
data_Ho2Tm2Ga12Co
_symmetry_space_group_name_H-M   'P 1'
_cell_length_a   7.39030235
_cell_length_b   7.39030188
_cell_length_c   7.37091304
_cell_angle_alpha   109.46619265
_cell_angle_beta   109.46618958
_cell_angle_gamma   109.58760293
_symmetry_Int_Tables_number   1
_chemical_formula_structural   Ho2Tm2Ga12Co
_chemical_formula_sum   'Ho2 Tm2 Ga12 Co1'
_cell_volume   309.49391478
_cell_formula_units_Z   1
loop_
 _symmetry_equiv_pos_site_id
 _symmetry_equiv_pos_as_xyz
  1  'x, y, z'
loop_
 _atom_site_type_symbol
 _atom_site_label
 _atom_site_symmetry_multiplicity
 _atom_site_fract_x
 _atom_site_fract_y
 _atom_site_fract_z
 _atom_site_occupancy
  Ho  Ho0  1  0.000000  0.000000  0.500000  1
  Ho  Ho1  1  0.500000  0.500000  0.500000  1
  Tm  Tm2  1  0.000000  0.500000  0.000000  1
  Tm  Tm3  1  0.500000  0.000000  0.000000  1
  Ga  Ga4  1  0.750000  0.250000  0.500000  1
  Ga  Ga5  1  0.750018  0.499293  0.249311  1
  Ga  Ga6  1  0.500707  0.249982  0.750689  1
  Ga  Ga7  1  0.249982  0.500707  0.750689  1
  Ga  Ga8  1  0.250000  0.750000  0.500000  1
  Ga  Ga9  1  0.499293  0.750018  0.249311  1
  Ga  Ga10  1  0.717029  0.717029  0.000000  1
  Ga  Ga11  1  0.282886  0.999358  0.282244  1
  Ga  Ga12  1  0.999358  0.282886  0.282244  1
  Ga  Ga13  1  0.282971  0.282971  0.000000  1
  Ga  Ga14  1  0.717114  0.000642  0.717756  1
  Ga  Ga15  1  0.000642  0.717114  0.717756  1
  Co  Co16  1  0.000000  0.000000  0.000000  1
