# generated using pymatgen
data_Pr13Tm7Si15Os
_symmetry_space_group_name_H-M   'P 1'
_cell_length_a   7.56388257
_cell_length_b   7.93626411
_cell_length_c   14.92191500
_cell_angle_alpha   90.03024245
_cell_angle_beta   90.04722961
_cell_angle_gamma   90.17961787
_symmetry_Int_Tables_number   1
_chemical_formula_structural   Pr13Tm7Si15Os
_chemical_formula_sum   'Pr13 Tm7 Si15 Os1'
_cell_volume   895.74235301
_cell_formula_units_Z   1
loop_
 _symmetry_equiv_pos_site_id
 _symmetry_equiv_pos_as_xyz
  1  'x, y, z'
loop_
 _atom_site_type_symbol
 _atom_site_label
 _atom_site_symmetry_multiplicity
 _atom_site_fract_x
 _atom_site_fract_y
 _atom_site_fract_z
 _atom_site_occupancy
  Pr  Pr0  1  0.815840  0.678028  0.376004  1
  Pr  Pr1  1  0.316851  0.821095  0.377838  1
  Pr  Pr2  1  0.815146  0.676079  0.120666  1
  Pr  Pr3  1  0.671656  0.187366  0.875333  1
  Pr  Pr4  1  0.194880  0.324860  0.628529  1
  Pr  Pr5  1  0.523775  0.676797  0.600333  1
  Pr  Pr6  1  0.024241  0.820845  0.901986  1
  Pr  Pr7  1  0.471667  0.315344  0.098396  1
  Pr  Pr8  1  0.975946  0.179916  0.402398  1
  Pr  Pr9  1  0.476705  0.314823  0.402230  1
  Pr  Pr10  1  0.975852  0.181607  0.094775  1
  Pr  Pr11  1  0.518313  0.674657  0.900859  1
  Pr  Pr12  1  0.025255  0.817714  0.598633  1
  Tm  Tm13  1  0.675657  0.184651  0.628366  1
  Tm  Tm14  1  0.192106  0.325777  0.871806  1
  Tm  Tm15  1  0.315390  0.820800  0.123956  1
  Tm  Tm16  1  0.838493  0.511960  0.749344  1
  Tm  Tm17  1  0.354713  0.989986  0.750945  1
  Tm  Tm18  1  0.150121  0.483961  0.249502  1
  Tm  Tm19  1  0.648651  0.014834  0.249161  1
  Si  Si20  1  0.648846  0.976005  0.464803  1
  Si  Si21  1  0.154521  0.529191  0.036647  1
  Si  Si22  1  0.343266  0.026985  0.962641  1
  Si  Si23  1  0.855590  0.466857  0.541291  1
  Si  Si24  1  0.364252  0.026133  0.544078  1
  Si  Si25  1  0.874001  0.470713  0.956039  1
  Si  Si26  1  0.629269  0.969535  0.042213  1
  Si  Si27  1  0.141530  0.524789  0.460381  1
  Si  Si28  1  0.979829  0.100095  0.749603  1
  Si  Si29  1  0.514626  0.601838  0.246472  1
  Si  Si30  1  0.022796  0.901248  0.245903  1
  Si  Si31  1  0.738499  0.878657  0.748314  1
  Si  Si32  1  0.232886  0.632446  0.753615  1
  Si  Si33  1  0.268569  0.125867  0.247126  1
  Si  Si34  1  0.769188  0.368544  0.248866  1
  Os  Os35  1  0.481074  0.400000  0.750947  1
