# generated using pymatgen
data_Dy15ThCd3Co4Hg
_symmetry_space_group_name_H-M   'P 1'
_cell_length_a   9.52383384
_cell_length_b   9.50792802
_cell_length_c   9.52383500
_cell_angle_alpha   59.94464489
_cell_angle_beta   59.99999944
_cell_angle_gamma   59.94464508
_symmetry_Int_Tables_number   1
_chemical_formula_structural   Dy15ThCd3Co4Hg
_chemical_formula_sum   'Dy15 Th1 Cd3 Co4 Hg1'
_cell_volume   609.29930209
_cell_formula_units_Z   1
loop_
 _symmetry_equiv_pos_site_id
 _symmetry_equiv_pos_as_xyz
  1  'x, y, z'
loop_
 _atom_site_type_symbol
 _atom_site_label
 _atom_site_symmetry_multiplicity
 _atom_site_fract_x
 _atom_site_fract_y
 _atom_site_fract_z
 _atom_site_occupancy
  Dy  Dy0  1  0.688047  0.312944  0.688047  1
  Dy  Dy1  1  0.688047  0.312944  0.310962  1
  Dy  Dy2  1  0.936559  0.562193  0.564689  1
  Dy  Dy3  1  0.542294  0.151325  0.153191  1
  Dy  Dy4  1  0.153191  0.151325  0.542294  1
  Dy  Dy5  1  0.936369  0.938578  0.562527  1
  Dy  Dy6  1  0.312703  0.687905  0.312703  1
  Dy  Dy7  1  0.562527  0.938578  0.936369  1
  Dy  Dy8  1  0.562527  0.938578  0.562527  1
  Dy  Dy9  1  0.686689  0.687905  0.312703  1
  Dy  Dy10  1  0.564689  0.562193  0.936559  1
  Dy  Dy11  1  0.936559  0.562193  0.936559  1
  Dy  Dy12  1  0.312703  0.687905  0.686689  1
  Dy  Dy13  1  0.153191  0.151325  0.153191  1
  Dy  Dy14  1  0.310962  0.312944  0.688047  1
  Th  Th15  1  0.157698  0.526906  0.157698  1
  Cd  Cd16  1  0.919317  0.919079  0.919317  1
  Cd  Cd17  1  0.919317  0.919079  0.242288  1
  Cd  Cd18  1  0.242288  0.919079  0.919317  1
  Co  Co19  1  0.356171  0.361855  0.925803  1
  Co  Co20  1  0.358927  0.923222  0.358927  1
  Co  Co21  1  0.925803  0.361855  0.356171  1
  Co  Co22  1  0.356171  0.361855  0.356171  1
  Hg  Hg23  1  0.917255  0.248237  0.917255  1
