# generated using pymatgen
data_Cs3RuO5
_symmetry_space_group_name_H-M   'P 1'
_cell_length_a   8.78939300
_cell_length_b   9.20984200
_cell_length_c   9.89504400
_cell_angle_alpha   90.00000000
_cell_angle_beta   90.00000000
_cell_angle_gamma   90.00000000
_symmetry_Int_Tables_number   1
_chemical_formula_structural   Cs3RuO5
_chemical_formula_sum   'Cs12 Ru4 O20'
_cell_volume   800.99313313
_cell_formula_units_Z   4
loop_
 _symmetry_equiv_pos_site_id
 _symmetry_equiv_pos_as_xyz
  1  'x, y, z'
loop_
 _atom_site_type_symbol
 _atom_site_label
 _atom_site_symmetry_multiplicity
 _atom_site_fract_x
 _atom_site_fract_y
 _atom_site_fract_z
 _atom_site_occupancy
  Cs  Cs0  1  0.250000  0.000000  0.479447  1
  Cs  Cs1  1  0.750000  0.000000  0.520553  1
  Cs  Cs2  1  0.250000  0.500000  0.020553  1
  Cs  Cs3  1  0.750000  0.500000  0.979447  1
  Cs  Cs4  1  0.250000  0.000000  0.020970  1
  Cs  Cs5  1  0.750000  0.000000  0.979030  1
  Cs  Cs6  1  0.250000  0.500000  0.479030  1
  Cs  Cs7  1  0.750000  0.500000  0.520970  1
  Cs  Cs8  1  0.555626  0.250000  0.250000  1
  Cs  Cs9  1  0.444374  0.750000  0.750000  1
  Cs  Cs10  1  0.944374  0.750000  0.250000  1
  Cs  Cs11  1  0.055626  0.250000  0.750000  1
  Ru  Ru12  1  0.009500  0.250000  0.250000  1
  Ru  Ru13  1  0.990500  0.750000  0.750000  1
  Ru  Ru14  1  0.490500  0.750000  0.250000  1
  Ru  Ru15  1  0.509500  0.250000  0.750000  1
  O  O16  1  0.216221  0.250000  0.250000  1
  O  O17  1  0.783779  0.750000  0.750000  1
  O  O18  1  0.283779  0.750000  0.250000  1
  O  O19  1  0.716221  0.250000  0.750000  1
  O  O20  1  0.586858  0.575895  0.250600  1
  O  O21  1  0.413142  0.424105  0.749400  1
  O  O22  1  0.913142  0.424105  0.250600  1
  O  O23  1  0.913142  0.075895  0.249400  1
  O  O24  1  0.086858  0.575895  0.749400  1
  O  O25  1  0.086858  0.924105  0.750600  1
  O  O26  1  0.586858  0.924105  0.249400  1
  O  O27  1  0.413142  0.075895  0.750600  1
  O  O28  1  0.503951  0.249274  0.557874  1
  O  O29  1  0.496049  0.750726  0.442126  1
  O  O30  1  0.996049  0.750726  0.557874  1
  O  O31  1  0.996049  0.749274  0.942126  1
  O  O32  1  0.003951  0.249274  0.442126  1
  O  O33  1  0.003951  0.250726  0.057874  1
  O  O34  1  0.503951  0.250726  0.942126  1
  O  O35  1  0.496049  0.749274  0.057874  1
