# generated using pymatgen
data_SrPd4Pb3O14
_symmetry_space_group_name_H-M   'P 1'
_cell_length_a   7.34349101
_cell_length_b   7.34348907
_cell_length_c   7.34348910
_cell_angle_alpha   60.80717882
_cell_angle_beta   60.80717729
_cell_angle_gamma   60.80717486
_symmetry_Int_Tables_number   1
_chemical_formula_structural   SrPd4Pb3O14
_chemical_formula_sum   'Sr1 Pd4 Pb3 O14'
_cell_volume   285.12005333
_cell_formula_units_Z   1
loop_
 _symmetry_equiv_pos_site_id
 _symmetry_equiv_pos_as_xyz
  1  'x, y, z'
loop_
 _atom_site_type_symbol
 _atom_site_label
 _atom_site_symmetry_multiplicity
 _atom_site_fract_x
 _atom_site_fract_y
 _atom_site_fract_z
 _atom_site_occupancy
  Sr  Sr0  1  0.125000  0.125000  0.125000  1
  Pd  Pd1  1  0.125000  0.625000  0.625000  1
  Pd  Pd2  1  0.625000  0.125000  0.625000  1
  Pd  Pd3  1  0.625000  0.625000  0.125000  1
  Pd  Pd4  1  0.625000  0.625000  0.625000  1
  Pb  Pb5  1  0.625000  0.125000  0.125000  1
  Pb  Pb6  1  0.125000  0.625000  0.125000  1
  Pb  Pb7  1  0.125000  0.125000  0.625000  1
  O  O8  1  0.706838  0.706838  0.294534  1
  O  O9  1  0.293374  0.293374  0.701312  1
  O  O10  1  0.706838  0.294534  0.706838  1
  O  O11  1  0.293374  0.701312  0.293374  1
  O  O12  1  0.294534  0.706838  0.706838  1
  O  O13  1  0.701312  0.293374  0.293374  1
  O  O14  1  0.543162  0.543162  0.955466  1
  O  O15  1  0.956626  0.956626  0.548688  1
  O  O16  1  0.543162  0.955466  0.543162  1
  O  O17  1  0.956626  0.548688  0.956626  1
  O  O18  1  0.955466  0.543162  0.543162  1
  O  O19  1  0.548688  0.956626  0.956626  1
  O  O20  1  0.261235  0.261235  0.261235  1
  O  O21  1  0.988765  0.988765  0.988765  1
