# generated using pymatgen
data_NaSmNiPt3
_symmetry_space_group_name_H-M   'P 1'
_cell_length_a   5.43563037
_cell_length_b   5.43563003
_cell_length_c   5.23368593
_cell_angle_alpha   58.71518567
_cell_angle_beta   58.71517290
_cell_angle_gamma   60.00001386
_symmetry_Int_Tables_number   1
_chemical_formula_structural   NaSmNiPt3
_chemical_formula_sum   'Na1 Sm1 Ni1 Pt3'
_cell_volume   107.17158509
_cell_formula_units_Z   1
loop_
 _symmetry_equiv_pos_site_id
 _symmetry_equiv_pos_as_xyz
  1  'x, y, z'
loop_
 _atom_site_type_symbol
 _atom_site_label
 _atom_site_symmetry_multiplicity
 _atom_site_fract_x
 _atom_site_fract_y
 _atom_site_fract_z
 _atom_site_occupancy
  Na  Na0  1  0.251771  0.251771  0.244687  1
  Sm  Sm1  1  0.000615  0.000615  0.998155  1
  Ni  Ni2  1  0.624702  0.624702  0.125896  1
  Pt  Pt3  1  0.623513  0.125887  0.627088  1
  Pt  Pt4  1  0.125887  0.623513  0.627088  1
  Pt  Pt5  1  0.623513  0.623513  0.627088  1
