# generated using pymatgen
data_Hf3Ga3RuPt2
_symmetry_space_group_name_H-M   'P 1'
_cell_length_a   7.32848300
_cell_length_b   7.32848199
_cell_length_c   6.68620600
_cell_angle_alpha   90.00000000
_cell_angle_beta   90.00000000
_cell_angle_gamma   120.00000905
_symmetry_Int_Tables_number   1
_chemical_formula_structural   Hf3Ga3RuPt2
_chemical_formula_sum   'Hf6 Ga6 Ru2 Pt4'
_cell_volume   310.98429333
_cell_formula_units_Z   2
loop_
 _symmetry_equiv_pos_site_id
 _symmetry_equiv_pos_as_xyz
  1  'x, y, z'
loop_
 _atom_site_type_symbol
 _atom_site_label
 _atom_site_symmetry_multiplicity
 _atom_site_fract_x
 _atom_site_fract_y
 _atom_site_fract_z
 _atom_site_occupancy
  Hf  Hf0  1  0.397090  0.385551  0.250000  1
  Hf  Hf1  1  0.612712  0.010361  0.750000  1
  Hf  Hf2  1  0.397648  0.387288  0.750000  1
  Hf  Hf3  1  0.989639  0.602352  0.750000  1
  Hf  Hf4  1  0.988461  0.602910  0.250000  1
  Hf  Hf5  1  0.614449  0.011539  0.250000  1
  Ga  Ga6  1  0.274862  0.000069  0.999926  1
  Ga  Ga7  1  0.274862  0.000069  0.500074  1
  Ga  Ga8  1  0.999931  0.274794  0.500074  1
  Ga  Ga9  1  0.999931  0.274794  0.999926  1
  Ga  Ga10  1  0.725206  0.725138  0.999926  1
  Ga  Ga11  1  0.725206  0.725138  0.500074  1
  Ru  Ru12  1  0.666667  0.333333  0.500224  1
  Ru  Ru13  1  0.666667  0.333333  0.999776  1
  Pt  Pt14  1  0.000000  0.000000  0.750000  1
  Pt  Pt15  1  0.333333  0.666667  0.001720  1
  Pt  Pt16  1  0.333333  0.666667  0.498280  1
  Pt  Pt17  1  0.000000  0.000000  0.250000  1
