# generated using pymatgen
data_Li3Dy2ErSi2Ag
_symmetry_space_group_name_H-M   'P 1'
_cell_length_a   7.17016508
_cell_length_b   7.19445029
_cell_length_c   4.14507100
_cell_angle_alpha   90.00000000
_cell_angle_beta   90.00000000
_cell_angle_gamma   120.11211110
_symmetry_Int_Tables_number   1
_chemical_formula_structural   Li3Dy2ErSi2Ag
_chemical_formula_sum   'Li3 Dy2 Er1 Si2 Ag1'
_cell_volume   184.96844373
_cell_formula_units_Z   1
loop_
 _symmetry_equiv_pos_site_id
 _symmetry_equiv_pos_as_xyz
  1  'x, y, z'
loop_
 _atom_site_type_symbol
 _atom_site_label
 _atom_site_symmetry_multiplicity
 _atom_site_fract_x
 _atom_site_fract_y
 _atom_site_fract_z
 _atom_site_occupancy
  Li  Li0  1  0.751802  0.751245  0.000000  1
  Li  Li1  1  0.248198  0.999443  0.000000  1
  Li  Li2  1  0.000000  0.249371  0.000000  1
  Dy  Dy3  1  0.427306  0.427558  0.500000  1
  Dy  Dy4  1  0.572694  0.000252  0.500000  1
  Er  Er5  1  0.000000  0.572318  0.500000  1
  Si  Si6  1  0.668163  0.334620  0.000000  1
  Si  Si7  1  0.331837  0.666459  0.000000  1
  Ag  Ag8  1  0.000000  0.998734  0.500000  1
