# generated using pymatgen
data_U3As(PO5)4
_symmetry_space_group_name_H-M   'P 1'
_cell_length_a   5.49610026
_cell_length_b   8.70921444
_cell_length_c   9.24540631
_cell_angle_alpha   101.37552768
_cell_angle_beta   103.32398665
_cell_angle_gamma   96.96560439
_symmetry_Int_Tables_number   1
_chemical_formula_structural   U3As(PO5)4
_chemical_formula_sum   'U3 As1 P4 O20'
_cell_volume   415.67748094
_cell_formula_units_Z   1
loop_
 _symmetry_equiv_pos_site_id
 _symmetry_equiv_pos_as_xyz
  1  'x, y, z'
loop_
 _atom_site_type_symbol
 _atom_site_label
 _atom_site_symmetry_multiplicity
 _atom_site_fract_x
 _atom_site_fract_y
 _atom_site_fract_z
 _atom_site_occupancy
  U  U0  1  0.645776  0.699948  0.956434  1
  U  U1  1  0.355120  0.798750  0.549758  1
  U  U2  1  0.657506  0.207511  0.446708  1
  As  As3  1  0.273281  0.270061  0.036215  1
  P  P4  1  0.094310  0.516695  0.769214  1
  P  P5  1  0.912521  0.476105  0.233808  1
  P  P6  1  0.271160  0.928902  0.175937  1
  P  P7  1  0.717156  0.080264  0.825680  1
  O  O8  1  0.016920  0.127313  0.888181  1
  O  O9  1  0.988084  0.859736  0.101427  1
  O  O10  1  0.973887  0.373584  0.639258  1
  O  O11  1  0.080845  0.612841  0.360232  1
  O  O12  1  0.722098  0.378626  0.292284  1
  O  O13  1  0.278508  0.642676  0.728577  1
  O  O14  1  0.426557  0.825460  0.086131  1
  O  O15  1  0.582877  0.189657  0.912158  1
  O  O16  1  0.426535  0.314132  0.507638  1
  O  O17  1  0.605719  0.697235  0.511077  1
  O  O18  1  0.877866  0.596909  0.823648  1
  O  O19  1  0.073892  0.367974  0.157071  1
  O  O20  1  0.277584  0.482076  0.909782  1
  O  O21  1  0.757427  0.552371  0.107589  1
  O  O22  1  0.876944  0.096035  0.377353  1
  O  O23  1  0.117655  0.904522  0.601982  1
  O  O24  1  0.357865  0.931557  0.346655  1
  O  O25  1  0.648971  0.063340  0.649359  1
  O  O26  1  0.338566  0.106418  0.172519  1
  O  O27  1  0.644368  0.899304  0.833327  1
