# generated using pymatgen
data_CsLiPaSe3
_symmetry_space_group_name_H-M   'P 1'
_cell_length_a   4.22350600
_cell_length_b   8.11094142
_cell_length_c   10.82512000
_cell_angle_alpha   89.99992230
_cell_angle_beta   90.00000000
_cell_angle_gamma   74.90865400
_symmetry_Int_Tables_number   1
_chemical_formula_structural   CsLiPaSe3
_chemical_formula_sum   'Cs2 Li2 Pa2 Se6'
_cell_volume   358.04264796
_cell_formula_units_Z   2
loop_
 _symmetry_equiv_pos_site_id
 _symmetry_equiv_pos_as_xyz
  1  'x, y, z'
loop_
 _atom_site_type_symbol
 _atom_site_label
 _atom_site_symmetry_multiplicity
 _atom_site_fract_x
 _atom_site_fract_y
 _atom_site_fract_z
 _atom_site_occupancy
  Cs  Cs0  1  0.740122  0.519759  0.250063  1
  Cs  Cs1  1  0.259879  0.480241  0.749937  1
  Li  Li2  1  0.464608  0.070787  0.250095  1
  Li  Li3  1  0.535393  0.929214  0.749905  1
  Pa  Pa4  1  0.000000  0.000000  0.000000  1
  Pa  Pa5  1  0.000000  0.000000  0.500000  1
  Se  Se6  1  0.381563  0.236875  0.051546  1
  Se  Se7  1  0.054889  0.890223  0.250215  1
  Se  Se8  1  0.381704  0.236593  0.448663  1
  Se  Se9  1  0.618297  0.763407  0.551337  1
  Se  Se10  1  0.945112  0.109777  0.749785  1
  Se  Se11  1  0.618438  0.763125  0.948454  1
