# generated using pymatgen
data_Ho2Er2Ga18Co5Ni
_symmetry_space_group_name_H-M   'P 1'
_cell_length_a   7.36537967
_cell_length_b   7.36579365
_cell_length_c   9.36512600
_cell_angle_alpha   89.94447289
_cell_angle_beta   89.94336000
_cell_angle_gamma   119.87714456
_symmetry_Int_Tables_number   1
_chemical_formula_structural   Ho2Er2Ga18Co5Ni
_chemical_formula_sum   'Ho2 Er2 Ga18 Co5 Ni1'
_cell_volume   440.54921263
_cell_formula_units_Z   1
loop_
 _symmetry_equiv_pos_site_id
 _symmetry_equiv_pos_as_xyz
  1  'x, y, z'
loop_
 _atom_site_type_symbol
 _atom_site_label
 _atom_site_symmetry_multiplicity
 _atom_site_fract_x
 _atom_site_fract_y
 _atom_site_fract_z
 _atom_site_occupancy
  Ho  Ho0  1  0.502785  0.831542  0.750403  1
  Ho  Ho1  1  0.497215  0.168458  0.249597  1
  Er  Er2  1  0.168462  0.497226  0.249565  1
  Er  Er3  1  0.831538  0.502774  0.750435  1
  Ga  Ga4  1  0.163555  0.948367  0.750039  1
  Ga  Ga5  1  0.836445  0.051633  0.249961  1
  Ga  Ga6  1  0.051572  0.836338  0.249962  1
  Ga  Ga7  1  0.948428  0.163662  0.750038  1
  Ga  Ga8  1  0.620742  0.620792  0.248938  1
  Ga  Ga9  1  0.379258  0.379208  0.751062  1
  Ga  Ga10  1  0.167000  0.167057  0.058812  1
  Ga  Ga11  1  0.834767  0.834712  0.559405  1
  Ga  Ga12  1  0.833000  0.832943  0.941188  1
  Ga  Ga13  1  0.165233  0.165288  0.440595  1
  Ga  Ga14  1  0.499000  0.834125  0.072878  1
  Ga  Ga15  1  0.501020  0.164483  0.573683  1
  Ga  Ga16  1  0.165737  0.500933  0.927175  1
  Ga  Ga17  1  0.835652  0.499041  0.426366  1
  Ga  Ga18  1  0.501000  0.165875  0.927122  1
  Ga  Ga19  1  0.498980  0.835517  0.426317  1
  Ga  Ga20  1  0.834263  0.499067  0.072825  1
  Ga  Ga21  1  0.164348  0.500959  0.573634  1
  Co  Co22  1  0.171153  0.828825  0.999998  1
  Co  Co23  1  0.500000  0.500000  0.000000  1
  Co  Co24  1  0.828868  0.171155  0.499998  1
  Co  Co25  1  0.828847  0.171175  0.000002  1
  Co  Co26  1  0.171132  0.828845  0.500002  1
  Ni  Ni27  1  0.500000  0.500000  0.500000  1
