# generated using pymatgen
data_La8Yb11DyPb16
_symmetry_space_group_name_H-M   'P 1'
_cell_length_a   8.07573976
_cell_length_b   8.63277163
_cell_length_c   16.25271100
_cell_angle_alpha   90.05484825
_cell_angle_beta   90.07942634
_cell_angle_gamma   89.95481226
_symmetry_Int_Tables_number   1
_chemical_formula_structural   La8Yb11DyPb16
_chemical_formula_sum   'La8 Yb11 Dy1 Pb16'
_cell_volume   1133.07231888
_cell_formula_units_Z   1
loop_
 _symmetry_equiv_pos_site_id
 _symmetry_equiv_pos_as_xyz
  1  'x, y, z'
loop_
 _atom_site_type_symbol
 _atom_site_label
 _atom_site_symmetry_multiplicity
 _atom_site_fract_x
 _atom_site_fract_y
 _atom_site_fract_z
 _atom_site_occupancy
  La  La0  1  0.501006  0.684033  0.595193  1
  La  La1  1  0.002113  0.813862  0.905641  1
  La  La2  1  0.498751  0.313836  0.095486  1
  La  La3  1  0.999174  0.186298  0.404344  1
  La  La4  1  0.497844  0.314549  0.404156  1
  La  La5  1  0.998866  0.186188  0.095259  1
  La  La6  1  0.501415  0.685021  0.904733  1
  La  La7  1  0.001550  0.813480  0.594000  1
  Yb  Yb8  1  0.166559  0.334061  0.877133  1
  Yb  Yb9  1  0.333677  0.833987  0.123047  1
  Yb  Yb10  1  0.834350  0.665763  0.377196  1
  Yb  Yb11  1  0.333045  0.833815  0.376932  1
  Yb  Yb12  1  0.833799  0.665993  0.123013  1
  Yb  Yb13  1  0.666012  0.165743  0.877059  1
  Yb  Yb14  1  0.166270  0.333837  0.622357  1
  Yb  Yb15  1  0.836370  0.495388  0.750408  1
  Yb  Yb16  1  0.334613  0.004293  0.750659  1
  Yb  Yb17  1  0.164144  0.505493  0.249894  1
  Yb  Yb18  1  0.664067  0.994887  0.250136  1
  Dy  Dy19  1  0.665423  0.167869  0.623644  1
  Pb  Pb20  1  0.678829  0.962484  0.460710  1
  Pb  Pb21  1  0.177559  0.538420  0.040738  1
  Pb  Pb22  1  0.323464  0.038057  0.959096  1
  Pb  Pb23  1  0.819401  0.460020  0.541271  1
  Pb  Pb24  1  0.325889  0.039285  0.541984  1
  Pb  Pb25  1  0.822675  0.461451  0.958981  1
  Pb  Pb26  1  0.676953  0.961587  0.040841  1
  Pb  Pb27  1  0.178601  0.538810  0.459240  1
  Pb  Pb28  1  0.469274  0.388170  0.750144  1
  Pb  Pb29  1  0.966102  0.111479  0.747879  1
  Pb  Pb30  1  0.531437  0.609811  0.250090  1
  Pb  Pb31  1  0.031535  0.890843  0.249826  1
  Pb  Pb32  1  0.704505  0.855200  0.748735  1
  Pb  Pb33  1  0.204501  0.645896  0.749431  1
  Pb  Pb34  1  0.294832  0.146017  0.250347  1
  Pb  Pb35  1  0.795396  0.354076  0.250397  1
