# generated using pymatgen
data_TbHf2Sc(Al3Rh)6
_symmetry_space_group_name_H-M   'P 1'
_cell_length_a   7.48108085
_cell_length_b   7.47318907
_cell_length_c   9.30892000
_cell_angle_alpha   90.00000000
_cell_angle_beta   90.00000000
_cell_angle_gamma   119.65884350
_symmetry_Int_Tables_number   1
_chemical_formula_structural   TbHf2Sc(Al3Rh)6
_chemical_formula_sum   'Tb1 Hf2 Sc1 Al18 Rh6'
_cell_volume   452.25459619
_cell_formula_units_Z   1
loop_
 _symmetry_equiv_pos_site_id
 _symmetry_equiv_pos_as_xyz
  1  'x, y, z'
loop_
 _atom_site_type_symbol
 _atom_site_label
 _atom_site_symmetry_multiplicity
 _atom_site_fract_x
 _atom_site_fract_y
 _atom_site_fract_z
 _atom_site_occupancy
  Tb  Tb0  1  0.329141  0.006770  0.750000  1
  Hf  Hf1  1  0.994633  0.672725  0.250000  1
  Hf  Hf2  1  0.004595  0.326753  0.750000  1
  Sc  Sc3  1  0.672424  0.994111  0.250000  1
  Al  Al4  1  0.121567  0.122123  0.250000  1
  Al  Al5  1  0.871863  0.875003  0.750000  1
  Al  Al6  1  0.995571  0.334528  0.079986  1
  Al  Al7  1  0.000125  0.661753  0.925651  1
  Al  Al8  1  0.000125  0.661753  0.574349  1
  Al  Al9  1  0.336168  0.997442  0.416168  1
  Al  Al10  1  0.995571  0.334528  0.420014  1
  Al  Al11  1  0.667901  0.002019  0.574447  1
  Al  Al12  1  0.667901  0.002019  0.925553  1
  Al  Al13  1  0.336168  0.997442  0.083832  1
  Al  Al14  1  0.330832  0.333951  0.553177  1
  Al  Al15  1  0.669441  0.669761  0.440117  1
  Al  Al16  1  0.669441  0.669761  0.059883  1
  Al  Al17  1  0.330832  0.333951  0.946823  1
  Al  Al18  1  0.337970  0.554706  0.250000  1
  Al  Al19  1  0.665839  0.451607  0.750000  1
  Al  Al20  1  0.558030  0.342648  0.250000  1
  Al  Al21  1  0.444300  0.655181  0.750000  1
  Rh  Rh22  1  0.672953  0.328117  0.999888  1
  Rh  Rh23  1  0.326851  0.672129  0.001027  1
  Rh  Rh24  1  0.326851  0.672129  0.498973  1
  Rh  Rh25  1  0.672953  0.328117  0.500112  1
  Rh  Rh26  1  0.999979  0.999487  0.000455  1
  Rh  Rh27  1  0.999979  0.999487  0.499545  1
