# generated using pymatgen
data_Lu4InPt8Rh3
_symmetry_space_group_name_H-M   'P 1'
_cell_length_a   4.19177300
_cell_length_b   5.70490757
_cell_length_c   11.44593828
_cell_angle_alpha   87.60486799
_cell_angle_beta   90.00000000
_cell_angle_gamma   90.00000000
_symmetry_Int_Tables_number   1
_chemical_formula_structural   Lu4InPt8Rh3
_chemical_formula_sum   'Lu4 In1 Pt8 Rh3'
_cell_volume   273.47535577
_cell_formula_units_Z   1
loop_
 _symmetry_equiv_pos_site_id
 _symmetry_equiv_pos_as_xyz
  1  'x, y, z'
loop_
 _atom_site_type_symbol
 _atom_site_label
 _atom_site_symmetry_multiplicity
 _atom_site_fract_x
 _atom_site_fract_y
 _atom_site_fract_z
 _atom_site_occupancy
  Lu  Lu0  1  0.500000  0.759343  0.372240  1
  Lu  Lu1  1  0.500000  0.713791  0.865517  1
  Lu  Lu2  1  0.500000  0.285659  0.137032  1
  Lu  Lu3  1  0.500000  0.241244  0.625571  1
  In  In4  1  0.000000  0.000428  0.000198  1
  Pt  Pt5  1  0.000000  0.017503  0.250539  1
  Pt  Pt6  1  0.000000  0.982457  0.749820  1
  Pt  Pt7  1  0.000000  0.500105  0.000242  1
  Pt  Pt8  1  0.000000  0.499052  0.499249  1
  Pt  Pt9  1  0.000000  0.521939  0.250886  1
  Pt  Pt10  1  0.000000  0.477253  0.749598  1
  Pt  Pt11  1  0.500000  0.742750  0.621706  1
  Pt  Pt12  1  0.000000  0.000993  0.499434  1
  Rh  Rh13  1  0.500000  0.257528  0.377641  1
  Rh  Rh14  1  0.500000  0.223841  0.880443  1
  Rh  Rh15  1  0.500000  0.776115  0.119882  1
