# generated using pymatgen
data_TbNd2Cd3(IrO7)2
_symmetry_space_group_name_H-M   'P 1'
_cell_length_a   6.46833992
_cell_length_b   6.62354881
_cell_length_c   7.61955700
_cell_angle_alpha   90.00000000
_cell_angle_beta   90.00000000
_cell_angle_gamma   112.45568269
_symmetry_Int_Tables_number   1
_chemical_formula_structural   TbNd2Cd3(IrO7)2
_chemical_formula_sum   'Tb1 Nd2 Cd3 Ir2 O14'
_cell_volume   301.69466751
_cell_formula_units_Z   1
loop_
 _symmetry_equiv_pos_site_id
 _symmetry_equiv_pos_as_xyz
  1  'x, y, z'
loop_
 _atom_site_type_symbol
 _atom_site_label
 _atom_site_symmetry_multiplicity
 _atom_site_fract_x
 _atom_site_fract_y
 _atom_site_fract_z
 _atom_site_occupancy
  Tb  Tb0  1  0.053981  0.511030  0.250000  1
  Nd  Nd1  1  0.997039  0.998792  0.999260  1
  Nd  Nd2  1  0.997039  0.998792  0.500740  1
  Cd  Cd3  1  0.486789  0.989976  0.750000  1
  Cd  Cd4  1  0.514033  0.020983  0.250000  1
  Cd  Cd5  1  0.969885  0.492514  0.750000  1
  Ir  Ir6  1  0.501700  0.499929  0.998316  1
  Ir  Ir7  1  0.501700  0.499929  0.501684  1
  O  O8  1  0.590952  0.510077  0.750000  1
  O  O9  1  0.411155  0.490329  0.250000  1
  O  O10  1  0.850237  0.132082  0.750000  1
  O  O11  1  0.154201  0.875778  0.250000  1
  O  O12  1  0.118841  0.851378  0.750000  1
  O  O13  1  0.873967  0.144920  0.250000  1
  O  O14  1  0.427092  0.190272  0.998907  1
  O  O15  1  0.568255  0.807959  0.503199  1
  O  O16  1  0.181701  0.425907  0.973734  1
  O  O17  1  0.812191  0.567607  0.452554  1
  O  O18  1  0.427092  0.190272  0.501093  1
  O  O19  1  0.568255  0.807959  0.996801  1
  O  O20  1  0.812191  0.567607  0.047446  1
  O  O21  1  0.181701  0.425907  0.526266  1
