# generated using pymatgen
data_Zr6Ti2Al15Ru3Rh4
_symmetry_space_group_name_H-M   'P 1'
_cell_length_a   8.82664575
_cell_length_b   8.84960241
_cell_length_c   8.82670787
_cell_angle_alpha   120.19104709
_cell_angle_beta   119.68502833
_cell_angle_gamma   90.03187575
_symmetry_Int_Tables_number   1
_chemical_formula_structural   Zr6Ti2Al15Ru3Rh4
_chemical_formula_sum   'Zr6 Ti2 Al15 Ru3 Rh4'
_cell_volume   488.29933591
_cell_formula_units_Z   1
loop_
 _symmetry_equiv_pos_site_id
 _symmetry_equiv_pos_as_xyz
  1  'x, y, z'
loop_
 _atom_site_type_symbol
 _atom_site_label
 _atom_site_symmetry_multiplicity
 _atom_site_fract_x
 _atom_site_fract_y
 _atom_site_fract_z
 _atom_site_occupancy
  Zr  Zr0  1  0.788644  0.288292  0.074166  1
  Zr  Zr1  1  0.214115  0.288280  0.499638  1
  Zr  Zr2  1  0.208158  0.712963  0.504809  1
  Zr  Zr3  1  0.218925  0.720734  0.927269  1
  Zr  Zr4  1  0.793466  0.720728  0.501808  1
  Zr  Zr5  1  0.781800  0.276591  0.494801  1
  Ti  Ti6  1  0.378434  0.123749  0.745300  1
  Ti  Ti7  1  0.380969  0.635570  0.254607  1
  Al  Al8  1  0.994423  0.494971  0.500551  1
  Al  Al9  1  0.159966  0.340888  0.180933  1
  Al  Al10  1  0.162396  0.987828  0.825428  1
  Al  Al11  1  0.157468  0.341542  0.817518  1
  Al  Al12  1  0.524023  0.341529  0.184066  1
  Al  Al13  1  0.841498  0.655546  0.814062  1
  Al  Al14  1  0.839528  0.018654  0.179107  1
  Al  Al15  1  0.837616  0.659851  0.176249  1
  Al  Al16  1  0.483598  0.659846  0.822230  1
  Al  Al17  1  0.380302  0.122929  0.259024  1
  Al  Al18  1  0.863891  0.122923  0.742621  1
  Al  Al19  1  0.620827  0.873752  0.252921  1
  Al  Al20  1  0.620099  0.364700  0.744594  1
  Al  Al21  1  0.617500  0.876871  0.740460  1
  Al  Al22  1  0.136404  0.876869  0.259375  1
  Ru  Ru23  1  0.002183  0.000271  0.502415  1
  Ru  Ru24  1  0.497847  0.000260  0.998053  1
  Ru  Ru25  1  0.497166  0.496970  0.999812  1
  Rh  Rh26  1  0.498578  0.499866  0.498298  1
  Rh  Rh27  1  0.001567  0.499865  0.001292  1
  Rh  Rh28  1  0.000053  0.999685  0.999681  1
  Rh  Rh29  1  0.498547  0.997475  0.498909  1
