# generated using pymatgen
data_Ho2Np(P3Pd10)2
_symmetry_space_group_name_H-M   'P 1'
_cell_length_a   8.69553206
_cell_length_b   8.69553111
_cell_length_c   8.69551000
_cell_angle_alpha   60.00023249
_cell_angle_beta   60.00022848
_cell_angle_gamma   60.00018987
_symmetry_Int_Tables_number   1
_chemical_formula_structural   Ho2Np(P3Pd10)2
_chemical_formula_sum   'Ho2 Np1 P6 Pd20'
_cell_volume   464.91597709
_cell_formula_units_Z   1
loop_
 _symmetry_equiv_pos_site_id
 _symmetry_equiv_pos_as_xyz
  1  'x, y, z'
loop_
 _atom_site_type_symbol
 _atom_site_label
 _atom_site_symmetry_multiplicity
 _atom_site_fract_x
 _atom_site_fract_y
 _atom_site_fract_z
 _atom_site_occupancy
  Ho  Ho0  1  0.750000  0.749932  0.749987  1
  Ho  Ho1  1  0.999929  0.000012  0.999989  1
  Np  Np2  1  0.251254  0.250530  0.249112  1
  P  P3  1  0.737543  0.262409  0.262547  1
  P  P4  1  0.262516  0.737390  0.737367  1
  P  P5  1  0.262421  0.737368  0.262768  1
  P  P6  1  0.737489  0.262496  0.737465  1
  P  P7  1  0.262406  0.262606  0.737462  1
  P  P8  1  0.737238  0.737308  0.262751  1
  Pd  Pd9  1  0.384654  0.384847  0.384853  1
  Pd  Pd10  1  0.616271  0.616202  0.616438  1
  Pd  Pd11  1  0.384478  0.384431  0.846393  1
  Pd  Pd12  1  0.384452  0.846288  0.384614  1
  Pd  Pd13  1  0.616312  0.616411  0.150963  1
  Pd  Pd14  1  0.616224  0.150948  0.616506  1
  Pd  Pd15  1  0.846179  0.384302  0.384667  1
  Pd  Pd16  1  0.151008  0.616314  0.616465  1
  Pd  Pd17  1  0.344030  0.001018  0.001103  1
  Pd  Pd18  1  0.653626  0.001173  0.001303  1
  Pd  Pd19  1  0.001078  0.344157  0.653619  1
  Pd  Pd20  1  0.001160  0.653429  0.343907  1
  Pd  Pd21  1  0.001108  0.344087  0.001193  1
  Pd  Pd22  1  0.653404  0.001332  0.343754  1
  Pd  Pd23  1  0.001031  0.653554  0.001400  1
  Pd  Pd24  1  0.344070  0.001142  0.653706  1
  Pd  Pd25  1  0.001426  0.001467  0.343739  1
  Pd  Pd26  1  0.001406  0.001533  0.653229  1
  Pd  Pd27  1  0.653431  0.343654  0.001455  1
  Pd  Pd28  1  0.343855  0.653659  0.001245  1
