# generated using pymatgen
data_Ho2Tm9Th5(MgRu)4
_symmetry_space_group_name_H-M   'P 1'
_cell_length_a   9.67032435
_cell_length_b   9.71258716
_cell_length_c   9.70905884
_cell_angle_alpha   59.82280285
_cell_angle_beta   60.15600226
_cell_angle_gamma   60.11973562
_symmetry_Int_Tables_number   1
_chemical_formula_structural   Ho2Tm9Th5(MgRu)4
_chemical_formula_sum   'Ho2 Tm9 Th5 Mg4 Ru4'
_cell_volume   645.28642820
_cell_formula_units_Z   1
loop_
 _symmetry_equiv_pos_site_id
 _symmetry_equiv_pos_as_xyz
  1  'x, y, z'
loop_
 _atom_site_type_symbol
 _atom_site_label
 _atom_site_symmetry_multiplicity
 _atom_site_fract_x
 _atom_site_fract_y
 _atom_site_fract_z
 _atom_site_occupancy
  Ho  Ho0  1  0.563569  0.565708  0.934764  1
  Ho  Ho1  1  0.935958  0.934764  0.565708  1
  Tm  Tm2  1  0.185966  0.814034  0.814034  1
  Tm  Tm3  1  0.190952  0.810057  0.184730  1
  Tm  Tm4  1  0.814260  0.184730  0.810057  1
  Tm  Tm5  1  0.191076  0.184727  0.809966  1
  Tm  Tm6  1  0.814231  0.809966  0.184727  1
  Tm  Tm7  1  0.932811  0.567189  0.567189  1
  Tm  Tm8  1  0.564876  0.935124  0.935124  1
  Tm  Tm9  1  0.563015  0.935222  0.565414  1
  Tm  Tm10  1  0.936350  0.565414  0.935222  1
  Th  Th11  1  0.342403  0.349132  0.349300  1
  Th  Th12  1  0.346815  0.347913  0.958204  1
  Th  Th13  1  0.347067  0.958204  0.347913  1
  Th  Th14  1  0.959165  0.349300  0.349132  1
  Th  Th15  1  0.816381  0.183619  0.183619  1
  Mg  Mg16  1  0.581509  0.579955  0.579637  1
  Mg  Mg17  1  0.579814  0.582350  0.258357  1
  Mg  Mg18  1  0.579481  0.258357  0.582350  1
  Mg  Mg19  1  0.258900  0.579637  0.579955  1
  Ru  Ru20  1  0.129961  0.146712  0.146254  1
  Ru  Ru21  1  0.144358  0.141970  0.569662  1
  Ru  Ru22  1  0.144009  0.569662  0.141970  1
  Ru  Ru23  1  0.577072  0.146254  0.146712  1
