# generated using pymatgen
data_BaSr2(CoH6)2
_symmetry_space_group_name_H-M   'P 1'
_cell_length_a   5.15693700
_cell_length_b   5.15693723
_cell_length_c   8.40809800
_cell_angle_alpha   90.00000000
_cell_angle_beta   90.00000000
_cell_angle_gamma   119.99999212
_symmetry_Int_Tables_number   1
_chemical_formula_structural   BaSr2(CoH6)2
_chemical_formula_sum   'Ba1 Sr2 Co2 H12'
_cell_volume   193.64759251
_cell_formula_units_Z   1
loop_
 _symmetry_equiv_pos_site_id
 _symmetry_equiv_pos_as_xyz
  1  'x, y, z'
loop_
 _atom_site_type_symbol
 _atom_site_label
 _atom_site_symmetry_multiplicity
 _atom_site_fract_x
 _atom_site_fract_y
 _atom_site_fract_z
 _atom_site_occupancy
  Ba  Ba0  1  0.000000  0.000000  0.000000  1
  Sr  Sr1  1  0.666667  0.333333  0.360852  1
  Sr  Sr2  1  0.333333  0.666667  0.639148  1
  Co  Co3  1  0.666667  0.333333  0.748099  1
  Co  Co4  1  0.333333  0.666667  0.251901  1
  H  H5  1  0.188343  0.811657  0.355649  1
  H  H6  1  0.623314  0.811657  0.355649  1
  H  H7  1  0.188343  0.376686  0.355649  1
  H  H8  1  0.811657  0.188343  0.644351  1
  H  H9  1  0.376686  0.188343  0.644351  1
  H  H10  1  0.811657  0.623314  0.644351  1
  H  H11  1  0.529136  0.058272  0.858919  1
  H  H12  1  0.529136  0.470864  0.858919  1
  H  H13  1  0.941728  0.470864  0.858919  1
  H  H14  1  0.470864  0.941728  0.141081  1
  H  H15  1  0.470864  0.529136  0.141081  1
  H  H16  1  0.058272  0.529136  0.141081  1
