# generated using pymatgen
data_Pr4TeC4Br
_symmetry_space_group_name_H-M   'P 1'
_cell_length_a   7.74931679
_cell_length_b   7.74931677
_cell_length_c   6.99090792
_cell_angle_alpha   99.74648609
_cell_angle_beta   99.74648716
_cell_angle_gamma   33.22105902
_symmetry_Int_Tables_number   1
_chemical_formula_structural   Pr4TeC4Br
_chemical_formula_sum   'Pr4 Te1 C4 Br1'
_cell_volume   226.38806631
_cell_formula_units_Z   1
loop_
 _symmetry_equiv_pos_site_id
 _symmetry_equiv_pos_as_xyz
  1  'x, y, z'
loop_
 _atom_site_type_symbol
 _atom_site_label
 _atom_site_symmetry_multiplicity
 _atom_site_fract_x
 _atom_site_fract_y
 _atom_site_fract_z
 _atom_site_occupancy
  Pr  Pr0  1  0.858264  0.447786  0.152040  1
  Pr  Pr1  1  0.552214  0.141736  0.347960  1
  Pr  Pr2  1  0.453629  0.855594  0.645537  1
  Pr  Pr3  1  0.144407  0.546371  0.854463  1
  Te  Te4  1  0.211601  0.788399  0.250000  1
  C  C5  1  0.357602  0.098550  0.024680  1
  C  C6  1  0.901450  0.642398  0.475319  1
  C  C7  1  0.103884  0.355430  0.527716  1
  C  C8  1  0.644571  0.896116  0.972284  1
  Br  Br9  1  0.772379  0.227620  0.749999  1
