# generated using pymatgen
data_MnFe(ReSi)3
_symmetry_space_group_name_H-M   'P 1'
_cell_length_a   6.96405200
_cell_length_b   6.96405205
_cell_length_c   4.80419900
_cell_angle_alpha   90.00000000
_cell_angle_beta   90.00000000
_cell_angle_gamma   119.99999977
_symmetry_Int_Tables_number   1
_chemical_formula_structural   MnFe(ReSi)3
_chemical_formula_sum   'Mn2 Fe2 Re6 Si6'
_cell_volume   201.77884638
_cell_formula_units_Z   2
loop_
 _symmetry_equiv_pos_site_id
 _symmetry_equiv_pos_as_xyz
  1  'x, y, z'
loop_
 _atom_site_type_symbol
 _atom_site_label
 _atom_site_symmetry_multiplicity
 _atom_site_fract_x
 _atom_site_fract_y
 _atom_site_fract_z
 _atom_site_occupancy
  Mn  Mn0  1  0.666667  0.333333  0.500000  1
  Mn  Mn1  1  0.333333  0.666667  0.000000  1
  Fe  Fe2  1  0.333333  0.666667  0.500000  1
  Fe  Fe3  1  0.666667  0.333333  0.000000  1
  Re  Re4  1  0.000000  0.761029  0.750000  1
  Re  Re5  1  0.000000  0.238971  0.250000  1
  Re  Re6  1  0.761029  0.761029  0.250000  1
  Re  Re7  1  0.761029  0.000000  0.750000  1
  Re  Re8  1  0.238971  0.238971  0.750000  1
  Re  Re9  1  0.238971  0.000000  0.250000  1
  Si  Si10  1  0.405838  0.000000  0.750000  1
  Si  Si11  1  0.405838  0.405838  0.250000  1
  Si  Si12  1  0.000000  0.594162  0.250000  1
  Si  Si13  1  0.000000  0.405838  0.750000  1
  Si  Si14  1  0.594162  0.594162  0.750000  1
  Si  Si15  1  0.594162  0.000000  0.250000  1
