# generated using pymatgen
data_Ti8Si2Sb4Pd
_symmetry_space_group_name_H-M   'P 1'
_cell_length_a   5.00492798
_cell_length_b   7.74515500
_cell_length_c   7.74515476
_cell_angle_alpha   95.99224818
_cell_angle_beta   108.85053740
_cell_angle_gamma   71.14946676
_symmetry_Int_Tables_number   1
_chemical_formula_structural   Ti8Si2Sb4Pd
_chemical_formula_sum   'Ti8 Si2 Sb4 Pd1'
_cell_volume   268.89025666
_cell_formula_units_Z   1
loop_
 _symmetry_equiv_pos_site_id
 _symmetry_equiv_pos_as_xyz
  1  'x, y, z'
loop_
 _atom_site_type_symbol
 _atom_site_label
 _atom_site_symmetry_multiplicity
 _atom_site_fract_x
 _atom_site_fract_y
 _atom_site_fract_z
 _atom_site_occupancy
  Ti  Ti0  1  0.416047  0.873701  0.715207  1
  Ti  Ti1  1  0.574541  0.126299  0.284793  1
  Ti  Ti2  1  0.925459  0.284793  0.126299  1
  Ti  Ti3  1  0.083953  0.715207  0.873701  1
  Ti  Ti4  1  0.710252  0.715207  0.126299  1
  Ti  Ti5  1  0.299160  0.284793  0.873701  1
  Ti  Ti6  1  0.789748  0.126299  0.715207  1
  Ti  Ti7  1  0.200840  0.873701  0.284793  1
  Si  Si8  1  0.250000  0.000000  0.000000  1
  Si  Si9  1  0.750000  0.000000  0.000000  1
  Sb  Sb10  1  0.378807  0.500000  0.196062  1
  Sb  Sb11  1  0.682745  0.500000  0.803938  1
  Sb  Sb12  1  0.817255  0.803938  0.500000  1
  Sb  Sb13  1  0.121193  0.196062  0.500000  1
  Pd  Pd14  1  0.250000  0.500000  0.500000  1
