# generated using pymatgen
data_Nd6Cd23Bi
_symmetry_space_group_name_H-M   'P 1'
_cell_length_a   10.14812607
_cell_length_b   10.14812567
_cell_length_c   10.14812600
_cell_angle_alpha   59.99999891
_cell_angle_beta   60.00000023
_cell_angle_gamma   60.00000260
_symmetry_Int_Tables_number   1
_chemical_formula_structural   Nd6Cd23Bi
_chemical_formula_sum   'Nd6 Cd23 Bi1'
_cell_volume   738.99678535
_cell_formula_units_Z   1
loop_
 _symmetry_equiv_pos_site_id
 _symmetry_equiv_pos_as_xyz
  1  'x, y, z'
loop_
 _atom_site_type_symbol
 _atom_site_label
 _atom_site_symmetry_multiplicity
 _atom_site_fract_x
 _atom_site_fract_y
 _atom_site_fract_z
 _atom_site_occupancy
  Nd  Nd0  1  0.779039  0.779039  0.220961  1
  Nd  Nd1  1  0.220961  0.779039  0.220961  1
  Nd  Nd2  1  0.779039  0.220961  0.220961  1
  Nd  Nd3  1  0.220961  0.220961  0.779039  1
  Nd  Nd4  1  0.779039  0.220961  0.779039  1
  Nd  Nd5  1  0.220961  0.779039  0.779039  1
  Cd  Cd6  1  0.835404  0.835404  0.493788  1
  Cd  Cd7  1  0.835404  0.493788  0.835404  1
  Cd  Cd8  1  0.493788  0.835404  0.835404  1
  Cd  Cd9  1  0.835404  0.835404  0.835404  1
  Cd  Cd10  1  0.164596  0.164596  0.506212  1
  Cd  Cd11  1  0.164596  0.506212  0.164596  1
  Cd  Cd12  1  0.506212  0.164596  0.164596  1
  Cd  Cd13  1  0.164596  0.164596  0.164596  1
  Cd  Cd14  1  0.623492  0.623492  0.129524  1
  Cd  Cd15  1  0.623492  0.129524  0.623492  1
  Cd  Cd16  1  0.129524  0.623492  0.623492  1
  Cd  Cd17  1  0.623492  0.623492  0.623492  1
  Cd  Cd18  1  0.376508  0.376508  0.870476  1
  Cd  Cd19  1  0.376508  0.870476  0.376508  1
  Cd  Cd20  1  0.870476  0.376508  0.376508  1
  Cd  Cd21  1  0.376508  0.376508  0.376508  1
  Cd  Cd22  1  0.000000  0.000000  0.500000  1
  Cd  Cd23  1  0.500000  0.000000  0.500000  1
  Cd  Cd24  1  0.000000  0.500000  0.500000  1
  Cd  Cd25  1  0.500000  0.500000  0.000000  1
  Cd  Cd26  1  0.000000  0.500000  0.000000  1
  Cd  Cd27  1  0.500000  0.000000  0.000000  1
  Cd  Cd28  1  0.500000  0.500000  0.500000  1
  Bi  Bi29  1  0.000000  0.000000  0.000000  1
