# generated using pymatgen
data_Nd2Al16MoPt8
_symmetry_space_group_name_H-M   'P 1'
_cell_length_a   11.24731946
_cell_length_b   11.24732011
_cell_length_c   11.24732072
_cell_angle_alpha   158.67389837
_cell_angle_beta   116.98733958
_cell_angle_gamma   67.33644258
_symmetry_Int_Tables_number   1
_chemical_formula_structural   Nd2Al16MoPt8
_chemical_formula_sum   'Nd2 Al16 Mo1 Pt8'
_cell_volume   458.01472709
_cell_formula_units_Z   1
loop_
 _symmetry_equiv_pos_site_id
 _symmetry_equiv_pos_as_xyz
  1  'x, y, z'
loop_
 _atom_site_type_symbol
 _atom_site_label
 _atom_site_symmetry_multiplicity
 _atom_site_fract_x
 _atom_site_fract_y
 _atom_site_fract_z
 _atom_site_occupancy
  Nd  Nd0  1  0.231589  0.232599  0.998990  1
  Nd  Nd1  1  0.766392  0.767401  0.998990  1
  Al  Al2  1  0.274572  0.392682  0.881890  1
  Al  Al3  1  0.090016  0.924701  0.165315  1
  Al  Al4  1  0.503299  0.201068  0.302232  1
  Al  Al5  1  0.240614  0.075299  0.165315  1
  Al  Al6  1  0.909845  0.416465  0.493380  1
  Al  Al7  1  0.722214  0.597913  0.124301  1
  Al  Al8  1  0.903478  0.209557  0.693921  1
  Al  Al9  1  0.484365  0.790443  0.693921  1
  Al  Al10  1  0.389700  0.000000  0.389700  1
  Al  Al11  1  0.627862  0.000000  0.627862  1
  Al  Al12  1  0.489207  0.607318  0.881890  1
  Al  Al13  1  0.101163  0.798932  0.302232  1
  Al  Al14  1  0.910937  0.088189  0.822748  1
  Al  Al15  1  0.734560  0.911811  0.822748  1
  Al  Al16  1  0.526388  0.402087  0.124301  1
  Al  Al17  1  0.076915  0.583535  0.493380  1
  Mo  Mo18  1  0.788156  0.500000  0.288156  1
  Pt  Pt19  1  0.024702  0.343655  0.681047  1
  Pt  Pt20  1  0.627395  0.125318  0.502076  1
  Pt  Pt21  1  0.255885  0.500000  0.755885  1
  Pt  Pt22  1  0.376758  0.874682  0.502076  1
  Pt  Pt23  1  0.984664  0.000000  0.984664  1
  Pt  Pt24  1  0.645827  0.334861  0.310966  1
  Pt  Pt25  1  0.337392  0.656345  0.681047  1
  Pt  Pt26  1  0.976106  0.665139  0.310966  1
