# generated using pymatgen
data_Dy4IrPb2Au3
_symmetry_space_group_name_H-M   'P 1'
_cell_length_a   3.58098600
_cell_length_b   8.18484389
_cell_length_c   8.18484424
_cell_angle_alpha   90.01283142
_cell_angle_beta   90.00000000
_cell_angle_gamma   90.00000000
_symmetry_Int_Tables_number   1
_chemical_formula_structural   Dy4IrPb2Au3
_chemical_formula_sum   'Dy4 Ir1 Pb2 Au3'
_cell_volume   239.89623503
_cell_formula_units_Z   1
loop_
 _symmetry_equiv_pos_site_id
 _symmetry_equiv_pos_as_xyz
  1  'x, y, z'
loop_
 _atom_site_type_symbol
 _atom_site_label
 _atom_site_symmetry_multiplicity
 _atom_site_fract_x
 _atom_site_fract_y
 _atom_site_fract_z
 _atom_site_occupancy
  Dy  Dy0  1  0.500000  0.163954  0.663954  1
  Dy  Dy1  1  0.500000  0.814863  0.314863  1
  Dy  Dy2  1  0.500000  0.355436  0.174803  1
  Dy  Dy3  1  0.500000  0.674803  0.855436  1
  Ir  Ir4  1  0.000000  0.623656  0.123656  1
  Pb  Pb5  1  0.000000  0.000983  0.003006  1
  Pb  Pb6  1  0.000000  0.503006  0.500983  1
  Au  Au7  1  0.000000  0.371524  0.871524  1
  Au  Au8  1  0.000000  0.869382  0.622393  1
  Au  Au9  1  0.000000  0.122393  0.369382  1
