# generated using pymatgen
data_ErPa3(Ni2Pb)2
_symmetry_space_group_name_H-M   'P 1'
_cell_length_a   7.52607865
_cell_length_b   7.52607916
_cell_length_c   3.55583400
_cell_angle_alpha   90.00000000
_cell_angle_beta   90.00000000
_cell_angle_gamma   91.09215699
_symmetry_Int_Tables_number   1
_chemical_formula_structural   ErPa3(Ni2Pb)2
_chemical_formula_sum   'Er1 Pa3 Ni4 Pb2'
_cell_volume   201.37247478
_cell_formula_units_Z   1
loop_
 _symmetry_equiv_pos_site_id
 _symmetry_equiv_pos_as_xyz
  1  'x, y, z'
loop_
 _atom_site_type_symbol
 _atom_site_label
 _atom_site_symmetry_multiplicity
 _atom_site_fract_x
 _atom_site_fract_y
 _atom_site_fract_z
 _atom_site_occupancy
  Er  Er0  1  0.829691  0.670309  0.500000  1
  Pa  Pa1  1  0.671928  0.172833  0.500000  1
  Pa  Pa2  1  0.327167  0.828072  0.500000  1
  Pa  Pa3  1  0.170390  0.329610  0.500000  1
  Ni  Ni4  1  0.883871  0.364436  0.000000  1
  Ni  Ni5  1  0.135564  0.616129  0.000000  1
  Ni  Ni6  1  0.370475  0.129525  0.000000  1
  Ni  Ni7  1  0.608071  0.891929  0.000000  1
  Pb  Pb8  1  0.509079  0.506238  0.000000  1
  Pb  Pb9  1  0.993762  0.990921  0.000000  1
