# generated using pymatgen
data_Er8Ta2Ti10Si15Sn
_symmetry_space_group_name_H-M   'P 1'
_cell_length_a   7.06874463
_cell_length_b   7.03582221
_cell_length_c   12.97305885
_cell_angle_alpha   89.98353662
_cell_angle_beta   89.84162241
_cell_angle_gamma   89.94085432
_symmetry_Int_Tables_number   1
_chemical_formula_structural   Er8Ta2Ti10Si15Sn
_chemical_formula_sum   'Er8 Ta2 Ti10 Si15 Sn1'
_cell_volume   645.20485874
_cell_formula_units_Z   1
loop_
 _symmetry_equiv_pos_site_id
 _symmetry_equiv_pos_as_xyz
  1  'x, y, z'
loop_
 _atom_site_type_symbol
 _atom_site_label
 _atom_site_symmetry_multiplicity
 _atom_site_fract_x
 _atom_site_fract_y
 _atom_site_fract_z
 _atom_site_occupancy
  Er  Er0  1  0.342454  0.998918  0.461510  1
  Er  Er1  1  0.505871  0.834092  0.718634  1
  Er  Er2  1  0.501245  0.159360  0.216781  1
  Er  Er3  1  0.840402  0.497557  0.281584  1
  Er  Er4  1  0.159626  0.509395  0.786088  1
  Er  Er5  1  0.662367  0.997313  0.969135  1
  Er  Er6  1  0.992197  0.347365  0.527133  1
  Er  Er7  1  0.000636  0.658987  0.034190  1
  Ta  Ta8  1  0.327291  0.327008  0.001326  1
  Ta  Ta9  1  0.173800  0.826605  0.249582  1
  Ti  Ti10  1  0.817566  0.174898  0.752010  1
  Ti  Ti11  1  0.671616  0.672868  0.499534  1
  Ti  Ti12  1  0.154040  0.007488  0.882671  1
  Ti  Ti13  1  0.492035  0.651264  0.126081  1
  Ti  Ti14  1  0.513407  0.354317  0.625598  1
  Ti  Ti15  1  0.654041  0.493449  0.876824  1
  Ti  Ti16  1  0.345765  0.508999  0.373246  1
  Ti  Ti17  1  0.846806  0.992774  0.374477  1
  Ti  Ti18  1  0.010251  0.152575  0.124342  1
  Ti  Ti19  1  0.979407  0.835632  0.619411  1
  Si  Si20  1  0.371716  0.702987  0.935148  1
  Si  Si21  1  0.627589  0.297700  0.432240  1
  Si  Si22  1  0.703801  0.369397  0.067116  1
  Si  Si23  1  0.296022  0.630857  0.566045  1
  Si  Si24  1  0.798170  0.869617  0.183753  1
  Si  Si25  1  0.129874  0.202845  0.315688  1
  Si  Si26  1  0.870925  0.800101  0.816606  1
  Si  Si27  1  0.295495  0.953642  0.065976  1
  Si  Si28  1  0.548149  0.790417  0.313653  1
  Si  Si29  1  0.461590  0.208064  0.819046  1
  Si  Si30  1  0.794572  0.543151  0.686993  1
  Si  Si31  1  0.207384  0.453932  0.186103  1
  Si  Si32  1  0.704815  0.047554  0.564316  1
  Si  Si33  1  0.954586  0.292866  0.935376  1
  Si  Si34  1  0.045314  0.708758  0.433544  1
  Sn  Sn35  1  0.199173  0.127252  0.678237  1
