# generated using pymatgen
data_Tb4Al18HgIr4Rh
_symmetry_space_group_name_H-M   'P 1'
_cell_length_a   7.63903102
_cell_length_b   7.63902732
_cell_length_c   9.50808424
_cell_angle_alpha   89.99637519
_cell_angle_beta   89.99639820
_cell_angle_gamma   119.77045830
_symmetry_Int_Tables_number   1
_chemical_formula_structural   Tb4Al18HgIr4Rh
_chemical_formula_sum   'Tb4 Al18 Hg1 Ir4 Rh1'
_cell_volume   481.61485648
_cell_formula_units_Z   1
loop_
 _symmetry_equiv_pos_site_id
 _symmetry_equiv_pos_as_xyz
  1  'x, y, z'
loop_
 _atom_site_type_symbol
 _atom_site_label
 _atom_site_symmetry_multiplicity
 _atom_site_fract_x
 _atom_site_fract_y
 _atom_site_fract_z
 _atom_site_occupancy
  Tb  Tb0  1  0.990078  0.664233  0.251292  1
  Tb  Tb1  1  0.000164  0.328813  0.749149  1
  Tb  Tb2  1  0.671187  0.999836  0.250852  1
  Tb  Tb3  1  0.335768  0.009922  0.748708  1
  Al  Al4  1  0.125924  0.122554  0.252412  1
  Al  Al5  1  0.877446  0.874076  0.747588  1
  Al  Al6  1  0.020141  0.335635  0.080710  1
  Al  Al7  1  0.014326  0.680934  0.920202  1
  Al  Al8  1  0.003366  0.666433  0.571678  1
  Al  Al9  1  0.333567  0.996634  0.428322  1
  Al  Al10  1  0.000369  0.334148  0.426897  1
  Al  Al11  1  0.665852  0.999631  0.573103  1
  Al  Al12  1  0.664365  0.979859  0.919290  1
  Al  Al13  1  0.319066  0.985674  0.079798  1
  Al  Al14  1  0.330285  0.331524  0.548390  1
  Al  Al15  1  0.668476  0.669715  0.451610  1
  Al  Al16  1  0.664646  0.676250  0.063060  1
  Al  Al17  1  0.323749  0.335354  0.936940  1
  Al  Al18  1  0.341496  0.553234  0.252352  1
  Al  Al19  1  0.660382  0.463499  0.736555  1
  Al  Al20  1  0.536500  0.339618  0.263444  1
  Al  Al21  1  0.446766  0.658504  0.747648  1
  Hg  Hg22  1  0.675236  0.324763  0.000000  1
  Ir  Ir23  1  0.328779  0.671220  0.500000  1
  Ir  Ir24  1  0.672649  0.327351  0.500000  1
  Ir  Ir25  1  0.999746  0.000254  0.000000  1
  Ir  Ir26  1  0.000412  0.999589  0.500000  1
  Rh  Rh27  1  0.329255  0.670743  0.000000  1
