# generated using pymatgen
data_La10TcOsRu2
_symmetry_space_group_name_H-M   'P 1'
_cell_length_a   9.04353803
_cell_length_b   9.09014694
_cell_length_c   7.41476774
_cell_angle_alpha   85.05678696
_cell_angle_beta   85.31171874
_cell_angle_gamma   43.75034582
_symmetry_Int_Tables_number   1
_chemical_formula_structural   La10TcOsRu2
_chemical_formula_sum   'La10 Tc1 Os1 Ru2'
_cell_volume   419.77615135
_cell_formula_units_Z   1
loop_
 _symmetry_equiv_pos_site_id
 _symmetry_equiv_pos_as_xyz
  1  'x, y, z'
loop_
 _atom_site_type_symbol
 _atom_site_label
 _atom_site_symmetry_multiplicity
 _atom_site_fract_x
 _atom_site_fract_y
 _atom_site_fract_z
 _atom_site_occupancy
  La  La0  1  0.017622  0.800545  0.907226  1
  La  La1  1  0.204780  0.981497  0.598597  1
  La  La2  1  0.981634  0.205144  0.096097  1
  La  La3  1  0.800004  0.014851  0.404343  1
  La  La4  1  0.362065  0.208343  0.819190  1
  La  La5  1  0.791580  0.639337  0.679516  1
  La  La6  1  0.637347  0.790475  0.179922  1
  La  La7  1  0.209644  0.361223  0.319587  1
  La  La8  1  0.575260  0.422768  0.749280  1
  La  La9  1  0.423055  0.577576  0.251498  1
  Tc  Tc10  1  0.385489  0.832107  0.918713  1
  Os  Os11  1  0.175461  0.600581  0.576336  1
  Ru  Ru12  1  0.830925  0.393752  0.417453  1
  Ru  Ru13  1  0.605135  0.171801  0.082244  1
