# generated using pymatgen
data_Pr3TmAu5
_symmetry_space_group_name_H-M   'P 1'
_cell_length_a   8.20831793
_cell_length_b   8.20831746
_cell_length_c   8.20831700
_cell_angle_alpha   65.70933946
_cell_angle_beta   65.70933330
_cell_angle_gamma   65.70931339
_symmetry_Int_Tables_number   1
_chemical_formula_structural   Pr3TmAu5
_chemical_formula_sum   'Pr6 Tm2 Au10'
_cell_volume   439.51045111
_cell_formula_units_Z   2
loop_
 _symmetry_equiv_pos_site_id
 _symmetry_equiv_pos_as_xyz
  1  'x, y, z'
loop_
 _atom_site_type_symbol
 _atom_site_label
 _atom_site_symmetry_multiplicity
 _atom_site_fract_x
 _atom_site_fract_y
 _atom_site_fract_z
 _atom_site_occupancy
  Pr  Pr0  1  0.892409  0.185707  0.621073  1
  Pr  Pr1  1  0.621073  0.892409  0.185707  1
  Pr  Pr2  1  0.185707  0.621073  0.892409  1
  Pr  Pr3  1  0.107591  0.814293  0.378927  1
  Pr  Pr4  1  0.378927  0.107591  0.814293  1
  Pr  Pr5  1  0.814293  0.378927  0.107591  1
  Tm  Tm6  1  0.657333  0.657333  0.657333  1
  Tm  Tm7  1  0.342667  0.342667  0.342667  1
  Au  Au8  1  0.000000  0.000000  0.000000  1
  Au  Au9  1  0.500000  0.500000  0.500000  1
  Au  Au10  1  0.804034  0.804034  0.804034  1
  Au  Au11  1  0.195966  0.195966  0.195966  1
  Au  Au12  1  0.940152  0.547891  0.321272  1
  Au  Au13  1  0.321272  0.940152  0.547891  1
  Au  Au14  1  0.547891  0.321272  0.940152  1
  Au  Au15  1  0.059848  0.452109  0.678728  1
  Au  Au16  1  0.678728  0.059848  0.452109  1
  Au  Au17  1  0.452109  0.678728  0.059848  1
