# generated using pymatgen
data_NdTh3(CoB4)4
_symmetry_space_group_name_H-M   'P 1'
_cell_length_a   6.95680274
_cell_length_b   6.95680264
_cell_length_c   6.95680269
_cell_angle_alpha   112.44282432
_cell_angle_beta   112.44281787
_cell_angle_gamma   103.67873051
_symmetry_Int_Tables_number   1
_chemical_formula_structural   NdTh3(CoB4)4
_chemical_formula_sum   'Nd1 Th3 Co4 B16'
_cell_volume   257.22383535
_cell_formula_units_Z   1
loop_
 _symmetry_equiv_pos_site_id
 _symmetry_equiv_pos_as_xyz
  1  'x, y, z'
loop_
 _atom_site_type_symbol
 _atom_site_label
 _atom_site_symmetry_multiplicity
 _atom_site_fract_x
 _atom_site_fract_y
 _atom_site_fract_z
 _atom_site_occupancy
  Nd  Nd0  1  0.250000  0.750000  0.500000  1
  Th  Th1  1  0.214090  0.214090  0.000000  1
  Th  Th2  1  0.785910  0.785910  0.000000  1
  Th  Th3  1  0.750000  0.250000  0.500000  1
  Co  Co4  1  0.501341  0.271832  0.770492  1
  Co  Co5  1  0.501341  0.730849  0.229508  1
  Co  Co6  1  0.728168  0.498659  0.229508  1
  Co  Co7  1  0.269151  0.498659  0.770492  1
  B  B8  1  0.111833  0.275739  0.388122  1
  B  B9  1  0.887617  0.723712  0.611878  1
  B  B10  1  0.887617  0.275739  0.163906  1
  B  B11  1  0.111833  0.723712  0.836094  1
  B  B12  1  0.724261  0.888167  0.611878  1
  B  B13  1  0.276288  0.112383  0.388122  1
  B  B14  1  0.724261  0.112383  0.836094  1
  B  B15  1  0.276288  0.888167  0.163906  1
  B  B16  1  0.417545  0.417989  0.535948  1
  B  B17  1  0.882041  0.881597  0.464052  1
  B  B18  1  0.582011  0.117959  0.999556  1
  B  B19  1  0.118403  0.582455  0.000444  1
  B  B20  1  0.582011  0.582455  0.464052  1
  B  B21  1  0.118403  0.117959  0.535948  1
  B  B22  1  0.882041  0.417989  0.000444  1
  B  B23  1  0.417545  0.881597  0.999556  1
