# generated using pymatgen
data_TbErZr4(SnRh)6
_symmetry_space_group_name_H-M   'P 1'
_cell_length_a   7.51264001
_cell_length_b   7.51535832
_cell_length_c   7.37008500
_cell_angle_alpha   90.00000000
_cell_angle_beta   90.00000000
_cell_angle_gamma   119.91186377
_symmetry_Int_Tables_number   1
_chemical_formula_structural   TbErZr4(SnRh)6
_chemical_formula_sum   'Tb1 Er1 Zr4 Sn6 Rh6'
_cell_volume   360.68694161
_cell_formula_units_Z   1
loop_
 _symmetry_equiv_pos_site_id
 _symmetry_equiv_pos_as_xyz
  1  'x, y, z'
loop_
 _atom_site_type_symbol
 _atom_site_label
 _atom_site_symmetry_multiplicity
 _atom_site_fract_x
 _atom_site_fract_y
 _atom_site_fract_z
 _atom_site_occupancy
  Tb  Tb0  1  0.405339  0.402319  0.250000  1
  Er  Er1  1  0.596571  0.999904  0.250000  1
  Zr  Zr2  1  0.609102  0.002823  0.750000  1
  Zr  Zr3  1  0.389399  0.395530  0.750000  1
  Zr  Zr4  1  0.001665  0.603441  0.750000  1
  Zr  Zr5  1  0.003147  0.602169  0.250000  1
  Sn  Sn6  1  0.267439  0.999856  0.991998  1
  Sn  Sn7  1  0.733594  0.731857  0.507841  1
  Sn  Sn8  1  0.998629  0.267864  0.496224  1
  Sn  Sn9  1  0.998629  0.267864  0.003776  1
  Sn  Sn10  1  0.733594  0.731857  0.992159  1
  Sn  Sn11  1  0.267439  0.999856  0.508002  1
  Rh  Rh12  1  0.670056  0.335615  0.971433  1
  Rh  Rh13  1  0.670056  0.335615  0.528567  1
  Rh  Rh14  1  0.328297  0.665744  0.976852  1
  Rh  Rh15  1  0.328297  0.665744  0.523148  1
  Rh  Rh16  1  0.999521  0.004367  0.750000  1
  Rh  Rh17  1  0.999225  0.987575  0.250000  1
