# generated using pymatgen
data_YHo3Cu2(Si2Ru)2
_symmetry_space_group_name_H-M   'P 1'
_cell_length_a   4.21659000
_cell_length_b   6.94958704
_cell_length_c   7.35292129
_cell_angle_alpha   91.37892185
_cell_angle_beta   90.00000000
_cell_angle_gamma   90.00000000
_symmetry_Int_Tables_number   1
_chemical_formula_structural   YHo3Cu2(Si2Ru)2
_chemical_formula_sum   'Y1 Ho3 Cu2 Si4 Ru2'
_cell_volume   215.40436735
_cell_formula_units_Z   1
loop_
 _symmetry_equiv_pos_site_id
 _symmetry_equiv_pos_as_xyz
  1  'x, y, z'
loop_
 _atom_site_type_symbol
 _atom_site_label
 _atom_site_symmetry_multiplicity
 _atom_site_fract_x
 _atom_site_fract_y
 _atom_site_fract_z
 _atom_site_occupancy
  Y  Y0  1  0.250000  0.993875  0.797916  1
  Ho  Ho1  1  0.750000  0.006669  0.202775  1
  Ho  Ho2  1  0.250000  0.492973  0.688373  1
  Ho  Ho3  1  0.750000  0.507310  0.311545  1
  Cu  Cu4  1  0.750000  0.832540  0.571666  1
  Cu  Cu5  1  0.250000  0.167107  0.426603  1
  Si  Si6  1  0.250000  0.298822  0.091048  1
  Si  Si7  1  0.750000  0.700845  0.910653  1
  Si  Si8  1  0.250000  0.795788  0.388660  1
  Si  Si9  1  0.750000  0.204953  0.609991  1
  Ru  Ru10  1  0.750000  0.346778  0.934444  1
  Ru  Ru11  1  0.250000  0.652340  0.066326  1
