# generated using pymatgen
data_Hf7Mg(Co4P3)4
_symmetry_space_group_name_H-M   'P 1'
_cell_length_a   12.04383271
_cell_length_b   12.04383116
_cell_length_c   3.63442000
_cell_angle_alpha   90.00000000
_cell_angle_beta   90.00000000
_cell_angle_gamma   120.17468381
_symmetry_Int_Tables_number   1
_chemical_formula_structural   Hf7Mg(Co4P3)4
_chemical_formula_sum   'Hf7 Mg1 Co16 P12'
_cell_volume   455.75135235
_cell_formula_units_Z   1
loop_
 _symmetry_equiv_pos_site_id
 _symmetry_equiv_pos_as_xyz
  1  'x, y, z'
loop_
 _atom_site_type_symbol
 _atom_site_label
 _atom_site_symmetry_multiplicity
 _atom_site_fract_x
 _atom_site_fract_y
 _atom_site_fract_z
 _atom_site_occupancy
  Hf  Hf0  1  0.819390  0.819390  0.500000  1
  Hf  Hf1  1  0.000103  0.175114  0.500000  1
  Hf  Hf2  1  0.554674  0.998897  0.000000  1
  Hf  Hf3  1  0.332261  0.665776  0.000000  1
  Hf  Hf4  1  0.665776  0.332261  0.000000  1
  Hf  Hf5  1  0.998897  0.554674  0.000000  1
  Hf  Hf6  1  0.175114  0.000103  0.500000  1
  Mg  Mg7  1  0.444255  0.444255  0.000000  1
  Co  Co8  1  0.629619  0.821774  0.000000  1
  Co  Co9  1  0.375013  0.197741  0.000000  1
  Co  Co10  1  0.000611  0.721587  0.500000  1
  Co  Co11  1  0.281507  0.281507  0.500000  1
  Co  Co12  1  0.872986  0.354842  0.500000  1
  Co  Co13  1  0.721587  0.000611  0.500000  1
  Co  Co14  1  0.821774  0.629619  0.000000  1
  Co  Co15  1  0.178053  0.806969  0.000000  1
  Co  Co16  1  0.354842  0.872986  0.500000  1
  Co  Co17  1  0.126792  0.479857  0.500000  1
  Co  Co18  1  0.645021  0.517224  0.500000  1
  Co  Co19  1  0.000388  0.000388  0.000000  1
  Co  Co20  1  0.517224  0.645021  0.500000  1
  Co  Co21  1  0.479857  0.126792  0.500000  1
  Co  Co22  1  0.197741  0.375013  0.000000  1
  Co  Co23  1  0.806969  0.178053  0.000000  1
  P  P24  1  0.002882  0.345375  0.000000  1
  P  P25  1  0.825782  0.517029  0.500000  1
  P  P26  1  0.689640  0.173489  0.500000  1
  P  P27  1  0.176314  0.176314  0.000000  1
  P  P28  1  0.647434  0.647434  0.000000  1
  P  P29  1  0.825234  0.998885  0.000000  1
  P  P30  1  0.517029  0.825782  0.500000  1
  P  P31  1  0.173489  0.689640  0.500000  1
  P  P32  1  0.345375  0.002882  0.000000  1
  P  P33  1  0.483993  0.313490  0.500000  1
  P  P34  1  0.998885  0.825234  0.000000  1
  P  P35  1  0.313490  0.483993  0.500000  1
