# generated using pymatgen
data_Tm5ThFe4(Co7P6)2
_symmetry_space_group_name_H-M   'P 1'
_cell_length_a   3.70707500
_cell_length_b   10.57218800
_cell_length_c   12.12935900
_cell_angle_alpha   90.00000000
_cell_angle_beta   90.00000000
_cell_angle_gamma   90.00000000
_symmetry_Int_Tables_number   1
_chemical_formula_structural   Tm5ThFe4(Co7P6)2
_chemical_formula_sum   'Tm5 Th1 Fe4 Co14 P12'
_cell_volume   475.37255016
_cell_formula_units_Z   1
loop_
 _symmetry_equiv_pos_site_id
 _symmetry_equiv_pos_as_xyz
  1  'x, y, z'
loop_
 _atom_site_type_symbol
 _atom_site_label
 _atom_site_symmetry_multiplicity
 _atom_site_fract_x
 _atom_site_fract_y
 _atom_site_fract_z
 _atom_site_occupancy
  Tm  Tm0  1  0.500000  0.000000  0.477936  1
  Tm  Tm1  1  0.500000  0.819642  0.204315  1
  Tm  Tm2  1  0.500000  0.180358  0.204315  1
  Tm  Tm3  1  0.000000  0.681855  0.797536  1
  Tm  Tm4  1  0.000000  0.318145  0.797536  1
  Th  Th5  1  0.000000  0.500000  0.525110  1
  Fe  Fe6  1  0.500000  0.500000  0.152842  1
  Fe  Fe7  1  0.000000  0.000000  0.843838  1
  Fe  Fe8  1  0.000000  0.500000  0.988849  1
  Fe  Fe9  1  0.500000  0.000000  0.011864  1
  Co  Co10  1  0.500000  0.500000  0.702539  1
  Co  Co11  1  0.000000  0.000000  0.297315  1
  Co  Co12  1  0.500000  0.331484  0.994088  1
  Co  Co13  1  0.500000  0.668516  0.994088  1
  Co  Co14  1  0.000000  0.167837  0.005261  1
  Co  Co15  1  0.000000  0.832163  0.005261  1
  Co  Co16  1  0.500000  0.294346  0.430148  1
  Co  Co17  1  0.500000  0.705654  0.430148  1
  Co  Co18  1  0.000000  0.200164  0.570028  1
  Co  Co19  1  0.000000  0.799836  0.570028  1
  Co  Co20  1  0.500000  0.879711  0.711064  1
  Co  Co21  1  0.500000  0.120289  0.711064  1
  Co  Co22  1  0.000000  0.622267  0.288824  1
  Co  Co23  1  0.000000  0.377733  0.288824  1
  P  P24  1  0.500000  0.500000  0.884398  1
  P  P25  1  0.000000  0.000000  0.116128  1
  P  P26  1  0.500000  0.500000  0.336387  1
  P  P27  1  0.000000  0.000000  0.656987  1
  P  P28  1  0.500000  0.304712  0.619482  1
  P  P29  1  0.500000  0.695288  0.619482  1
  P  P30  1  0.000000  0.187504  0.382674  1
  P  P31  1  0.000000  0.812496  0.382674  1
  P  P32  1  0.500000  0.847459  0.893430  1
  P  P33  1  0.500000  0.152541  0.893430  1
  P  P34  1  0.000000  0.654350  0.106054  1
  P  P35  1  0.000000  0.345650  0.106054  1
