# generated using pymatgen
data_Hg2PdPt3(PbO7)2
_symmetry_space_group_name_H-M   'P 1'
_cell_length_a   7.32300961
_cell_length_b   7.19423297
_cell_length_c   7.32300958
_cell_angle_alpha   60.67403789
_cell_angle_beta   61.00279147
_cell_angle_gamma   60.67403652
_symmetry_Int_Tables_number   1
_chemical_formula_structural   Hg2PdPt3(PbO7)2
_chemical_formula_sum   'Hg2 Pd1 Pt3 Pb2 O14'
_cell_volume   277.61900204
_cell_formula_units_Z   1
loop_
 _symmetry_equiv_pos_site_id
 _symmetry_equiv_pos_as_xyz
  1  'x, y, z'
loop_
 _atom_site_type_symbol
 _atom_site_label
 _atom_site_symmetry_multiplicity
 _atom_site_fract_x
 _atom_site_fract_y
 _atom_site_fract_z
 _atom_site_occupancy
  Hg  Hg0  1  0.125000  0.125000  0.125000  1
  Hg  Hg1  1  0.125000  0.625000  0.125000  1
  Pd  Pd2  1  0.625000  0.125000  0.625000  1
  Pt  Pt3  1  0.625000  0.625000  0.125000  1
  Pt  Pt4  1  0.625000  0.625000  0.625000  1
  Pt  Pt5  1  0.125000  0.625000  0.625000  1
  Pb  Pb6  1  0.625000  0.125000  0.125000  1
  Pb  Pb7  1  0.125000  0.125000  0.625000  1
  O  O8  1  0.702139  0.291037  0.291698  1
  O  O9  1  0.708730  0.292404  0.708730  1
  O  O10  1  0.987836  0.012057  0.987836  1
  O  O11  1  0.292698  0.707170  0.292698  1
  O  O12  1  0.702237  0.714757  0.293582  1
  O  O13  1  0.956418  0.535243  0.547763  1
  O  O14  1  0.293582  0.714757  0.702237  1
  O  O15  1  0.262164  0.237943  0.262164  1
  O  O16  1  0.957302  0.542830  0.957302  1
  O  O17  1  0.541270  0.957596  0.541270  1
  O  O18  1  0.547763  0.535243  0.956418  1
  O  O19  1  0.958302  0.958963  0.547861  1
  O  O20  1  0.547861  0.958963  0.958302  1
  O  O21  1  0.291698  0.291037  0.702139  1
