# generated using pymatgen
data_CaYb2(H6Ir)2
_symmetry_space_group_name_H-M   'P 1'
_cell_length_a   4.91833200
_cell_length_b   4.91833247
_cell_length_c   8.17089600
_cell_angle_alpha   90.00000000
_cell_angle_beta   90.00000000
_cell_angle_gamma   119.99999683
_symmetry_Int_Tables_number   1
_chemical_formula_structural   CaYb2(H6Ir)2
_chemical_formula_sum   'Ca1 Yb2 H12 Ir2'
_cell_volume   171.17331155
_cell_formula_units_Z   1
loop_
 _symmetry_equiv_pos_site_id
 _symmetry_equiv_pos_as_xyz
  1  'x, y, z'
loop_
 _atom_site_type_symbol
 _atom_site_label
 _atom_site_symmetry_multiplicity
 _atom_site_fract_x
 _atom_site_fract_y
 _atom_site_fract_z
 _atom_site_occupancy
  Ca  Ca0  1  0.000000  0.000000  0.000000  1
  Yb  Yb1  1  0.666667  0.333333  0.364512  1
  Yb  Yb2  1  0.333333  0.666667  0.635488  1
  H  H3  1  0.170819  0.829181  0.370117  1
  H  H4  1  0.658362  0.829181  0.370117  1
  H  H5  1  0.170819  0.341638  0.370117  1
  H  H6  1  0.829181  0.170819  0.629883  1
  H  H7  1  0.341638  0.170819  0.629883  1
  H  H8  1  0.829181  0.658362  0.629883  1
  H  H9  1  0.508669  0.017339  0.869008  1
  H  H10  1  0.508669  0.491331  0.869008  1
  H  H11  1  0.982661  0.491331  0.869008  1
  H  H12  1  0.491331  0.982661  0.130992  1
  H  H13  1  0.491331  0.508669  0.130992  1
  H  H14  1  0.017339  0.508669  0.130992  1
  Ir  Ir15  1  0.666667  0.333333  0.746841  1
  Ir  Ir16  1  0.333333  0.666667  0.253159  1
