# generated using pymatgen
data_AgHg3(Ir2O7)2
_symmetry_space_group_name_H-M   'P 1'
_cell_length_a   7.29646203
_cell_length_b   7.29658506
_cell_length_c   7.30573341
_cell_angle_alpha   60.03935573
_cell_angle_beta   60.03880920
_cell_angle_gamma   59.99656504
_symmetry_Int_Tables_number   1
_chemical_formula_structural   AgHg3(Ir2O7)2
_chemical_formula_sum   'Ag1 Hg3 Ir4 O14'
_cell_volume   275.18566620
_cell_formula_units_Z   1
loop_
 _symmetry_equiv_pos_site_id
 _symmetry_equiv_pos_as_xyz
  1  'x, y, z'
loop_
 _atom_site_type_symbol
 _atom_site_label
 _atom_site_symmetry_multiplicity
 _atom_site_fract_x
 _atom_site_fract_y
 _atom_site_fract_z
 _atom_site_occupancy
  Ag  Ag0  1  0.125000  0.125000  0.625000  1
  Hg  Hg1  1  0.625000  0.125000  0.125000  1
  Hg  Hg2  1  0.125000  0.625000  0.125000  1
  Hg  Hg3  1  0.125000  0.125000  0.125000  1
  Ir  Ir4  1  0.125000  0.625000  0.625000  1
  Ir  Ir5  1  0.625000  0.125000  0.625000  1
  Ir  Ir6  1  0.625000  0.625000  0.125000  1
  Ir  Ir7  1  0.625000  0.625000  0.625000  1
  O  O8  1  0.696238  0.696220  0.303764  1
  O  O9  1  0.304143  0.304109  0.694377  1
  O  O10  1  0.697419  0.304191  0.694344  1
  O  O11  1  0.303800  0.696275  0.303696  1
  O  O12  1  0.304209  0.697402  0.694350  1
  O  O13  1  0.696289  0.303787  0.303698  1
  O  O14  1  0.553762  0.553780  0.946236  1
  O  O15  1  0.945857  0.945891  0.555623  1
  O  O16  1  0.552581  0.945809  0.555656  1
  O  O17  1  0.946200  0.553725  0.946304  1
  O  O18  1  0.945791  0.552598  0.555650  1
  O  O19  1  0.553711  0.946213  0.946302  1
  O  O20  1  0.246825  0.246833  0.259493  1
  O  O21  1  0.003175  0.003167  0.990507  1
