# generated using pymatgen
data_Hf3(V2Os)2
_symmetry_space_group_name_H-M   'P 1'
_cell_length_a   5.17790272
_cell_length_b   5.23213932
_cell_length_c   12.63538354
_cell_angle_alpha   90.06650044
_cell_angle_beta   89.91689922
_cell_angle_gamma   120.37170229
_symmetry_Int_Tables_number   1
_chemical_formula_structural   Hf3(V2Os)2
_chemical_formula_sum   'Hf6 V8 Os4'
_cell_volume   295.33360266
_cell_formula_units_Z   2
loop_
 _symmetry_equiv_pos_site_id
 _symmetry_equiv_pos_as_xyz
  1  'x, y, z'
loop_
 _atom_site_type_symbol
 _atom_site_label
 _atom_site_symmetry_multiplicity
 _atom_site_fract_x
 _atom_site_fract_y
 _atom_site_fract_z
 _atom_site_occupancy
  Hf  Hf0  1  0.334068  0.664644  0.918104  1
  Hf  Hf1  1  0.001380  0.001335  0.248292  1
  Hf  Hf2  1  0.667085  0.333069  0.583167  1
  Hf  Hf3  1  0.332915  0.666931  0.666833  1
  Hf  Hf4  1  0.998620  0.998665  0.001707  1
  Hf  Hf5  1  0.665932  0.335356  0.331896  1
  V  V6  1  0.166738  0.334266  0.457370  1
  V  V7  1  0.833262  0.665734  0.792630  1
  V  V8  1  0.333358  0.667482  0.292069  1
  V  V9  1  0.000000  0.000000  0.625000  1
  V  V10  1  0.666642  0.332518  0.957931  1
  V  V11  1  0.000000  0.500000  0.125000  1
  V  V12  1  0.666037  0.833809  0.458149  1
  V  V13  1  0.333963  0.166191  0.791851  1
  Os  Os14  1  0.500000  0.500000  0.125000  1
  Os  Os15  1  0.165948  0.834738  0.458085  1
  Os  Os16  1  0.834052  0.165262  0.791915  1
  Os  Os17  1  0.500000  0.000000  0.125000  1
