# generated using pymatgen
data_LiNd8DySi6
_symmetry_space_group_name_H-M   'P 1'
_cell_length_a   8.93658466
_cell_length_b   8.93658549
_cell_length_c   8.93658400
_cell_angle_alpha   129.13990427
_cell_angle_beta   129.13990857
_cell_angle_gamma   74.78556300
_symmetry_Int_Tables_number   1
_chemical_formula_structural   LiNd8DySi6
_chemical_formula_sum   'Li1 Nd8 Dy1 Si6'
_cell_volume   418.22082351
_cell_formula_units_Z   1
loop_
 _symmetry_equiv_pos_site_id
 _symmetry_equiv_pos_as_xyz
  1  'x, y, z'
loop_
 _atom_site_type_symbol
 _atom_site_label
 _atom_site_symmetry_multiplicity
 _atom_site_fract_x
 _atom_site_fract_y
 _atom_site_fract_z
 _atom_site_occupancy
  Li  Li0  1  0.000000  0.000000  0.000000  1
  Nd  Nd1  1  0.684406  0.171412  0.142626  1
  Nd  Nd2  1  0.541780  0.684406  0.512994  1
  Nd  Nd3  1  0.028785  0.541780  0.857374  1
  Nd  Nd4  1  0.828588  0.971215  0.512994  1
  Nd  Nd5  1  0.315594  0.828588  0.857374  1
  Nd  Nd6  1  0.171412  0.028785  0.487006  1
  Nd  Nd7  1  0.458220  0.315594  0.487006  1
  Nd  Nd8  1  0.971215  0.458220  0.142626  1
  Dy  Dy9  1  0.500000  0.500000  0.000000  1
  Si  Si10  1  0.881265  0.611043  0.492308  1
  Si  Si11  1  0.611043  0.118735  0.729777  1
  Si  Si12  1  0.388957  0.881265  0.270223  1
  Si  Si13  1  0.118735  0.388957  0.507692  1
  Si  Si14  1  0.733405  0.733405  0.000000  1
  Si  Si15  1  0.266595  0.266595  0.000000  1
