# generated using pymatgen
data_Pa7Cd3O20
_symmetry_space_group_name_H-M   'P 1'
_cell_length_a   10.15434996
_cell_length_b   10.15435082
_cell_length_c   6.61687377
_cell_angle_alpha   83.76899827
_cell_angle_beta   83.76899774
_cell_angle_gamma   141.70062415
_symmetry_Int_Tables_number   1
_chemical_formula_structural   Pa7Cd3O20
_chemical_formula_sum   'Pa7 Cd3 O20'
_cell_volume   399.03529020
_cell_formula_units_Z   1
loop_
 _symmetry_equiv_pos_site_id
 _symmetry_equiv_pos_as_xyz
  1  'x, y, z'
loop_
 _atom_site_type_symbol
 _atom_site_label
 _atom_site_symmetry_multiplicity
 _atom_site_fract_x
 _atom_site_fract_y
 _atom_site_fract_z
 _atom_site_occupancy
  Pa  Pa0  1  0.899791  0.100209  0.000000  1
  Pa  Pa1  1  0.398717  0.601283  0.500000  1
  Pa  Pa2  1  0.100209  0.899791  0.000000  1
  Pa  Pa3  1  0.000000  0.000000  0.500000  1
  Pa  Pa4  1  0.699222  0.300778  0.000000  1
  Pa  Pa5  1  0.601283  0.398717  0.500000  1
  Pa  Pa6  1  0.300778  0.699222  0.000000  1
  Cd  Cd7  1  0.500000  0.500000  0.000000  1
  Cd  Cd8  1  0.203023  0.796977  0.500000  1
  Cd  Cd9  1  0.796977  0.203023  0.500000  1
  O  O10  1  0.265219  0.468099  0.873297  1
  O  O11  1  0.889697  0.889697  0.869461  1
  O  O12  1  0.776412  0.969180  0.369298  1
  O  O13  1  0.030820  0.223588  0.630702  1
  O  O14  1  0.468099  0.265219  0.873297  1
  O  O15  1  0.368951  0.368951  0.390570  1
  O  O16  1  0.631049  0.631049  0.609430  1
  O  O17  1  0.067450  0.669111  0.896319  1
  O  O18  1  0.531901  0.734781  0.126703  1
  O  O19  1  0.969180  0.776412  0.369298  1
  O  O20  1  0.223588  0.030820  0.630702  1
  O  O21  1  0.669111  0.067450  0.896319  1
  O  O22  1  0.110303  0.110303  0.130539  1
  O  O23  1  0.580285  0.191201  0.358181  1
  O  O24  1  0.808799  0.419715  0.641819  1
  O  O25  1  0.419715  0.808799  0.641819  1
  O  O26  1  0.734781  0.531901  0.126703  1
  O  O27  1  0.191201  0.580285  0.358181  1
  O  O28  1  0.330889  0.932550  0.103681  1
  O  O29  1  0.932550  0.330889  0.103681  1
