# generated using pymatgen
data_Tm16Zr3ScRh12
_symmetry_space_group_name_H-M   'P 1'
_cell_length_a   10.71194000
_cell_length_b   10.71194000
_cell_length_c   6.21067700
_cell_angle_alpha   90.00000000
_cell_angle_beta   90.00000000
_cell_angle_gamma   90.00000000
_symmetry_Int_Tables_number   1
_chemical_formula_structural   Tm16Zr3ScRh12
_chemical_formula_sum   'Tm16 Zr3 Sc1 Rh12'
_cell_volume   712.64822249
_cell_formula_units_Z   1
loop_
 _symmetry_equiv_pos_site_id
 _symmetry_equiv_pos_as_xyz
  1  'x, y, z'
loop_
 _atom_site_type_symbol
 _atom_site_label
 _atom_site_symmetry_multiplicity
 _atom_site_fract_x
 _atom_site_fract_y
 _atom_site_fract_z
 _atom_site_occupancy
  Tm  Tm0  1  0.289956  0.086380  0.373709  1
  Tm  Tm1  1  0.289548  0.912692  0.874232  1
  Tm  Tm2  1  0.710452  0.087308  0.874232  1
  Tm  Tm3  1  0.710044  0.913620  0.373709  1
  Tm  Tm4  1  0.587409  0.789744  0.875615  1
  Tm  Tm5  1  0.586127  0.211682  0.374557  1
  Tm  Tm6  1  0.413873  0.788318  0.374557  1
  Tm  Tm7  1  0.412591  0.210256  0.875615  1
  Tm  Tm8  1  0.211682  0.413873  0.625443  1
  Tm  Tm9  1  0.210256  0.587409  0.124385  1
  Tm  Tm10  1  0.789744  0.412591  0.124385  1
  Tm  Tm11  1  0.788318  0.586127  0.625443  1
  Tm  Tm12  1  0.912692  0.710452  0.125768  1
  Tm  Tm13  1  0.913620  0.289956  0.626291  1
  Tm  Tm14  1  0.086380  0.710044  0.626291  1
  Tm  Tm15  1  0.087308  0.289548  0.125768  1
  Zr  Zr16  1  0.000000  0.000000  0.500000  1
  Zr  Zr17  1  0.000000  0.000000  0.000000  1
  Zr  Zr18  1  0.500000  0.500000  0.000000  1
  Sc  Sc19  1  0.500000  0.500000  0.500000  1
  Rh  Rh20  1  0.851835  0.148274  0.251221  1
  Rh  Rh21  1  0.851726  0.851835  0.748779  1
  Rh  Rh22  1  0.148274  0.148165  0.748779  1
  Rh  Rh23  1  0.148165  0.851726  0.251221  1
  Rh  Rh24  1  0.647916  0.350053  0.753746  1
  Rh  Rh25  1  0.649947  0.647916  0.246254  1
  Rh  Rh26  1  0.350053  0.352084  0.246254  1
  Rh  Rh27  1  0.352084  0.649947  0.753746  1
  Rh  Rh28  1  0.500000  0.000000  0.121100  1
  Rh  Rh29  1  0.500000  0.000000  0.620586  1
  Rh  Rh30  1  0.000000  0.500000  0.878900  1
  Rh  Rh31  1  0.000000  0.500000  0.379414  1
