# generated using pymatgen
data_Yb3Dy2Pb3Cl
_symmetry_space_group_name_H-M   'P 1'
_cell_length_a   9.20918800
_cell_length_b   9.20918835
_cell_length_c   6.86223000
_cell_angle_alpha   90.00000000
_cell_angle_beta   90.00000000
_cell_angle_gamma   120.00001313
_symmetry_Int_Tables_number   1
_chemical_formula_structural   Yb3Dy2Pb3Cl
_chemical_formula_sum   'Yb6 Dy4 Pb6 Cl2'
_cell_volume   504.00928647
_cell_formula_units_Z   2
loop_
 _symmetry_equiv_pos_site_id
 _symmetry_equiv_pos_as_xyz
  1  'x, y, z'
loop_
 _atom_site_type_symbol
 _atom_site_label
 _atom_site_symmetry_multiplicity
 _atom_site_fract_x
 _atom_site_fract_y
 _atom_site_fract_z
 _atom_site_occupancy
  Yb  Yb0  1  0.250690  0.000000  0.250000  1
  Yb  Yb1  1  0.749310  0.000000  0.750000  1
  Yb  Yb2  1  0.000000  0.250690  0.250000  1
  Yb  Yb3  1  0.000000  0.749310  0.750000  1
  Yb  Yb4  1  0.749310  0.749310  0.250000  1
  Yb  Yb5  1  0.250690  0.250690  0.750000  1
  Dy  Dy6  1  0.333333  0.666667  0.000000  1
  Dy  Dy7  1  0.666667  0.333333  0.000000  1
  Dy  Dy8  1  0.666667  0.333333  0.500000  1
  Dy  Dy9  1  0.333333  0.666667  0.500000  1
  Pb  Pb10  1  0.597890  0.000000  0.250000  1
  Pb  Pb11  1  0.402110  0.000000  0.750000  1
  Pb  Pb12  1  0.000000  0.597890  0.250000  1
  Pb  Pb13  1  0.000000  0.402110  0.750000  1
  Pb  Pb14  1  0.402110  0.402110  0.250000  1
  Pb  Pb15  1  0.597890  0.597890  0.750000  1
  Cl  Cl16  1  0.000000  0.000000  0.000000  1
  Cl  Cl17  1  0.000000  0.000000  0.500000  1
