# generated using pymatgen
data_Rb6Na4TaVP6
_symmetry_space_group_name_H-M   'P 1'
_cell_length_a   10.50980107
_cell_length_b   10.50980040
_cell_length_c   15.55986200
_cell_angle_alpha   90.00000000
_cell_angle_beta   90.00000000
_cell_angle_gamma   142.45450984
_symmetry_Int_Tables_number   1
_chemical_formula_structural   Rb6Na4TaVP6
_chemical_formula_sum   'Rb12 Na8 Ta2 V2 P12'
_cell_volume   1047.34756596
_cell_formula_units_Z   2
loop_
 _symmetry_equiv_pos_site_id
 _symmetry_equiv_pos_as_xyz
  1  'x, y, z'
loop_
 _atom_site_type_symbol
 _atom_site_label
 _atom_site_symmetry_multiplicity
 _atom_site_fract_x
 _atom_site_fract_y
 _atom_site_fract_z
 _atom_site_occupancy
  Rb  Rb0  1  0.944394  0.607881  0.824375  1
  Rb  Rb1  1  0.555606  0.892119  0.324375  1
  Rb  Rb2  1  0.392119  0.055606  0.175625  1
  Rb  Rb3  1  0.061996  0.393928  0.172453  1
  Rb  Rb4  1  0.893928  0.561996  0.327547  1
  Rb  Rb5  1  0.438004  0.106072  0.672453  1
  Rb  Rb6  1  0.606072  0.938004  0.827547  1
  Rb  Rb7  1  0.277169  0.273922  0.314588  1
  Rb  Rb8  1  0.773922  0.777169  0.185412  1
  Rb  Rb9  1  0.222831  0.226078  0.814588  1
  Rb  Rb10  1  0.726078  0.722831  0.685412  1
  Rb  Rb11  1  0.107881  0.444394  0.675625  1
  Na  Na12  1  0.919915  0.080085  0.000000  1
  Na  Na13  1  0.580085  0.419915  0.500000  1
  Na  Na14  1  0.078883  0.921117  0.000000  1
  Na  Na15  1  0.421117  0.578883  0.500000  1
  Na  Na16  1  0.755995  0.244005  0.000000  1
  Na  Na17  1  0.744005  0.255995  0.500000  1
  Na  Na18  1  0.246122  0.753878  0.000000  1
  Na  Na19  1  0.253878  0.746122  0.500000  1
  Ta  Ta20  1  0.580831  0.419169  0.000000  1
  Ta  Ta21  1  0.919169  0.080831  0.500000  1
  V  V22  1  0.416498  0.583502  0.000000  1
  V  V23  1  0.083502  0.916498  0.500000  1
  P  P24  1  0.856330  0.553118  0.091895  1
  P  P25  1  0.446882  0.143670  0.908105  1
  P  P26  1  0.643670  0.946882  0.591895  1
  P  P27  1  0.950023  0.645840  0.591385  1
  P  P28  1  0.145840  0.450023  0.908615  1
  P  P29  1  0.549977  0.854160  0.091385  1
  P  P30  1  0.354160  0.049977  0.408615  1
  P  P31  1  0.190239  0.191086  0.583859  1
  P  P32  1  0.691086  0.690239  0.916141  1
  P  P33  1  0.309761  0.308914  0.083859  1
  P  P34  1  0.053118  0.356330  0.408105  1
  P  P35  1  0.808914  0.809761  0.416141  1
