# generated using pymatgen
data_Li12Pr9Nd3(TeO6)8
_symmetry_space_group_name_H-M   'P 1'
_cell_length_a   11.03370398
_cell_length_b   11.04144016
_cell_length_c   11.03398732
_cell_angle_alpha   109.48527630
_cell_angle_beta   109.45688885
_cell_angle_gamma   109.48486393
_symmetry_Int_Tables_number   1
_chemical_formula_structural   Li12Pr9Nd3(TeO6)8
_chemical_formula_sum   'Li12 Pr9 Nd3 Te8 O48'
_cell_volume   1034.63210219
_cell_formula_units_Z   1
loop_
 _symmetry_equiv_pos_site_id
 _symmetry_equiv_pos_as_xyz
  1  'x, y, z'
loop_
 _atom_site_type_symbol
 _atom_site_label
 _atom_site_symmetry_multiplicity
 _atom_site_fract_x
 _atom_site_fract_y
 _atom_site_fract_z
 _atom_site_occupancy
  Li  Li0  1  0.874868  0.749915  0.125051  1
  Li  Li1  1  0.250182  0.875135  0.125048  1
  Li  Li2  1  0.874667  0.124830  0.249903  1
  Li  Li3  1  0.375239  0.625074  0.249905  1
  Li  Li4  1  0.749766  0.624655  0.374562  1
  Li  Li5  1  0.624799  0.249911  0.374566  1
  Li  Li6  1  0.375002  0.750028  0.625011  1
  Li  Li7  1  0.250011  0.374986  0.625013  1
  Li  Li8  1  0.125100  0.875134  0.750126  1
  Li  Li9  1  0.625023  0.374991  0.750123  1
  Li  Li10  1  0.125279  0.250014  0.875267  1
  Li  Li11  1  0.749989  0.125254  0.875271  1
  Pr  Pr12  1  0.124916  0.374915  0.249836  1
  Pr  Pr13  1  0.250115  0.125032  0.374889  1
  Pr  Pr14  1  0.124775  0.749858  0.374889  1
  Pr  Pr15  1  0.749883  0.874919  0.624765  1
  Pr  Pr16  1  0.874882  0.249845  0.624765  1
  Pr  Pr17  1  0.375189  0.125188  0.750376  1
  Pr  Pr18  1  0.875013  0.625013  0.750025  1
  Pr  Pr19  1  0.250183  0.625136  0.875229  1
  Pr  Pr20  1  0.625047  0.750094  0.875229  1
  Nd  Nd21  1  0.749845  0.374963  0.125054  1
  Nd  Nd22  1  0.375209  0.250092  0.125055  1
  Nd  Nd23  1  0.624996  0.874996  0.249993  1
  Te  Te24  1  0.000544  0.000257  0.000050  1
  Te  Te25  1  0.500359  0.000731  0.000982  1
  Te  Te26  1  0.500625  0.500252  0.000982  1
  Te  Te27  1  0.999505  0.499798  0.000051  1
  Te  Te28  1  0.999458  0.999679  0.499505  1
  Te  Te29  1  0.499946  0.499761  0.499423  1
  Te  Te30  1  0.500048  0.999826  0.499506  1
  Te  Te31  1  0.999478  0.499665  0.499425  1
  O  O32  1  0.905426  0.329745  0.022765  1
  O  O33  1  0.117341  0.193022  0.022767  1
  O  O34  1  0.407068  0.884322  0.077749  1
  O  O35  1  0.670680  0.693424  0.077747  1
  O  O36  1  0.670222  0.977595  0.094816  1
  O  O37  1  0.424594  0.617221  0.094815  1
  O  O38  1  0.922267  0.592953  0.115881  1
  O  O39  1  0.193615  0.022928  0.115881  1
  O  O40  1  0.576510  0.194025  0.170531  1
  O  O41  1  0.594022  0.476508  0.170532  1
  O  O42  1  0.170374  0.576760  0.192653  1
  O  O43  1  0.022279  0.115894  0.192652  1
  O  O44  1  0.384115  0.477078  0.306340  1
  O  O45  1  0.922225  0.329263  0.306340  1
  O  O46  1  0.307125  0.923030  0.329359  1
  O  O47  1  0.022235  0.906329  0.329359  1
  O  O48  1  0.905384  0.575612  0.382607  1
  O  O49  1  0.477225  0.306996  0.382607  1
  O  O50  1  0.522731  0.829775  0.405374  1
  O  O51  1  0.882644  0.075598  0.405374  1
  O  O52  1  0.806410  0.829293  0.422304  1
  O  O53  1  0.615895  0.093011  0.422304  1
  O  O54  1  0.307358  0.384152  0.477704  1
  O  O55  1  0.170348  0.593553  0.477705  1
  O  O56  1  0.692839  0.615911  0.522179  1
  O  O57  1  0.829340  0.406268  0.522179  1
  O  O58  1  0.192317  0.170430  0.576716  1
  O  O59  1  0.384400  0.906287  0.576716  1
  O  O60  1  0.115555  0.923062  0.593490  1
  O  O61  1  0.477936  0.170429  0.593489  1
  O  O62  1  0.522016  0.692440  0.615513  1
  O  O63  1  0.093496  0.423073  0.615512  1
  O  O64  1  0.977757  0.093616  0.670364  1
  O  O65  1  0.692608  0.076749  0.670363  1
  O  O66  1  0.615604  0.521847  0.692244  1
  O  O67  1  0.076640  0.670396  0.692244  1
  O  O68  1  0.977800  0.884127  0.807172  1
  O  O69  1  0.829371  0.423045  0.807171  1
  O  O70  1  0.406410  0.521761  0.829946  1
  O  O71  1  0.423537  0.808186  0.829948  1
  O  O72  1  0.807707  0.978160  0.884385  1
  O  O73  1  0.076679  0.406226  0.884386  1
  O  O74  1  0.577586  0.384352  0.907217  1
  O  O75  1  0.329629  0.022863  0.907215  1
  O  O76  1  0.330093  0.307570  0.924782  1
  O  O77  1  0.594688  0.117211  0.924783  1
  O  O78  1  0.093534  0.670394  0.977969  1
  O  O79  1  0.884436  0.807576  0.977969  1
