# generated using pymatgen
data_Dy15ErIn4Pt3Rh
_symmetry_space_group_name_H-M   'P 1'
_cell_length_a   9.70129377
_cell_length_b   9.70363710
_cell_length_c   9.70129301
_cell_angle_alpha   60.07158492
_cell_angle_beta   60.06129749
_cell_angle_gamma   60.07158691
_symmetry_Int_Tables_number   1
_chemical_formula_structural   Dy15ErIn4Pt3Rh
_chemical_formula_sum   'Dy15 Er1 In4 Pt3 Rh1'
_cell_volume   646.76888139
_cell_formula_units_Z   1
loop_
 _symmetry_equiv_pos_site_id
 _symmetry_equiv_pos_as_xyz
  1  'x, y, z'
loop_
 _atom_site_type_symbol
 _atom_site_label
 _atom_site_symmetry_multiplicity
 _atom_site_fract_x
 _atom_site_fract_y
 _atom_site_fract_z
 _atom_site_occupancy
  Dy  Dy0  1  0.190459  0.190203  0.809082  1
  Dy  Dy1  1  0.438146  0.062021  0.062224  1
  Dy  Dy2  1  0.437333  0.063631  0.437333  1
  Dy  Dy3  1  0.062139  0.438279  0.062139  1
  Dy  Dy4  1  0.650438  0.051872  0.650438  1
  Dy  Dy5  1  0.186785  0.810473  0.810662  1
  Dy  Dy6  1  0.062224  0.062021  0.438146  1
  Dy  Dy7  1  0.809082  0.190203  0.190459  1
  Dy  Dy8  1  0.810662  0.810473  0.186785  1
  Dy  Dy9  1  0.650209  0.650534  0.051988  1
  Dy  Dy10  1  0.649213  0.649267  0.649213  1
  Dy  Dy11  1  0.063717  0.437500  0.437210  1
  Dy  Dy12  1  0.051988  0.650534  0.650209  1
  Dy  Dy13  1  0.810516  0.186693  0.810516  1
  Dy  Dy14  1  0.437210  0.437500  0.063717  1
  Er  Er15  1  0.190364  0.808919  0.190364  1
  In  In16  1  0.416838  0.748971  0.416838  1
  In  In17  1  0.416885  0.416951  0.748912  1
  In  In18  1  0.748912  0.416951  0.416885  1
  In  In19  1  0.416257  0.416425  0.416257  1
  Pt  Pt20  1  0.857503  0.428185  0.857503  1
  Pt  Pt21  1  0.858160  0.857482  0.427613  1
  Pt  Pt22  1  0.427613  0.857482  0.858160  1
  Rh  Rh23  1  0.857349  0.857433  0.857349  1
