# generated using pymatgen
data_Pa2NiB8Os
_symmetry_space_group_name_H-M   'P 1'
_cell_length_a   6.91261666
_cell_length_b   6.91253340
_cell_length_c   6.91261790
_cell_angle_alpha   113.77167825
_cell_angle_beta   110.91392104
_cell_angle_gamma   103.88356468
_symmetry_Int_Tables_number   1
_chemical_formula_structural   Pa2NiB8Os
_chemical_formula_sum   'Pa4 Ni2 B16 Os2'
_cell_volume   252.30690028
_cell_formula_units_Z   2
loop_
 _symmetry_equiv_pos_site_id
 _symmetry_equiv_pos_as_xyz
  1  'x, y, z'
loop_
 _atom_site_type_symbol
 _atom_site_label
 _atom_site_symmetry_multiplicity
 _atom_site_fract_x
 _atom_site_fract_y
 _atom_site_fract_z
 _atom_site_occupancy
  Pa  Pa0  1  0.205497  0.205504  0.000007  1
  Pa  Pa1  1  0.794503  0.794496  0.999993  1
  Pa  Pa2  1  0.740495  0.240529  0.500033  1
  Pa  Pa3  1  0.259505  0.759471  0.499967  1
  Ni  Ni4  1  0.746556  0.500000  0.246554  1
  Ni  Ni5  1  0.253444  0.500000  0.753446  1
  B  B6  1  0.106048  0.270742  0.376759  1
  B  B7  1  0.893952  0.729258  0.623241  1
  B  B8  1  0.893983  0.270741  0.164693  1
  B  B9  1  0.106017  0.729259  0.835307  1
  B  B10  1  0.733128  0.889356  0.622470  1
  B  B11  1  0.266872  0.110644  0.377530  1
  B  B12  1  0.733115  0.110644  0.843771  1
  B  B13  1  0.266885  0.889356  0.156229  1
  B  B14  1  0.415865  0.422769  0.532004  1
  B  B15  1  0.890759  0.883874  0.468017  1
  B  B16  1  0.584143  0.116125  0.006884  1
  B  B17  1  0.109235  0.577232  0.993097  1
  B  B18  1  0.584135  0.577231  0.467996  1
  B  B19  1  0.109241  0.116126  0.531983  1
  B  B20  1  0.890765  0.422768  0.006903  1
  B  B21  1  0.415857  0.883875  0.993116  1
  Os  Os22  1  0.500007  0.280433  0.780425  1
  Os  Os23  1  0.499993  0.719567  0.219575  1
