# generated using pymatgen
data_Sc4TiZn(Co5B2)2
_symmetry_space_group_name_H-M   'P 1'
_cell_length_a   8.79421700
_cell_length_b   8.79421700
_cell_length_c   2.96491700
_cell_angle_alpha   90.00000000
_cell_angle_beta   90.00000000
_cell_angle_gamma   90.00000000
_symmetry_Int_Tables_number   1
_chemical_formula_structural   Sc4TiZn(Co5B2)2
_chemical_formula_sum   'Sc4 Ti1 Zn1 Co10 B4'
_cell_volume   229.30150001
_cell_formula_units_Z   1
loop_
 _symmetry_equiv_pos_site_id
 _symmetry_equiv_pos_as_xyz
  1  'x, y, z'
loop_
 _atom_site_type_symbol
 _atom_site_label
 _atom_site_symmetry_multiplicity
 _atom_site_fract_x
 _atom_site_fract_y
 _atom_site_fract_z
 _atom_site_occupancy
  Sc  Sc0  1  0.827075  0.322831  0.000000  1
  Sc  Sc1  1  0.322831  0.172925  0.000000  1
  Sc  Sc2  1  0.677169  0.827075  0.000000  1
  Sc  Sc3  1  0.172925  0.677169  0.000000  1
  Ti  Ti4  1  0.500000  0.500000  0.000000  1
  Zn  Zn5  1  0.000000  0.000000  0.000000  1
  Co  Co6  1  0.500000  0.000000  0.500000  1
  Co  Co7  1  0.000000  0.500000  0.500000  1
  Co  Co8  1  0.070615  0.224299  0.500000  1
  Co  Co9  1  0.224299  0.929385  0.500000  1
  Co  Co10  1  0.775701  0.070615  0.500000  1
  Co  Co11  1  0.929385  0.775701  0.500000  1
  Co  Co12  1  0.430915  0.722425  0.500000  1
  Co  Co13  1  0.569085  0.277575  0.500000  1
  Co  Co14  1  0.722425  0.569085  0.500000  1
  Co  Co15  1  0.277575  0.430915  0.500000  1
  B  B16  1  0.622187  0.118149  0.000000  1
  B  B17  1  0.118149  0.377813  0.000000  1
  B  B18  1  0.881851  0.622187  0.000000  1
  B  B19  1  0.377813  0.881851  0.000000  1
