# generated using pymatgen
data_NdTm3(WO6)2
_symmetry_space_group_name_H-M   'P 1'
_cell_length_a   5.39996500
_cell_length_b   7.71757599
_cell_length_c   11.46393516
_cell_angle_alpha   75.37156994
_cell_angle_beta   90.00000000
_cell_angle_gamma   90.00000000
_symmetry_Int_Tables_number   1
_chemical_formula_structural   NdTm3(WO6)2
_chemical_formula_sum   'Nd2 Tm6 W4 O24'
_cell_volume   462.26844355
_cell_formula_units_Z   2
loop_
 _symmetry_equiv_pos_site_id
 _symmetry_equiv_pos_as_xyz
  1  'x, y, z'
loop_
 _atom_site_type_symbol
 _atom_site_label
 _atom_site_symmetry_multiplicity
 _atom_site_fract_x
 _atom_site_fract_y
 _atom_site_fract_z
 _atom_site_occupancy
  Nd  Nd0  1  0.313953  0.500000  0.750000  1
  Nd  Nd1  1  0.686047  0.500000  0.250000  1
  Tm  Tm2  1  0.256370  0.000000  0.750000  1
  Tm  Tm3  1  0.184896  0.797460  0.077437  1
  Tm  Tm4  1  0.184896  0.202540  0.422563  1
  Tm  Tm5  1  0.743630  0.000000  0.250000  1
  Tm  Tm6  1  0.815104  0.202540  0.922563  1
  Tm  Tm7  1  0.815104  0.797460  0.577437  1
  W  W8  1  0.745455  0.728714  0.884118  1
  W  W9  1  0.254545  0.728714  0.384118  1
  W  W10  1  0.745455  0.271286  0.615882  1
  W  W11  1  0.254545  0.271286  0.115882  1
  O  O12  1  0.539605  0.155277  0.069570  1
  O  O13  1  0.042202  0.056924  0.103923  1
  O  O14  1  0.015148  0.722070  0.768239  1
  O  O15  1  0.460395  0.155277  0.569570  1
  O  O16  1  0.346784  0.491995  0.387004  1
  O  O17  1  0.957798  0.056924  0.603923  1
  O  O18  1  0.543648  0.798108  0.725230  1
  O  O19  1  0.456352  0.798108  0.225230  1
  O  O20  1  0.143977  0.641704  0.546450  1
  O  O21  1  0.042202  0.943076  0.396077  1
  O  O22  1  0.460395  0.844723  0.930430  1
  O  O23  1  0.456352  0.201892  0.274770  1
  O  O24  1  0.856023  0.358296  0.453550  1
  O  O25  1  0.653216  0.491995  0.887004  1
  O  O26  1  0.346784  0.508005  0.112996  1
  O  O27  1  0.957798  0.943076  0.896077  1
  O  O28  1  0.539605  0.844723  0.430430  1
  O  O29  1  0.984852  0.277930  0.231761  1
  O  O30  1  0.543648  0.201892  0.774770  1
  O  O31  1  0.856023  0.641704  0.046450  1
  O  O32  1  0.015148  0.277930  0.731761  1
  O  O33  1  0.143977  0.358296  0.953550  1
  O  O34  1  0.984852  0.722070  0.268239  1
  O  O35  1  0.653216  0.508005  0.612996  1
