# generated using pymatgen
data_Dy5Y(TmIn4)2
_symmetry_space_group_name_H-M   'P 1'
_cell_length_a   6.50256303
_cell_length_b   6.50256295
_cell_length_c   10.28463600
_cell_angle_alpha   90.00516340
_cell_angle_beta   90.00516340
_cell_angle_gamma   103.23634029
_symmetry_Int_Tables_number   1
_chemical_formula_structural   Dy5Y(TmIn4)2
_chemical_formula_sum   'Dy5 Y1 Tm2 In8'
_cell_volume   423.31583184
_cell_formula_units_Z   1
loop_
 _symmetry_equiv_pos_site_id
 _symmetry_equiv_pos_as_xyz
  1  'x, y, z'
loop_
 _atom_site_type_symbol
 _atom_site_label
 _atom_site_symmetry_multiplicity
 _atom_site_fract_x
 _atom_site_fract_y
 _atom_site_fract_z
 _atom_site_occupancy
  Dy  Dy0  1  0.528217  0.528377  0.250182  1
  Dy  Dy1  1  0.471623  0.471783  0.749818  1
  Dy  Dy2  1  0.246798  0.753202  0.500000  1
  Dy  Dy3  1  0.246826  0.753174  0.000000  1
  Dy  Dy4  1  0.753239  0.246761  0.500000  1
  Y  Y5  1  0.753121  0.246879  0.000000  1
  Tm  Tm6  1  0.980833  0.980749  0.250142  1
  Tm  Tm7  1  0.019251  0.019167  0.749858  1
  In  In8  1  0.252190  0.252081  0.016098  1
  In  In9  1  0.747919  0.747810  0.983902  1
  In  In10  1  0.252152  0.252136  0.483879  1
  In  In11  1  0.747864  0.747848  0.516121  1
  In  In12  1  0.487242  0.018004  0.250209  1
  In  In13  1  0.981996  0.512758  0.749791  1
  In  In14  1  0.512491  0.981764  0.749787  1
  In  In15  1  0.018236  0.487509  0.250213  1
