# generated using pymatgen
data_Er12Re(Si4Ir)3
_symmetry_space_group_name_H-M   'P 1'
_cell_length_a   4.20331300
_cell_length_b   10.62167106
_cell_length_c   12.21119005
_cell_angle_alpha   90.09764940
_cell_angle_beta   90.00000000
_cell_angle_gamma   90.00000000
_symmetry_Int_Tables_number   1
_chemical_formula_structural   Er12Re(Si4Ir)3
_chemical_formula_sum   'Er12 Re1 Si12 Ir3'
_cell_volume   545.18253938
_cell_formula_units_Z   1
loop_
 _symmetry_equiv_pos_site_id
 _symmetry_equiv_pos_as_xyz
  1  'x, y, z'
loop_
 _atom_site_type_symbol
 _atom_site_label
 _atom_site_symmetry_multiplicity
 _atom_site_fract_x
 _atom_site_fract_y
 _atom_site_fract_z
 _atom_site_occupancy
  Er  Er0  1  0.250000  0.878745  0.020377  1
  Er  Er1  1  0.250000  0.620109  0.521324  1
  Er  Er2  1  0.750000  0.118094  0.979909  1
  Er  Er3  1  0.750000  0.379787  0.479829  1
  Er  Er4  1  0.250000  0.920519  0.602380  1
  Er  Er5  1  0.250000  0.581020  0.104393  1
  Er  Er6  1  0.750000  0.080075  0.395513  1
  Er  Er7  1  0.750000  0.420049  0.896374  1
  Er  Er8  1  0.250000  0.663129  0.799304  1
  Er  Er9  1  0.250000  0.840713  0.300531  1
  Er  Er10  1  0.750000  0.340729  0.198538  1
  Er  Er11  1  0.750000  0.158117  0.699711  1
  Re  Re12  1  0.250000  0.390816  0.680309  1
  Si  Si13  1  0.250000  0.009792  0.821293  1
  Si  Si14  1  0.250000  0.488855  0.321639  1
  Si  Si15  1  0.750000  0.988925  0.179115  1
  Si  Si16  1  0.750000  0.511369  0.680113  1
  Si  Si17  1  0.250000  0.247091  0.841811  1
  Si  Si18  1  0.250000  0.252133  0.340339  1
  Si  Si19  1  0.750000  0.752685  0.159359  1
  Si  Si20  1  0.750000  0.750300  0.658231  1
  Si  Si21  1  0.250000  0.201022  0.543364  1
  Si  Si22  1  0.250000  0.297486  0.043808  1
  Si  Si23  1  0.750000  0.800496  0.456103  1
  Si  Si24  1  0.750000  0.698575  0.956422  1
  Ir  Ir25  1  0.250000  0.109160  0.179768  1
  Ir  Ir26  1  0.750000  0.610637  0.319816  1
  Ir  Ir27  1  0.750000  0.889571  0.820328  1
