# generated using pymatgen
data_NaMoF4
_symmetry_space_group_name_H-M   'P 1'
_cell_length_a   5.60446200
_cell_length_b   7.89364754
_cell_length_c   8.38610147
_cell_angle_alpha   79.71853348
_cell_angle_beta   90.00000000
_cell_angle_gamma   90.00000000
_symmetry_Int_Tables_number   1
_chemical_formula_structural   NaMoF4
_chemical_formula_sum   'Na4 Mo4 F16'
_cell_volume   365.04099137
_cell_formula_units_Z   4
loop_
 _symmetry_equiv_pos_site_id
 _symmetry_equiv_pos_as_xyz
  1  'x, y, z'
loop_
 _atom_site_type_symbol
 _atom_site_label
 _atom_site_symmetry_multiplicity
 _atom_site_fract_x
 _atom_site_fract_y
 _atom_site_fract_z
 _atom_site_occupancy
  Na  Na0  1  0.229837  0.372645  0.869650  1
  Na  Na1  1  0.729837  0.127355  0.130350  1
  Na  Na2  1  0.770163  0.627355  0.130350  1
  Na  Na3  1  0.270163  0.872645  0.869650  1
  Mo  Mo4  1  0.746758  0.198218  0.673364  1
  Mo  Mo5  1  0.246758  0.301782  0.326636  1
  Mo  Mo6  1  0.253242  0.801782  0.326636  1
  Mo  Mo7  1  0.753242  0.698218  0.673364  1
  F  F8  1  0.457822  0.612586  0.809024  1
  F  F9  1  0.957822  0.887414  0.190976  1
  F  F10  1  0.542178  0.387414  0.190976  1
  F  F11  1  0.042178  0.112586  0.809024  1
  F  F12  1  0.944924  0.693942  0.884809  1
  F  F13  1  0.444924  0.806058  0.115191  1
  F  F14  1  0.055076  0.306058  0.115191  1
  F  F15  1  0.555076  0.193942  0.884809  1
  F  F16  1  0.892023  0.446808  0.677169  1
  F  F17  1  0.392023  0.053192  0.322831  1
  F  F18  1  0.107977  0.553192  0.322831  1
  F  F19  1  0.607977  0.946808  0.677169  1
  F  F20  1  0.434959  0.303969  0.546458  1
  F  F21  1  0.934959  0.196031  0.453542  1
  F  F22  1  0.565041  0.696031  0.453542  1
  F  F23  1  0.065041  0.803969  0.546458  1
