# generated using pymatgen
data_CaSb12(IrRu)2
_symmetry_space_group_name_H-M   'P 1'
_cell_length_a   8.16034544
_cell_length_b   8.16034560
_cell_length_c   8.14290522
_cell_angle_alpha   109.47081415
_cell_angle_beta   109.46730180
_cell_angle_gamma   109.56214765
_symmetry_Int_Tables_number   1
_chemical_formula_structural   CaSb12(IrRu)2
_chemical_formula_sum   'Ca1 Sb12 Ir2 Ru2'
_cell_volume   416.97427486
_cell_formula_units_Z   1
loop_
 _symmetry_equiv_pos_site_id
 _symmetry_equiv_pos_as_xyz
  1  'x, y, z'
loop_
 _atom_site_type_symbol
 _atom_site_label
 _atom_site_symmetry_multiplicity
 _atom_site_fract_x
 _atom_site_fract_y
 _atom_site_fract_z
 _atom_site_occupancy
  Ca  Ca0  1  0.000000  0.000000  0.000000  1
  Sb  Sb1  1  0.661766  0.842050  0.503817  1
  Sb  Sb2  1  0.338234  0.157950  0.496183  1
  Sb  Sb3  1  0.845861  0.183820  0.342383  1
  Sb  Sb4  1  0.816189  0.661616  0.158036  1
  Sb  Sb5  1  0.841438  0.503479  0.657617  1
  Sb  Sb6  1  0.183811  0.338384  0.841964  1
  Sb  Sb7  1  0.154139  0.816180  0.657617  1
  Sb  Sb8  1  0.503579  0.658153  0.841964  1
  Sb  Sb9  1  0.496421  0.341847  0.158036  1
  Sb  Sb10  1  0.158562  0.496521  0.342383  1
  Sb  Sb11  1  0.341898  0.845315  0.187213  1
  Sb  Sb12  1  0.658102  0.154685  0.812787  1
  Ir  Ir13  1  0.500000  0.000000  0.000000  1
  Ir  Ir14  1  0.000000  0.500000  0.000000  1
  Ru  Ru15  1  0.500000  0.500000  0.500000  1
  Ru  Ru16  1  0.000000  0.000000  0.500000  1
