# generated using pymatgen
data_Ta3Mn2Nb(B2Ru5)2
_symmetry_space_group_name_H-M   'P 1'
_cell_length_a   9.30123562
_cell_length_b   9.30123562
_cell_length_c   2.99392800
_cell_angle_alpha   90.00000000
_cell_angle_beta   90.00000000
_cell_angle_gamma   90.06753844
_symmetry_Int_Tables_number   1
_chemical_formula_structural   Ta3Mn2Nb(B2Ru5)2
_chemical_formula_sum   'Ta3 Mn2 Nb1 B4 Ru10'
_cell_volume   259.01346514
_cell_formula_units_Z   1
loop_
 _symmetry_equiv_pos_site_id
 _symmetry_equiv_pos_as_xyz
  1  'x, y, z'
loop_
 _atom_site_type_symbol
 _atom_site_label
 _atom_site_symmetry_multiplicity
 _atom_site_fract_x
 _atom_site_fract_y
 _atom_site_fract_z
 _atom_site_occupancy
  Ta  Ta0  1  0.177424  0.322576  0.000000  1
  Ta  Ta1  1  0.322960  0.822998  0.000000  1
  Ta  Ta2  1  0.677002  0.177040  0.000000  1
  Mn  Mn3  1  0.499670  0.499742  0.000000  1
  Mn  Mn4  1  0.000258  0.000330  0.000000  1
  Nb  Nb5  1  0.823046  0.676954  0.000000  1
  B  B6  1  0.624284  0.875716  0.000000  1
  B  B7  1  0.376018  0.123982  0.000000  1
  B  B8  1  0.124071  0.624249  0.000000  1
  B  B9  1  0.875751  0.375929  0.000000  1
  Ru  Ru10  1  0.569691  0.714454  0.500000  1
  Ru  Ru11  1  0.429105  0.285895  0.500000  1
  Ru  Ru12  1  0.071272  0.786049  0.500000  1
  Ru  Ru13  1  0.929437  0.214038  0.500000  1
  Ru  Ru14  1  0.285962  0.570563  0.500000  1
  Ru  Ru15  1  0.713951  0.428728  0.500000  1
  Ru  Ru16  1  0.214105  0.070895  0.500000  1
  Ru  Ru17  1  0.785546  0.930309  0.500000  1
  Ru  Ru18  1  0.499822  0.000178  0.500000  1
  Ru  Ru19  1  0.000625  0.499375  0.500000  1
