# generated using pymatgen
data_LaCeHgRh2
_symmetry_space_group_name_H-M   'P 1'
_cell_length_a   7.76428443
_cell_length_b   7.76292300
_cell_length_c   3.77957400
_cell_angle_alpha   90.00000000
_cell_angle_beta   90.00000000
_cell_angle_gamma   92.16508118
_symmetry_Int_Tables_number   1
_chemical_formula_structural   LaCeHgRh2
_chemical_formula_sum   'La2 Ce2 Hg2 Rh4'
_cell_volume   227.64568645
_cell_formula_units_Z   2
loop_
 _symmetry_equiv_pos_site_id
 _symmetry_equiv_pos_as_xyz
  1  'x, y, z'
loop_
 _atom_site_type_symbol
 _atom_site_label
 _atom_site_symmetry_multiplicity
 _atom_site_fract_x
 _atom_site_fract_y
 _atom_site_fract_z
 _atom_site_occupancy
  La  La0  1  0.169028  0.330592  0.500000  1
  La  La1  1  0.830972  0.669408  0.500000  1
  Ce  Ce2  1  0.667809  0.167402  0.500000  1
  Ce  Ce3  1  0.332191  0.832598  0.500000  1
  Hg  Hg4  1  0.000000  0.000000  0.000000  1
  Hg  Hg5  1  0.500000  0.500000  0.000000  1
  Rh  Rh6  1  0.147715  0.647834  0.000000  1
  Rh  Rh7  1  0.852285  0.352166  0.000000  1
  Rh  Rh8  1  0.627652  0.872015  0.000000  1
  Rh  Rh9  1  0.372348  0.127985  0.000000  1
