# generated using pymatgen
data_NaCa2La(CrN3)2
_symmetry_space_group_name_H-M   'P 1'
_cell_length_a   5.96488074
_cell_length_b   5.96487714
_cell_length_c   11.80311837
_cell_angle_alpha   89.13482363
_cell_angle_beta   90.86525323
_cell_angle_gamma   124.63533484
_symmetry_Int_Tables_number   1
_chemical_formula_structural   NaCa2La(CrN3)2
_chemical_formula_sum   'Na2 Ca4 La2 Cr4 N12'
_cell_volume   345.48069401
_cell_formula_units_Z   2
loop_
 _symmetry_equiv_pos_site_id
 _symmetry_equiv_pos_as_xyz
  1  'x, y, z'
loop_
 _atom_site_type_symbol
 _atom_site_label
 _atom_site_symmetry_multiplicity
 _atom_site_fract_x
 _atom_site_fract_y
 _atom_site_fract_z
 _atom_site_occupancy
  Na  Na0  1  0.549899  0.450100  0.633078  1
  Na  Na1  1  0.450101  0.549900  0.366922  1
  Ca  Ca2  1  0.856351  0.143648  0.581457  1
  Ca  Ca3  1  0.143649  0.856352  0.418543  1
  Ca  Ca4  1  0.644525  0.355473  0.077877  1
  Ca  Ca5  1  0.355475  0.644527  0.922123  1
  La  La6  1  0.952734  0.047265  0.146357  1
  La  La7  1  0.047266  0.952735  0.853643  1
  Cr  Cr8  1  0.738325  0.261676  0.837757  1
  Cr  Cr9  1  0.261675  0.738324  0.162243  1
  Cr  Cr10  1  0.757054  0.242947  0.340362  1
  Cr  Cr11  1  0.242946  0.757053  0.659638  1
  N  N12  1  0.849224  0.150776  0.966288  1
  N  N13  1  0.150776  0.849224  0.033712  1
  N  N14  1  0.666811  0.333188  0.456549  1
  N  N15  1  0.333189  0.666812  0.543451  1
  N  N16  1  0.578858  0.421142  0.871589  1
  N  N17  1  0.421142  0.578858  0.128411  1
  N  N18  1  0.918440  0.081559  0.369717  1
  N  N19  1  0.081560  0.918441  0.630283  1
  N  N20  1  0.530261  0.967453  0.757046  1
  N  N21  1  0.967453  0.530261  0.242954  1
  N  N22  1  0.469739  0.032547  0.242954  1
  N  N23  1  0.032547  0.469739  0.757046  1
