# generated using pymatgen
data_Nd5Y3(SiBr6)2
_symmetry_space_group_name_H-M   'P 1'
_cell_length_a   4.15728100
_cell_length_b   13.58111435
_cell_length_c   14.35081176
_cell_angle_alpha   89.58961448
_cell_angle_beta   90.00000000
_cell_angle_gamma   90.00000000
_symmetry_Int_Tables_number   1
_chemical_formula_structural   Nd5Y3(SiBr6)2
_chemical_formula_sum   'Nd5 Y3 Si2 Br12'
_cell_volume   810.23334738
_cell_formula_units_Z   1
loop_
 _symmetry_equiv_pos_site_id
 _symmetry_equiv_pos_as_xyz
  1  'x, y, z'
loop_
 _atom_site_type_symbol
 _atom_site_label
 _atom_site_symmetry_multiplicity
 _atom_site_fract_x
 _atom_site_fract_y
 _atom_site_fract_z
 _atom_site_occupancy
  Nd  Nd0  1  0.500000  0.382135  0.841317  1
  Nd  Nd1  1  0.000000  0.119813  0.579594  1
  Nd  Nd2  1  0.000000  0.878881  0.419485  1
  Nd  Nd3  1  0.000000  0.621512  0.919466  1
  Nd  Nd4  1  0.000000  0.379069  0.081294  1
  Y  Y5  1  0.500000  0.116938  0.342274  1
  Y  Y6  1  0.500000  0.882850  0.657542  1
  Y  Y7  1  0.500000  0.617845  0.158800  1
  Si  Si8  1  0.500000  0.999344  0.499548  1
  Si  Si9  1  0.500000  0.501889  0.002623  1
  Br  Br10  1  0.500000  0.238868  0.168371  1
  Br  Br11  1  0.500000  0.761584  0.832297  1
  Br  Br12  1  0.500000  0.739454  0.332838  1
  Br  Br13  1  0.500000  0.257891  0.662099  1
  Br  Br14  1  0.000000  0.250820  0.405587  1
  Br  Br15  1  0.000000  0.749210  0.594138  1
  Br  Br16  1  0.000000  0.751440  0.093904  1
  Br  Br17  1  0.000000  0.242142  0.912422  1
  Br  Br18  1  0.000000  0.008466  0.245090  1
  Br  Br19  1  0.000000  0.991466  0.754765  1
  Br  Br20  1  0.000000  0.508104  0.255597  1
  Br  Br21  1  0.000000  0.500279  0.740949  1
