# generated using pymatgen
data_Y15Er(ZnCo)4
_symmetry_space_group_name_H-M   'P 1'
_cell_length_a   9.39326702
_cell_length_b   9.39083057
_cell_length_c   9.39253641
_cell_angle_alpha   59.97153747
_cell_angle_beta   59.97815240
_cell_angle_gamma   59.97357757
_symmetry_Int_Tables_number   1
_chemical_formula_structural   Y15Er(ZnCo)4
_chemical_formula_sum   'Y15 Er1 Zn4 Co4'
_cell_volume   585.51307223
_cell_formula_units_Z   1
loop_
 _symmetry_equiv_pos_site_id
 _symmetry_equiv_pos_as_xyz
  1  'x, y, z'
loop_
 _atom_site_type_symbol
 _atom_site_label
 _atom_site_symmetry_multiplicity
 _atom_site_fract_x
 _atom_site_fract_y
 _atom_site_fract_z
 _atom_site_occupancy
  Y  Y0  1  0.600023  0.600200  0.199798  1
  Y  Y1  1  0.600033  0.199903  0.600090  1
  Y  Y2  1  0.199775  0.600193  0.600066  1
  Y  Y3  1  0.058603  0.441085  0.441037  1
  Y  Y4  1  0.440788  0.059172  0.059363  1
  Y  Y5  1  0.441013  0.058508  0.441030  1
  Y  Y6  1  0.059254  0.440860  0.059197  1
  Y  Y7  1  0.441004  0.441101  0.058560  1
  Y  Y8  1  0.059394  0.059120  0.440794  1
  Y  Y9  1  0.188723  0.811642  0.811511  1
  Y  Y10  1  0.811952  0.187824  0.187863  1
  Y  Y11  1  0.811664  0.188588  0.811725  1
  Y  Y12  1  0.187948  0.811925  0.187969  1
  Y  Y13  1  0.811504  0.811698  0.188698  1
  Y  Y14  1  0.187872  0.187844  0.811952  1
  Er  Er15  1  0.599620  0.599241  0.599407  1
  Zn  Zn16  1  0.826819  0.826914  0.826844  1
  Zn  Zn17  1  0.826613  0.826706  0.519498  1
  Zn  Zn18  1  0.826642  0.519466  0.826668  1
  Zn  Zn19  1  0.519497  0.826696  0.826631  1
  Co  Co20  1  0.391705  0.391717  0.391715  1
  Co  Co21  1  0.393201  0.393201  0.823183  1
  Co  Co22  1  0.393188  0.823185  0.393198  1
  Co  Co23  1  0.823164  0.393212  0.393203  1
