# generated using pymatgen
data_HoAl2Pd5
_symmetry_space_group_name_H-M   'P 1'
_cell_length_a   4.14879357
_cell_length_b   4.14879227
_cell_length_c   8.02951938
_cell_angle_alpha   104.97195522
_cell_angle_beta   104.97196636
_cell_angle_gamma   89.99999900
_symmetry_Int_Tables_number   1
_chemical_formula_structural   HoAl2Pd5
_chemical_formula_sum   'Ho1 Al2 Pd5'
_cell_volume   128.65330608
_cell_formula_units_Z   1
loop_
 _symmetry_equiv_pos_site_id
 _symmetry_equiv_pos_as_xyz
  1  'x, y, z'
loop_
 _atom_site_type_symbol
 _atom_site_label
 _atom_site_symmetry_multiplicity
 _atom_site_fract_x
 _atom_site_fract_y
 _atom_site_fract_z
 _atom_site_occupancy
  Ho  Ho0  1  0.000000  0.000000  0.000000  1
  Al  Al1  1  0.746309  0.746309  0.492619  1
  Al  Al2  1  0.253691  0.253691  0.507381  1
  Pd  Pd3  1  0.500000  0.500000  0.000000  1
  Pd  Pd4  1  0.644269  0.144270  0.288539  1
  Pd  Pd5  1  0.144270  0.644269  0.288539  1
  Pd  Pd6  1  0.855730  0.355730  0.711460  1
  Pd  Pd7  1  0.355730  0.855730  0.711460  1
