# generated using pymatgen
data_HoEr11Tm8(CoBi2)4
_symmetry_space_group_name_H-M   'P 1'
_cell_length_a   7.90011901
_cell_length_b   8.86550900
_cell_length_c   12.35444774
_cell_angle_alpha   90.00000000
_cell_angle_beta   90.02246011
_cell_angle_gamma   90.00000000
_symmetry_Int_Tables_number   1
_chemical_formula_structural   HoEr11Tm8(CoBi2)4
_chemical_formula_sum   'Ho1 Er11 Tm8 Co4 Bi8'
_cell_volume   865.28786267
_cell_formula_units_Z   1
loop_
 _symmetry_equiv_pos_site_id
 _symmetry_equiv_pos_as_xyz
  1  'x, y, z'
loop_
 _atom_site_type_symbol
 _atom_site_label
 _atom_site_symmetry_multiplicity
 _atom_site_fract_x
 _atom_site_fract_y
 _atom_site_fract_z
 _atom_site_occupancy
  Ho  Ho0  1  0.653480  0.750000  0.699832  1
  Er  Er1  1  0.346450  0.250000  0.300248  1
  Er  Er2  1  0.153483  0.250000  0.800230  1
  Er  Er3  1  0.846599  0.750000  0.199727  1
  Er  Er4  1  0.119030  0.750000  0.813549  1
  Er  Er5  1  0.881180  0.250000  0.186455  1
  Er  Er6  1  0.618986  0.250000  0.686494  1
  Er  Er7  1  0.381108  0.750000  0.313602  1
  Er  Er8  1  0.554049  0.750000  0.997529  1
  Er  Er9  1  0.445999  0.250000  0.002585  1
  Er  Er10  1  0.054038  0.250000  0.502788  1
  Er  Er11  1  0.946311  0.750000  0.497101  1
  Tm  Tm12  1  0.826972  0.462883  0.936275  1
  Tm  Tm13  1  0.173210  0.536971  0.063779  1
  Tm  Tm14  1  0.326526  0.536876  0.563663  1
  Tm  Tm15  1  0.173210  0.963029  0.063779  1
  Tm  Tm16  1  0.673173  0.462848  0.436169  1
  Tm  Tm17  1  0.826972  0.037117  0.936275  1
  Tm  Tm18  1  0.673173  0.037152  0.436169  1
  Tm  Tm19  1  0.326526  0.963124  0.563663  1
  Co  Co20  1  0.936369  0.750000  0.993016  1
  Co  Co21  1  0.063609  0.250000  0.006974  1
  Co  Co22  1  0.436212  0.250000  0.507080  1
  Co  Co23  1  0.563469  0.750000  0.492520  1
  Bi  Bi24  1  0.932480  0.008157  0.673182  1
  Bi  Bi25  1  0.067800  0.992193  0.326877  1
  Bi  Bi26  1  0.431754  0.992512  0.826950  1
  Bi  Bi27  1  0.067800  0.507807  0.326877  1
  Bi  Bi28  1  0.567898  0.007885  0.173237  1
  Bi  Bi29  1  0.932480  0.491843  0.673182  1
  Bi  Bi30  1  0.567898  0.492115  0.173237  1
  Bi  Bi31  1  0.431754  0.507488  0.826950  1
