# generated using pymatgen
data_Tb4HoLu15Pt16
_symmetry_space_group_name_H-M   'P 1'
_cell_length_a   7.41262208
_cell_length_b   7.49177597
_cell_length_c   14.60811800
_cell_angle_alpha   90.01836242
_cell_angle_beta   90.00839422
_cell_angle_gamma   89.97741329
_symmetry_Int_Tables_number   1
_chemical_formula_structural   Tb4HoLu15Pt16
_chemical_formula_sum   'Tb4 Ho1 Lu15 Pt16'
_cell_volume   811.24278683
_cell_formula_units_Z   1
loop_
 _symmetry_equiv_pos_site_id
 _symmetry_equiv_pos_as_xyz
  1  'x, y, z'
loop_
 _atom_site_type_symbol
 _atom_site_label
 _atom_site_symmetry_multiplicity
 _atom_site_fract_x
 _atom_site_fract_y
 _atom_site_fract_z
 _atom_site_occupancy
  Tb  Tb0  1  0.999319  0.178761  0.406952  1
  Tb  Tb1  1  0.499604  0.322338  0.407672  1
  Tb  Tb2  1  0.999306  0.178018  0.092118  1
  Tb  Tb3  1  0.500398  0.678392  0.907837  1
  Ho  Ho4  1  0.001308  0.820164  0.592926  1
  Lu  Lu5  1  0.656174  0.166966  0.622957  1
  Lu  Lu6  1  0.155889  0.333083  0.877061  1
  Lu  Lu7  1  0.344242  0.833026  0.122701  1
  Lu  Lu8  1  0.844378  0.667027  0.377134  1
  Lu  Lu9  1  0.345617  0.831712  0.377616  1
  Lu  Lu10  1  0.844458  0.667551  0.121787  1
  Lu  Lu11  1  0.655721  0.167476  0.877778  1
  Lu  Lu12  1  0.156565  0.332888  0.622541  1
  Lu  Lu13  1  0.501866  0.680655  0.593441  1
  Lu  Lu14  1  0.001910  0.819386  0.906612  1
  Lu  Lu15  1  0.498121  0.319502  0.093196  1
  Lu  Lu16  1  0.818793  0.509563  0.749919  1
  Lu  Lu17  1  0.318567  0.990239  0.750012  1
  Lu  Lu18  1  0.181431  0.490617  0.249423  1
  Lu  Lu19  1  0.681149  0.009480  0.249535  1
  Pt  Pt20  1  0.681791  0.962173  0.459322  1
  Pt  Pt21  1  0.186717  0.534089  0.042012  1
  Pt  Pt22  1  0.313683  0.034095  0.958010  1
  Pt  Pt23  1  0.813973  0.469362  0.543267  1
  Pt  Pt24  1  0.317910  0.030644  0.543607  1
  Pt  Pt25  1  0.819153  0.466406  0.957940  1
  Pt  Pt26  1  0.681084  0.966444  0.041870  1
  Pt  Pt27  1  0.182440  0.538381  0.459821  1
  Pt  Pt28  1  0.453088  0.383769  0.749175  1
  Pt  Pt29  1  0.953370  0.115906  0.750618  1
  Pt  Pt30  1  0.546311  0.617226  0.248781  1
  Pt  Pt31  1  0.047504  0.881955  0.249914  1
  Pt  Pt32  1  0.680772  0.857038  0.748849  1
  Pt  Pt33  1  0.179538  0.643583  0.750804  1
  Pt  Pt34  1  0.320866  0.143014  0.247971  1
  Pt  Pt35  1  0.816982  0.359072  0.248820  1
