# generated using pymatgen
data_HoPa2(SnRh)3
_symmetry_space_group_name_H-M   'P 1'
_cell_length_a   7.39220412
_cell_length_b   7.46651070
_cell_length_c   4.01162900
_cell_angle_alpha   90.00000000
_cell_angle_beta   90.00000000
_cell_angle_gamma   119.55034200
_symmetry_Int_Tables_number   1
_chemical_formula_structural   HoPa2(SnRh)3
_chemical_formula_sum   'Ho1 Pa2 Sn3 Rh3'
_cell_volume   192.61631413
_cell_formula_units_Z   1
loop_
 _symmetry_equiv_pos_site_id
 _symmetry_equiv_pos_as_xyz
  1  'x, y, z'
loop_
 _atom_site_type_symbol
 _atom_site_label
 _atom_site_symmetry_multiplicity
 _atom_site_fract_x
 _atom_site_fract_y
 _atom_site_fract_z
 _atom_site_occupancy
  Ho  Ho0  1  0.408223  0.999845  0.000000  1
  Pa  Pa1  1  0.001558  0.413193  0.000000  1
  Pa  Pa2  1  0.588297  0.586637  0.000000  1
  Sn  Sn3  1  0.255246  0.244550  0.500000  1
  Sn  Sn4  1  0.010733  0.755402  0.500000  1
  Sn  Sn5  1  0.734772  0.000124  0.500000  1
  Rh  Rh6  1  0.684796  0.355692  0.500000  1
  Rh  Rh7  1  0.328936  0.644356  0.500000  1
  Rh  Rh8  1  0.987437  0.000199  0.000000  1
