# generated using pymatgen
data_Li2Er3InSi2Ag
_symmetry_space_group_name_H-M   'P 1'
_cell_length_a   7.16212837
_cell_length_b   7.16212842
_cell_length_c   4.17956800
_cell_angle_alpha   90.00000000
_cell_angle_beta   90.00000000
_cell_angle_gamma   119.51416763
_symmetry_Int_Tables_number   1
_chemical_formula_structural   Li2Er3InSi2Ag
_chemical_formula_sum   'Li2 Er3 In1 Si2 Ag1'
_cell_volume   186.57420527
_cell_formula_units_Z   1
loop_
 _symmetry_equiv_pos_site_id
 _symmetry_equiv_pos_as_xyz
  1  'x, y, z'
loop_
 _atom_site_type_symbol
 _atom_site_label
 _atom_site_symmetry_multiplicity
 _atom_site_fract_x
 _atom_site_fract_y
 _atom_site_fract_z
 _atom_site_occupancy
  Li  Li0  1  0.745708  0.002642  0.000000  1
  Li  Li1  1  0.002642  0.745708  0.000000  1
  Er  Er2  1  0.436923  0.000169  0.500000  1
  Er  Er3  1  0.000169  0.436923  0.500000  1
  Er  Er4  1  0.560942  0.560942  0.500000  1
  In  In5  1  0.990724  0.990724  0.500000  1
  Si  Si6  1  0.332388  0.670397  0.000000  1
  Si  Si7  1  0.670397  0.332388  0.000000  1
  Ag  Ag8  1  0.260106  0.260106  0.000000  1
