# generated using pymatgen
data_Be5V12Fe4Si3C4
_symmetry_space_group_name_H-M   'P 1'
_cell_length_a   7.49940553
_cell_length_b   7.49940468
_cell_length_c   7.49940548
_cell_angle_alpha   60.20763344
_cell_angle_beta   60.20763716
_cell_angle_gamma   60.20762938
_symmetry_Int_Tables_number   1
_chemical_formula_structural   Be5V12Fe4Si3C4
_chemical_formula_sum   'Be5 V12 Fe4 Si3 C4'
_cell_volume   299.64184235
_cell_formula_units_Z   1
loop_
 _symmetry_equiv_pos_site_id
 _symmetry_equiv_pos_as_xyz
  1  'x, y, z'
loop_
 _atom_site_type_symbol
 _atom_site_label
 _atom_site_symmetry_multiplicity
 _atom_site_fract_x
 _atom_site_fract_y
 _atom_site_fract_z
 _atom_site_occupancy
  Be  Be0  1  0.416060  0.416060  0.416060  1
  Be  Be1  1  0.511854  0.829201  0.829201  1
  Be  Be2  1  0.829201  0.511854  0.829201  1
  Be  Be3  1  0.829201  0.829201  0.511854  1
  Be  Be4  1  0.828638  0.828638  0.828638  1
  V  V5  1  0.805859  0.805859  0.192088  1
  V  V6  1  0.199002  0.199002  0.799540  1
  V  V7  1  0.805859  0.192088  0.805859  1
  V  V8  1  0.199002  0.799540  0.199002  1
  V  V9  1  0.192088  0.805859  0.805859  1
  V  V10  1  0.799540  0.199002  0.199002  1
  V  V11  1  0.451444  0.451444  0.051011  1
  V  V12  1  0.050387  0.050387  0.450135  1
  V  V13  1  0.451444  0.051011  0.451444  1
  V  V14  1  0.050387  0.450135  0.050387  1
  V  V15  1  0.051011  0.451444  0.451444  1
  V  V16  1  0.450135  0.050387  0.050387  1
  Fe  Fe17  1  0.124563  0.623150  0.623150  1
  Fe  Fe18  1  0.623150  0.124563  0.623150  1
  Fe  Fe19  1  0.623150  0.623150  0.124563  1
  Fe  Fe20  1  0.624607  0.624607  0.624607  1
  Si  Si21  1  0.754050  0.413617  0.413617  1
  Si  Si22  1  0.413617  0.754050  0.413617  1
  Si  Si23  1  0.413617  0.413617  0.754050  1
  C  C24  1  0.625324  0.126486  0.126486  1
  C  C25  1  0.126486  0.625324  0.126486  1
  C  C26  1  0.126486  0.126486  0.625324  1
  C  C27  1  0.123838  0.123838  0.123838  1
