# generated using pymatgen
data_Ba5Tc3IO15
_symmetry_space_group_name_H-M   'P 1'
_cell_length_a   11.04906700
_cell_length_b   11.04906787
_cell_length_c   7.96146600
_cell_angle_alpha   90.00000000
_cell_angle_beta   90.00000000
_cell_angle_gamma   119.99999441
_symmetry_Int_Tables_number   1
_chemical_formula_structural   Ba5Tc3IO15
_chemical_formula_sum   'Ba10 Tc6 I2 O30'
_cell_volume   841.73415362
_cell_formula_units_Z   2
loop_
 _symmetry_equiv_pos_site_id
 _symmetry_equiv_pos_as_xyz
  1  'x, y, z'
loop_
 _atom_site_type_symbol
 _atom_site_label
 _atom_site_symmetry_multiplicity
 _atom_site_fract_x
 _atom_site_fract_y
 _atom_site_fract_z
 _atom_site_occupancy
  Ba  Ba0  1  0.726683  0.000000  0.761253  1
  Ba  Ba1  1  0.273317  0.273317  0.761253  1
  Ba  Ba2  1  0.000000  0.726683  0.761253  1
  Ba  Ba3  1  0.273133  0.000000  0.261226  1
  Ba  Ba4  1  0.726867  0.726867  0.261226  1
  Ba  Ba5  1  0.000000  0.273133  0.261226  1
  Ba  Ba6  1  0.333333  0.666667  0.500266  1
  Ba  Ba7  1  0.666667  0.333333  0.500266  1
  Ba  Ba8  1  0.666667  0.333333  0.000248  1
  Ba  Ba9  1  0.333333  0.666667  0.000248  1
  Tc  Tc10  1  0.610258  0.000000  0.204661  1
  Tc  Tc11  1  0.389742  0.389742  0.204661  1
  Tc  Tc12  1  0.000000  0.610258  0.204661  1
  Tc  Tc13  1  0.389527  0.000000  0.704630  1
  Tc  Tc14  1  0.610473  0.610473  0.704630  1
  Tc  Tc15  1  0.000000  0.389527  0.704630  1
  I  I16  1  0.000000  0.000000  0.028525  1
  I  I17  1  0.000000  0.000000  0.528637  1
  O  O18  1  0.610108  0.867869  0.063011  1
  O  O19  1  0.257760  0.389892  0.063011  1
  O  O20  1  0.132131  0.742240  0.063011  1
  O  O21  1  0.742240  0.132131  0.063011  1
  O  O22  1  0.867869  0.610108  0.063011  1
  O  O23  1  0.389892  0.257760  0.063011  1
  O  O24  1  0.389771  0.132165  0.562949  1
  O  O25  1  0.742394  0.610229  0.562949  1
  O  O26  1  0.867835  0.257606  0.562949  1
  O  O27  1  0.257606  0.867835  0.562949  1
  O  O28  1  0.132165  0.389771  0.562949  1
  O  O29  1  0.610229  0.742394  0.562949  1
  O  O30  1  0.423449  0.868574  0.245215  1
  O  O31  1  0.445125  0.576551  0.245215  1
  O  O32  1  0.131426  0.554875  0.245215  1
  O  O33  1  0.554875  0.131426  0.245215  1
  O  O34  1  0.868574  0.423449  0.245215  1
  O  O35  1  0.576551  0.445125  0.245215  1
  O  O36  1  0.576309  0.131412  0.745301  1
  O  O37  1  0.555103  0.423691  0.745301  1
  O  O38  1  0.868588  0.444897  0.745301  1
  O  O39  1  0.444897  0.868588  0.745301  1
  O  O40  1  0.131412  0.576309  0.745301  1
  O  O41  1  0.423691  0.555103  0.745301  1
  O  O42  1  0.704977  0.000000  0.380594  1
  O  O43  1  0.295023  0.295023  0.380594  1
  O  O44  1  0.000000  0.704977  0.380594  1
  O  O45  1  0.294657  0.000000  0.880422  1
  O  O46  1  0.705343  0.705343  0.880422  1
  O  O47  1  0.000000  0.294657  0.880422  1
