# generated using pymatgen
data_Tb3Mn8P6Rh
_symmetry_space_group_name_H-M   'P 1'
_cell_length_a   3.63982300
_cell_length_b   10.99591400
_cell_length_c   12.79640300
_cell_angle_alpha   90.00000000
_cell_angle_beta   90.00000000
_cell_angle_gamma   90.00000000
_symmetry_Int_Tables_number   1
_chemical_formula_structural   Tb3Mn8P6Rh
_chemical_formula_sum   'Tb6 Mn16 P12 Rh2'
_cell_volume   512.15274936
_cell_formula_units_Z   2
loop_
 _symmetry_equiv_pos_site_id
 _symmetry_equiv_pos_as_xyz
  1  'x, y, z'
loop_
 _atom_site_type_symbol
 _atom_site_label
 _atom_site_symmetry_multiplicity
 _atom_site_fract_x
 _atom_site_fract_y
 _atom_site_fract_z
 _atom_site_occupancy
  Tb  Tb0  1  0.000000  0.500000  0.528509  1
  Tb  Tb1  1  0.500000  0.000000  0.471491  1
  Tb  Tb2  1  0.500000  0.819370  0.205094  1
  Tb  Tb3  1  0.500000  0.180630  0.205094  1
  Tb  Tb4  1  0.000000  0.680630  0.794906  1
  Tb  Tb5  1  0.000000  0.319370  0.794906  1
  Mn  Mn6  1  0.500000  0.500000  0.166958  1
  Mn  Mn7  1  0.000000  0.000000  0.833042  1
  Mn  Mn8  1  0.000000  0.500000  0.995526  1
  Mn  Mn9  1  0.500000  0.000000  0.004474  1
  Mn  Mn10  1  0.500000  0.331663  0.998411  1
  Mn  Mn11  1  0.500000  0.668337  0.998411  1
  Mn  Mn12  1  0.000000  0.168337  0.001589  1
  Mn  Mn13  1  0.000000  0.831663  0.001589  1
  Mn  Mn14  1  0.500000  0.299971  0.432267  1
  Mn  Mn15  1  0.500000  0.700029  0.432267  1
  Mn  Mn16  1  0.000000  0.200029  0.567733  1
  Mn  Mn17  1  0.000000  0.799971  0.567733  1
  Mn  Mn18  1  0.500000  0.883340  0.703396  1
  Mn  Mn19  1  0.500000  0.116660  0.703396  1
  Mn  Mn20  1  0.000000  0.616660  0.296604  1
  Mn  Mn21  1  0.000000  0.383340  0.296604  1
  P  P22  1  0.500000  0.500000  0.889149  1
  P  P23  1  0.000000  0.000000  0.110851  1
  P  P24  1  0.500000  0.500000  0.358635  1
  P  P25  1  0.000000  0.000000  0.641365  1
  P  P26  1  0.500000  0.310632  0.616028  1
  P  P27  1  0.500000  0.689368  0.616028  1
  P  P28  1  0.000000  0.189368  0.383972  1
  P  P29  1  0.000000  0.810632  0.383972  1
  P  P30  1  0.500000  0.845923  0.885594  1
  P  P31  1  0.500000  0.154077  0.885594  1
  P  P32  1  0.000000  0.654077  0.114406  1
  P  P33  1  0.000000  0.345923  0.114406  1
  Rh  Rh34  1  0.500000  0.500000  0.706125  1
  Rh  Rh35  1  0.000000  0.000000  0.293875  1
