# generated using pymatgen
data_Sc12CoIrPtBr16
_symmetry_space_group_name_H-M   'P 1'
_cell_length_a   8.84533112
_cell_length_b   11.69769798
_cell_length_c   12.36052511
_cell_angle_alpha   117.47340621
_cell_angle_beta   101.02421843
_cell_angle_gamma   100.60825426
_symmetry_Int_Tables_number   1
_chemical_formula_structural   Sc12CoIrPtBr16
_chemical_formula_sum   'Sc12 Co1 Ir1 Pt1 Br16'
_cell_volume   1057.91964524
_cell_formula_units_Z   1
loop_
 _symmetry_equiv_pos_site_id
 _symmetry_equiv_pos_as_xyz
  1  'x, y, z'
loop_
 _atom_site_type_symbol
 _atom_site_label
 _atom_site_symmetry_multiplicity
 _atom_site_fract_x
 _atom_site_fract_y
 _atom_site_fract_z
 _atom_site_occupancy
  Sc  Sc0  1  0.094845  0.270384  0.359248  1
  Sc  Sc1  1  0.912097  0.733299  0.643426  1
  Sc  Sc2  1  0.777549  0.536300  0.327136  1
  Sc  Sc3  1  0.225744  0.463718  0.669258  1
  Sc  Sc4  1  0.282497  0.729656  0.640919  1
  Sc  Sc5  1  0.721109  0.266598  0.356176  1
  Sc  Sc6  1  0.150925  0.535805  0.331251  1
  Sc  Sc7  1  0.855177  0.464342  0.672186  1
  Sc  Sc8  1  0.405799  0.361256  0.278294  1
  Sc  Sc9  1  0.591748  0.638726  0.722190  1
  Sc  Sc10  1  0.458076  0.311052  0.520163  1
  Sc  Sc11  1  0.539423  0.688705  0.480095  1
  Co  Co12  1  0.340131  0.499904  0.499723  1
  Ir  Ir13  1  0.658289  0.500019  0.500425  1
  Pt  Pt14  1  0.002305  0.500010  0.499951  1
  Br  Br15  1  0.388083  0.729561  0.866456  1
  Br  Br16  1  0.608717  0.269175  0.131706  1
  Br  Br17  1  0.184873  0.945511  0.772540  1
  Br  Br18  1  0.821547  0.054466  0.226388  1
  Br  Br19  1  0.338089  0.112142  0.262509  1
  Br  Br20  1  0.649009  0.887625  0.737649  1
  Br  Br21  1  0.548844  0.438964  0.785331  1
  Br  Br22  1  0.440053  0.560794  0.214806  1
  Br  Br23  1  0.303755  0.813491  0.465160  1
  Br  Br24  1  0.696357  0.186780  0.534630  1
  Br  Br25  1  0.167652  0.184929  0.532029  1
  Br  Br26  1  0.831540  0.814940  0.468205  1
  Br  Br27  1  0.932209  0.569865  0.172551  1
  Br  Br28  1  0.074564  0.430455  0.827729  1
  Br  Br29  1  0.917059  0.730026  0.868393  1
  Br  Br30  1  0.081931  0.271500  0.133476  1
