# generated using pymatgen
data_Dy3Y13Cd4(CoNi)2
_symmetry_space_group_name_H-M   'P 1'
_cell_length_a   9.57625741
_cell_length_b   9.58001945
_cell_length_c   9.59690100
_cell_angle_alpha   59.94168754
_cell_angle_beta   59.92866074
_cell_angle_gamma   59.86367601
_symmetry_Int_Tables_number   1
_chemical_formula_structural   Dy3Y13Cd4(CoNi)2
_chemical_formula_sum   'Dy3 Y13 Cd4 Co2 Ni2'
_cell_volume   621.30294284
_cell_formula_units_Z   1
loop_
 _symmetry_equiv_pos_site_id
 _symmetry_equiv_pos_as_xyz
  1  'x, y, z'
loop_
 _atom_site_type_symbol
 _atom_site_label
 _atom_site_symmetry_multiplicity
 _atom_site_fract_x
 _atom_site_fract_y
 _atom_site_fract_z
 _atom_site_occupancy
  Dy  Dy0  1  0.596454  0.596453  0.599209  1
  Dy  Dy1  1  0.596454  0.596453  0.207884  1
  Dy  Dy2  1  0.595113  0.209809  0.597539  1
  Y  Y3  1  0.207830  0.595781  0.598195  1
  Y  Y4  1  0.064165  0.437888  0.439822  1
  Y  Y5  1  0.437971  0.064157  0.057861  1
  Y  Y6  1  0.437971  0.064157  0.440010  1
  Y  Y7  1  0.064165  0.437888  0.058126  1
  Y  Y8  1  0.438914  0.438922  0.061082  1
  Y  Y9  1  0.060849  0.061290  0.438931  1
  Y  Y10  1  0.187533  0.811242  0.814308  1
  Y  Y11  1  0.810940  0.187522  0.187492  1
  Y  Y12  1  0.810940  0.187522  0.814047  1
  Y  Y13  1  0.187533  0.811242  0.186917  1
  Y  Y14  1  0.812652  0.812800  0.187274  1
  Y  Y15  1  0.188017  0.187511  0.812236  1
  Cd  Cd16  1  0.829906  0.829861  0.830767  1
  Cd  Cd17  1  0.829906  0.829861  0.509464  1
  Cd  Cd18  1  0.830928  0.506508  0.831282  1
  Cd  Cd19  1  0.506535  0.830943  0.831261  1
  Co  Co20  1  0.394392  0.392824  0.390721  1
  Co  Co21  1  0.394392  0.392824  0.822065  1
  Ni  Ni22  1  0.394373  0.823082  0.391273  1
  Ni  Ni23  1  0.822068  0.393461  0.392236  1
