# generated using pymatgen
data_Ho8Lu3Sc9Ga16
_symmetry_space_group_name_H-M   'P 1'
_cell_length_a   7.28921292
_cell_length_b   7.60405372
_cell_length_c   14.54925308
_cell_angle_alpha   89.87183706
_cell_angle_beta   89.83039747
_cell_angle_gamma   90.05786880
_symmetry_Int_Tables_number   1
_chemical_formula_structural   Ho8Lu3Sc9Ga16
_chemical_formula_sum   'Ho8 Lu3 Sc9 Ga16'
_cell_volume   806.42372644
_cell_formula_units_Z   1
loop_
 _symmetry_equiv_pos_site_id
 _symmetry_equiv_pos_as_xyz
  1  'x, y, z'
loop_
 _atom_site_type_symbol
 _atom_site_label
 _atom_site_symmetry_multiplicity
 _atom_site_fract_x
 _atom_site_fract_y
 _atom_site_fract_z
 _atom_site_occupancy
  Ho  Ho0  1  0.013032  0.180804  0.092026  1
  Ho  Ho1  1  0.987072  0.818410  0.906911  1
  Ho  Ho2  1  0.486929  0.681647  0.906712  1
  Ho  Ho3  1  0.986390  0.818312  0.598416  1
  Ho  Ho4  1  0.513087  0.318391  0.092002  1
  Ho  Ho5  1  0.013270  0.183088  0.404165  1
  Ho  Ho6  1  0.513125  0.317414  0.401820  1
  Ho  Ho7  1  0.486056  0.681236  0.596704  1
  Lu  Lu8  1  0.329242  0.173577  0.625108  1
  Lu  Lu9  1  0.672037  0.826248  0.375183  1
  Lu  Lu10  1  0.171664  0.671199  0.374876  1
  Sc  Sc11  1  0.161194  0.504428  0.752435  1
  Sc  Sc12  1  0.838539  0.493586  0.246659  1
  Sc  Sc13  1  0.338368  0.005041  0.246544  1
  Sc  Sc14  1  0.661820  0.996275  0.751986  1
  Sc  Sc15  1  0.671419  0.826884  0.122717  1
  Sc  Sc16  1  0.828740  0.327499  0.628796  1
  Sc  Sc17  1  0.329175  0.172923  0.876492  1
  Sc  Sc18  1  0.828212  0.327982  0.876792  1
  Sc  Sc19  1  0.171431  0.672495  0.122840  1
  Ga  Ga20  1  0.027415  0.115299  0.754605  1
  Ga  Ga21  1  0.971796  0.887626  0.244749  1
  Ga  Ga22  1  0.472031  0.610928  0.243937  1
  Ga  Ga23  1  0.530558  0.388057  0.753790  1
  Ga  Ga24  1  0.281082  0.869340  0.752979  1
  Ga  Ga25  1  0.718946  0.130936  0.246525  1
  Ga  Ga26  1  0.217929  0.367825  0.246106  1
  Ga  Ga27  1  0.782016  0.630134  0.751905  1
  Ga  Ga28  1  0.155032  0.468392  0.544394  1
  Ga  Ga29  1  0.834849  0.527993  0.462638  1
  Ga  Ga30  1  0.339068  0.969144  0.458270  1
  Ga  Ga31  1  0.838664  0.534365  0.040622  1
  Ga  Ga32  1  0.667624  0.037418  0.542596  1
  Ga  Ga33  1  0.161899  0.465676  0.958782  1
  Ga  Ga34  1  0.661849  0.034131  0.958665  1
  Ga  Ga35  1  0.338440  0.965297  0.040253  1
