# generated using pymatgen
data_Dy8Si12PtRh3
_symmetry_space_group_name_H-M   'P 1'
_cell_length_a   8.17545100
_cell_length_b   8.17545140
_cell_length_c   7.92482200
_cell_angle_alpha   90.00000000
_cell_angle_beta   90.00000000
_cell_angle_gamma   119.99999435
_symmetry_Int_Tables_number   1
_chemical_formula_structural   Dy8Si12PtRh3
_chemical_formula_sum   'Dy8 Si12 Pt1 Rh3'
_cell_volume   458.71573069
_cell_formula_units_Z   1
loop_
 _symmetry_equiv_pos_site_id
 _symmetry_equiv_pos_as_xyz
  1  'x, y, z'
loop_
 _atom_site_type_symbol
 _atom_site_label
 _atom_site_symmetry_multiplicity
 _atom_site_fract_x
 _atom_site_fract_y
 _atom_site_fract_z
 _atom_site_occupancy
  Dy  Dy0  1  0.000000  0.000000  0.251126  1
  Dy  Dy1  1  0.000000  0.000000  0.749350  1
  Dy  Dy2  1  0.015784  0.507892  0.252051  1
  Dy  Dy3  1  0.492108  0.507892  0.252051  1
  Dy  Dy4  1  0.509382  0.018764  0.747506  1
  Dy  Dy5  1  0.492108  0.984216  0.252051  1
  Dy  Dy6  1  0.509382  0.490618  0.747506  1
  Dy  Dy7  1  0.981236  0.490618  0.747506  1
  Si  Si8  1  0.164284  0.328568  0.000847  1
  Si  Si9  1  0.671432  0.835716  0.000847  1
  Si  Si10  1  0.166792  0.333583  0.500074  1
  Si  Si11  1  0.335863  0.167932  0.998652  1
  Si  Si12  1  0.164284  0.835716  0.000847  1
  Si  Si13  1  0.666417  0.833208  0.500074  1
  Si  Si14  1  0.832068  0.664137  0.998652  1
  Si  Si15  1  0.333582  0.166791  0.499968  1
  Si  Si16  1  0.166792  0.833208  0.500074  1
  Si  Si17  1  0.833209  0.666418  0.499968  1
  Si  Si18  1  0.832068  0.167932  0.998652  1
  Si  Si19  1  0.833209  0.166791  0.499968  1
  Pt  Pt20  1  0.333333  0.666667  0.969724  1
  Rh  Rh21  1  0.333333  0.666667  0.532802  1
  Rh  Rh22  1  0.666667  0.333333  0.035769  1
  Rh  Rh23  1  0.666667  0.333333  0.463939  1
