# generated using pymatgen
data_Rb3Cr2Br9
_symmetry_space_group_name_H-M   'P 1'
_cell_length_a   7.55606700
_cell_length_b   7.55605934
_cell_length_c   19.29294000
_cell_angle_alpha   90.00000000
_cell_angle_beta   90.00000000
_cell_angle_gamma   120.00000522
_symmetry_Int_Tables_number   1
_chemical_formula_structural   Rb3Cr2Br9
_chemical_formula_sum   'Rb6 Cr4 Br18'
_cell_volume   953.93807386
_cell_formula_units_Z   2
loop_
 _symmetry_equiv_pos_site_id
 _symmetry_equiv_pos_as_xyz
  1  'x, y, z'
loop_
 _atom_site_type_symbol
 _atom_site_label
 _atom_site_symmetry_multiplicity
 _atom_site_fract_x
 _atom_site_fract_y
 _atom_site_fract_z
 _atom_site_occupancy
  Rb  Rb0  1  0.333333  0.666667  0.435165  1
  Rb  Rb1  1  0.666667  0.333333  0.935165  1
  Rb  Rb2  1  0.000000  0.000000  0.250000  1
  Rb  Rb3  1  0.333333  0.666667  0.064835  1
  Rb  Rb4  1  0.000000  0.000000  0.750000  1
  Rb  Rb5  1  0.666667  0.333333  0.564835  1
  Cr  Cr6  1  0.666665  0.333332  0.162698  1
  Cr  Cr7  1  0.333335  0.666668  0.837302  1
  Cr  Cr8  1  0.333335  0.666668  0.662698  1
  Cr  Cr9  1  0.666665  0.333332  0.337302  1
  Br  Br10  1  0.823917  0.647832  0.092693  1
  Br  Br11  1  0.514412  0.485587  0.250000  1
  Br  Br12  1  0.514412  0.028822  0.250000  1
  Br  Br13  1  0.028825  0.514413  0.750000  1
  Br  Br14  1  0.647834  0.823918  0.592693  1
  Br  Br15  1  0.176083  0.823917  0.592693  1
  Br  Br16  1  0.971175  0.485587  0.250000  1
  Br  Br17  1  0.352166  0.176082  0.092693  1
  Br  Br18  1  0.823917  0.176083  0.407307  1
  Br  Br19  1  0.176083  0.352168  0.907307  1
  Br  Br20  1  0.485588  0.514413  0.750000  1
  Br  Br21  1  0.176083  0.352168  0.592693  1
  Br  Br22  1  0.485588  0.971178  0.750000  1
  Br  Br23  1  0.352166  0.176082  0.407307  1
  Br  Br24  1  0.823917  0.176083  0.092693  1
  Br  Br25  1  0.823917  0.647832  0.407307  1
  Br  Br26  1  0.176083  0.823917  0.907307  1
  Br  Br27  1  0.647834  0.823918  0.907307  1
