# generated using pymatgen
data_LiTb16Cd(InRh2)2
_symmetry_space_group_name_H-M   'P 1'
_cell_length_a   9.67849876
_cell_length_b   9.68154750
_cell_length_c   9.68154702
_cell_angle_alpha   60.00657602
_cell_angle_beta   60.03197016
_cell_angle_gamma   60.03197273
_symmetry_Int_Tables_number   1
_chemical_formula_structural   LiTb16Cd(InRh2)2
_chemical_formula_sum   'Li1 Tb16 Cd1 In2 Rh4'
_cell_volume   641.82088280
_cell_formula_units_Z   1
loop_
 _symmetry_equiv_pos_site_id
 _symmetry_equiv_pos_as_xyz
  1  'x, y, z'
loop_
 _atom_site_type_symbol
 _atom_site_label
 _atom_site_symmetry_multiplicity
 _atom_site_fract_x
 _atom_site_fract_y
 _atom_site_fract_z
 _atom_site_occupancy
  Li  Li0  1  0.969644  0.677114  0.677114  1
  Tb  Tb1  1  0.301696  0.898859  0.898859  1
  Tb  Tb2  1  0.686185  0.314682  0.685950  1
  Tb  Tb3  1  0.312314  0.687989  0.312668  1
  Tb  Tb4  1  0.065417  0.436623  0.436623  1
  Tb  Tb5  1  0.687067  0.312851  0.312851  1
  Tb  Tb6  1  0.441167  0.060550  0.439812  1
  Tb  Tb7  1  0.443628  0.057811  0.057811  1
  Tb  Tb8  1  0.899651  0.903054  0.903054  1
  Tb  Tb9  1  0.061382  0.438621  0.061652  1
  Tb  Tb10  1  0.899283  0.296747  0.900468  1
  Tb  Tb11  1  0.311944  0.687686  0.687686  1
  Tb  Tb12  1  0.899283  0.900468  0.296747  1
  Tb  Tb13  1  0.441167  0.439812  0.060550  1
  Tb  Tb14  1  0.312314  0.312668  0.687989  1
  Tb  Tb15  1  0.686185  0.685950  0.314682  1
  Tb  Tb16  1  0.061382  0.061652  0.438621  1
  Cd  Cd17  1  0.672308  0.667638  0.667638  1
  In  In18  1  0.671966  0.995319  0.666601  1
  In  In19  1  0.671966  0.666601  0.995319  1
  Rh  Rh20  1  0.108697  0.106280  0.677007  1
  Rh  Rh21  1  0.108697  0.677007  0.106280  1
  Rh  Rh22  1  0.110296  0.106351  0.106351  1
  Rh  Rh23  1  0.676359  0.107668  0.107668  1
