# generated using pymatgen
data_Tb8Pd3Pt21W
_symmetry_space_group_name_H-M   'P 1'
_cell_length_a   8.43892800
_cell_length_b   8.44686100
_cell_length_c   8.44817100
_cell_angle_alpha   90.00000000
_cell_angle_beta   90.00000000
_cell_angle_gamma   90.00000000
_symmetry_Int_Tables_number   1
_chemical_formula_structural   Tb8Pd3Pt21W
_chemical_formula_sum   'Tb8 Pd3 Pt21 W1'
_cell_volume   602.20634215
_cell_formula_units_Z   1
loop_
 _symmetry_equiv_pos_site_id
 _symmetry_equiv_pos_as_xyz
  1  'x, y, z'
loop_
 _atom_site_type_symbol
 _atom_site_label
 _atom_site_symmetry_multiplicity
 _atom_site_fract_x
 _atom_site_fract_y
 _atom_site_fract_z
 _atom_site_occupancy
  Tb  Tb0  1  0.251366  0.251301  0.251813  1
  Tb  Tb1  1  0.748309  0.748683  0.748118  1
  Tb  Tb2  1  0.748634  0.748699  0.251813  1
  Tb  Tb3  1  0.748309  0.251317  0.748118  1
  Tb  Tb4  1  0.251691  0.251317  0.748118  1
  Tb  Tb5  1  0.251366  0.748699  0.251813  1
  Tb  Tb6  1  0.251691  0.748683  0.748118  1
  Tb  Tb7  1  0.748634  0.251301  0.251813  1
  Pd  Pd8  1  0.000000  0.500000  0.735538  1
  Pd  Pd9  1  0.500000  0.500000  0.255221  1
  Pd  Pd10  1  0.500000  0.500000  0.744583  1
  Pt  Pt11  1  0.264346  0.500000  0.999995  1
  Pt  Pt12  1  0.735654  0.500000  0.999995  1
  Pt  Pt13  1  0.000000  0.264449  0.500114  1
  Pt  Pt14  1  0.500000  0.265040  0.999883  1
  Pt  Pt15  1  0.000000  0.735551  0.500114  1
  Pt  Pt16  1  0.500000  0.734960  0.999883  1
  Pt  Pt17  1  0.500000  0.000000  0.264520  1
  Pt  Pt18  1  0.264236  0.000000  0.499903  1
  Pt  Pt19  1  0.500000  0.000000  0.735655  1
  Pt  Pt20  1  0.735764  0.000000  0.499903  1
  Pt  Pt21  1  0.000000  0.500000  0.264302  1
  Pt  Pt22  1  0.254796  0.500000  0.499732  1
  Pt  Pt23  1  0.745204  0.500000  0.499732  1
  Pt  Pt24  1  0.500000  0.255593  0.500001  1
  Pt  Pt25  1  0.500000  0.744407  0.500001  1
  Pt  Pt26  1  0.302259  0.000000  0.999993  1
  Pt  Pt27  1  0.697741  0.000000  0.999993  1
  Pt  Pt28  1  0.000000  0.302294  0.000002  1
  Pt  Pt29  1  0.000000  0.697706  0.000002  1
  Pt  Pt30  1  0.000000  0.000000  0.301286  1
  Pt  Pt31  1  0.000000  0.000000  0.699306  1
  W  W32  1  0.000000  0.000000  0.000621  1
