# generated using pymatgen
data_LuPa2(SnOs)3
_symmetry_space_group_name_H-M   'P 1'
_cell_length_a   7.46335410
_cell_length_b   7.24887503
_cell_length_c   4.03967100
_cell_angle_alpha   90.00000000
_cell_angle_beta   90.00000000
_cell_angle_gamma   119.05382289
_symmetry_Int_Tables_number   1
_chemical_formula_structural   LuPa2(SnOs)3
_chemical_formula_sum   'Lu1 Pa2 Sn3 Os3'
_cell_volume   191.04845186
_cell_formula_units_Z   1
loop_
 _symmetry_equiv_pos_site_id
 _symmetry_equiv_pos_as_xyz
  1  'x, y, z'
loop_
 _atom_site_type_symbol
 _atom_site_label
 _atom_site_symmetry_multiplicity
 _atom_site_fract_x
 _atom_site_fract_y
 _atom_site_fract_z
 _atom_site_occupancy
  Lu  Lu0  1  0.000000  0.594334  0.500000  1
  Pa  Pa1  1  0.411158  0.413218  0.500000  1
  Pa  Pa2  1  0.588842  0.002060  0.500000  1
  Sn  Sn3  1  0.761199  0.745976  0.000000  1
  Sn  Sn4  1  0.238801  0.984777  0.000000  1
  Sn  Sn5  1  0.000000  0.268623  0.000000  1
  Os  Os6  1  0.638398  0.308292  0.000000  1
  Os  Os7  1  0.361602  0.669896  0.000000  1
  Os  Os8  1  0.000000  0.012824  0.500000  1
