# generated using pymatgen
data_TbPr3(NbN2)4
_symmetry_space_group_name_H-M   'P 1'
_cell_length_a   3.39631500
_cell_length_b   5.82249012
_cell_length_c   11.11223114
_cell_angle_alpha   89.90172527
_cell_angle_beta   90.00000000
_cell_angle_gamma   90.00000000
_symmetry_Int_Tables_number   1
_chemical_formula_structural   TbPr3(NbN2)4
_chemical_formula_sum   'Tb1 Pr3 Nb4 N8'
_cell_volume   219.74416433
_cell_formula_units_Z   1
loop_
 _symmetry_equiv_pos_site_id
 _symmetry_equiv_pos_as_xyz
  1  'x, y, z'
loop_
 _atom_site_type_symbol
 _atom_site_label
 _atom_site_symmetry_multiplicity
 _atom_site_fract_x
 _atom_site_fract_y
 _atom_site_fract_z
 _atom_site_occupancy
  Tb  Tb0  1  0.250000  0.085532  0.639110  1
  Pr  Pr1  1  0.250000  0.587194  0.860084  1
  Pr  Pr2  1  0.750000  0.414002  0.139133  1
  Pr  Pr3  1  0.750000  0.913488  0.362747  1
  Nb  Nb4  1  0.250000  0.918417  0.108740  1
  Nb  Nb5  1  0.750000  0.083282  0.888971  1
  Nb  Nb6  1  0.750000  0.583002  0.607160  1
  Nb  Nb7  1  0.250000  0.416001  0.394205  1
  N  N8  1  0.250000  0.661427  0.248036  1
  N  N9  1  0.750000  0.334914  0.749621  1
  N  N10  1  0.750000  0.845395  0.742288  1
  N  N11  1  0.250000  0.161971  0.253802  1
  N  N12  1  0.250000  0.731994  0.516196  1
  N  N13  1  0.750000  0.264009  0.492970  1
  N  N14  1  0.750000  0.774521  0.011430  1
  N  N15  1  0.250000  0.224852  0.985508  1
