# generated using pymatgen
data_FeBr37
_symmetry_space_group_name_H-M   'P 1'
_cell_length_a   14.20848141
_cell_length_b   15.29732181
_cell_length_c   14.42416200
_cell_angle_alpha   103.00376457
_cell_angle_beta   48.80056783
_cell_angle_gamma   81.50743146
_symmetry_Int_Tables_number   1
_chemical_formula_structural   FeBr37
_chemical_formula_sum   'Fe1 Br37'
_cell_volume   2102.91272627
_cell_formula_units_Z   1
loop_
 _symmetry_equiv_pos_site_id
 _symmetry_equiv_pos_as_xyz
  1  'x, y, z'
loop_
 _atom_site_type_symbol
 _atom_site_label
 _atom_site_symmetry_multiplicity
 _atom_site_fract_x
 _atom_site_fract_y
 _atom_site_fract_z
 _atom_site_occupancy
  Fe  Fe0  1  0.500000  0.000000  0.000000  1
  Br  Br1  1  0.793610  0.300639  0.134345  1
  Br  Br2  1  0.206390  0.699361  0.865655  1
  Br  Br3  1  0.746658  0.083059  0.361813  1
  Br  Br4  1  0.253342  0.916941  0.638187  1
  Br  Br5  1  0.115744  0.350782  0.171340  1
  Br  Br6  1  0.884256  0.649218  0.828660  1
  Br  Br7  1  0.863585  0.534972  0.248658  1
  Br  Br8  1  0.136415  0.465028  0.751342  1
  Br  Br9  1  0.685871  0.275908  0.521979  1
  Br  Br10  1  0.314129  0.724092  0.478021  1
  Br  Br11  1  0.044488  0.143307  0.487428  1
  Br  Br12  1  0.955512  0.856693  0.512572  1
  Br  Br13  1  0.980717  0.009244  0.283852  1
  Br  Br14  1  0.019283  0.990756  0.716148  1
  Br  Br15  1  0.949555  0.336509  0.603322  1
  Br  Br16  1  0.050445  0.663491  0.396678  1
  Br  Br17  1  0.583333  0.428427  0.233882  1
  Br  Br18  1  0.416667  0.571573  0.766118  1
  Br  Br19  1  0.168093  0.480205  0.281783  1
  Br  Br20  1  0.831907  0.519795  0.718217  1
  Br  Br21  1  0.000000  0.500000  0.000000  1
  Br  Br22  1  0.568982  0.960912  0.125667  1
  Br  Br23  1  0.431018  0.039088  0.874333  1
  Br  Br24  1  0.310313  0.056752  0.300613  1
  Br  Br25  1  0.689687  0.943248  0.699387  1
  Br  Br26  1  0.534675  0.129781  0.410792  1
  Br  Br27  1  0.465325  0.870219  0.589208  1
  Br  Br28  1  0.095846  0.216248  0.067517  1
  Br  Br29  1  0.904154  0.783752  0.932483  1
  Br  Br30  1  0.661559  0.695263  0.404624  1
  Br  Br31  1  0.338441  0.304737  0.595376  1
  Br  Br32  1  0.901603  0.146648  0.922320  1
  Br  Br33  1  0.098397  0.853352  0.077680  1
  Br  Br34  1  0.529634  0.145978  0.027375  1
  Br  Br35  1  0.470366  0.854022  0.972625  1
  Br  Br36  1  0.647788  0.431567  0.651156  1
  Br  Br37  1  0.352212  0.568433  0.348844  1
