# generated using pymatgen
data_Nd5Tl3S
_symmetry_space_group_name_H-M   'P 1'
_cell_length_a   9.51981400
_cell_length_b   9.51981334
_cell_length_c   6.80261500
_cell_angle_alpha   90.00000000
_cell_angle_beta   90.00000000
_cell_angle_gamma   120.00000230
_symmetry_Int_Tables_number   1
_chemical_formula_structural   Nd5Tl3S
_chemical_formula_sum   'Nd10 Tl6 S2'
_cell_volume   533.90428956
_cell_formula_units_Z   2
loop_
 _symmetry_equiv_pos_site_id
 _symmetry_equiv_pos_as_xyz
  1  'x, y, z'
loop_
 _atom_site_type_symbol
 _atom_site_label
 _atom_site_symmetry_multiplicity
 _atom_site_fract_x
 _atom_site_fract_y
 _atom_site_fract_z
 _atom_site_occupancy
  Nd  Nd0  1  0.758380  0.758380  0.750000  1
  Nd  Nd1  1  0.241620  0.000000  0.750000  1
  Nd  Nd2  1  0.000000  0.241620  0.750000  1
  Nd  Nd3  1  0.241620  0.241620  0.250000  1
  Nd  Nd4  1  0.758380  0.000000  0.250000  1
  Nd  Nd5  1  0.000000  0.758380  0.250000  1
  Nd  Nd6  1  0.666667  0.333333  0.000000  1
  Nd  Nd7  1  0.333333  0.666667  0.000000  1
  Nd  Nd8  1  0.333333  0.666667  0.500000  1
  Nd  Nd9  1  0.666667  0.333333  0.500000  1
  Tl  Tl10  1  0.400062  0.400062  0.750000  1
  Tl  Tl11  1  0.599938  0.000000  0.750000  1
  Tl  Tl12  1  0.000000  0.599938  0.750000  1
  Tl  Tl13  1  0.599938  0.599938  0.250000  1
  Tl  Tl14  1  0.400062  0.000000  0.250000  1
  Tl  Tl15  1  0.000000  0.400062  0.250000  1
  S  S16  1  0.000000  0.000000  0.000000  1
  S  S17  1  0.000000  0.000000  0.500000  1
