# generated using pymatgen
data_SrGa4PbCl16
_symmetry_space_group_name_H-M   'P 1'
_cell_length_a   7.15102100
_cell_length_b   7.59391256
_cell_length_c   12.99524356
_cell_angle_alpha   85.62113915
_cell_angle_beta   90.00000000
_cell_angle_gamma   90.00000000
_symmetry_Int_Tables_number   1
_chemical_formula_structural   SrGa4PbCl16
_chemical_formula_sum   'Sr1 Ga4 Pb1 Cl16'
_cell_volume   703.63673544
_cell_formula_units_Z   1
loop_
 _symmetry_equiv_pos_site_id
 _symmetry_equiv_pos_as_xyz
  1  'x, y, z'
loop_
 _atom_site_type_symbol
 _atom_site_label
 _atom_site_symmetry_multiplicity
 _atom_site_fract_x
 _atom_site_fract_y
 _atom_site_fract_z
 _atom_site_occupancy
  Sr  Sr0  1  0.159219  0.500000  0.250000  1
  Ga  Ga1  1  0.261460  0.325632  0.918614  1
  Ga  Ga2  1  0.738780  0.674284  0.081361  1
  Ga  Ga3  1  0.261460  0.674368  0.581386  1
  Ga  Ga4  1  0.738780  0.325716  0.418639  1
  Pb  Pb5  1  0.841917  0.500000  0.750000  1
  Cl  Cl6  1  0.307244  0.265804  0.085725  1
  Cl  Cl7  1  0.176528  0.602884  0.882429  1
  Cl  Cl8  1  0.025698  0.171149  0.861880  1
  Cl  Cl9  1  0.823294  0.602716  0.382450  1
  Cl  Cl10  1  0.525421  0.741532  0.656791  1
  Cl  Cl11  1  0.474348  0.741225  0.156845  1
  Cl  Cl12  1  0.692614  0.265620  0.585755  1
  Cl  Cl13  1  0.307244  0.734196  0.414275  1
  Cl  Cl14  1  0.525421  0.258468  0.843209  1
  Cl  Cl15  1  0.474348  0.258775  0.343155  1
  Cl  Cl16  1  0.176528  0.397116  0.617571  1
  Cl  Cl17  1  0.823294  0.397284  0.117550  1
  Cl  Cl18  1  0.692614  0.734380  0.914245  1
  Cl  Cl19  1  0.974045  0.828881  0.138060  1
  Cl  Cl20  1  0.974045  0.171119  0.361940  1
  Cl  Cl21  1  0.025698  0.828851  0.638120  1
