# generated using pymatgen
data_La7YCd2IrRu
_symmetry_space_group_name_H-M   'P 1'
_cell_length_a   10.03363766
_cell_length_b   10.06497712
_cell_length_c   10.03363862
_cell_angle_alpha   59.89661669
_cell_angle_beta   61.06976786
_cell_angle_gamma   59.89661843
_symmetry_Int_Tables_number   1
_chemical_formula_structural   La7YCd2IrRu
_chemical_formula_sum   'La14 Y2 Cd4 Ir2 Ru2'
_cell_volume   720.96061869
_cell_formula_units_Z   2
loop_
 _symmetry_equiv_pos_site_id
 _symmetry_equiv_pos_as_xyz
  1  'x, y, z'
loop_
 _atom_site_type_symbol
 _atom_site_label
 _atom_site_symmetry_multiplicity
 _atom_site_fract_x
 _atom_site_fract_y
 _atom_site_fract_z
 _atom_site_occupancy
  La  La0  1  0.440180  0.439310  0.060488  1
  La  La1  1  0.060488  0.060023  0.440180  1
  La  La2  1  0.440180  0.060023  0.060488  1
  La  La3  1  0.844973  0.850994  0.844973  1
  La  La4  1  0.685524  0.317545  0.310708  1
  La  La5  1  0.060488  0.439310  0.440180  1
  La  La6  1  0.310708  0.686223  0.685524  1
  La  La7  1  0.310708  0.317545  0.685524  1
  La  La8  1  0.852512  0.844576  0.458337  1
  La  La9  1  0.685524  0.686223  0.310708  1
  La  La10  1  0.458337  0.844576  0.852512  1
  La  La11  1  0.056835  0.443165  0.056835  1
  La  La12  1  0.844973  0.459060  0.844973  1
  La  La13  1  0.444512  0.055488  0.444512  1
  Y  Y14  1  0.308083  0.691917  0.308083  1
  Y  Y15  1  0.692432  0.307568  0.692432  1
  Cd  Cd16  1  0.080801  0.762651  0.080801  1
  Cd  Cd17  1  0.075985  0.080950  0.762114  1
  Cd  Cd18  1  0.762114  0.080950  0.075985  1
  Cd  Cd19  1  0.080801  0.075746  0.080801  1
  Ir  Ir20  1  0.638055  0.081384  0.638055  1
  Ir  Ir21  1  0.638055  0.642505  0.638055  1
  Ru  Ru22  1  0.642389  0.636134  0.085343  1
  Ru  Ru23  1  0.085343  0.636134  0.642389  1
