# generated using pymatgen
data_Li4NdY3(Si2Sn)2
_symmetry_space_group_name_H-M   'P 1'
_cell_length_a   9.61698014
_cell_length_b   9.61698100
_cell_length_c   6.80199600
_cell_angle_alpha   90.00000000
_cell_angle_beta   90.00000000
_cell_angle_gamma   153.30804135
_symmetry_Int_Tables_number   1
_chemical_formula_structural   Li4NdY3(Si2Sn)2
_chemical_formula_sum   'Li4 Nd1 Y3 Si4 Sn2'
_cell_volume   282.58390353
_cell_formula_units_Z   1
loop_
 _symmetry_equiv_pos_site_id
 _symmetry_equiv_pos_as_xyz
  1  'x, y, z'
loop_
 _atom_site_type_symbol
 _atom_site_label
 _atom_site_symmetry_multiplicity
 _atom_site_fract_x
 _atom_site_fract_y
 _atom_site_fract_z
 _atom_site_occupancy
  Li  Li0  1  0.184227  0.815773  0.055013  1
  Li  Li1  1  0.184227  0.815773  0.444987  1
  Li  Li2  1  0.815479  0.184521  0.945795  1
  Li  Li3  1  0.815479  0.184521  0.554205  1
  Nd  Nd4  1  0.451355  0.548645  0.750000  1
  Y  Y5  1  0.351260  0.648740  0.250000  1
  Y  Y6  1  0.648800  0.351200  0.750000  1
  Y  Y7  1  0.548704  0.451296  0.250000  1
  Si  Si8  1  0.058652  0.941348  0.928140  1
  Si  Si9  1  0.942318  0.057682  0.075068  1
  Si  Si10  1  0.942318  0.057682  0.424932  1
  Si  Si11  1  0.058652  0.941348  0.571860  1
  Sn  Sn12  1  0.719375  0.280625  0.250000  1
  Sn  Sn13  1  0.279150  0.720850  0.750000  1
