# generated using pymatgen
data_Hf7Fe4Co4Si14W
_symmetry_space_group_name_H-M   'P 1'
_cell_length_a   9.40477750
_cell_length_b   9.41068298
_cell_length_c   9.40201122
_cell_angle_alpha   94.18062907
_cell_angle_beta   94.14921122
_cell_angle_gamma   148.74610458
_symmetry_Int_Tables_number   1
_chemical_formula_structural   Hf7Fe4Co4Si14W
_chemical_formula_sum   'Hf7 Fe4 Co4 Si14 W1'
_cell_volume   415.74621580
_cell_formula_units_Z   1
loop_
 _symmetry_equiv_pos_site_id
 _symmetry_equiv_pos_as_xyz
  1  'x, y, z'
loop_
 _atom_site_type_symbol
 _atom_site_label
 _atom_site_symmetry_multiplicity
 _atom_site_fract_x
 _atom_site_fract_y
 _atom_site_fract_z
 _atom_site_occupancy
  Hf  Hf0  1  0.863279  0.863273  0.726540  1
  Hf  Hf1  1  0.861404  0.138212  0.999210  1
  Hf  Hf2  1  0.137796  0.860979  0.999211  1
  Hf  Hf3  1  0.502131  0.306170  0.804148  1
  Hf  Hf4  1  0.504770  0.697877  0.198685  1
  Hf  Hf5  1  0.693939  0.500825  0.198688  1
  Hf  Hf6  1  0.301998  0.497954  0.804151  1
  Fe  Fe7  1  0.400652  0.900643  0.801326  1
  Fe  Fe8  1  0.100583  0.600667  0.201117  1
  Fe  Fe9  1  0.099420  0.899378  0.497996  1
  Fe  Fe10  1  0.398563  0.598646  0.497972  1
  Co  Co11  1  0.600752  0.393728  0.498516  1
  Co  Co12  1  0.897828  0.104819  0.498506  1
  Co  Co13  1  0.896520  0.396520  0.793068  1
  Co  Co14  1  0.604458  0.104443  0.208929  1
  Si  Si15  1  0.487656  0.079171  0.592697  1
  Si  Si16  1  0.487985  0.896503  0.408277  1
  Si  Si17  1  0.920269  0.511750  0.408284  1
  Si  Si18  1  0.105040  0.513516  0.592694  1
  Si  Si19  1  0.756427  0.756244  0.005871  1
  Si  Si20  1  0.249436  0.249607  0.005865  1
  Si  Si21  1  0.285927  0.285938  0.571725  1
  Si  Si22  1  0.711068  0.711064  0.422285  1
  Si  Si23  1  0.710205  0.291353  0.001069  1
  Si  Si24  1  0.290844  0.709690  0.001072  1
  Si  Si25  1  0.007075  0.303059  0.300624  1
  Si  Si26  1  0.004730  0.702030  0.696305  1
  Si  Si27  1  0.691554  0.994246  0.696307  1
  Si  Si28  1  0.293581  0.997591  0.300614  1
  W  W29  1  0.134109  0.134104  0.268245  1
