# generated using pymatgen
data_KSr3RuO6
_symmetry_space_group_name_H-M   'P 1'
_cell_length_a   6.96138143
_cell_length_b   6.96138139
_cell_length_c   6.96138118
_cell_angle_alpha   88.06478202
_cell_angle_beta   88.06478759
_cell_angle_gamma   88.06478758
_symmetry_Int_Tables_number   1
_chemical_formula_structural   KSr3RuO6
_chemical_formula_sum   'K2 Sr6 Ru2 O12'
_cell_volume   336.78977106
_cell_formula_units_Z   2
loop_
 _symmetry_equiv_pos_site_id
 _symmetry_equiv_pos_as_xyz
  1  'x, y, z'
loop_
 _atom_site_type_symbol
 _atom_site_label
 _atom_site_symmetry_multiplicity
 _atom_site_fract_x
 _atom_site_fract_y
 _atom_site_fract_z
 _atom_site_occupancy
  K  K0  1  0.250000  0.250000  0.250000  1
  K  K1  1  0.750000  0.750000  0.750000  1
  Sr  Sr2  1  0.750000  0.386841  0.113159  1
  Sr  Sr3  1  0.113159  0.750000  0.386841  1
  Sr  Sr4  1  0.386841  0.113159  0.750000  1
  Sr  Sr5  1  0.250000  0.613159  0.886841  1
  Sr  Sr6  1  0.886841  0.250000  0.613159  1
  Sr  Sr7  1  0.613159  0.886841  0.250000  1
  Ru  Ru8  1  0.000000  0.000000  0.000000  1
  Ru  Ru9  1  0.500000  0.500000  0.500000  1
  O  O10  1  0.434103  0.775320  0.564490  1
  O  O11  1  0.564490  0.434103  0.775320  1
  O  O12  1  0.775320  0.564490  0.434103  1
  O  O13  1  0.065897  0.935510  0.724680  1
  O  O14  1  0.724680  0.065897  0.935510  1
  O  O15  1  0.935510  0.724680  0.065897  1
  O  O16  1  0.565897  0.224680  0.435510  1
  O  O17  1  0.435510  0.565897  0.224680  1
  O  O18  1  0.224680  0.435510  0.565897  1
  O  O19  1  0.934103  0.064490  0.275320  1
  O  O20  1  0.064490  0.275320  0.934103  1
  O  O21  1  0.275320  0.934103  0.064490  1
