# generated using pymatgen
data_Pr7ThMg2IrRu
_symmetry_space_group_name_H-M   'P 1'
_cell_length_a   10.06449410
_cell_length_b   10.06449348
_cell_length_c   10.16301700
_cell_angle_alpha   59.67564677
_cell_angle_beta   59.67564884
_cell_angle_gamma   59.98628972
_symmetry_Int_Tables_number   1
_chemical_formula_structural   Pr7ThMg2IrRu
_chemical_formula_sum   'Pr14 Th2 Mg4 Ir2 Ru2'
_cell_volume   724.26967286
_cell_formula_units_Z   2
loop_
 _symmetry_equiv_pos_site_id
 _symmetry_equiv_pos_as_xyz
  1  'x, y, z'
loop_
 _atom_site_type_symbol
 _atom_site_label
 _atom_site_symmetry_multiplicity
 _atom_site_fract_x
 _atom_site_fract_y
 _atom_site_fract_z
 _atom_site_occupancy
  Pr  Pr0  1  0.346046  0.959343  0.347306  1
  Pr  Pr1  1  0.959343  0.346046  0.347306  1
  Pr  Pr2  1  0.812285  0.189295  0.188978  1
  Pr  Pr3  1  0.189295  0.812285  0.809442  1
  Pr  Pr4  1  0.189295  0.812285  0.188978  1
  Pr  Pr5  1  0.812285  0.189295  0.809442  1
  Pr  Pr6  1  0.189115  0.189115  0.810885  1
  Pr  Pr7  1  0.809563  0.809563  0.190437  1
  Pr  Pr8  1  0.940088  0.559081  0.563201  1
  Pr  Pr9  1  0.559081  0.940088  0.937630  1
  Pr  Pr10  1  0.559081  0.940088  0.563201  1
  Pr  Pr11  1  0.940088  0.559081  0.937630  1
  Pr  Pr12  1  0.559906  0.559906  0.940094  1
  Pr  Pr13  1  0.937905  0.937905  0.562095  1
  Th  Th14  1  0.341027  0.341027  0.347447  1
  Th  Th15  1  0.341027  0.341027  0.970499  1
  Mg  Mg16  1  0.576960  0.576960  0.582042  1
  Mg  Mg17  1  0.576960  0.576960  0.264037  1
  Mg  Mg18  1  0.576347  0.262553  0.580550  1
  Mg  Mg19  1  0.262553  0.576347  0.580550  1
  Ir  Ir20  1  0.153044  0.568172  0.139392  1
  Ir  Ir21  1  0.568172  0.153044  0.139392  1
  Ru  Ru22  1  0.150266  0.150266  0.129282  1
  Ru  Ru23  1  0.150266  0.150266  0.570187  1
