# generated using pymatgen
data_Tb7Sm(Si3Pt)4
_symmetry_space_group_name_H-M   'P 1'
_cell_length_a   8.14388300
_cell_length_b   8.14388363
_cell_length_c   8.22594900
_cell_angle_alpha   90.00000000
_cell_angle_beta   90.00000000
_cell_angle_gamma   120.00000151
_symmetry_Int_Tables_number   1
_chemical_formula_structural   Tb7Sm(Si3Pt)4
_chemical_formula_sum   'Tb7 Sm1 Si12 Pt4'
_cell_volume   472.47596703
_cell_formula_units_Z   1
loop_
 _symmetry_equiv_pos_site_id
 _symmetry_equiv_pos_as_xyz
  1  'x, y, z'
loop_
 _atom_site_type_symbol
 _atom_site_label
 _atom_site_symmetry_multiplicity
 _atom_site_fract_x
 _atom_site_fract_y
 _atom_site_fract_z
 _atom_site_occupancy
  Tb  Tb0  1  0.000000  0.000000  0.750000  1
  Tb  Tb1  1  0.001301  0.500649  0.250000  1
  Tb  Tb2  1  0.499351  0.500649  0.250000  1
  Tb  Tb3  1  0.500643  0.001289  0.750000  1
  Tb  Tb4  1  0.499351  0.998699  0.250000  1
  Tb  Tb5  1  0.500643  0.499357  0.750000  1
  Tb  Tb6  1  0.998711  0.499357  0.750000  1
  Sm  Sm7  1  0.000000  0.000000  0.250000  1
  Si  Si8  1  0.165614  0.331227  0.998464  1
  Si  Si9  1  0.668773  0.834386  0.998464  1
  Si  Si10  1  0.165614  0.331227  0.501536  1
  Si  Si11  1  0.331262  0.165631  0.000015  1
  Si  Si12  1  0.165614  0.834386  0.998464  1
  Si  Si13  1  0.668773  0.834386  0.501536  1
  Si  Si14  1  0.834369  0.668738  0.000015  1
  Si  Si15  1  0.331262  0.165631  0.499985  1
  Si  Si16  1  0.165614  0.834386  0.501536  1
  Si  Si17  1  0.834369  0.668738  0.499985  1
  Si  Si18  1  0.834369  0.165631  0.000015  1
  Si  Si19  1  0.834369  0.165631  0.499985  1
  Pt  Pt20  1  0.333333  0.666667  0.998848  1
  Pt  Pt21  1  0.333333  0.666667  0.501152  1
  Pt  Pt22  1  0.666667  0.333333  0.001065  1
  Pt  Pt23  1  0.666667  0.333333  0.498935  1
