# generated using pymatgen
data_GeP2PbO8
_symmetry_space_group_name_H-M   'P 1'
_cell_length_a   8.78602453
_cell_length_b   8.78602510
_cell_length_c   8.10657423
_cell_angle_alpha   65.88065260
_cell_angle_beta   65.88065290
_cell_angle_gamma   33.94623974
_symmetry_Int_Tables_number   1
_chemical_formula_structural   GeP2PbO8
_chemical_formula_sum   'Ge2 P4 Pb2 O16'
_cell_volume   315.94533701
_cell_formula_units_Z   2
loop_
 _symmetry_equiv_pos_site_id
 _symmetry_equiv_pos_as_xyz
  1  'x, y, z'
loop_
 _atom_site_type_symbol
 _atom_site_label
 _atom_site_symmetry_multiplicity
 _atom_site_fract_x
 _atom_site_fract_y
 _atom_site_fract_z
 _atom_site_occupancy
  Ge  Ge0  1  0.000000  0.500000  0.000000  1
  Ge  Ge1  1  0.500000  0.000000  0.500000  1
  P  P2  1  0.593415  0.109041  0.762118  1
  P  P3  1  0.890959  0.406585  0.737882  1
  P  P4  1  0.406585  0.890959  0.237882  1
  P  P5  1  0.109041  0.593415  0.262118  1
  Pb  Pb6  1  0.824101  0.175899  0.250000  1
  Pb  Pb7  1  0.175899  0.824101  0.750000  1
  O  O8  1  0.804545  0.861444  0.903185  1
  O  O9  1  0.138556  0.195455  0.596815  1
  O  O10  1  0.195455  0.138556  0.096815  1
  O  O11  1  0.861444  0.804545  0.403185  1
  O  O12  1  0.326757  0.368060  0.865324  1
  O  O13  1  0.631940  0.673243  0.634676  1
  O  O14  1  0.673243  0.631940  0.134676  1
  O  O15  1  0.368060  0.326757  0.365324  1
  O  O16  1  0.513395  0.041889  0.698247  1
  O  O17  1  0.958111  0.486605  0.801753  1
  O  O18  1  0.486605  0.958111  0.301753  1
  O  O19  1  0.041889  0.513395  0.198247  1
  O  O20  1  0.726309  0.164084  0.615536  1
  O  O21  1  0.835916  0.273691  0.884464  1
  O  O22  1  0.273691  0.835916  0.384464  1
  O  O23  1  0.164084  0.726309  0.115536  1
