# generated using pymatgen
data_Hf4GaGe
_symmetry_space_group_name_H-M   'P 1'
_cell_length_a   5.40733407
_cell_length_b   5.40733435
_cell_length_c   5.40733484
_cell_angle_alpha   103.94219863
_cell_angle_beta   103.94219304
_cell_angle_gamma   121.20584522
_symmetry_Int_Tables_number   1
_chemical_formula_structural   Hf4GaGe
_chemical_formula_sum   'Hf4 Ga1 Ge1'
_cell_volume   117.81787493
_cell_formula_units_Z   1
loop_
 _symmetry_equiv_pos_site_id
 _symmetry_equiv_pos_as_xyz
  1  'x, y, z'
loop_
 _atom_site_type_symbol
 _atom_site_label
 _atom_site_symmetry_multiplicity
 _atom_site_fract_x
 _atom_site_fract_y
 _atom_site_fract_z
 _atom_site_occupancy
  Hf  Hf0  1  0.154395  0.345605  0.500000  1
  Hf  Hf1  1  0.345605  0.845605  0.191211  1
  Hf  Hf2  1  0.845605  0.654395  0.500000  1
  Hf  Hf3  1  0.654395  0.154395  0.808789  1
  Ga  Ga4  1  0.250000  0.250000  0.000000  1
  Ge  Ge5  1  0.750000  0.750000  0.000000  1
