# generated using pymatgen
data_Tb2Mn3Fe7Co2P7
_symmetry_space_group_name_H-M   'P 1'
_cell_length_a   9.01968102
_cell_length_b   9.04193631
_cell_length_c   3.62811600
_cell_angle_alpha   90.00000000
_cell_angle_beta   90.00000000
_cell_angle_gamma   120.05041582
_symmetry_Int_Tables_number   1
_chemical_formula_structural   Tb2Mn3Fe7Co2P7
_chemical_formula_sum   'Tb2 Mn3 Fe7 Co2 P7'
_cell_volume   256.12004074
_cell_formula_units_Z   1
loop_
 _symmetry_equiv_pos_site_id
 _symmetry_equiv_pos_as_xyz
  1  'x, y, z'
loop_
 _atom_site_type_symbol
 _atom_site_label
 _atom_site_symmetry_multiplicity
 _atom_site_fract_x
 _atom_site_fract_y
 _atom_site_fract_z
 _atom_site_occupancy
  Tb  Tb0  1  0.667529  0.333911  0.000000  1
  Tb  Tb1  1  0.332841  0.666618  0.500000  1
  Mn  Mn2  1  0.101549  0.884359  0.500000  1
  Mn  Mn3  1  0.781068  0.897215  0.500000  1
  Mn  Mn4  1  0.114360  0.216061  0.500000  1
  Fe  Fe5  1  0.056310  0.631441  0.000000  1
  Fe  Fe6  1  0.573970  0.944406  0.000000  1
  Fe  Fe7  1  0.370025  0.427121  0.000000  1
  Fe  Fe8  1  0.275206  0.119569  0.000000  1
  Fe  Fe9  1  0.844341  0.725553  0.000000  1
  Fe  Fe10  1  0.880253  0.153051  0.000000  1
  Fe  Fe11  1  0.949383  0.383488  0.500000  1
  Co  Co12  1  0.436958  0.052379  0.500000  1
  Co  Co13  1  0.615830  0.563764  0.500000  1
  P  P14  1  0.300522  0.888357  0.000000  1
  P  P15  1  0.586949  0.699376  0.000000  1
  P  P16  1  0.110096  0.412943  0.000000  1
  P  P17  1  0.403501  0.290066  0.500000  1
  P  P18  1  0.886910  0.594520  0.500000  1
  P  P19  1  0.711921  0.116070  0.500000  1
  P  P20  1  0.000478  0.999734  0.000000  1
