# generated using pymatgen
data_Lu6Fe4Si5As
_symmetry_space_group_name_H-M   'P 1'
_cell_length_a   5.49923473
_cell_length_b   5.49923335
_cell_length_c   13.32236600
_cell_angle_alpha   90.00000000
_cell_angle_beta   90.00000000
_cell_angle_gamma   136.90368393
_symmetry_Int_Tables_number   1
_chemical_formula_structural   Lu6Fe4Si5As
_chemical_formula_sum   'Lu6 Fe4 Si5 As1'
_cell_volume   275.26479805
_cell_formula_units_Z   1
loop_
 _symmetry_equiv_pos_site_id
 _symmetry_equiv_pos_as_xyz
  1  'x, y, z'
loop_
 _atom_site_type_symbol
 _atom_site_label
 _atom_site_symmetry_multiplicity
 _atom_site_fract_x
 _atom_site_fract_y
 _atom_site_fract_z
 _atom_site_occupancy
  Lu  Lu0  1  0.637451  0.362549  0.250000  1
  Lu  Lu1  1  0.362936  0.637064  0.750000  1
  Lu  Lu2  1  0.921526  0.078474  0.109380  1
  Lu  Lu3  1  0.080247  0.919753  0.887167  1
  Lu  Lu4  1  0.080247  0.919753  0.612833  1
  Lu  Lu5  1  0.921526  0.078474  0.390620  1
  Fe  Fe6  1  0.786403  0.213597  0.581090  1
  Fe  Fe7  1  0.210582  0.789418  0.420269  1
  Fe  Fe8  1  0.210582  0.789418  0.079731  1
  Fe  Fe9  1  0.786403  0.213597  0.918910  1
  Si  Si10  1  0.672237  0.327763  0.750000  1
  Si  Si11  1  0.620215  0.379785  0.039021  1
  Si  Si12  1  0.377832  0.622168  0.959716  1
  Si  Si13  1  0.377832  0.622168  0.540284  1
  Si  Si14  1  0.620215  0.379785  0.460979  1
  As  As15  1  0.333767  0.666233  0.250000  1
