# generated using pymatgen
data_Tb5DyInCoOs
_symmetry_space_group_name_H-M   'P 1'
_cell_length_a   8.46494070
_cell_length_b   8.46758759
_cell_length_c   8.46493835
_cell_angle_alpha   112.91905611
_cell_angle_beta   110.07256627
_cell_angle_gamma   105.49495142
_symmetry_Int_Tables_number   1
_chemical_formula_structural   Tb5DyInCoOs
_chemical_formula_sum   'Tb10 Dy2 In2 Co2 Os2'
_cell_volume   465.16797035
_cell_formula_units_Z   2
loop_
 _symmetry_equiv_pos_site_id
 _symmetry_equiv_pos_as_xyz
  1  'x, y, z'
loop_
 _atom_site_type_symbol
 _atom_site_label
 _atom_site_symmetry_multiplicity
 _atom_site_fract_x
 _atom_site_fract_y
 _atom_site_fract_z
 _atom_site_occupancy
  Tb  Tb0  1  0.442342  0.241824  0.200390  1
  Tb  Tb1  1  0.557658  0.758176  0.799610  1
  Tb  Tb2  1  0.041434  0.241824  0.799482  1
  Tb  Tb3  1  0.958566  0.758176  0.200518  1
  Tb  Tb4  1  0.183553  0.284152  0.467834  1
  Tb  Tb5  1  0.816447  0.715848  0.532166  1
  Tb  Tb6  1  0.183682  0.715848  0.899401  1
  Tb  Tb7  1  0.816318  0.284152  0.100599  1
  Tb  Tb8  1  0.324678  0.640895  0.316218  1
  Tb  Tb9  1  0.675322  0.359105  0.683782  1
  Dy  Dy10  1  0.324699  0.008381  0.683682  1
  Dy  Dy11  1  0.675301  0.991619  0.316318  1
  In  In12  1  0.500000  0.500000  0.000000  1
  In  In13  1  0.000000  0.000000  0.000000  1
  Co  Co14  1  0.110837  0.610885  0.500048  1
  Co  Co15  1  0.889163  0.389115  0.499952  1
  Os  Os16  1  0.330717  0.000000  0.330717  1
  Os  Os17  1  0.669283  0.000000  0.669283  1
