# generated using pymatgen
data_La20Tc3GeSb8
_symmetry_space_group_name_H-M   'P 1'
_cell_length_a   8.40141997
_cell_length_b   9.32480600
_cell_length_c   12.79987500
_cell_angle_alpha   90.00000000
_cell_angle_beta   89.48988786
_cell_angle_gamma   90.00000000
_symmetry_Int_Tables_number   1
_chemical_formula_structural   La20Tc3GeSb8
_chemical_formula_sum   'La20 Tc3 Ge1 Sb8'
_cell_volume   1002.72309043
_cell_formula_units_Z   1
loop_
 _symmetry_equiv_pos_site_id
 _symmetry_equiv_pos_as_xyz
  1  'x, y, z'
loop_
 _atom_site_type_symbol
 _atom_site_label
 _atom_site_symmetry_multiplicity
 _atom_site_fract_x
 _atom_site_fract_y
 _atom_site_fract_z
 _atom_site_occupancy
  La  La0  1  0.048833  0.750000  0.494113  1
  La  La1  1  0.955065  0.250000  0.502605  1
  La  La2  1  0.542470  0.250000  0.002580  1
  La  La3  1  0.468301  0.750000  0.999117  1
  La  La4  1  0.870202  0.750000  0.799826  1
  La  La5  1  0.121593  0.250000  0.198489  1
  La  La6  1  0.373569  0.250000  0.698505  1
  La  La7  1  0.637055  0.750000  0.290199  1
  La  La8  1  0.687863  0.524344  0.563567  1
  La  La9  1  0.314177  0.454085  0.437091  1
  La  La10  1  0.182829  0.470600  0.938198  1
  La  La11  1  0.314177  0.045915  0.437091  1
  La  La12  1  0.816220  0.529391  0.062667  1
  La  La13  1  0.687863  0.975656  0.563567  1
  La  La14  1  0.816220  0.970609  0.062667  1
  La  La15  1  0.182829  0.029400  0.938198  1
  La  La16  1  0.332414  0.750000  0.717021  1
  La  La17  1  0.652789  0.250000  0.292645  1
  La  La18  1  0.846746  0.250000  0.792747  1
  La  La19  1  0.147694  0.750000  0.199591  1
  Tc  Tc20  1  0.091281  0.750000  0.980801  1
  Tc  Tc21  1  0.907499  0.250000  0.020639  1
  Tc  Tc22  1  0.582319  0.250000  0.519658  1
  Ge  Ge23  1  0.438826  0.750000  0.488757  1
  Sb  Sb24  1  0.570563  0.506959  0.825246  1
  Sb  Sb25  1  0.423230  0.494165  0.176480  1
  Sb  Sb26  1  0.073011  0.494484  0.669715  1
  Sb  Sb27  1  0.423230  0.005835  0.176480  1
  Sb  Sb28  1  0.923776  0.507635  0.328390  1
  Sb  Sb29  1  0.570563  0.993041  0.825246  1
  Sb  Sb30  1  0.923776  0.992365  0.328390  1
  Sb  Sb31  1  0.073011  0.005516  0.669715  1
