# generated using pymatgen
data_Th3AlSn2Ir3
_symmetry_space_group_name_H-M   'P 1'
_cell_length_a   7.52388474
_cell_length_b   7.52388376
_cell_length_c   4.12423200
_cell_angle_alpha   90.00000000
_cell_angle_beta   90.00000000
_cell_angle_gamma   120.69339258
_symmetry_Int_Tables_number   1
_chemical_formula_structural   Th3AlSn2Ir3
_chemical_formula_sum   'Th3 Al1 Sn2 Ir3'
_cell_volume   200.76170496
_cell_formula_units_Z   1
loop_
 _symmetry_equiv_pos_site_id
 _symmetry_equiv_pos_as_xyz
  1  'x, y, z'
loop_
 _atom_site_type_symbol
 _atom_site_label
 _atom_site_symmetry_multiplicity
 _atom_site_fract_x
 _atom_site_fract_y
 _atom_site_fract_z
 _atom_site_occupancy
  Th  Th0  1  0.414506  0.008096  0.500000  1
  Th  Th1  1  0.008096  0.414506  0.500000  1
  Th  Th2  1  0.575880  0.575880  0.500000  1
  Al  Al3  1  0.242009  0.242009  0.000000  1
  Sn  Sn4  1  0.756136  0.002182  0.000000  1
  Sn  Sn5  1  0.002182  0.756136  0.000000  1
  Ir  Ir6  1  0.329158  0.650705  0.000000  1
  Ir  Ir7  1  0.650705  0.329158  0.000000  1
  Ir  Ir8  1  0.021329  0.021329  0.500000  1
