# generated using pymatgen
data_Pr3Ag5Rh
_symmetry_space_group_name_H-M   'P 1'
_cell_length_a   7.91847500
_cell_length_b   7.91847518
_cell_length_c   3.91783600
_cell_angle_alpha   90.00000000
_cell_angle_beta   90.00000000
_cell_angle_gamma   120.00000233
_symmetry_Int_Tables_number   1
_chemical_formula_structural   Pr3Ag5Rh
_chemical_formula_sum   'Pr3 Ag5 Rh1'
_cell_volume   212.74530447
_cell_formula_units_Z   1
loop_
 _symmetry_equiv_pos_site_id
 _symmetry_equiv_pos_as_xyz
  1  'x, y, z'
loop_
 _atom_site_type_symbol
 _atom_site_label
 _atom_site_symmetry_multiplicity
 _atom_site_fract_x
 _atom_site_fract_y
 _atom_site_fract_z
 _atom_site_occupancy
  Pr  Pr0  1  0.972809  0.584315  0.500000  1
  Pr  Pr1  1  0.415685  0.388495  0.500000  1
  Pr  Pr2  1  0.611505  0.027191  0.500000  1
  Ag  Ag3  1  0.733677  0.739779  0.000000  1
  Ag  Ag4  1  0.006101  0.266323  0.000000  1
  Ag  Ag5  1  0.260221  0.993899  0.000000  1
  Ag  Ag6  1  0.333333  0.666667  0.000000  1
  Ag  Ag7  1  0.000000  0.000000  0.500000  1
  Rh  Rh8  1  0.666667  0.333333  0.000000  1
