# generated using pymatgen
data_LuRe3Si2W
_symmetry_space_group_name_H-M   'P 1'
_cell_length_a   7.06023500
_cell_length_b   7.71486200
_cell_length_c   4.20042000
_cell_angle_alpha   90.00000000
_cell_angle_beta   90.00000000
_cell_angle_gamma   90.00000000
_symmetry_Int_Tables_number   1
_chemical_formula_structural   LuRe3Si2W
_chemical_formula_sum   'Lu2 Re6 Si4 W2'
_cell_volume   228.79157946
_cell_formula_units_Z   2
loop_
 _symmetry_equiv_pos_site_id
 _symmetry_equiv_pos_as_xyz
  1  'x, y, z'
loop_
 _atom_site_type_symbol
 _atom_site_label
 _atom_site_symmetry_multiplicity
 _atom_site_fract_x
 _atom_site_fract_y
 _atom_site_fract_z
 _atom_site_occupancy
  Lu  Lu0  1  0.499878  0.498170  0.000000  1
  Lu  Lu1  1  0.999878  0.001830  0.500000  1
  Re  Re2  1  0.085495  0.338240  0.000000  1
  Re  Re3  1  0.916168  0.657943  0.000000  1
  Re  Re4  1  0.416168  0.842057  0.500000  1
  Re  Re5  1  0.585495  0.161760  0.500000  1
  Re  Re6  1  0.343467  0.109028  0.000000  1
  Re  Re7  1  0.843467  0.390972  0.500000  1
  Si  Si8  1  0.224270  0.810328  0.000000  1
  Si  Si9  1  0.778206  0.194400  0.000000  1
  Si  Si10  1  0.724270  0.689672  0.500000  1
  Si  Si11  1  0.278206  0.305600  0.500000  1
  W  W12  1  0.652517  0.892381  0.000000  1
  W  W13  1  0.152517  0.607619  0.500000  1
