# generated using pymatgen
data_Nd2Th(GaPt)3
_symmetry_space_group_name_H-M   'P 1'
_cell_length_a   7.47518725
_cell_length_b   7.48523468
_cell_length_c   3.98864600
_cell_angle_alpha   90.00000000
_cell_angle_beta   90.00000000
_cell_angle_gamma   120.04448466
_symmetry_Int_Tables_number   1
_chemical_formula_structural   Nd2Th(GaPt)3
_chemical_formula_sum   'Nd2 Th1 Ga3 Pt3'
_cell_volume   193.19183701
_cell_formula_units_Z   1
loop_
 _symmetry_equiv_pos_site_id
 _symmetry_equiv_pos_as_xyz
  1  'x, y, z'
loop_
 _atom_site_type_symbol
 _atom_site_label
 _atom_site_symmetry_multiplicity
 _atom_site_fract_x
 _atom_site_fract_y
 _atom_site_fract_z
 _atom_site_occupancy
  Nd  Nd0  1  0.410382  0.411470  0.500000  1
  Nd  Nd1  1  0.589618  0.001089  0.500000  1
  Th  Th2  1  0.000000  0.586493  0.500000  1
  Ga  Ga3  1  0.749655  0.755740  0.000000  1
  Ga  Ga4  1  0.250345  0.006085  0.000000  1
  Ga  Ga5  1  0.000000  0.238461  0.000000  1
  Pt  Pt6  1  0.678936  0.344189  0.000000  1
  Pt  Pt7  1  0.321064  0.665254  0.000000  1
  Pt  Pt8  1  0.000000  0.991218  0.500000  1
