# generated using pymatgen
data_Zr16Co4HgRh3N4
_symmetry_space_group_name_H-M   'P 1'
_cell_length_a   8.75706635
_cell_length_b   8.76482812
_cell_length_c   8.76482800
_cell_angle_alpha   59.99951713
_cell_angle_beta   59.96985606
_cell_angle_gamma   59.96986560
_symmetry_Int_Tables_number   1
_chemical_formula_structural   Zr16Co4HgRh3N4
_chemical_formula_sum   'Zr16 Co4 Hg1 Rh3 N4'
_cell_volume   475.47848061
_cell_formula_units_Z   1
loop_
 _symmetry_equiv_pos_site_id
 _symmetry_equiv_pos_as_xyz
  1  'x, y, z'
loop_
 _atom_site_type_symbol
 _atom_site_label
 _atom_site_symmetry_multiplicity
 _atom_site_fract_x
 _atom_site_fract_y
 _atom_site_fract_z
 _atom_site_occupancy
  Zr  Zr0  1  0.081195  0.639596  0.639596  1
  Zr  Zr1  1  0.638196  0.070852  0.645465  1
  Zr  Zr2  1  0.638196  0.645465  0.070852  1
  Zr  Zr3  1  0.638219  0.645484  0.645484  1
  Zr  Zr4  1  0.816441  0.817426  0.183076  1
  Zr  Zr5  1  0.183984  0.185029  0.815491  1
  Zr  Zr6  1  0.816441  0.183076  0.817426  1
  Zr  Zr7  1  0.183984  0.815491  0.185029  1
  Zr  Zr8  1  0.183989  0.815493  0.815493  1
  Zr  Zr9  1  0.816436  0.183069  0.183069  1
  Zr  Zr10  1  0.434755  0.434198  0.065522  1
  Zr  Zr11  1  0.075418  0.057006  0.433785  1
  Zr  Zr12  1  0.434755  0.065522  0.434198  1
  Zr  Zr13  1  0.075418  0.433785  0.057006  1
  Zr  Zr14  1  0.075420  0.433786  0.433786  1
  Zr  Zr15  1  0.434756  0.065520  0.065520  1
  Co  Co16  1  0.439419  0.853531  0.853531  1
  Co  Co17  1  0.852662  0.442785  0.852282  1
  Co  Co18  1  0.852662  0.852282  0.442785  1
  Co  Co19  1  0.852653  0.852273  0.852273  1
  Hg  Hg20  1  0.741679  0.419445  0.419445  1
  Rh  Rh21  1  0.411118  0.755518  0.416682  1
  Rh  Rh22  1  0.411118  0.416682  0.755518  1
  Rh  Rh23  1  0.411145  0.416666  0.416666  1
  N  N24  1  0.623998  0.125333  0.125333  1
  N  N25  1  0.125312  0.622266  0.126212  1
  N  N26  1  0.125312  0.126212  0.622266  1
  N  N27  1  0.125311  0.126210  0.126210  1
