# generated using pymatgen
data_Tm3ScAl8
_symmetry_space_group_name_H-M   'P 1'
_cell_length_a   9.50370773
_cell_length_b   9.50370751
_cell_length_c   9.50370758
_cell_angle_alpha   33.54560154
_cell_angle_beta   33.54560270
_cell_angle_gamma   33.54560233
_symmetry_Int_Tables_number   1
_chemical_formula_structural   Tm3ScAl8
_chemical_formula_sum   'Tm3 Sc1 Al8'
_cell_volume   233.47281966
_cell_formula_units_Z   1
loop_
 _symmetry_equiv_pos_site_id
 _symmetry_equiv_pos_as_xyz
  1  'x, y, z'
loop_
 _atom_site_type_symbol
 _atom_site_label
 _atom_site_symmetry_multiplicity
 _atom_site_fract_x
 _atom_site_fract_y
 _atom_site_fract_z
 _atom_site_occupancy
  Tm  Tm0  1  0.375074  0.375074  0.375074  1
  Tm  Tm1  1  0.999124  0.999124  0.999124  1
  Tm  Tm2  1  0.500796  0.500796  0.500796  1
  Sc  Sc3  1  0.874893  0.874893  0.874893  1
  Al  Al4  1  0.437230  0.935504  0.437230  1
  Al  Al5  1  0.937928  0.439204  0.937928  1
  Al  Al6  1  0.437230  0.437230  0.935504  1
  Al  Al7  1  0.937928  0.937928  0.439204  1
  Al  Al8  1  0.187568  0.187568  0.187568  1
  Al  Al9  1  0.687523  0.687523  0.687523  1
  Al  Al10  1  0.935504  0.437230  0.437230  1
  Al  Al11  1  0.439204  0.937928  0.937928  1
