# generated using pymatgen
data_Tm7LuV11Si16Mo
_symmetry_space_group_name_H-M   'P 1'
_cell_length_a   6.62970214
_cell_length_b   6.82021681
_cell_length_c   12.82076415
_cell_angle_alpha   89.98241324
_cell_angle_beta   90.00004645
_cell_angle_gamma   90.03942989
_symmetry_Int_Tables_number   1
_chemical_formula_structural   Tm7LuV11Si16Mo
_chemical_formula_sum   'Tm7 Lu1 V11 Si16 Mo1'
_cell_volume   579.70358444
_cell_formula_units_Z   1
loop_
 _symmetry_equiv_pos_site_id
 _symmetry_equiv_pos_as_xyz
  1  'x, y, z'
loop_
 _atom_site_type_symbol
 _atom_site_label
 _atom_site_symmetry_multiplicity
 _atom_site_fract_x
 _atom_site_fract_y
 _atom_site_fract_z
 _atom_site_occupancy
  Tm  Tm0  1  0.499208  0.330586  0.094450  1
  Tm  Tm1  1  0.998664  0.169482  0.405616  1
  Tm  Tm2  1  0.500522  0.669659  0.595516  1
  Tm  Tm3  1  0.000734  0.831301  0.904626  1
  Tm  Tm4  1  0.500506  0.669765  0.904604  1
  Tm  Tm5  1  0.000750  0.831264  0.595533  1
  Tm  Tm6  1  0.499205  0.330672  0.405406  1
  Lu  Lu7  1  0.998381  0.169813  0.094601  1
  V  V8  1  0.836105  0.328543  0.626760  1
  V  V9  1  0.335806  0.171521  0.873531  1
  V  V10  1  0.164667  0.670052  0.126241  1
  V  V11  1  0.663791  0.829329  0.373801  1
  V  V12  1  0.164618  0.669934  0.373651  1
  V  V13  1  0.663847  0.829441  0.126026  1
  V  V14  1  0.836323  0.328385  0.873387  1
  V  V15  1  0.335875  0.171525  0.626527  1
  V  V16  1  0.663563  0.012783  0.750058  1
  V  V17  1  0.163225  0.486755  0.750039  1
  V  V18  1  0.336293  0.987407  0.249864  1
  Si  Si19  1  0.660963  0.043317  0.544595  1
  Si  Si20  1  0.161278  0.456624  0.955651  1
  Si  Si21  1  0.338067  0.957497  0.043975  1
  Si  Si22  1  0.838811  0.544207  0.457703  1
  Si  Si23  1  0.338998  0.956928  0.456139  1
  Si  Si24  1  0.839090  0.543500  0.042421  1
  Si  Si25  1  0.661291  0.043347  0.955651  1
  Si  Si26  1  0.161368  0.457097  0.544639  1
  Si  Si27  1  0.537944  0.367022  0.750046  1
  Si  Si28  1  0.037537  0.132327  0.749983  1
  Si  Si29  1  0.460691  0.633919  0.249913  1
  Si  Si30  1  0.963931  0.870459  0.249743  1
  Si  Si31  1  0.802567  0.620874  0.750030  1
  Si  Si32  1  0.302572  0.879356  0.750030  1
  Si  Si33  1  0.200065  0.374682  0.249648  1
  Si  Si34  1  0.696578  0.120709  0.249689  1
  Mo  Mo35  1  0.836171  0.509916  0.249906  1
