# generated using pymatgen
data_Cs(WO3)6
_symmetry_space_group_name_H-M   'P 1'
_cell_length_a   7.52912700
_cell_length_b   7.52912753
_cell_length_c   7.73648300
_cell_angle_alpha   90.00000000
_cell_angle_beta   90.00000000
_cell_angle_gamma   120.00001084
_symmetry_Int_Tables_number   1
_chemical_formula_structural   Cs(WO3)6
_chemical_formula_sum   'Cs1 W6 O18'
_cell_volume   379.80741234
_cell_formula_units_Z   1
loop_
 _symmetry_equiv_pos_site_id
 _symmetry_equiv_pos_as_xyz
  1  'x, y, z'
loop_
 _atom_site_type_symbol
 _atom_site_label
 _atom_site_symmetry_multiplicity
 _atom_site_fract_x
 _atom_site_fract_y
 _atom_site_fract_z
 _atom_site_occupancy
  Cs  Cs0  1  0.000000  0.000000  0.502269  1
  W  W1  1  0.000000  0.500000  0.753444  1
  W  W2  1  0.000000  0.500000  0.251549  1
  W  W3  1  0.500000  0.500000  0.753444  1
  W  W4  1  0.500000  0.500000  0.251549  1
  W  W5  1  0.500000  0.000000  0.251549  1
  W  W6  1  0.500000  0.000000  0.753444  1
  O  O7  1  0.000000  0.500000  0.002718  1
  O  O8  1  0.000000  0.500000  0.502679  1
  O  O9  1  0.212375  0.787625  0.253574  1
  O  O10  1  0.212706  0.787294  0.752021  1
  O  O11  1  0.212706  0.425412  0.752021  1
  O  O12  1  0.212375  0.424752  0.253574  1
  O  O13  1  0.575248  0.787625  0.253574  1
  O  O14  1  0.574588  0.787294  0.752021  1
  O  O15  1  0.500000  0.500000  0.002718  1
  O  O16  1  0.500000  0.500000  0.502679  1
  O  O17  1  0.424752  0.212375  0.253574  1
  O  O18  1  0.425412  0.212706  0.752021  1
  O  O19  1  0.500000  0.000000  0.502679  1
  O  O20  1  0.787294  0.574588  0.752021  1
  O  O21  1  0.787625  0.575248  0.253574  1
  O  O22  1  0.500000  0.000000  0.002718  1
  O  O23  1  0.787625  0.212375  0.253574  1
  O  O24  1  0.787294  0.212706  0.752021  1
