# generated using pymatgen
data_Nd4Y7Cd9Ni4
_symmetry_space_group_name_H-M   'P 1'
_cell_length_a   13.25261482
_cell_length_b   13.25261448
_cell_length_c   3.69623600
_cell_angle_alpha   90.00000000
_cell_angle_beta   90.00000000
_cell_angle_gamma   113.58465306
_symmetry_Int_Tables_number   1
_chemical_formula_structural   Nd4Y7Cd9Ni4
_chemical_formula_sum   'Nd4 Y7 Cd9 Ni4'
_cell_volume   594.95080146
_cell_formula_units_Z   1
loop_
 _symmetry_equiv_pos_site_id
 _symmetry_equiv_pos_as_xyz
  1  'x, y, z'
loop_
 _atom_site_type_symbol
 _atom_site_label
 _atom_site_symmetry_multiplicity
 _atom_site_fract_x
 _atom_site_fract_y
 _atom_site_fract_z
 _atom_site_occupancy
  Nd  Nd0  1  0.837516  0.162484  0.000000  1
  Nd  Nd1  1  0.162484  0.837516  0.000000  1
  Nd  Nd2  1  0.310392  0.310392  0.000000  1
  Nd  Nd3  1  0.689608  0.689608  0.000000  1
  Y  Y4  1  0.081338  0.417454  0.000000  1
  Y  Y5  1  0.918662  0.582546  0.000000  1
  Y  Y6  1  0.417454  0.081338  0.000000  1
  Y  Y7  1  0.582546  0.918662  0.000000  1
  Y  Y8  1  0.624759  0.375241  0.000000  1
  Y  Y9  1  0.375241  0.624759  0.000000  1
  Y  Y10  1  0.000000  0.000000  0.000000  1
  Cd  Cd11  1  0.837860  0.370302  0.500000  1
  Cd  Cd12  1  0.162140  0.629698  0.500000  1
  Cd  Cd13  1  0.370302  0.837860  0.500000  1
  Cd  Cd14  1  0.629698  0.162140  0.500000  1
  Cd  Cd15  1  0.075067  0.216148  0.500000  1
  Cd  Cd16  1  0.924933  0.783852  0.500000  1
  Cd  Cd17  1  0.216148  0.075067  0.500000  1
  Cd  Cd18  1  0.783852  0.924933  0.500000  1
  Cd  Cd19  1  0.500000  0.500000  0.500000  1
  Ni  Ni20  1  0.249097  0.453649  0.500000  1
  Ni  Ni21  1  0.750903  0.546351  0.500000  1
  Ni  Ni22  1  0.453649  0.249097  0.500000  1
  Ni  Ni23  1  0.546351  0.750903  0.500000  1
