# generated using pymatgen
data_Ce4Fe2SiB6
_symmetry_space_group_name_H-M   'P 1'
_cell_length_a   5.26549915
_cell_length_b   5.26549829
_cell_length_c   7.79062439
_cell_angle_alpha   70.24868902
_cell_angle_beta   70.24869346
_cell_angle_gamma   59.99999442
_symmetry_Int_Tables_number   1
_chemical_formula_structural   Ce4Fe2SiB6
_chemical_formula_sum   'Ce4 Fe2 Si1 B6'
_cell_volume   172.23077850
_cell_formula_units_Z   1
loop_
 _symmetry_equiv_pos_site_id
 _symmetry_equiv_pos_as_xyz
  1  'x, y, z'
loop_
 _atom_site_type_symbol
 _atom_site_label
 _atom_site_symmetry_multiplicity
 _atom_site_fract_x
 _atom_site_fract_y
 _atom_site_fract_z
 _atom_site_occupancy
  Ce  Ce0  1  0.262552  0.262552  0.212344  1
  Ce  Ce1  1  0.737448  0.737448  0.787656  1
  Ce  Ce2  1  0.403704  0.403704  0.788890  1
  Ce  Ce3  1  0.596296  0.596296  0.211111  1
  Fe  Fe4  1  0.111520  0.111520  0.665440  1
  Fe  Fe5  1  0.888480  0.888480  0.334560  1
  Si  Si6  1  0.000000  0.000000  0.000000  1
  B  B7  1  0.168590  0.831410  0.500000  1
  B  B8  1  0.831410  0.500000  0.500000  1
  B  B9  1  0.500000  0.168590  0.500000  1
  B  B10  1  0.168590  0.500000  0.500000  1
  B  B11  1  0.500000  0.831410  0.500000  1
  B  B12  1  0.831410  0.168590  0.500000  1
