# generated using pymatgen
data_Gd4TmSiSe4
_symmetry_space_group_name_H-M   'P 1'
_cell_length_a   7.19019155
_cell_length_b   7.19019107
_cell_length_c   7.19019193
_cell_angle_alpha   99.42064365
_cell_angle_beta   99.42063758
_cell_angle_gamma   132.27095330
_symmetry_Int_Tables_number   1
_chemical_formula_structural   Gd4TmSiSe4
_chemical_formula_sum   'Gd4 Tm1 Si1 Se4'
_cell_volume   251.54902466
_cell_formula_units_Z   1
loop_
 _symmetry_equiv_pos_site_id
 _symmetry_equiv_pos_as_xyz
  1  'x, y, z'
loop_
 _atom_site_type_symbol
 _atom_site_label
 _atom_site_symmetry_multiplicity
 _atom_site_fract_x
 _atom_site_fract_y
 _atom_site_fract_z
 _atom_site_occupancy
  Gd  Gd0  1  0.403406  0.790794  0.194200  1
  Gd  Gd1  1  0.596594  0.209206  0.805800  1
  Gd  Gd2  1  0.209206  0.403406  0.612612  1
  Gd  Gd3  1  0.790794  0.596594  0.387388  1
  Tm  Tm4  1  0.000000  0.000000  0.000000  1
  Si  Si5  1  0.500000  0.500000  0.000000  1
  Se  Se6  1  0.096505  0.701490  0.797994  1
  Se  Se7  1  0.701490  0.903495  0.604985  1
  Se  Se8  1  0.298510  0.096505  0.395015  1
  Se  Se9  1  0.903495  0.298510  0.202006  1
