# generated using pymatgen
data_HoEr11(BCl3)4
_symmetry_space_group_name_H-M   'P 1'
_cell_length_a   9.35617584
_cell_length_b   9.35612361
_cell_length_c   9.35603901
_cell_angle_alpha   109.47592929
_cell_angle_beta   109.46847420
_cell_angle_gamma   109.46884979
_symmetry_Int_Tables_number   1
_chemical_formula_structural   HoEr11(BCl3)4
_chemical_formula_sum   'Ho1 Er11 B4 Cl12'
_cell_volume   630.47322521
_cell_formula_units_Z   1
loop_
 _symmetry_equiv_pos_site_id
 _symmetry_equiv_pos_as_xyz
  1  'x, y, z'
loop_
 _atom_site_type_symbol
 _atom_site_label
 _atom_site_symmetry_multiplicity
 _atom_site_fract_x
 _atom_site_fract_y
 _atom_site_fract_z
 _atom_site_occupancy
  Ho  Ho0  1  0.468722  0.484361  0.234361  1
  Er  Er1  1  0.750009  0.233946  0.266076  1
  Er  Er2  1  0.750009  0.016063  0.483933  1
  Er  Er3  1  0.233883  0.467842  0.483863  1
  Er  Er4  1  0.266036  0.749954  0.233904  1
  Er  Er5  1  0.031976  0.265988  0.015988  1
  Er  Er6  1  0.015934  0.032009  0.266016  1
  Er  Er7  1  0.483939  0.750015  0.016075  1
  Er  Er8  1  0.483939  0.233924  0.467864  1
  Er  Er9  1  0.015934  0.483926  0.749918  1
  Er  Er10  1  0.266036  0.016082  0.032132  1
  Er  Er11  1  0.233883  0.266041  0.750020  1
  B  B12  1  0.249699  0.249672  0.250001  1
  B  B13  1  0.500018  0.000009  0.250009  1
  B  B14  1  0.999951  0.249975  0.499975  1
  B  B15  1  0.249699  0.500028  0.999698  1
  Cl  Cl16  1  0.249980  0.755750  0.744212  1
  Cl  Cl17  1  0.511523  0.505761  0.755761  1
  Cl  Cl18  1  0.988425  0.744213  0.994213  1
  Cl  Cl19  1  0.744211  0.250014  0.755794  1
  Cl  Cl20  1  0.994198  0.988413  0.744202  1
  Cl  Cl21  1  0.249980  0.994230  0.505768  1
  Cl  Cl22  1  0.756049  0.511536  0.506082  1
  Cl  Cl23  1  0.505753  0.249678  0.993886  1
  Cl  Cl24  1  0.756049  0.744514  0.249967  1
  Cl  Cl25  1  0.744211  0.994197  0.988415  1
  Cl  Cl26  1  0.994198  0.505784  0.249996  1
  Cl  Cl27  1  0.505753  0.756075  0.511868  1
