# generated using pymatgen
data_CaHoAlS4
_symmetry_space_group_name_H-M   'P 1'
_cell_length_a   13.77759100
_cell_length_b   7.93207300
_cell_length_c   6.27569700
_cell_angle_alpha   90.00000000
_cell_angle_beta   90.00000000
_cell_angle_gamma   90.00000000
_symmetry_Int_Tables_number   1
_chemical_formula_structural   CaHoAlS4
_chemical_formula_sum   'Ca4 Ho4 Al4 S16'
_cell_volume   685.83865284
_cell_formula_units_Z   4
loop_
 _symmetry_equiv_pos_site_id
 _symmetry_equiv_pos_as_xyz
  1  'x, y, z'
loop_
 _atom_site_type_symbol
 _atom_site_label
 _atom_site_symmetry_multiplicity
 _atom_site_fract_x
 _atom_site_fract_y
 _atom_site_fract_z
 _atom_site_occupancy
  Ca  Ca0  1  0.734126  0.750001  0.010235  1
  Ca  Ca1  1  0.234126  0.750001  0.489765  1
  Ca  Ca2  1  0.765874  0.250000  0.510235  1
  Ca  Ca3  1  0.265874  0.250000  0.989764  1
  Ho  Ho4  1  0.000000  0.000000  0.000000  1
  Ho  Ho5  1  0.000000  0.499999  0.000000  1
  Ho  Ho6  1  0.500000  0.000000  0.500000  1
  Ho  Ho7  1  0.500000  0.499999  0.500000  1
  Al  Al8  1  0.586614  0.250000  0.094506  1
  Al  Al9  1  0.086614  0.250000  0.405494  1
  Al  Al10  1  0.913386  0.750001  0.594507  1
  Al  Al11  1  0.413386  0.750001  0.905494  1
  S  S12  1  0.914591  0.750001  0.236831  1
  S  S13  1  0.159108  0.024090  0.255557  1
  S  S14  1  0.159108  0.475910  0.255557  1
  S  S15  1  0.934555  0.250000  0.256164  1
  S  S16  1  0.434555  0.250000  0.243836  1
  S  S17  1  0.659108  0.024090  0.244443  1
  S  S18  1  0.659108  0.475910  0.244443  1
  S  S19  1  0.414590  0.750001  0.263168  1
  S  S20  1  0.585409  0.250000  0.736831  1
  S  S21  1  0.340892  0.524091  0.755557  1
  S  S22  1  0.340892  0.975909  0.755557  1
  S  S23  1  0.565445  0.750001  0.756163  1
  S  S24  1  0.065445  0.750001  0.743836  1
  S  S25  1  0.840892  0.524091  0.744442  1
  S  S26  1  0.840892  0.975909  0.744442  1
  S  S27  1  0.085410  0.250000  0.763168  1
