# generated using pymatgen
data_ScTiMnCo5B2
_symmetry_space_group_name_H-M   'P 1'
_cell_length_a   8.62684300
_cell_length_b   8.64464000
_cell_length_c   2.93545700
_cell_angle_alpha   90.00000000
_cell_angle_beta   90.00000000
_cell_angle_gamma   90.00000000
_symmetry_Int_Tables_number   1
_chemical_formula_structural   ScTiMnCo5B2
_chemical_formula_sum   'Sc2 Ti2 Mn2 Co10 B4'
_cell_volume   218.91450054
_cell_formula_units_Z   2
loop_
 _symmetry_equiv_pos_site_id
 _symmetry_equiv_pos_as_xyz
  1  'x, y, z'
loop_
 _atom_site_type_symbol
 _atom_site_label
 _atom_site_symmetry_multiplicity
 _atom_site_fract_x
 _atom_site_fract_y
 _atom_site_fract_z
 _atom_site_occupancy
  Sc  Sc0  1  0.822234  0.325146  0.000000  1
  Sc  Sc1  1  0.322234  0.174854  0.000000  1
  Ti  Ti2  1  0.675457  0.823799  0.000000  1
  Ti  Ti3  1  0.175457  0.676201  0.000000  1
  Mn  Mn4  1  0.002168  0.003394  0.000000  1
  Mn  Mn5  1  0.502168  0.496606  0.000000  1
  Co  Co6  1  0.502495  0.989975  0.500000  1
  Co  Co7  1  0.002495  0.510025  0.500000  1
  Co  Co8  1  0.067131  0.226733  0.500000  1
  Co  Co9  1  0.219176  0.919913  0.500000  1
  Co  Co10  1  0.778296  0.057688  0.500000  1
  Co  Co11  1  0.931800  0.785238  0.500000  1
  Co  Co12  1  0.431800  0.714762  0.500000  1
  Co  Co13  1  0.567131  0.273267  0.500000  1
  Co  Co14  1  0.719176  0.580087  0.500000  1
  Co  Co15  1  0.278296  0.442312  0.500000  1
  B  B16  1  0.621000  0.113769  0.000000  1
  B  B17  1  0.121000  0.386231  0.000000  1
  B  B18  1  0.880243  0.627945  0.000000  1
  B  B19  1  0.380243  0.872055  0.000000  1
