# generated using pymatgen
data_La3Th(Al8Pd3)3
_symmetry_space_group_name_H-M   'P 1'
_cell_length_a   7.60569318
_cell_length_b   7.63671308
_cell_length_c   13.36431800
_cell_angle_alpha   84.57198147
_cell_angle_beta   79.19817311
_cell_angle_gamma   59.89740401
_symmetry_Int_Tables_number   1
_chemical_formula_structural   La3Th(Al8Pd3)3
_chemical_formula_sum   'La3 Th1 Al24 Pd9'
_cell_volume   659.64238431
_cell_formula_units_Z   1
loop_
 _symmetry_equiv_pos_site_id
 _symmetry_equiv_pos_as_xyz
  1  'x, y, z'
loop_
 _atom_site_type_symbol
 _atom_site_label
 _atom_site_symmetry_multiplicity
 _atom_site_fract_x
 _atom_site_fract_y
 _atom_site_fract_z
 _atom_site_occupancy
  La  La0  1  0.605554  0.831741  0.192248  1
  La  La1  1  0.733648  0.498288  0.808088  1
  La  La2  1  0.266489  0.501646  0.192219  1
  Th  Th3  1  0.395128  0.168438  0.806372  1
  Al  Al4  1  0.688374  0.833408  0.946724  1
  Al  Al5  1  0.312046  0.166337  0.053161  1
  Al  Al6  1  0.145367  0.834063  0.559522  1
  Al  Al7  1  0.854474  0.166175  0.440620  1
  Al  Al8  1  0.480358  0.166860  0.557214  1
  Al  Al9  1  0.519636  0.833002  0.442683  1
  Al  Al10  1  0.212449  0.165444  0.335919  1
  Al  Al11  1  0.788894  0.832987  0.664408  1
  Al  Al12  1  0.436485  0.510349  0.664129  1
  Al  Al13  1  0.563238  0.491603  0.335873  1
  Al  Al14  1  0.109004  0.157404  0.662910  1
  Al  Al15  1  0.889763  0.842032  0.337181  1
  Al  Al16  1  0.348012  0.504101  0.946917  1
  Al  Al17  1  0.651953  0.496289  0.052919  1
  Al  Al18  1  0.014608  0.164525  0.957533  1
  Al  Al19  1  0.985289  0.835451  0.042812  1
  Al  Al20  1  0.186252  0.500588  0.441823  1
  Al  Al21  1  0.813688  0.499388  0.558397  1
  Al  Al22  1  0.737169  0.163583  0.184024  1
  Al  Al23  1  0.261090  0.839043  0.815828  1
  Al  Al24  1  0.064846  0.633769  0.814210  1
  Al  Al25  1  0.937578  0.365185  0.185692  1
  Al  Al26  1  0.859759  0.035882  0.815501  1
  Al  Al27  1  0.139152  0.962698  0.184525  1
  Pd  Pd28  1  0.122523  0.492624  0.636988  1
  Pd  Pd29  1  0.878646  0.504994  0.364532  1
  Pd  Pd30  1  0.657211  0.170752  0.998575  1
  Pd  Pd31  1  0.342752  0.830223  0.998951  1
  Pd  Pd32  1  0.540026  0.166315  0.363923  1
  Pd  Pd33  1  0.459970  0.835178  0.637229  1
  Pd  Pd34  1  0.779261  0.172200  0.636745  1
  Pd  Pd35  1  0.218115  0.828424  0.364847  1
  Pd  Pd36  1  0.001190  0.499013  0.998755  1
