# generated using pymatgen
data_Gd9Tm11Pt16
_symmetry_space_group_name_H-M   'P 1'
_cell_length_a   7.40572267
_cell_length_b   7.48763154
_cell_length_c   14.61145500
_cell_angle_alpha   90.04619547
_cell_angle_beta   90.02432415
_cell_angle_gamma   90.00962198
_symmetry_Int_Tables_number   1
_chemical_formula_structural   Gd9Tm11Pt16
_chemical_formula_sum   'Gd9 Tm11 Pt16'
_cell_volume   810.22415730
_cell_formula_units_Z   1
loop_
 _symmetry_equiv_pos_site_id
 _symmetry_equiv_pos_as_xyz
  1  'x, y, z'
loop_
 _atom_site_type_symbol
 _atom_site_label
 _atom_site_symmetry_multiplicity
 _atom_site_fract_x
 _atom_site_fract_y
 _atom_site_fract_z
 _atom_site_occupancy
  Gd  Gd0  1  0.154846  0.332709  0.621882  1
  Gd  Gd1  1  0.499278  0.679686  0.592991  1
  Gd  Gd2  1  0.998743  0.821938  0.907466  1
  Gd  Gd3  1  0.501426  0.321610  0.093290  1
  Gd  Gd4  1  0.001003  0.177353  0.405341  1
  Gd  Gd5  1  0.501768  0.321924  0.406380  1
  Gd  Gd6  1  0.001376  0.177946  0.093415  1
  Gd  Gd7  1  0.498988  0.678112  0.907486  1
  Gd  Gd8  1  0.998016  0.821929  0.593177  1
  Tm  Tm9  1  0.654558  0.166678  0.623282  1
  Tm  Tm10  1  0.154475  0.332936  0.877587  1
  Tm  Tm11  1  0.345431  0.833130  0.122839  1
  Tm  Tm12  1  0.844851  0.667587  0.376542  1
  Tm  Tm13  1  0.346162  0.833210  0.376294  1
  Tm  Tm14  1  0.845290  0.667044  0.122805  1
  Tm  Tm15  1  0.654699  0.167036  0.877680  1
  Tm  Tm16  1  0.817330  0.509254  0.750721  1
  Tm  Tm17  1  0.318417  0.990810  0.750870  1
  Tm  Tm18  1  0.182004  0.491779  0.249772  1
  Tm  Tm19  1  0.682048  0.008508  0.249694  1
  Pt  Pt20  1  0.683600  0.965056  0.457784  1
  Pt  Pt21  1  0.182472  0.535497  0.042091  1
  Pt  Pt22  1  0.317329  0.035679  0.958343  1
  Pt  Pt23  1  0.813675  0.465626  0.541068  1
  Pt  Pt24  1  0.319887  0.031252  0.541386  1
  Pt  Pt25  1  0.817698  0.464555  0.958239  1
  Pt  Pt26  1  0.682881  0.964541  0.042039  1
  Pt  Pt27  1  0.182396  0.537361  0.455922  1
  Pt  Pt28  1  0.454133  0.382938  0.751578  1
  Pt  Pt29  1  0.950872  0.115629  0.751433  1
  Pt  Pt30  1  0.547861  0.617705  0.249552  1
  Pt  Pt31  1  0.047700  0.882350  0.249693  1
  Pt  Pt32  1  0.679864  0.857268  0.750591  1
  Pt  Pt33  1  0.180983  0.643319  0.751510  1
  Pt  Pt34  1  0.319073  0.142160  0.249667  1
  Pt  Pt35  1  0.818864  0.357886  0.249589  1
