# generated using pymatgen
data_Tb2Zr2Cu3(NiP2)3
_symmetry_space_group_name_H-M   'P 1'
_cell_length_a   3.78104000
_cell_length_b   10.39982396
_cell_length_c   12.43587349
_cell_angle_alpha   89.79819623
_cell_angle_beta   90.00000000
_cell_angle_gamma   90.00000000
_symmetry_Int_Tables_number   1
_chemical_formula_structural   Tb2Zr2Cu3(NiP2)3
_chemical_formula_sum   'Tb4 Zr4 Cu6 Ni6 P12'
_cell_volume   489.00225417
_cell_formula_units_Z   2
loop_
 _symmetry_equiv_pos_site_id
 _symmetry_equiv_pos_as_xyz
  1  'x, y, z'
loop_
 _atom_site_type_symbol
 _atom_site_label
 _atom_site_symmetry_multiplicity
 _atom_site_fract_x
 _atom_site_fract_y
 _atom_site_fract_z
 _atom_site_occupancy
  Tb  Tb0  1  0.250000  0.066825  0.205386  1
  Tb  Tb1  1  0.750000  0.933175  0.794614  1
  Tb  Tb2  1  0.750000  0.574526  0.297127  1
  Tb  Tb3  1  0.250000  0.425474  0.702873  1
  Zr  Zr4  1  0.250000  0.159335  0.496995  1
  Zr  Zr5  1  0.750000  0.840665  0.503005  1
  Zr  Zr6  1  0.750000  0.663057  0.003241  1
  Zr  Zr7  1  0.250000  0.336943  0.996759  1
  Cu  Cu8  1  0.250000  0.730033  0.665921  1
  Cu  Cu9  1  0.750000  0.269967  0.334079  1
  Cu  Cu10  1  0.750000  0.228576  0.834212  1
  Cu  Cu11  1  0.250000  0.771424  0.165788  1
  Cu  Cu12  1  0.250000  0.364100  0.221932  1
  Cu  Cu13  1  0.750000  0.635900  0.778068  1
  Ni  Ni14  1  0.750000  0.863281  0.281659  1
  Ni  Ni15  1  0.250000  0.136719  0.718341  1
  Ni  Ni16  1  0.250000  0.605260  0.485738  1
  Ni  Ni17  1  0.750000  0.394740  0.514262  1
  Ni  Ni18  1  0.750000  0.099630  0.012188  1
  Ni  Ni19  1  0.250000  0.900370  0.987812  1
  P  P20  1  0.250000  0.948398  0.624072  1
  P  P21  1  0.750000  0.051602  0.375928  1
  P  P22  1  0.750000  0.445500  0.877023  1
  P  P23  1  0.250000  0.554500  0.122977  1
  P  P24  1  0.250000  0.399186  0.410069  1
  P  P25  1  0.750000  0.600814  0.589931  1
  P  P26  1  0.750000  0.896916  0.095571  1
  P  P27  1  0.250000  0.103084  0.904429  1
  P  P28  1  0.250000  0.770954  0.357966  1
  P  P29  1  0.750000  0.229046  0.642034  1
  P  P30  1  0.750000  0.260812  0.139647  1
  P  P31  1  0.250000  0.739188  0.860353  1
