# generated using pymatgen
data_Nd3Tl2InAg2Pt
_symmetry_space_group_name_H-M   'P 1'
_cell_length_a   8.01722329
_cell_length_b   7.98920554
_cell_length_c   4.07544200
_cell_angle_alpha   90.00000000
_cell_angle_beta   90.00000000
_cell_angle_gamma   119.68874936
_symmetry_Int_Tables_number   1
_chemical_formula_structural   Nd3Tl2InAg2Pt
_chemical_formula_sum   'Nd3 Tl2 In1 Ag2 Pt1'
_cell_volume   226.77047158
_cell_formula_units_Z   1
loop_
 _symmetry_equiv_pos_site_id
 _symmetry_equiv_pos_as_xyz
  1  'x, y, z'
loop_
 _atom_site_type_symbol
 _atom_site_label
 _atom_site_symmetry_multiplicity
 _atom_site_fract_x
 _atom_site_fract_y
 _atom_site_fract_z
 _atom_site_occupancy
  Nd  Nd0  1  0.600726  0.019562  0.500000  1
  Nd  Nd1  1  0.420961  0.398937  0.500000  1
  Nd  Nd2  1  0.979000  0.580977  0.500000  1
  Tl  Tl3  1  0.258847  0.993839  0.000000  1
  Tl  Tl4  1  0.733007  0.743040  0.000000  1
  In  In5  1  0.006474  0.264253  0.000000  1
  Ag  Ag6  1  0.000544  0.008110  0.500000  1
  Ag  Ag7  1  0.326742  0.659300  0.000000  1
  Pt  Pt8  1  0.673698  0.331983  0.000000  1
