# generated using pymatgen
data_Tb2Y8FeHg3
_symmetry_space_group_name_H-M   'P 1'
_cell_length_a   9.61474700
_cell_length_b   9.61474753
_cell_length_c   9.65815501
_cell_angle_alpha   90.09046974
_cell_angle_beta   89.90953033
_cell_angle_gamma   119.99676712
_symmetry_Int_Tables_number   1
_chemical_formula_structural   Tb2Y8FeHg3
_chemical_formula_sum   'Tb4 Y16 Fe2 Hg6'
_cell_volume   773.23939800
_cell_formula_units_Z   2
loop_
 _symmetry_equiv_pos_site_id
 _symmetry_equiv_pos_as_xyz
  1  'x, y, z'
loop_
 _atom_site_type_symbol
 _atom_site_label
 _atom_site_symmetry_multiplicity
 _atom_site_fract_x
 _atom_site_fract_y
 _atom_site_fract_z
 _atom_site_occupancy
  Tb  Tb0  1  0.212146  0.787854  0.435369  1
  Tb  Tb1  1  0.212118  0.424302  0.435401  1
  Tb  Tb2  1  0.575698  0.787882  0.435401  1
  Tb  Tb3  1  0.787721  0.212279  0.564791  1
  Y  Y4  1  0.999933  0.000067  0.499874  1
  Y  Y5  1  0.999982  0.000018  0.000087  1
  Y  Y6  1  0.541879  0.458121  0.250037  1
  Y  Y7  1  0.541790  0.083737  0.250011  1
  Y  Y8  1  0.916263  0.458210  0.250011  1
  Y  Y9  1  0.458114  0.541886  0.750049  1
  Y  Y10  1  0.458125  0.916213  0.750008  1
  Y  Y11  1  0.083787  0.541875  0.750008  1
  Y  Y12  1  0.788234  0.576601  0.563885  1
  Y  Y13  1  0.423399  0.211766  0.563885  1
  Y  Y14  1  0.788346  0.211654  0.936207  1
  Y  Y15  1  0.788156  0.576374  0.936094  1
  Y  Y16  1  0.423626  0.211844  0.936094  1
  Y  Y17  1  0.211736  0.788264  0.063824  1
  Y  Y18  1  0.211718  0.423468  0.063778  1
  Y  Y19  1  0.576532  0.788282  0.063778  1
  Fe  Fe20  1  0.333335  0.666665  0.252300  1
  Fe  Fe21  1  0.667230  0.332770  0.748942  1
  Hg  Hg22  1  0.881856  0.118144  0.249740  1
  Hg  Hg23  1  0.881791  0.763546  0.249866  1
  Hg  Hg24  1  0.236454  0.118209  0.249866  1
  Hg  Hg25  1  0.118166  0.881834  0.750177  1
  Hg  Hg26  1  0.118195  0.236328  0.750258  1
  Hg  Hg27  1  0.763672  0.881805  0.750258  1
