# generated using pymatgen
data_Dy8TaTi3(Si2W)8
_symmetry_space_group_name_H-M   'P 1'
_cell_length_a   6.91993026
_cell_length_b   6.91992968
_cell_length_c   12.83207300
_cell_angle_alpha   90.02691062
_cell_angle_beta   89.97308777
_cell_angle_gamma   89.95692381
_symmetry_Int_Tables_number   1
_chemical_formula_structural   Dy8TaTi3(Si2W)8
_chemical_formula_sum   'Dy8 Ta1 Ti3 Si16 W8'
_cell_volume   614.46903418
_cell_formula_units_Z   1
loop_
 _symmetry_equiv_pos_site_id
 _symmetry_equiv_pos_as_xyz
  1  'x, y, z'
loop_
 _atom_site_type_symbol
 _atom_site_label
 _atom_site_symmetry_multiplicity
 _atom_site_fract_x
 _atom_site_fract_y
 _atom_site_fract_z
 _atom_site_occupancy
  Dy  Dy0  1  0.998353  0.660886  0.031216  1
  Dy  Dy1  1  0.001332  0.338846  0.531032  1
  Dy  Dy2  1  0.660886  0.998353  0.968784  1
  Dy  Dy3  1  0.161875  0.501592  0.781648  1
  Dy  Dy4  1  0.838881  0.499458  0.281655  1
  Dy  Dy5  1  0.501592  0.161875  0.218352  1
  Dy  Dy6  1  0.499458  0.838881  0.718345  1
  Dy  Dy7  1  0.338846  0.001332  0.468968  1
  Ta  Ta8  1  0.668822  0.668822  0.500000  1
  Ti  Ti9  1  0.831229  0.168172  0.749732  1
  Ti  Ti10  1  0.168172  0.831229  0.250268  1
  Ti  Ti11  1  0.330933  0.330933  0.000000  1
  Si  Si12  1  0.041545  0.710691  0.435882  1
  Si  Si13  1  0.959488  0.290086  0.936224  1
  Si  Si14  1  0.710691  0.041545  0.564118  1
  Si  Si15  1  0.209006  0.459730  0.185921  1
  Si  Si16  1  0.791629  0.539032  0.687797  1
  Si  Si17  1  0.459730  0.209006  0.814079  1
  Si  Si18  1  0.539032  0.791629  0.312203  1
  Si  Si19  1  0.290086  0.959488  0.063776  1
  Si  Si20  1  0.799483  0.872220  0.182543  1
  Si  Si21  1  0.297051  0.626578  0.568176  1
  Si  Si22  1  0.701249  0.372206  0.066741  1
  Si  Si23  1  0.626578  0.297051  0.431824  1
  Si  Si24  1  0.372206  0.701249  0.933259  1
  Si  Si25  1  0.127713  0.202116  0.316426  1
  Si  Si26  1  0.202116  0.127713  0.683574  1
  Si  Si27  1  0.872220  0.799483  0.817457  1
  W  W28  1  0.338488  0.506485  0.375648  1
  W  W29  1  0.839433  0.994529  0.373869  1
  W  W30  1  0.006438  0.160685  0.125524  1
  W  W31  1  0.994529  0.839433  0.626131  1
  W  W32  1  0.506485  0.338488  0.624352  1
  W  W33  1  0.160685  0.006438  0.874476  1
  W  W34  1  0.493618  0.660126  0.124236  1
  W  W35  1  0.660126  0.493618  0.875764  1
