# generated using pymatgen
data_Ho3Cd3C
_symmetry_space_group_name_H-M   'P 1'
_cell_length_a   9.51762876
_cell_length_b   9.51635086
_cell_length_c   9.51662555
_cell_angle_alpha   119.67153628
_cell_angle_beta   90.56232090
_cell_angle_gamma   119.69606750
_symmetry_Int_Tables_number   1
_chemical_formula_structural   Ho3Cd3C
_chemical_formula_sum   'Ho12 Cd12 C4'
_cell_volume   612.29904942
_cell_formula_units_Z   4
loop_
 _symmetry_equiv_pos_site_id
 _symmetry_equiv_pos_as_xyz
  1  'x, y, z'
loop_
 _atom_site_type_symbol
 _atom_site_label
 _atom_site_symmetry_multiplicity
 _atom_site_fract_x
 _atom_site_fract_y
 _atom_site_fract_z
 _atom_site_occupancy
  Ho  Ho0  1  0.935607  0.371118  0.185542  1
  Ho  Ho1  1  0.936625  0.750083  0.186498  1
  Ho  Ho2  1  0.314316  0.750065  0.185712  1
  Ho  Ho3  1  0.686532  0.249919  0.436630  1
  Ho  Ho4  1  0.685683  0.871405  0.435763  1
  Ho  Ho5  1  0.064359  0.249957  0.435551  1
  Ho  Ho6  1  0.314344  0.128651  0.564274  1
  Ho  Ho7  1  0.313599  0.750080  0.563507  1
  Ho  Ho8  1  0.935610  0.750036  0.564470  1
  Ho  Ho9  1  0.685716  0.249947  0.814277  1
  Ho  Ho10  1  0.064364  0.628831  0.814426  1
  Ho  Ho11  1  0.063256  0.249930  0.813375  1
  Cd  Cd12  1  0.000025  0.000022  0.999997  1
  Cd  Cd13  1  0.499995  0.000018  0.000020  1
  Cd  Cd14  1  0.499973  0.499977  0.999990  1
  Cd  Cd15  1  0.708545  0.917481  0.126010  1
  Cd  Cd16  1  0.291232  0.082571  0.208637  1
  Cd  Cd17  1  0.291450  0.417429  0.208867  1
  Cd  Cd18  1  0.625863  0.417281  0.208589  1
  Cd  Cd19  1  0.499998  0.499985  0.499984  1
  Cd  Cd20  1  0.374068  0.582645  0.791407  1
  Cd  Cd21  1  0.708542  0.582493  0.791048  1
  Cd  Cd22  1  0.708860  0.917515  0.791386  1
  Cd  Cd23  1  0.291436  0.082568  0.874038  1
  C  C24  1  0.000079  0.500060  0.000125  1
  C  C25  1  0.000064  0.999941  0.499999  1
  C  C26  1  0.499887  0.999951  0.499951  1
  C  C27  1  0.999980  0.500054  0.499934  1
