# generated using pymatgen
data_Ce2Th(ZnPt)3
_symmetry_space_group_name_H-M   'P 1'
_cell_length_a   7.37239958
_cell_length_b   7.36105187
_cell_length_c   4.01774000
_cell_angle_alpha   90.00000000
_cell_angle_beta   90.00000000
_cell_angle_gamma   119.94910050
_symmetry_Int_Tables_number   1
_chemical_formula_structural   Ce2Th(ZnPt)3
_chemical_formula_sum   'Ce2 Th1 Zn3 Pt3'
_cell_volume   188.92251732
_cell_formula_units_Z   1
loop_
 _symmetry_equiv_pos_site_id
 _symmetry_equiv_pos_as_xyz
  1  'x, y, z'
loop_
 _atom_site_type_symbol
 _atom_site_label
 _atom_site_symmetry_multiplicity
 _atom_site_fract_x
 _atom_site_fract_y
 _atom_site_fract_z
 _atom_site_occupancy
  Ce  Ce0  1  0.410121  0.409855  0.500000  1
  Ce  Ce1  1  0.589879  0.999734  0.500000  1
  Th  Th2  1  0.000000  0.589692  0.500000  1
  Zn  Zn3  1  0.755633  0.760013  0.000000  1
  Zn  Zn4  1  0.244367  0.004380  0.000000  1
  Zn  Zn5  1  0.000000  0.237461  0.000000  1
  Pt  Pt6  1  0.667332  0.334093  0.000000  1
  Pt  Pt7  1  0.332668  0.666762  0.000000  1
  Pt  Pt8  1  0.000000  0.998010  0.500000  1
