# generated using pymatgen
data_Y6VIn3(GaO4)6
_symmetry_space_group_name_H-M   'P 1'
_cell_length_a   10.99172434
_cell_length_b   10.91249396
_cell_length_c   10.99172466
_cell_angle_alpha   109.32527015
_cell_angle_beta   109.61677618
_cell_angle_gamma   109.32527165
_symmetry_Int_Tables_number   1
_chemical_formula_structural   Y6VIn3(GaO4)6
_chemical_formula_sum   'Y12 V2 In6 Ga12 O48'
_cell_volume   1016.74695266
_cell_formula_units_Z   2
loop_
 _symmetry_equiv_pos_site_id
 _symmetry_equiv_pos_as_xyz
  1  'x, y, z'
loop_
 _atom_site_type_symbol
 _atom_site_label
 _atom_site_symmetry_multiplicity
 _atom_site_fract_x
 _atom_site_fract_y
 _atom_site_fract_z
 _atom_site_occupancy
  Y  Y0  1  0.250650  0.375325  0.125325  1
  Y  Y1  1  0.749350  0.624675  0.874675  1
  Y  Y2  1  0.753118  0.126559  0.376559  1
  Y  Y3  1  0.123441  0.250000  0.376559  1
  Y  Y4  1  0.374675  0.750000  0.125325  1
  Y  Y5  1  0.246882  0.873441  0.623441  1
  Y  Y6  1  0.876559  0.750000  0.623441  1
  Y  Y7  1  0.625325  0.250000  0.874675  1
  Y  Y8  1  0.374675  0.124675  0.249350  1
  Y  Y9  1  0.625325  0.875325  0.750650  1
  Y  Y10  1  0.123441  0.373441  0.746882  1
  Y  Y11  1  0.876559  0.626559  0.253118  1
  V  V12  1  0.000000  0.500000  0.500000  1
  V  V13  1  0.000000  0.000000  0.500000  1
  In  In14  1  0.000000  0.000000  0.000000  1
  In  In15  1  0.500000  0.000000  0.500000  1
  In  In16  1  0.500000  0.000000  0.000000  1
  In  In17  1  0.500000  0.500000  0.000000  1
  In  In18  1  0.500000  0.500000  0.500000  1
  In  In19  1  0.000000  0.500000  0.000000  1
  Ga  Ga20  1  0.247422  0.623237  0.375521  1
  Ga  Ga21  1  0.752578  0.376763  0.624479  1
  Ga  Ga22  1  0.752578  0.875814  0.128099  1
  Ga  Ga23  1  0.371901  0.247715  0.624479  1
  Ga  Ga24  1  0.628099  0.752285  0.375521  1
  Ga  Ga25  1  0.247422  0.124186  0.871901  1
  Ga  Ga26  1  0.124479  0.747715  0.871901  1
  Ga  Ga27  1  0.875521  0.252285  0.128099  1
  Ga  Ga28  1  0.628099  0.375814  0.252578  1
  Ga  Ga29  1  0.371901  0.624186  0.747422  1
  Ga  Ga30  1  0.875521  0.123237  0.747422  1
  Ga  Ga31  1  0.124479  0.876763  0.252578  1
  O  O32  1  0.468485  0.370829  0.282184  1
  O  O33  1  0.531515  0.629171  0.717816  1
  O  O34  1  0.588686  0.183944  0.218453  1
  O  O35  1  0.915442  0.124034  0.593914  1
  O  O36  1  0.281547  0.465492  0.370233  1
  O  O37  1  0.313699  0.911355  0.282184  1
  O  O38  1  0.411314  0.816056  0.781547  1
  O  O39  1  0.084558  0.875966  0.406086  1
  O  O40  1  0.718453  0.534508  0.629767  1
  O  O41  1  0.686301  0.088645  0.717816  1
  O  O42  1  0.032524  0.313509  0.901023  1
  O  O43  1  0.217816  0.588645  0.186301  1
  O  O44  1  0.129767  0.034508  0.218453  1
  O  O45  1  0.967476  0.686491  0.098977  1
  O  O46  1  0.782184  0.411355  0.813699  1
  O  O47  1  0.870233  0.965492  0.781547  1
  O  O48  1  0.598977  0.912486  0.131501  1
  O  O49  1  0.178472  0.469880  0.593914  1
  O  O50  1  0.401023  0.087514  0.868499  1
  O  O51  1  0.821528  0.530120  0.406086  1
  O  O52  1  0.906086  0.030120  0.321528  1
  O  O53  1  0.368499  0.587514  0.901023  1
  O  O54  1  0.093914  0.969880  0.678472  1
  O  O55  1  0.631501  0.412486  0.098977  1
  O  O56  1  0.368499  0.280985  0.467476  1
  O  O57  1  0.588686  0.904742  0.370233  1
  O  O58  1  0.631501  0.719015  0.532524  1
  O  O59  1  0.411314  0.095258  0.629767  1
  O  O60  1  0.129767  0.595258  0.911314  1
  O  O61  1  0.032524  0.219015  0.131501  1
  O  O62  1  0.870233  0.404742  0.088686  1
  O  O63  1  0.967476  0.780985  0.868499  1
  O  O64  1  0.313699  0.902344  0.031515  1
  O  O65  1  0.915442  0.291408  0.321528  1
  O  O66  1  0.686301  0.097656  0.968485  1
  O  O67  1  0.084558  0.708592  0.678472  1
  O  O68  1  0.178472  0.208592  0.584558  1
  O  O69  1  0.468485  0.597656  0.186301  1
  O  O70  1  0.821528  0.791408  0.415442  1
  O  O71  1  0.531515  0.402344  0.813699  1
  O  O72  1  0.281547  0.316056  0.911314  1
  O  O73  1  0.718453  0.683944  0.088686  1
  O  O74  1  0.217816  0.129171  0.031515  1
  O  O75  1  0.782184  0.870829  0.968485  1
  O  O76  1  0.906086  0.375966  0.584558  1
  O  O77  1  0.093914  0.624034  0.415442  1
  O  O78  1  0.598977  0.186491  0.467476  1
  O  O79  1  0.401023  0.813509  0.532524  1
