# generated using pymatgen
data_Tm4Ti3InIr4
_symmetry_space_group_name_H-M   'P 1'
_cell_length_a   4.32718600
_cell_length_b   6.91889705
_cell_length_c   8.06929247
_cell_angle_alpha   86.99651596
_cell_angle_beta   90.00000000
_cell_angle_gamma   90.00000000
_symmetry_Int_Tables_number   1
_chemical_formula_structural   Tm4Ti3InIr4
_chemical_formula_sum   'Tm4 Ti3 In1 Ir4'
_cell_volume   241.25754825
_cell_formula_units_Z   1
loop_
 _symmetry_equiv_pos_site_id
 _symmetry_equiv_pos_as_xyz
  1  'x, y, z'
loop_
 _atom_site_type_symbol
 _atom_site_label
 _atom_site_symmetry_multiplicity
 _atom_site_fract_x
 _atom_site_fract_y
 _atom_site_fract_z
 _atom_site_occupancy
  Tm  Tm0  1  0.250000  0.469279  0.183315  1
  Tm  Tm1  1  0.750000  0.526778  0.822092  1
  Tm  Tm2  1  0.750000  0.023627  0.671129  1
  Tm  Tm3  1  0.250000  0.984652  0.322200  1
  Ti  Ti4  1  0.250000  0.865476  0.934207  1
  Ti  Ti5  1  0.750000  0.133039  0.068708  1
  Ti  Ti6  1  0.750000  0.638606  0.438360  1
  In  In7  1  0.250000  0.350360  0.572148  1
  Ir  Ir8  1  0.250000  0.743844  0.615648  1
  Ir  Ir9  1  0.750000  0.271231  0.361194  1
  Ir  Ir10  1  0.750000  0.770349  0.104306  1
  Ir  Ir11  1  0.250000  0.222761  0.906691  1
