# generated using pymatgen
data_Li3Pr8Tm9Si16
_symmetry_space_group_name_H-M   'P 1'
_cell_length_a   7.29534101
_cell_length_b   7.76242928
_cell_length_c   14.71966300
_cell_angle_alpha   90.00000000
_cell_angle_beta   90.00000000
_cell_angle_gamma   89.95924116
_symmetry_Int_Tables_number   1
_chemical_formula_structural   Li3Pr8Tm9Si16
_chemical_formula_sum   'Li3 Pr8 Tm9 Si16'
_cell_volume   833.56795617
_cell_formula_units_Z   1
loop_
 _symmetry_equiv_pos_site_id
 _symmetry_equiv_pos_as_xyz
  1  'x, y, z'
loop_
 _atom_site_type_symbol
 _atom_site_label
 _atom_site_symmetry_multiplicity
 _atom_site_fract_x
 _atom_site_fract_y
 _atom_site_fract_z
 _atom_site_occupancy
  Li  Li0  1  0.845493  0.492781  0.250000  1
  Li  Li1  1  0.345630  0.008741  0.250000  1
  Li  Li2  1  0.154265  0.508846  0.750000  1
  Pr  Pr3  1  0.023287  0.183834  0.395788  1
  Pr  Pr4  1  0.522889  0.314689  0.396760  1
  Pr  Pr5  1  0.475258  0.674984  0.899850  1
  Pr  Pr6  1  0.475258  0.674984  0.600150  1
  Pr  Pr7  1  0.985005  0.815115  0.599607  1
  Pr  Pr8  1  0.985005  0.815115  0.900393  1
  Pr  Pr9  1  0.522889  0.314689  0.103240  1
  Pr  Pr10  1  0.023287  0.183834  0.104212  1
  Tm  Tm11  1  0.320654  0.187048  0.624740  1
  Tm  Tm12  1  0.670862  0.820083  0.374137  1
  Tm  Tm13  1  0.653964  0.994492  0.750000  1
  Tm  Tm14  1  0.173221  0.682612  0.372861  1
  Tm  Tm15  1  0.831371  0.325345  0.874871  1
  Tm  Tm16  1  0.831371  0.325345  0.625129  1
  Tm  Tm17  1  0.320654  0.187048  0.875260  1
  Tm  Tm18  1  0.173221  0.682612  0.127139  1
  Tm  Tm19  1  0.670862  0.820083  0.125863  1
  Si  Si20  1  0.278446  0.890011  0.750000  1
  Si  Si21  1  0.471763  0.601029  0.250000  1
  Si  Si22  1  0.027271  0.103109  0.750000  1
  Si  Si23  1  0.533062  0.389198  0.750000  1
  Si  Si24  1  0.149524  0.463900  0.531243  1
  Si  Si25  1  0.970119  0.899011  0.250000  1
  Si  Si26  1  0.725367  0.109350  0.250000  1
  Si  Si27  1  0.848001  0.535349  0.036414  1
  Si  Si28  1  0.348284  0.964810  0.033500  1
  Si  Si29  1  0.149524  0.463900  0.968757  1
  Si  Si30  1  0.648274  0.030016  0.539518  1
  Si  Si31  1  0.348284  0.964810  0.466500  1
  Si  Si32  1  0.848001  0.535349  0.463586  1
  Si  Si33  1  0.773825  0.618244  0.750000  1
  Si  Si34  1  0.227533  0.389622  0.250000  1
  Si  Si35  1  0.648274  0.030016  0.960482  1
