# generated using pymatgen
data_TbGdTm2(AsPt)4
_symmetry_space_group_name_H-M   'P 1'
_cell_length_a   4.28067900
_cell_length_b   4.28067773
_cell_length_c   15.75857600
_cell_angle_alpha   90.00000000
_cell_angle_beta   90.00000000
_cell_angle_gamma   120.00001757
_symmetry_Int_Tables_number   1
_chemical_formula_structural   TbGdTm2(AsPt)4
_chemical_formula_sum   'Tb1 Gd1 Tm2 As4 Pt4'
_cell_volume   250.07640669
_cell_formula_units_Z   1
loop_
 _symmetry_equiv_pos_site_id
 _symmetry_equiv_pos_as_xyz
  1  'x, y, z'
loop_
 _atom_site_type_symbol
 _atom_site_label
 _atom_site_symmetry_multiplicity
 _atom_site_fract_x
 _atom_site_fract_y
 _atom_site_fract_z
 _atom_site_occupancy
  Tb  Tb0  1  0.000000  0.000000  0.000000  1
  Gd  Gd1  1  0.000000  0.000000  0.500000  1
  Tm  Tm2  1  0.000000  0.000000  0.247614  1
  Tm  Tm3  1  0.000000  0.000000  0.752386  1
  As  As4  1  0.333333  0.666667  0.885698  1
  As  As5  1  0.666667  0.333333  0.114302  1
  As  As6  1  0.666667  0.333333  0.381958  1
  As  As7  1  0.333333  0.666667  0.618042  1
  Pt  Pt8  1  0.333333  0.666667  0.356416  1
  Pt  Pt9  1  0.666667  0.333333  0.643584  1
  Pt  Pt10  1  0.666667  0.333333  0.860838  1
  Pt  Pt11  1  0.333333  0.666667  0.139162  1
