# generated using pymatgen
data_Pr4SmTmTa2O14
_symmetry_space_group_name_H-M   'P 1'
_cell_length_a   6.64570997
_cell_length_b   6.65916296
_cell_length_c   7.70472400
_cell_angle_alpha   90.00000000
_cell_angle_beta   90.00000000
_cell_angle_gamma   108.78510121
_symmetry_Int_Tables_number   1
_chemical_formula_structural   Pr4SmTmTa2O14
_chemical_formula_sum   'Pr4 Sm1 Tm1 Ta2 O14'
_cell_volume   322.80900497
_cell_formula_units_Z   1
loop_
 _symmetry_equiv_pos_site_id
 _symmetry_equiv_pos_as_xyz
  1  'x, y, z'
loop_
 _atom_site_type_symbol
 _atom_site_label
 _atom_site_symmetry_multiplicity
 _atom_site_fract_x
 _atom_site_fract_y
 _atom_site_fract_z
 _atom_site_occupancy
  Pr  Pr0  1  0.472090  0.469928  0.498403  1
  Pr  Pr1  1  0.472090  0.469928  0.001597  1
  Pr  Pr2  1  0.535089  0.993766  0.750000  1
  Pr  Pr3  1  0.995282  0.539303  0.250000  1
  Sm  Sm4  1  0.996299  0.466135  0.750000  1
  Tm  Tm5  1  0.473285  0.996763  0.250000  1
  Ta  Ta6  1  0.998626  0.999056  0.498262  1
  Ta  Ta7  1  0.998626  0.999056  0.001738  1
  O  O8  1  0.696330  0.952078  0.456265  1
  O  O9  1  0.941333  0.694721  0.536283  1
  O  O10  1  0.696330  0.952078  0.043735  1
  O  O11  1  0.941333  0.694721  0.963717  1
  O  O12  1  0.321807  0.071860  0.518342  1
  O  O13  1  0.077297  0.320995  0.475393  1
  O  O14  1  0.321807  0.071860  0.981658  1
  O  O15  1  0.077297  0.320995  0.024607  1
  O  O16  1  0.941774  0.057730  0.750000  1
  O  O17  1  0.059408  0.941993  0.250000  1
  O  O18  1  0.362067  0.625239  0.750000  1
  O  O19  1  0.621312  0.350640  0.250000  1
  O  O20  1  0.635538  0.361601  0.750000  1
  O  O21  1  0.364982  0.649554  0.250000  1
