# generated using pymatgen
data_Nd2DyTm(Zn5Sn)2
_symmetry_space_group_name_H-M   'P 1'
_cell_length_a   8.45166124
_cell_length_b   8.45166147
_cell_length_c   9.02282100
_cell_angle_alpha   90.00000000
_cell_angle_beta   90.00000000
_cell_angle_gamma   149.77640293
_symmetry_Int_Tables_number   1
_chemical_formula_structural   Nd2DyTm(Zn5Sn)2
_chemical_formula_sum   'Nd2 Dy1 Tm1 Zn10 Sn2'
_cell_volume   324.42842202
_cell_formula_units_Z   1
loop_
 _symmetry_equiv_pos_site_id
 _symmetry_equiv_pos_as_xyz
  1  'x, y, z'
loop_
 _atom_site_type_symbol
 _atom_site_label
 _atom_site_symmetry_multiplicity
 _atom_site_fract_x
 _atom_site_fract_y
 _atom_site_fract_z
 _atom_site_occupancy
  Nd  Nd0  1  0.000138  0.999862  0.499666  1
  Nd  Nd1  1  0.000138  0.999862  0.000334  1
  Dy  Dy2  1  0.795316  0.204684  0.750000  1
  Tm  Tm3  1  0.204763  0.795237  0.250000  1
  Zn  Zn4  1  0.812158  0.187842  0.390395  1
  Zn  Zn5  1  0.187631  0.812369  0.608822  1
  Zn  Zn6  1  0.812158  0.187842  0.109605  1
  Zn  Zn7  1  0.187631  0.812369  0.891178  1
  Zn  Zn8  1  0.657636  0.342364  0.481579  1
  Zn  Zn9  1  0.342346  0.657654  0.517816  1
  Zn  Zn10  1  0.657636  0.342364  0.018421  1
  Zn  Zn11  1  0.342346  0.657654  0.982184  1
  Zn  Zn12  1  0.393265  0.606735  0.250000  1
  Zn  Zn13  1  0.606479  0.393521  0.750000  1
  Sn  Sn14  1  0.556375  0.443625  0.250000  1
  Sn  Sn15  1  0.443983  0.556017  0.750000  1
