# generated using pymatgen
data_SrLa3Th2(ScBi5)2
_symmetry_space_group_name_H-M   'P 1'
_cell_length_a   9.79378700
_cell_length_b   9.82571937
_cell_length_c   6.64947300
_cell_angle_alpha   90.00000000
_cell_angle_beta   90.00000000
_cell_angle_gamma   119.89254972
_symmetry_Int_Tables_number   1
_chemical_formula_structural   SrLa3Th2(ScBi5)2
_chemical_formula_sum   'Sr1 La3 Th2 Sc2 Bi10'
_cell_volume   554.75609166
_cell_formula_units_Z   1
loop_
 _symmetry_equiv_pos_site_id
 _symmetry_equiv_pos_as_xyz
  1  'x, y, z'
loop_
 _atom_site_type_symbol
 _atom_site_label
 _atom_site_symmetry_multiplicity
 _atom_site_fract_x
 _atom_site_fract_y
 _atom_site_fract_z
 _atom_site_occupancy
  Sr  Sr0  1  0.384305  0.000000  0.750000  1
  La  La1  1  0.616582  0.618615  0.750000  1
  La  La2  1  0.620391  0.000000  0.250000  1
  La  La3  1  0.997967  0.381385  0.750000  1
  Th  Th4  1  0.000697  0.621682  0.250000  1
  Th  Th5  1  0.379015  0.378318  0.250000  1
  Sc  Sc6  1  0.000813  0.000000  0.996265  1
  Sc  Sc7  1  0.000813  0.000000  0.503735  1
  Bi  Bi8  1  0.001798  0.262364  0.250000  1
  Bi  Bi9  1  0.329688  0.660027  0.494228  1
  Bi  Bi10  1  0.669661  0.339973  0.005772  1
  Bi  Bi11  1  0.329688  0.660027  0.005772  1
  Bi  Bi12  1  0.262364  0.264213  0.750000  1
  Bi  Bi13  1  0.741433  0.000000  0.750000  1
  Bi  Bi14  1  0.998151  0.735787  0.750000  1
  Bi  Bi15  1  0.739434  0.737636  0.250000  1
  Bi  Bi16  1  0.257534  0.000000  0.250000  1
  Bi  Bi17  1  0.669661  0.339973  0.494228  1
