# generated using pymatgen
data_Zn8PdPt3O16
_symmetry_space_group_name_H-M   'P 1'
_cell_length_a   6.15086200
_cell_length_b   6.13903346
_cell_length_c   8.61976984
_cell_angle_alpha   89.78352626
_cell_angle_beta   90.00000000
_cell_angle_gamma   90.00000000
_symmetry_Int_Tables_number   1
_chemical_formula_structural   Zn8PdPt3O16
_chemical_formula_sum   'Zn8 Pd1 Pt3 O16'
_cell_volume   325.48318281
_cell_formula_units_Z   1
loop_
 _symmetry_equiv_pos_site_id
 _symmetry_equiv_pos_as_xyz
  1  'x, y, z'
loop_
 _atom_site_type_symbol
 _atom_site_label
 _atom_site_symmetry_multiplicity
 _atom_site_fract_x
 _atom_site_fract_y
 _atom_site_fract_z
 _atom_site_occupancy
  Zn  Zn0  1  0.999759  0.233239  0.998625  1
  Zn  Zn1  1  0.999759  0.766761  0.501375  1
  Zn  Zn2  1  0.253078  0.250304  0.625653  1
  Zn  Zn3  1  0.253078  0.749696  0.874347  1
  Zn  Zn4  1  0.229943  0.000000  0.250000  1
  Zn  Zn5  1  0.769327  0.000000  0.750000  1
  Zn  Zn6  1  0.747031  0.251509  0.375136  1
  Zn  Zn7  1  0.747031  0.748491  0.124864  1
  Pd  Pd8  1  0.755072  0.500000  0.750000  1
  Pt  Pt9  1  0.245118  0.500000  0.250000  1
  Pt  Pt10  1  0.500447  0.751953  0.500698  1
  Pt  Pt11  1  0.500447  0.248047  0.999302  1
  O  O12  1  0.523465  0.744409  0.737226  1
  O  O13  1  0.523465  0.255591  0.762774  1
  O  O14  1  0.738886  0.981806  0.505326  1
  O  O15  1  0.738886  0.018194  0.994674  1
  O  O16  1  0.744412  0.521531  0.512972  1
  O  O17  1  0.744412  0.478469  0.987028  1
  O  O18  1  0.984136  0.739153  0.745148  1
  O  O19  1  0.984136  0.260847  0.754852  1
  O  O20  1  0.015519  0.738861  0.255982  1
  O  O21  1  0.015519  0.261139  0.244018  1
  O  O22  1  0.255779  0.521298  0.487079  1
  O  O23  1  0.255779  0.478702  0.012921  1
  O  O24  1  0.261421  0.981504  0.494964  1
  O  O25  1  0.261421  0.018496  0.005036  1
  O  O26  1  0.476337  0.743839  0.263521  1
  O  O27  1  0.476337  0.256161  0.236479  1
