# generated using pymatgen
data_Ba8ReIr3O20
_symmetry_space_group_name_H-M   'P 1'
_cell_length_a   5.77594300
_cell_length_b   7.47698315
_cell_length_c   11.73012911
_cell_angle_alpha   89.74051966
_cell_angle_beta   90.00000000
_cell_angle_gamma   90.00000000
_symmetry_Int_Tables_number   1
_chemical_formula_structural   Ba8ReIr3O20
_chemical_formula_sum   'Ba8 Re1 Ir3 O20'
_cell_volume   506.57953267
_cell_formula_units_Z   1
loop_
 _symmetry_equiv_pos_site_id
 _symmetry_equiv_pos_as_xyz
  1  'x, y, z'
loop_
 _atom_site_type_symbol
 _atom_site_label
 _atom_site_symmetry_multiplicity
 _atom_site_fract_x
 _atom_site_fract_y
 _atom_site_fract_z
 _atom_site_occupancy
  Ba  Ba0  1  0.750000  0.484748  0.281201  1
  Ba  Ba1  1  0.250000  0.528322  0.714572  1
  Ba  Ba2  1  0.750000  0.975855  0.206470  1
  Ba  Ba3  1  0.250000  0.022747  0.794098  1
  Ba  Ba4  1  0.750000  0.155537  0.586927  1
  Ba  Ba5  1  0.250000  0.823869  0.418112  1
  Ba  Ba6  1  0.750000  0.663594  0.922586  1
  Ba  Ba7  1  0.250000  0.340299  0.073437  1
  Re  Re8  1  0.250000  0.326933  0.438131  1
  Ir  Ir9  1  0.750000  0.170674  0.937682  1
  Ir  Ir10  1  0.250000  0.831072  0.064217  1
  Ir  Ir11  1  0.750000  0.669095  0.559531  1
  O  O12  1  0.483468  0.179308  0.388844  1
  O  O13  1  0.992330  0.824136  0.612240  1
  O  O14  1  0.007519  0.676498  0.119095  1
  O  O15  1  0.508111  0.323793  0.881979  1
  O  O16  1  0.507670  0.824136  0.612240  1
  O  O17  1  0.016532  0.179308  0.388844  1
  O  O18  1  0.991889  0.323793  0.881979  1
  O  O19  1  0.492481  0.676498  0.119095  1
  O  O20  1  0.493227  0.496847  0.497563  1
  O  O21  1  0.006773  0.496847  0.497563  1
  O  O22  1  0.000520  0.000729  0.000734  1
  O  O23  1  0.499480  0.000729  0.000734  1
  O  O24  1  0.750000  0.289277  0.089712  1
  O  O25  1  0.250000  0.711651  0.912628  1
  O  O26  1  0.750000  0.783847  0.405848  1
  O  O27  1  0.250000  0.225027  0.589089  1
  O  O28  1  0.750000  0.027386  0.802597  1
  O  O29  1  0.250000  0.972387  0.200230  1
  O  O30  1  0.750000  0.526615  0.694395  1
  O  O31  1  0.250000  0.468439  0.307627  1
