# generated using pymatgen
data_Li3Ca4Si8Rh
_symmetry_space_group_name_H-M   'P 1'
_cell_length_a   3.81493800
_cell_length_b   7.70009302
_cell_length_c   10.51754845
_cell_angle_alpha   89.83278745
_cell_angle_beta   90.00000000
_cell_angle_gamma   90.00000000
_symmetry_Int_Tables_number   1
_chemical_formula_structural   Li3Ca4Si8Rh
_chemical_formula_sum   'Li3 Ca4 Si8 Rh1'
_cell_volume   308.95563982
_cell_formula_units_Z   1
loop_
 _symmetry_equiv_pos_site_id
 _symmetry_equiv_pos_as_xyz
  1  'x, y, z'
loop_
 _atom_site_type_symbol
 _atom_site_label
 _atom_site_symmetry_multiplicity
 _atom_site_fract_x
 _atom_site_fract_y
 _atom_site_fract_z
 _atom_site_occupancy
  Li  Li0  1  0.750000  0.998676  0.611608  1
  Li  Li1  1  0.250000  0.497352  0.112703  1
  Li  Li2  1  0.750000  0.492535  0.885585  1
  Ca  Ca3  1  0.250000  0.134865  0.867983  1
  Ca  Ca4  1  0.750000  0.860175  0.134843  1
  Ca  Ca5  1  0.250000  0.643129  0.628441  1
  Ca  Ca6  1  0.750000  0.373215  0.366460  1
  Si  Si7  1  0.750000  0.259525  0.078390  1
  Si  Si8  1  0.250000  0.724332  0.930417  1
  Si  Si9  1  0.750000  0.803053  0.424739  1
  Si  Si10  1  0.250000  0.213567  0.559750  1
  Si  Si11  1  0.750000  0.832571  0.824070  1
  Si  Si12  1  0.250000  0.158792  0.192845  1
  Si  Si13  1  0.750000  0.329096  0.665187  1
  Si  Si14  1  0.250000  0.676200  0.325444  1
  Rh  Rh15  1  0.250000  0.002919  0.391535  1
