# generated using pymatgen
data_Ho7Sn22HgRu6
_symmetry_space_group_name_H-M   'P 1'
_cell_length_a   9.80781700
_cell_length_b   9.80781480
_cell_length_c   10.13670700
_cell_angle_alpha   90.00000000
_cell_angle_beta   90.00000000
_cell_angle_gamma   119.99999731
_symmetry_Int_Tables_number   1
_chemical_formula_structural   Ho7Sn22HgRu6
_chemical_formula_sum   'Ho7 Sn22 Hg1 Ru6'
_cell_volume   844.44651405
_cell_formula_units_Z   1
loop_
 _symmetry_equiv_pos_site_id
 _symmetry_equiv_pos_as_xyz
  1  'x, y, z'
loop_
 _atom_site_type_symbol
 _atom_site_label
 _atom_site_symmetry_multiplicity
 _atom_site_fract_x
 _atom_site_fract_y
 _atom_site_fract_z
 _atom_site_occupancy
  Ho  Ho0  1  0.000000  0.000000  0.000000  1
  Ho  Ho1  1  0.518001  0.481999  0.692909  1
  Ho  Ho2  1  0.518001  0.035999  0.692909  1
  Ho  Ho3  1  0.964001  0.481999  0.692909  1
  Ho  Ho4  1  0.035999  0.518001  0.307091  1
  Ho  Ho5  1  0.481999  0.964001  0.307091  1
  Ho  Ho6  1  0.481999  0.518001  0.307091  1
  Sn  Sn7  1  0.666667  0.333333  0.179960  1
  Sn  Sn8  1  0.666667  0.333333  0.874964  1
  Sn  Sn9  1  0.333333  0.666667  0.125036  1
  Sn  Sn10  1  0.349330  0.349330  0.000000  1
  Sn  Sn11  1  0.000000  0.650670  0.000000  1
  Sn  Sn12  1  0.650670  0.000000  0.000000  1
  Sn  Sn13  1  0.650670  0.650670  0.000000  1
  Sn  Sn14  1  0.333333  0.666667  0.820040  1
  Sn  Sn15  1  0.440266  0.220133  0.459629  1
  Sn  Sn16  1  0.220133  0.779867  0.540371  1
  Sn  Sn17  1  0.220133  0.440266  0.540371  1
  Sn  Sn18  1  0.559734  0.779867  0.540371  1
  Sn  Sn19  1  0.122250  0.877750  0.267083  1
  Sn  Sn20  1  0.779867  0.559734  0.459629  1
  Sn  Sn21  1  0.779867  0.220133  0.459629  1
  Sn  Sn22  1  0.349330  0.000000  0.000000  1
  Sn  Sn23  1  0.122250  0.244498  0.267083  1
  Sn  Sn24  1  0.755502  0.877750  0.267083  1
  Sn  Sn25  1  0.244498  0.122250  0.732917  1
  Sn  Sn26  1  0.877750  0.755502  0.732917  1
  Sn  Sn27  1  0.877750  0.122250  0.732917  1
  Sn  Sn28  1  0.000000  0.349330  0.000000  1
  Hg  Hg29  1  0.000000  0.000000  0.500000  1
  Ru  Ru30  1  0.168612  0.831388  0.796636  1
  Ru  Ru31  1  0.168612  0.337226  0.796636  1
  Ru  Ru32  1  0.662774  0.831388  0.796636  1
  Ru  Ru33  1  0.337226  0.168612  0.203364  1
  Ru  Ru34  1  0.831388  0.662774  0.203364  1
  Ru  Ru35  1  0.831388  0.168612  0.203364  1
