# generated using pymatgen
data_PrHo5ScCo17P12
_symmetry_space_group_name_H-M   'P 1'
_cell_length_a   3.71824400
_cell_length_b   10.61381400
_cell_length_c   12.29883500
_cell_angle_alpha   90.00000000
_cell_angle_beta   90.00000000
_cell_angle_gamma   90.00000000
_symmetry_Int_Tables_number   1
_chemical_formula_structural   PrHo5ScCo17P12
_chemical_formula_sum   'Pr1 Ho5 Sc1 Co17 P12'
_cell_volume   485.37045130
_cell_formula_units_Z   1
loop_
 _symmetry_equiv_pos_site_id
 _symmetry_equiv_pos_as_xyz
  1  'x, y, z'
loop_
 _atom_site_type_symbol
 _atom_site_label
 _atom_site_symmetry_multiplicity
 _atom_site_fract_x
 _atom_site_fract_y
 _atom_site_fract_z
 _atom_site_occupancy
  Pr  Pr0  1  0.500000  0.000000  0.476721  1
  Ho  Ho1  1  0.000000  0.500000  0.527785  1
  Ho  Ho2  1  0.500000  0.821200  0.206301  1
  Ho  Ho3  1  0.500000  0.178800  0.206301  1
  Ho  Ho4  1  0.000000  0.681742  0.795934  1
  Ho  Ho5  1  0.000000  0.318258  0.795934  1
  Sc  Sc6  1  0.500000  0.500000  0.152442  1
  Co  Co7  1  0.000000  0.500000  0.984408  1
  Co  Co8  1  0.500000  0.000000  0.012097  1
  Co  Co9  1  0.500000  0.297944  0.433632  1
  Co  Co10  1  0.500000  0.702056  0.433632  1
  Co  Co11  1  0.000000  0.206179  0.571522  1
  Co  Co12  1  0.000000  0.793821  0.571522  1
  Co  Co13  1  0.500000  0.879461  0.709767  1
  Co  Co14  1  0.500000  0.120539  0.709767  1
  Co  Co15  1  0.000000  0.621530  0.294857  1
  Co  Co16  1  0.000000  0.378470  0.294857  1
  Co  Co17  1  0.500000  0.327076  0.990038  1
  Co  Co18  1  0.500000  0.672924  0.990038  1
  Co  Co19  1  0.000000  0.162848  0.001473  1
  Co  Co20  1  0.000000  0.837152  0.001473  1
  Co  Co21  1  0.000000  0.000000  0.839794  1
  Co  Co22  1  0.500000  0.500000  0.704354  1
  Co  Co23  1  0.000000  0.000000  0.292050  1
  P  P24  1  0.500000  0.310314  0.618379  1
  P  P25  1  0.500000  0.689686  0.618379  1
  P  P26  1  0.000000  0.193484  0.384430  1
  P  P27  1  0.000000  0.806516  0.384430  1
  P  P28  1  0.500000  0.500000  0.883259  1
  P  P29  1  0.000000  0.000000  0.114684  1
  P  P30  1  0.500000  0.850339  0.889551  1
  P  P31  1  0.500000  0.149661  0.889551  1
  P  P32  1  0.000000  0.663178  0.101520  1
  P  P33  1  0.000000  0.336822  0.101520  1
  P  P34  1  0.500000  0.500000  0.358082  1
  P  P35  1  0.000000  0.000000  0.659508  1
