# generated using pymatgen
data_HfTaNb2(Co4P3)2
_symmetry_space_group_name_H-M   'P 1'
_cell_length_a   11.94755000
_cell_length_b   11.94754987
_cell_length_c   3.63610100
_cell_angle_alpha   90.00000000
_cell_angle_beta   90.00000000
_cell_angle_gamma   120.00202561
_symmetry_Int_Tables_number   1
_chemical_formula_structural   HfTaNb2(Co4P3)2
_chemical_formula_sum   'Hf2 Ta2 Nb4 Co16 P12'
_cell_volume   449.48521756
_cell_formula_units_Z   2
loop_
 _symmetry_equiv_pos_site_id
 _symmetry_equiv_pos_as_xyz
  1  'x, y, z'
loop_
 _atom_site_type_symbol
 _atom_site_label
 _atom_site_symmetry_multiplicity
 _atom_site_fract_x
 _atom_site_fract_y
 _atom_site_fract_z
 _atom_site_occupancy
  Hf  Hf0  1  0.333595  0.666800  0.000000  1
  Hf  Hf1  1  0.666800  0.333595  0.000000  1
  Ta  Ta2  1  0.447039  0.999914  0.000000  1
  Ta  Ta3  1  0.999914  0.447039  0.000000  1
  Nb  Nb4  1  0.822308  0.000146  0.500000  1
  Nb  Nb5  1  0.000146  0.822308  0.500000  1
  Nb  Nb6  1  0.178268  0.178268  0.500000  1
  Nb  Nb7  1  0.552086  0.552086  0.000000  1
  Co  Co8  1  0.274161  0.000184  0.500000  1
  Co  Co9  1  0.000184  0.274161  0.500000  1
  Co  Co10  1  0.726511  0.726511  0.500000  1
  Co  Co11  1  0.629973  0.808933  0.000000  1
  Co  Co12  1  0.191726  0.821649  0.000000  1
  Co  Co13  1  0.178418  0.370049  0.000000  1
  Co  Co14  1  0.370049  0.178418  0.000000  1
  Co  Co15  1  0.808933  0.629973  0.000000  1
  Co  Co16  1  0.821649  0.191726  0.000000  1
  Co  Co17  1  0.514204  0.870213  0.500000  1
  Co  Co18  1  0.129858  0.644172  0.500000  1
  Co  Co19  1  0.354441  0.485222  0.500000  1
  Co  Co20  1  0.485222  0.354441  0.500000  1
  Co  Co21  1  0.870213  0.514204  0.500000  1
  Co  Co22  1  0.644172  0.129858  0.500000  1
  Co  Co23  1  0.999789  0.999789  0.000000  1
  P  P24  1  0.174190  0.000052  0.000000  1
  P  P25  1  0.000052  0.174190  0.000000  1
  P  P26  1  0.825422  0.825422  0.000000  1
  P  P27  1  0.519601  0.689383  0.500000  1
  P  P28  1  0.310545  0.830115  0.500000  1
  P  P29  1  0.169683  0.480476  0.500000  1
  P  P30  1  0.480476  0.169683  0.500000  1
  P  P31  1  0.689383  0.519601  0.500000  1
  P  P32  1  0.830115  0.310545  0.500000  1
  P  P33  1  0.649372  0.000071  0.000000  1
  P  P34  1  0.000071  0.649372  0.000000  1
  P  P35  1  0.351432  0.351432  0.000000  1
