# generated using pymatgen
data_Yb2SmTh(B6Os)2
_symmetry_space_group_name_H-M   'P 1'
_cell_length_a   3.71512800
_cell_length_b   9.16339481
_cell_length_c   11.56301453
_cell_angle_alpha   90.10937818
_cell_angle_beta   90.00000000
_cell_angle_gamma   90.00000000
_symmetry_Int_Tables_number   1
_chemical_formula_structural   Yb2SmTh(B6Os)2
_chemical_formula_sum   'Yb4 Sm2 Th2 B24 Os4'
_cell_volume   393.64112144
_cell_formula_units_Z   2
loop_
 _symmetry_equiv_pos_site_id
 _symmetry_equiv_pos_as_xyz
  1  'x, y, z'
loop_
 _atom_site_type_symbol
 _atom_site_label
 _atom_site_symmetry_multiplicity
 _atom_site_fract_x
 _atom_site_fract_y
 _atom_site_fract_z
 _atom_site_occupancy
  Yb  Yb0  1  0.000000  0.942619  0.370514  1
  Yb  Yb1  1  0.000000  0.057381  0.629486  1
  Yb  Yb2  1  0.000000  0.442573  0.127030  1
  Yb  Yb3  1  0.000000  0.557427  0.872970  1
  Sm  Sm4  1  0.000000  0.821662  0.085309  1
  Sm  Sm5  1  0.000000  0.178338  0.914691  1
  Th  Th6  1  0.000000  0.318328  0.412832  1
  Th  Th7  1  0.000000  0.681672  0.587168  1
  B  B8  1  0.500000  0.555730  0.429401  1
  B  B9  1  0.500000  0.444270  0.570599  1
  B  B10  1  0.500000  0.055283  0.068570  1
  B  B11  1  0.500000  0.944717  0.931430  1
  B  B12  1  0.500000  0.750462  0.415777  1
  B  B13  1  0.500000  0.249538  0.584223  1
  B  B14  1  0.500000  0.249637  0.081509  1
  B  B15  1  0.500000  0.750363  0.918491  1
  B  B16  1  0.500000  0.789656  0.265492  1
  B  B17  1  0.500000  0.210344  0.734508  1
  B  B18  1  0.500000  0.288948  0.231502  1
  B  B19  1  0.500000  0.711052  0.768498  1
  B  B20  1  0.500000  0.628673  0.184428  1
  B  B21  1  0.500000  0.371327  0.815572  1
  B  B22  1  0.500000  0.127791  0.312938  1
  B  B23  1  0.500000  0.872209  0.687062  1
  B  B24  1  0.500000  0.982806  0.212450  1
  B  B25  1  0.500000  0.017194  0.787550  1
  B  B26  1  0.500000  0.484166  0.284716  1
  B  B27  1  0.500000  0.515834  0.715284  1
  B  B28  1  0.500000  0.599736  0.027823  1
  B  B29  1  0.500000  0.400264  0.972177  1
  B  B30  1  0.500000  0.098796  0.472486  1
  B  B31  1  0.500000  0.901204  0.527514  1
  Os  Os32  1  0.000000  0.636861  0.321092  1
  Os  Os33  1  0.000000  0.363139  0.678908  1
  Os  Os34  1  0.000000  0.138537  0.180331  1
  Os  Os35  1  0.000000  0.861463  0.819669  1
