# generated using pymatgen
data_Sr8Li3CdSi12
_symmetry_space_group_name_H-M   'P 1'
_cell_length_a   11.78101611
_cell_length_b   10.09891977
_cell_length_c   8.57326906
_cell_angle_alpha   77.76728580
_cell_angle_beta   56.86980574
_cell_angle_gamma   45.33877459
_symmetry_Int_Tables_number   1
_chemical_formula_structural   Sr8Li3CdSi12
_chemical_formula_sum   'Sr8 Li3 Cd1 Si12'
_cell_volume   581.59121472
_cell_formula_units_Z   1
loop_
 _symmetry_equiv_pos_site_id
 _symmetry_equiv_pos_as_xyz
  1  'x, y, z'
loop_
 _atom_site_type_symbol
 _atom_site_label
 _atom_site_symmetry_multiplicity
 _atom_site_fract_x
 _atom_site_fract_y
 _atom_site_fract_z
 _atom_site_occupancy
  Sr  Sr0  1  0.123061  0.118709  0.876661  1
  Sr  Sr1  1  0.876550  0.881572  0.123037  1
  Sr  Sr2  1  0.125329  0.121655  0.377122  1
  Sr  Sr3  1  0.377225  0.375766  0.125308  1
  Sr  Sr4  1  0.620493  0.624709  0.378517  1
  Sr  Sr5  1  0.378578  0.376288  0.620445  1
  Sr  Sr6  1  0.624763  0.624198  0.874969  1
  Sr  Sr7  1  0.874778  0.876243  0.624871  1
  Li  Li8  1  0.832984  0.167129  0.832422  1
  Li  Li9  1  0.166948  0.832904  0.167593  1
  Li  Li10  1  0.416716  0.083205  0.417085  1
  Cd  Cd11  1  0.082956  0.416996  0.082884  1
  Si  Si12  1  0.911828  0.597947  0.431070  1
  Si  Si13  1  0.072616  0.418636  0.590556  1
  Si  Si14  1  0.430995  0.058986  0.911784  1
  Si  Si15  1  0.590386  0.918041  0.072695  1
  Si  Si16  1  0.336943  0.657790  0.824074  1
  Si  Si17  1  0.658585  0.337433  0.180644  1
  Si  Si18  1  0.823930  0.181586  0.336950  1
  Si  Si19  1  0.180982  0.823279  0.658407  1
  Si  Si20  1  0.907522  0.592886  0.907015  1
  Si  Si21  1  0.586167  0.913991  0.585836  1
  Si  Si22  1  0.338792  0.661114  0.338819  1
  Si  Si23  1  0.660878  0.338940  0.661230  1
