# generated using pymatgen
data_Lu4Re3PN12
_symmetry_space_group_name_H-M   'P 1'
_cell_length_a   7.22550683
_cell_length_b   7.19898152
_cell_length_c   6.03557376
_cell_angle_alpha   73.35845451
_cell_angle_beta   73.42972462
_cell_angle_gamma   81.90381350
_symmetry_Int_Tables_number   1
_chemical_formula_structural   Lu4Re3PN12
_chemical_formula_sum   'Lu4 Re3 P1 N12'
_cell_volume   287.70761988
_cell_formula_units_Z   1
loop_
 _symmetry_equiv_pos_site_id
 _symmetry_equiv_pos_as_xyz
  1  'x, y, z'
loop_
 _atom_site_type_symbol
 _atom_site_label
 _atom_site_symmetry_multiplicity
 _atom_site_fract_x
 _atom_site_fract_y
 _atom_site_fract_z
 _atom_site_occupancy
  Lu  Lu0  1  0.903298  0.084364  0.763019  1
  Lu  Lu1  1  0.104496  0.904601  0.250040  1
  Lu  Lu2  1  0.706760  0.273294  0.259611  1
  Lu  Lu3  1  0.299138  0.712720  0.735475  1
  Re  Re4  1  0.198040  0.381207  0.220775  1
  Re  Re5  1  0.381248  0.198245  0.722110  1
  Re  Re6  1  0.785317  0.628159  0.787728  1
  P  P7  1  0.614343  0.811258  0.280427  1
  N  N8  1  0.668523  0.648016  0.100185  1
  N  N9  1  0.385579  0.866564  0.334715  1
  N  N10  1  0.367732  0.341421  0.417901  1
  N  N11  1  0.121879  0.632851  0.149247  1
  N  N12  1  0.002293  0.213572  0.338247  1
  N  N13  1  0.769817  0.979364  0.163788  1
  N  N14  1  0.216456  0.000286  0.840417  1
  N  N15  1  0.636579  0.117820  0.656847  1
  N  N16  1  0.345584  0.370987  0.911787  1
  N  N17  1  0.862795  0.376290  0.844578  1
  N  N18  1  0.636430  0.682745  0.561594  1
  N  N19  1  0.993693  0.776236  0.661512  1
