# generated using pymatgen
data_Zr4Ta3Si3PW
_symmetry_space_group_name_H-M   'P 1'
_cell_length_a   3.59595800
_cell_length_b   7.00604326
_cell_length_c   8.42284400
_cell_angle_alpha   89.98424907
_cell_angle_beta   90.00000000
_cell_angle_gamma   90.00000000
_symmetry_Int_Tables_number   1
_chemical_formula_structural   Zr4Ta3Si3PW
_chemical_formula_sum   'Zr4 Ta3 Si3 P1 W1'
_cell_volume   212.20038440
_cell_formula_units_Z   1
loop_
 _symmetry_equiv_pos_site_id
 _symmetry_equiv_pos_as_xyz
  1  'x, y, z'
loop_
 _atom_site_type_symbol
 _atom_site_label
 _atom_site_symmetry_multiplicity
 _atom_site_fract_x
 _atom_site_fract_y
 _atom_site_fract_z
 _atom_site_occupancy
  Zr  Zr0  1  0.250000  0.542891  0.834825  1
  Zr  Zr1  1  0.750000  0.963771  0.331682  1
  Zr  Zr2  1  0.250000  0.037976  0.669471  1
  Zr  Zr3  1  0.750000  0.459745  0.169360  1
  Ta  Ta4  1  0.250000  0.131430  0.061509  1
  Ta  Ta5  1  0.250000  0.634231  0.438323  1
  Ta  Ta6  1  0.750000  0.363257  0.557760  1
  Si  Si7  1  0.750000  0.741221  0.642607  1
  Si  Si8  1  0.250000  0.756967  0.136155  1
  Si  Si9  1  0.750000  0.242250  0.859067  1
  P  P10  1  0.250000  0.258167  0.358938  1
  W  W11  1  0.750000  0.868093  0.940303  1
