# generated using pymatgen
data_Tb7Sm2Y(In2Pd)4
_symmetry_space_group_name_H-M   'P 1'
_cell_length_a   3.65229400
_cell_length_b   8.21819820
_cell_length_c   18.48780745
_cell_angle_alpha   89.97474594
_cell_angle_beta   90.00000000
_cell_angle_gamma   90.00000000
_symmetry_Int_Tables_number   1
_chemical_formula_structural   Tb7Sm2Y(In2Pd)4
_chemical_formula_sum   'Tb7 Sm2 Y1 In8 Pd4'
_cell_volume   554.91658885
_cell_formula_units_Z   1
loop_
 _symmetry_equiv_pos_site_id
 _symmetry_equiv_pos_as_xyz
  1  'x, y, z'
loop_
 _atom_site_type_symbol
 _atom_site_label
 _atom_site_symmetry_multiplicity
 _atom_site_fract_x
 _atom_site_fract_y
 _atom_site_fract_z
 _atom_site_occupancy
  Tb  Tb0  1  0.500000  0.241322  0.781191  1
  Tb  Tb1  1  0.500000  0.758966  0.218929  1
  Tb  Tb2  1  0.500000  0.258896  0.280965  1
  Tb  Tb3  1  0.500000  0.740509  0.718959  1
  Tb  Tb4  1  0.500000  0.119362  0.583455  1
  Tb  Tb5  1  0.500000  0.880716  0.416423  1
  Tb  Tb6  1  0.500000  0.380424  0.083529  1
  Sm  Sm7  1  0.500000  0.000656  0.000167  1
  Sm  Sm8  1  0.500000  0.499952  0.499917  1
  Y  Y9  1  0.500000  0.619538  0.916737  1
  In  In10  1  0.000000  0.080170  0.151922  1
  In  In11  1  0.000000  0.920155  0.848140  1
  In  In12  1  0.000000  0.420112  0.651940  1
  In  In13  1  0.000000  0.579219  0.348071  1
  In  In14  1  0.000000  0.205074  0.431159  1
  In  In15  1  0.000000  0.795070  0.568886  1
  In  In16  1  0.000000  0.295664  0.931191  1
  In  In17  1  0.000000  0.704732  0.068666  1
  Pd  Pd18  1  0.000000  0.024371  0.695826  1
  Pd  Pd19  1  0.000000  0.975324  0.304283  1
  Pd  Pd20  1  0.000000  0.475140  0.195708  1
  Pd  Pd21  1  0.000000  0.524629  0.803937  1
