# generated using pymatgen
data_Er20Si15Os
_symmetry_space_group_name_H-M   'P 1'
_cell_length_a   7.31651471
_cell_length_b   14.41842300
_cell_length_c   7.68215360
_cell_angle_alpha   90.00000000
_cell_angle_beta   89.92388008
_cell_angle_gamma   90.00000000
_symmetry_Int_Tables_number   1
_chemical_formula_structural   Er20Si15Os
_chemical_formula_sum   'Er20 Si15 Os1'
_cell_volume   810.40967191
_cell_formula_units_Z   1
loop_
 _symmetry_equiv_pos_site_id
 _symmetry_equiv_pos_as_xyz
  1  'x, y, z'
loop_
 _atom_site_type_symbol
 _atom_site_label
 _atom_site_symmetry_multiplicity
 _atom_site_fract_x
 _atom_site_fract_y
 _atom_site_fract_z
 _atom_site_occupancy
  Er  Er0  1  0.023911  0.402651  0.815948  1
  Er  Er1  1  0.476840  0.595930  0.318014  1
  Er  Er2  1  0.523311  0.097438  0.682357  1
  Er  Er3  1  0.980043  0.903391  0.171640  1
  Er  Er4  1  0.980043  0.596609  0.171640  1
  Er  Er5  1  0.523311  0.402561  0.682357  1
  Er  Er6  1  0.476840  0.904070  0.318014  1
  Er  Er7  1  0.023911  0.097348  0.815948  1
  Er  Er8  1  0.179009  0.375793  0.320089  1
  Er  Er9  1  0.310350  0.626308  0.825090  1
  Er  Er10  1  0.680827  0.124212  0.176539  1
  Er  Er11  1  0.831307  0.874053  0.685881  1
  Er  Er12  1  0.831307  0.625947  0.685881  1
  Er  Er13  1  0.680827  0.375788  0.176539  1
  Er  Er14  1  0.310350  0.873692  0.825090  1
  Er  Er15  1  0.179009  0.124207  0.320089  1
  Er  Er16  1  0.660557  0.750000  0.012266  1
  Er  Er17  1  0.846795  0.250000  0.512424  1
  Er  Er18  1  0.148623  0.750000  0.487771  1
  Er  Er19  1  0.346683  0.250000  0.985822  1
  Si  Si20  1  0.478012  0.250000  0.394054  1
  Si  Si21  1  0.522395  0.750000  0.601562  1
  Si  Si22  1  0.975711  0.250000  0.104198  1
  Si  Si23  1  0.762590  0.750000  0.375321  1
  Si  Si24  1  0.725575  0.250000  0.868619  1
  Si  Si25  1  0.274591  0.750000  0.135458  1
  Si  Si26  1  0.228204  0.250000  0.630482  1
  Si  Si27  1  0.154054  0.538430  0.525988  1
  Si  Si28  1  0.348425  0.460471  0.029266  1
  Si  Si29  1  0.646194  0.961212  0.970550  1
  Si  Si30  1  0.849878  0.038636  0.469693  1
  Si  Si31  1  0.849878  0.461363  0.469693  1
  Si  Si32  1  0.646194  0.538787  0.970550  1
  Si  Si33  1  0.348425  0.039528  0.029266  1
  Si  Si34  1  0.154054  0.961569  0.525988  1
  Os  Os35  1  0.021970  0.750000  0.909902  1
