# generated using pymatgen
data_Sm8TcOsBr8
_symmetry_space_group_name_H-M   'P 1'
_cell_length_a   9.25997000
_cell_length_b   9.25996935
_cell_length_c   6.65994076
_cell_angle_alpha   89.92084713
_cell_angle_beta   89.92084428
_cell_angle_gamma   89.47125180
_symmetry_Int_Tables_number   1
_chemical_formula_structural   Sm8TcOsBr8
_chemical_formula_sum   'Sm8 Tc1 Os1 Br8'
_cell_volume   571.04479891
_cell_formula_units_Z   1
loop_
 _symmetry_equiv_pos_site_id
 _symmetry_equiv_pos_as_xyz
  1  'x, y, z'
loop_
 _atom_site_type_symbol
 _atom_site_label
 _atom_site_symmetry_multiplicity
 _atom_site_fract_x
 _atom_site_fract_y
 _atom_site_fract_z
 _atom_site_occupancy
  Sm  Sm0  1  0.751101  0.098842  0.989507  1
  Sm  Sm1  1  0.098883  0.751775  0.489696  1
  Sm  Sm2  1  0.096782  0.246799  0.997384  1
  Sm  Sm3  1  0.247141  0.096993  0.497439  1
  Sm  Sm4  1  0.903007  0.752859  0.002561  1
  Sm  Sm5  1  0.901158  0.248899  0.510493  1
  Sm  Sm6  1  0.248225  0.901117  0.010304  1
  Sm  Sm7  1  0.753201  0.903218  0.502616  1
  Tc  Tc8  1  0.996498  0.003502  0.250000  1
  Os  Os9  1  0.003198  0.996802  0.750000  1
  Br  Br10  1  0.586615  0.181155  0.580466  1
  Br  Br11  1  0.814991  0.590279  0.418496  1
  Br  Br12  1  0.409721  0.185009  0.081504  1
  Br  Br13  1  0.185441  0.409393  0.582028  1
  Br  Br14  1  0.590607  0.814559  0.917972  1
  Br  Br15  1  0.413140  0.818557  0.421712  1
  Br  Br16  1  0.181443  0.586860  0.078288  1
  Br  Br17  1  0.818845  0.413385  0.919534  1
