# generated using pymatgen
data_Y8Sc11Si16W
_symmetry_space_group_name_H-M   'P 1'
_cell_length_a   7.04885681
_cell_length_b   7.36426522
_cell_length_c   13.91984000
_cell_angle_alpha   90.00000000
_cell_angle_beta   90.00000000
_cell_angle_gamma   90.19744607
_symmetry_Int_Tables_number   1
_chemical_formula_structural   Y8Sc11Si16W
_chemical_formula_sum   'Y8 Sc11 Si16 W1'
_cell_volume   722.56974614
_cell_formula_units_Z   1
loop_
 _symmetry_equiv_pos_site_id
 _symmetry_equiv_pos_as_xyz
  1  'x, y, z'
loop_
 _atom_site_type_symbol
 _atom_site_label
 _atom_site_symmetry_multiplicity
 _atom_site_fract_x
 _atom_site_fract_y
 _atom_site_fract_z
 _atom_site_occupancy
  Y  Y0  1  0.012298  0.176637  0.093875  1
  Y  Y1  1  0.992444  0.819278  0.900400  1
  Y  Y2  1  0.486443  0.672933  0.901354  1
  Y  Y3  1  0.992444  0.819278  0.599600  1
  Y  Y4  1  0.511602  0.323768  0.095443  1
  Y  Y5  1  0.012298  0.176637  0.406125  1
  Y  Y6  1  0.511602  0.323768  0.404557  1
  Y  Y7  1  0.486443  0.672933  0.598646  1
  Sc  Sc8  1  0.841711  0.496701  0.250000  1
  Sc  Sc9  1  0.341323  0.002599  0.250000  1
  Sc  Sc10  1  0.657757  0.996703  0.750000  1
  Sc  Sc11  1  0.326714  0.178491  0.627855  1
  Sc  Sc12  1  0.671954  0.824025  0.374656  1
  Sc  Sc13  1  0.172547  0.674128  0.376489  1
  Sc  Sc14  1  0.671954  0.824025  0.125344  1
  Sc  Sc15  1  0.827855  0.330356  0.628547  1
  Sc  Sc16  1  0.326714  0.178491  0.872145  1
  Sc  Sc17  1  0.827855  0.330356  0.871453  1
  Sc  Sc18  1  0.172547  0.674128  0.123511  1
  Si  Si19  1  0.030245  0.124473  0.750000  1
  Si  Si20  1  0.971466  0.884149  0.250000  1
  Si  Si21  1  0.468900  0.616377  0.250000  1
  Si  Si22  1  0.520395  0.393550  0.750000  1
  Si  Si23  1  0.283651  0.862185  0.750000  1
  Si  Si24  1  0.717311  0.127868  0.250000  1
  Si  Si25  1  0.214724  0.372344  0.250000  1
  Si  Si26  1  0.793769  0.627605  0.750000  1
  Si  Si27  1  0.154289  0.466163  0.548296  1
  Si  Si28  1  0.843874  0.535565  0.462638  1
  Si  Si29  1  0.346517  0.964522  0.462577  1
  Si  Si30  1  0.843874  0.535565  0.037362  1
  Si  Si31  1  0.657304  0.034854  0.539879  1
  Si  Si32  1  0.154289  0.466163  0.951704  1
  Si  Si33  1  0.657304  0.034854  0.960121  1
  Si  Si34  1  0.346517  0.964522  0.037423  1
  W  W35  1  0.151063  0.494005  0.750000  1
