# generated using pymatgen
data_Er4Tm3Pa(ReB6)4
_symmetry_space_group_name_H-M   'P 1'
_cell_length_a   3.66618800
_cell_length_b   9.11944449
_cell_length_c   11.48603800
_cell_angle_alpha   90.14563877
_cell_angle_beta   90.00000000
_cell_angle_gamma   90.00000000
_symmetry_Int_Tables_number   1
_chemical_formula_structural   Er4Tm3Pa(ReB6)4
_chemical_formula_sum   'Er4 Tm3 Pa1 Re4 B24'
_cell_volume   384.01833580
_cell_formula_units_Z   1
loop_
 _symmetry_equiv_pos_site_id
 _symmetry_equiv_pos_as_xyz
  1  'x, y, z'
loop_
 _atom_site_type_symbol
 _atom_site_label
 _atom_site_symmetry_multiplicity
 _atom_site_fract_x
 _atom_site_fract_y
 _atom_site_fract_z
 _atom_site_occupancy
  Er  Er0  1  0.000000  0.679713  0.587048  1
  Er  Er1  1  0.000000  0.823004  0.085232  1
  Er  Er2  1  0.000000  0.175952  0.913479  1
  Er  Er3  1  0.000000  0.942672  0.371693  1
  Tm  Tm4  1  0.000000  0.055107  0.629477  1
  Tm  Tm5  1  0.000000  0.443664  0.127445  1
  Tm  Tm6  1  0.000000  0.557118  0.870536  1
  Pa  Pa7  1  0.000000  0.323126  0.414144  1
  Re  Re8  1  0.000000  0.635939  0.321526  1
  Re  Re9  1  0.000000  0.361979  0.676911  1
  Re  Re10  1  0.000000  0.140959  0.181282  1
  Re  Re11  1  0.000000  0.861531  0.820973  1
  B  B12  1  0.500000  0.553161  0.432318  1
  B  B13  1  0.500000  0.445930  0.567279  1
  B  B14  1  0.500000  0.053700  0.067006  1
  B  B15  1  0.500000  0.946927  0.933775  1
  B  B16  1  0.500000  0.749401  0.418840  1
  B  B17  1  0.500000  0.250114  0.581421  1
  B  B18  1  0.500000  0.249362  0.080075  1
  B  B19  1  0.500000  0.750410  0.919291  1
  B  B20  1  0.500000  0.792044  0.265503  1
  B  B21  1  0.500000  0.207534  0.735192  1
  B  B22  1  0.500000  0.292117  0.234192  1
  B  B23  1  0.500000  0.707669  0.765585  1
  B  B24  1  0.500000  0.631157  0.184251  1
  B  B25  1  0.500000  0.369769  0.814737  1
  B  B26  1  0.500000  0.131455  0.314839  1
  B  B27  1  0.500000  0.868929  0.685620  1
  B  B28  1  0.500000  0.982035  0.212028  1
  B  B29  1  0.500000  0.018027  0.788103  1
  B  B30  1  0.500000  0.482763  0.287020  1
  B  B31  1  0.500000  0.518371  0.713133  1
  B  B32  1  0.500000  0.601310  0.027644  1
  B  B33  1  0.500000  0.398802  0.971113  1
  B  B34  1  0.500000  0.103010  0.471791  1
  B  B35  1  0.500000  0.895241  0.529494  1
