# generated using pymatgen
data_YEr11InCo4Os
_symmetry_space_group_name_H-M   'P 1'
_cell_length_a   8.22569718
_cell_length_b   8.22569705
_cell_length_c   8.22093678
_cell_angle_alpha   111.47718917
_cell_angle_beta   110.68694565
_cell_angle_gamma   106.32132082
_symmetry_Int_Tables_number   1
_chemical_formula_structural   YEr11InCo4Os
_chemical_formula_sum   'Y1 Er11 In1 Co4 Os1'
_cell_volume   427.07390412
_cell_formula_units_Z   1
loop_
 _symmetry_equiv_pos_site_id
 _symmetry_equiv_pos_as_xyz
  1  'x, y, z'
loop_
 _atom_site_type_symbol
 _atom_site_label
 _atom_site_symmetry_multiplicity
 _atom_site_fract_x
 _atom_site_fract_y
 _atom_site_fract_z
 _atom_site_occupancy
  Y  Y0  1  0.183597  0.281436  0.465032  1
  Er  Er1  1  0.817744  0.720517  0.538261  1
  Er  Er2  1  0.181874  0.720137  0.902011  1
  Er  Er3  1  0.817699  0.279986  0.097686  1
  Er  Er4  1  0.314758  0.621044  0.306027  1
  Er  Er5  1  0.686377  0.379380  0.694510  1
  Er  Er6  1  0.315131  0.008134  0.694510  1
  Er  Er7  1  0.684983  0.991269  0.306027  1
  Er  Er8  1  0.416112  0.220952  0.194318  1
  Er  Er9  1  0.586773  0.780536  0.807114  1
  Er  Er10  1  0.026578  0.220341  0.807114  1
  Er  Er11  1  0.973366  0.778206  0.194318  1
  In  In12  1  0.499068  0.499352  0.998420  1
  Co  Co13  1  0.108901  0.612592  0.498289  1
  Co  Co14  1  0.885698  0.389388  0.498289  1
  Co  Co15  1  0.376967  0.998992  0.375959  1
  Co  Co16  1  0.624341  0.999897  0.624238  1
  Os  Os17  1  0.000033  0.997841  0.997875  1
