# generated using pymatgen
data_Tm10ReHg3
_symmetry_space_group_name_H-M   'P 1'
_cell_length_a   9.41732300
_cell_length_b   9.41732416
_cell_length_c   9.68340500
_cell_angle_alpha   90.00000000
_cell_angle_beta   90.00000000
_cell_angle_gamma   119.99999945
_symmetry_Int_Tables_number   1
_chemical_formula_structural   Tm10ReHg3
_chemical_formula_sum   'Tm20 Re2 Hg6'
_cell_volume   743.72728776
_cell_formula_units_Z   2
loop_
 _symmetry_equiv_pos_site_id
 _symmetry_equiv_pos_as_xyz
  1  'x, y, z'
loop_
 _atom_site_type_symbol
 _atom_site_label
 _atom_site_symmetry_multiplicity
 _atom_site_fract_x
 _atom_site_fract_y
 _atom_site_fract_z
 _atom_site_occupancy
  Tm  Tm0  1  0.000000  0.000000  0.500000  1
  Tm  Tm1  1  0.000000  0.000000  0.000000  1
  Tm  Tm2  1  0.209503  0.790497  0.443235  1
  Tm  Tm3  1  0.209503  0.419008  0.443235  1
  Tm  Tm4  1  0.580992  0.790497  0.443235  1
  Tm  Tm5  1  0.790497  0.209503  0.556765  1
  Tm  Tm6  1  0.790497  0.580992  0.556765  1
  Tm  Tm7  1  0.419008  0.209503  0.556765  1
  Tm  Tm8  1  0.790497  0.209503  0.943235  1
  Tm  Tm9  1  0.790497  0.580992  0.943235  1
  Tm  Tm10  1  0.419008  0.209503  0.943235  1
  Tm  Tm11  1  0.209503  0.790497  0.056765  1
  Tm  Tm12  1  0.209503  0.419008  0.056765  1
  Tm  Tm13  1  0.580992  0.790497  0.056765  1
  Tm  Tm14  1  0.537655  0.462345  0.250000  1
  Tm  Tm15  1  0.537655  0.075309  0.250000  1
  Tm  Tm16  1  0.924691  0.462345  0.250000  1
  Tm  Tm17  1  0.462345  0.537655  0.750000  1
  Tm  Tm18  1  0.462345  0.924691  0.750000  1
  Tm  Tm19  1  0.075309  0.537655  0.750000  1
  Re  Re20  1  0.333333  0.666667  0.250000  1
  Re  Re21  1  0.666667  0.333333  0.750000  1
  Hg  Hg22  1  0.882079  0.117921  0.250000  1
  Hg  Hg23  1  0.882079  0.764158  0.250000  1
  Hg  Hg24  1  0.235842  0.117921  0.250000  1
  Hg  Hg25  1  0.117921  0.882079  0.750000  1
  Hg  Hg26  1  0.117921  0.235842  0.750000  1
  Hg  Hg27  1  0.764158  0.882079  0.750000  1
