# generated using pymatgen
data_Tb3HoSc4(B6Ir)4
_symmetry_space_group_name_H-M   'P 1'
_cell_length_a   3.55344700
_cell_length_b   9.01694301
_cell_length_c   11.39009201
_cell_angle_alpha   90.00419454
_cell_angle_beta   90.00000000
_cell_angle_gamma   90.00000000
_symmetry_Int_Tables_number   1
_chemical_formula_structural   Tb3HoSc4(B6Ir)4
_chemical_formula_sum   'Tb3 Ho1 Sc4 B24 Ir4'
_cell_volume   364.95254621
_cell_formula_units_Z   1
loop_
 _symmetry_equiv_pos_site_id
 _symmetry_equiv_pos_as_xyz
  1  'x, y, z'
loop_
 _atom_site_type_symbol
 _atom_site_label
 _atom_site_symmetry_multiplicity
 _atom_site_fract_x
 _atom_site_fract_y
 _atom_site_fract_z
 _atom_site_occupancy
  Tb  Tb0  1  0.500000  0.320107  0.414096  1
  Tb  Tb1  1  0.500000  0.679921  0.585860  1
  Tb  Tb2  1  0.500000  0.179911  0.914152  1
  Ho  Ho3  1  0.500000  0.819856  0.085830  1
  Sc  Sc4  1  0.500000  0.445283  0.124276  1
  Sc  Sc5  1  0.500000  0.555076  0.875872  1
  Sc  Sc6  1  0.500000  0.054872  0.624306  1
  Sc  Sc7  1  0.500000  0.945053  0.375638  1
  B  B8  1  0.000000  0.099924  0.472988  1
  B  B9  1  0.000000  0.900032  0.526955  1
  B  B10  1  0.000000  0.400038  0.973025  1
  B  B11  1  0.000000  0.600618  0.027178  1
  B  B12  1  0.000000  0.129620  0.318287  1
  B  B13  1  0.000000  0.870286  0.681687  1
  B  B14  1  0.000000  0.370319  0.818409  1
  B  B15  1  0.000000  0.630155  0.181348  1
  B  B16  1  0.000000  0.054382  0.066031  1
  B  B17  1  0.000000  0.944830  0.934434  1
  B  B18  1  0.000000  0.445145  0.566038  1
  B  B19  1  0.000000  0.554913  0.433870  1
  B  B20  1  0.000000  0.482116  0.284784  1
  B  B21  1  0.000000  0.518061  0.715181  1
  B  B22  1  0.000000  0.017941  0.784904  1
  B  B23  1  0.000000  0.981554  0.214835  1
  B  B24  1  0.000000  0.254020  0.080638  1
  B  B25  1  0.000000  0.746098  0.919932  1
  B  B26  1  0.000000  0.245910  0.580594  1
  B  B27  1  0.000000  0.754090  0.419276  1
  B  B28  1  0.000000  0.295581  0.235185  1
  B  B29  1  0.000000  0.704417  0.764890  1
  B  B30  1  0.000000  0.204326  0.735289  1
  B  B31  1  0.000000  0.795765  0.264252  1
  Ir  Ir32  1  0.500000  0.141023  0.181555  1
  Ir  Ir33  1  0.500000  0.858440  0.818698  1
  Ir  Ir34  1  0.500000  0.358413  0.681800  1
  Ir  Ir35  1  0.500000  0.641904  0.317907  1
