# generated using pymatgen
data_HfZr(BePt)2
_symmetry_space_group_name_H-M   'P 1'
_cell_length_a   3.77504600
_cell_length_b   6.34572500
_cell_length_c   7.43574300
_cell_angle_alpha   90.00000000
_cell_angle_beta   90.00000000
_cell_angle_gamma   90.00000000
_symmetry_Int_Tables_number   1
_chemical_formula_structural   HfZr(BePt)2
_chemical_formula_sum   'Hf2 Zr2 Be4 Pt4'
_cell_volume   178.12622596
_cell_formula_units_Z   2
loop_
 _symmetry_equiv_pos_site_id
 _symmetry_equiv_pos_as_xyz
  1  'x, y, z'
loop_
 _atom_site_type_symbol
 _atom_site_label
 _atom_site_symmetry_multiplicity
 _atom_site_fract_x
 _atom_site_fract_y
 _atom_site_fract_z
 _atom_site_occupancy
  Hf  Hf0  1  0.250000  0.022601  0.312082  1
  Hf  Hf1  1  0.250000  0.522601  0.187918  1
  Zr  Zr2  1  0.750000  0.977026  0.686102  1
  Zr  Zr3  1  0.750000  0.477026  0.813898  1
  Be  Be4  1  0.250000  0.287810  0.613699  1
  Be  Be5  1  0.250000  0.787810  0.886301  1
  Be  Be6  1  0.750000  0.712351  0.383056  1
  Be  Be7  1  0.750000  0.212351  0.116944  1
  Pt  Pt8  1  0.250000  0.164032  0.934448  1
  Pt  Pt9  1  0.250000  0.664032  0.565552  1
  Pt  Pt10  1  0.750000  0.836182  0.072157  1
  Pt  Pt11  1  0.750000  0.336182  0.427843  1
