# generated using pymatgen
data_Nd5ErAl24(Ir3Ru)2
_symmetry_space_group_name_H-M   'P 1'
_cell_length_a   8.86522200
_cell_length_b   8.90294072
_cell_length_c   9.61891900
_cell_angle_alpha   90.00000000
_cell_angle_beta   90.00000000
_cell_angle_gamma   119.85995858
_symmetry_Int_Tables_number   1
_chemical_formula_structural   Nd5ErAl24(Ir3Ru)2
_chemical_formula_sum   'Nd5 Er1 Al24 Ir6 Ru2'
_cell_volume   658.40197209
_cell_formula_units_Z   1
loop_
 _symmetry_equiv_pos_site_id
 _symmetry_equiv_pos_as_xyz
  1  'x, y, z'
loop_
 _atom_site_type_symbol
 _atom_site_label
 _atom_site_symmetry_multiplicity
 _atom_site_fract_x
 _atom_site_fract_y
 _atom_site_fract_z
 _atom_site_occupancy
  Nd  Nd0  1  0.808956  0.617914  0.750000  1
  Nd  Nd1  1  0.619506  0.809671  0.250000  1
  Nd  Nd2  1  0.380559  0.189704  0.750000  1
  Nd  Nd3  1  0.190166  0.809671  0.250000  1
  Nd  Nd4  1  0.809145  0.189704  0.750000  1
  Er  Er5  1  0.195036  0.390070  0.250000  1
  Al  Al6  1  0.333116  0.666233  0.026408  1
  Al  Al7  1  0.666074  0.332146  0.977135  1
  Al  Al8  1  0.666074  0.332146  0.522865  1
  Al  Al9  1  0.333116  0.666233  0.473592  1
  Al  Al10  1  0.163339  0.326678  0.572325  1
  Al  Al11  1  0.836283  0.672566  0.424052  1
  Al  Al12  1  0.672330  0.835630  0.575556  1
  Al  Al13  1  0.836283  0.672566  0.075948  1
  Al  Al14  1  0.325828  0.164901  0.422155  1
  Al  Al15  1  0.163339  0.326678  0.927675  1
  Al  Al16  1  0.163301  0.835630  0.575556  1
  Al  Al17  1  0.325828  0.164901  0.077845  1
  Al  Al18  1  0.839073  0.164901  0.422155  1
  Al  Al19  1  0.672330  0.835630  0.924444  1
  Al  Al20  1  0.839073  0.164901  0.077845  1
  Al  Al21  1  0.163301  0.835630  0.924444  1
  Al  Al22  1  0.563495  0.126990  0.250000  1
  Al  Al23  1  0.436186  0.872373  0.750000  1
  Al  Al24  1  0.875049  0.436677  0.250000  1
  Al  Al25  1  0.126513  0.561878  0.750000  1
  Al  Al26  1  0.561628  0.436677  0.250000  1
  Al  Al27  1  0.435366  0.561878  0.750000  1
  Al  Al28  1  0.004149  0.008299  0.250000  1
  Al  Al29  1  0.999477  0.998954  0.750000  1
  Ir  Ir30  1  0.499602  0.999204  0.000615  1
  Ir  Ir31  1  0.000857  0.498743  0.001658  1
  Ir  Ir32  1  0.499602  0.999204  0.499385  1
  Ir  Ir33  1  0.497886  0.498743  0.001658  1
  Ir  Ir34  1  0.000857  0.498743  0.498342  1
  Ir  Ir35  1  0.497886  0.498743  0.498342  1
  Ru  Ru36  1  0.999696  0.999392  0.000364  1
  Ru  Ru37  1  0.999696  0.999392  0.499636  1
