# generated using pymatgen
data_MnNb3Ga3Ir2
_symmetry_space_group_name_H-M   'P 1'
_cell_length_a   7.45000300
_cell_length_b   7.45000201
_cell_length_c   2.89576700
_cell_angle_alpha   90.00000000
_cell_angle_beta   90.00000000
_cell_angle_gamma   119.99999996
_symmetry_Int_Tables_number   1
_chemical_formula_structural   MnNb3Ga3Ir2
_chemical_formula_sum   'Mn1 Nb3 Ga3 Ir2'
_cell_volume   139.18969524
_cell_formula_units_Z   1
loop_
 _symmetry_equiv_pos_site_id
 _symmetry_equiv_pos_as_xyz
  1  'x, y, z'
loop_
 _atom_site_type_symbol
 _atom_site_label
 _atom_site_symmetry_multiplicity
 _atom_site_fract_x
 _atom_site_fract_y
 _atom_site_fract_z
 _atom_site_occupancy
  Mn  Mn0  1  0.000000  0.000000  0.500001  1
  Nb  Nb1  1  0.359881  0.000000  0.500001  1
  Nb  Nb2  1  0.000000  0.359881  0.500001  1
  Nb  Nb3  1  0.640119  0.640119  0.500001  1
  Ga  Ga4  1  0.706684  0.000000  0.000000  1
  Ga  Ga5  1  0.293315  0.293316  0.000000  1
  Ga  Ga6  1  0.000000  0.706685  0.000000  1
  Ir  Ir7  1  0.666667  0.333334  0.000000  1
  Ir  Ir8  1  0.333334  0.666667  0.000000  1
