# generated using pymatgen
data_Be2InCl5
_symmetry_space_group_name_H-M   'P 1'
_cell_length_a   10.54156158
_cell_length_b   10.54156178
_cell_length_c   10.54156200
_cell_angle_alpha   59.99999931
_cell_angle_beta   59.99999867
_cell_angle_gamma   59.99999794
_symmetry_Int_Tables_number   1
_chemical_formula_structural   Be2InCl5
_chemical_formula_sum   'Be8 In4 Cl20'
_cell_volume   828.32327450
_cell_formula_units_Z   4
loop_
 _symmetry_equiv_pos_site_id
 _symmetry_equiv_pos_as_xyz
  1  'x, y, z'
loop_
 _atom_site_type_symbol
 _atom_site_label
 _atom_site_symmetry_multiplicity
 _atom_site_fract_x
 _atom_site_fract_y
 _atom_site_fract_z
 _atom_site_occupancy
  Be  Be0  1  0.010812  0.329729  0.329729  1
  Be  Be1  1  0.329729  0.010812  0.329729  1
  Be  Be2  1  0.329729  0.329729  0.010812  1
  Be  Be3  1  0.329729  0.329729  0.329729  1
  Be  Be4  1  0.239188  0.920271  0.920271  1
  Be  Be5  1  0.920271  0.239188  0.920271  1
  Be  Be6  1  0.920271  0.920271  0.239188  1
  Be  Be7  1  0.920271  0.920271  0.920271  1
  In  In8  1  0.125000  0.625000  0.625000  1
  In  In9  1  0.625000  0.125000  0.625000  1
  In  In10  1  0.625000  0.625000  0.125000  1
  In  In11  1  0.625000  0.625000  0.625000  1
  Cl  Cl12  1  0.090888  0.090888  0.409112  1
  Cl  Cl13  1  0.409112  0.409112  0.090888  1
  Cl  Cl14  1  0.090888  0.409112  0.090888  1
  Cl  Cl15  1  0.409112  0.090888  0.409112  1
  Cl  Cl16  1  0.409112  0.090888  0.090888  1
  Cl  Cl17  1  0.090888  0.409112  0.409112  1
  Cl  Cl18  1  0.159112  0.159112  0.840888  1
  Cl  Cl19  1  0.840888  0.840888  0.159112  1
  Cl  Cl20  1  0.159112  0.840888  0.159112  1
  Cl  Cl21  1  0.840888  0.159112  0.840888  1
  Cl  Cl22  1  0.840888  0.159112  0.159112  1
  Cl  Cl23  1  0.159112  0.840888  0.840888  1
  Cl  Cl24  1  0.779291  0.406903  0.406903  1
  Cl  Cl25  1  0.406903  0.779291  0.406903  1
  Cl  Cl26  1  0.406903  0.406903  0.779291  1
  Cl  Cl27  1  0.406903  0.406903  0.406903  1
  Cl  Cl28  1  0.470709  0.843097  0.843097  1
  Cl  Cl29  1  0.843097  0.470709  0.843097  1
  Cl  Cl30  1  0.843097  0.843097  0.470709  1
  Cl  Cl31  1  0.843097  0.843097  0.843097  1
