# generated using pymatgen
data_V3RuBr12
_symmetry_space_group_name_H-M   'P 1'
_cell_length_a   6.13807018
_cell_length_b   7.10812549
_cell_length_c   12.29559500
_cell_angle_alpha   90.00000000
_cell_angle_beta   90.00000000
_cell_angle_gamma   89.96480992
_symmetry_Int_Tables_number   1
_chemical_formula_structural   V3RuBr12
_chemical_formula_sum   'V3 Ru1 Br12'
_cell_volume   536.45883726
_cell_formula_units_Z   1
loop_
 _symmetry_equiv_pos_site_id
 _symmetry_equiv_pos_as_xyz
  1  'x, y, z'
loop_
 _atom_site_type_symbol
 _atom_site_label
 _atom_site_symmetry_multiplicity
 _atom_site_fract_x
 _atom_site_fract_y
 _atom_site_fract_z
 _atom_site_occupancy
  V  V0  1  0.742674  0.254038  0.500000  1
  V  V1  1  0.232001  0.745991  0.000000  1
  V  V2  1  0.257262  0.253991  0.500000  1
  Ru  Ru3  1  0.762279  0.745966  0.000000  1
  Br  Br4  1  0.000625  0.972817  0.500000  1
  Br  Br5  1  0.501719  0.022525  0.000000  1
  Br  Br6  1  0.499407  0.540257  0.500000  1
  Br  Br7  1  0.000227  0.458568  0.000000  1
  Br  Br8  1  0.999977  0.394982  0.359612  1
  Br  Br9  1  0.502154  0.607371  0.137955  1
  Br  Br10  1  0.999977  0.394982  0.640388  1
  Br  Br11  1  0.502154  0.607371  0.862045  1
  Br  Br12  1  0.999749  0.889793  0.143620  1
  Br  Br13  1  0.500023  0.110778  0.356856  1
  Br  Br14  1  0.999749  0.889793  0.856380  1
  Br  Br15  1  0.500023  0.110778  0.643144  1
