# generated using pymatgen
data_La10Zn4PdRu5
_symmetry_space_group_name_H-M   'P 1'
_cell_length_a   8.58984110
_cell_length_b   8.67206428
_cell_length_c   8.67183836
_cell_angle_alpha   109.92538197
_cell_angle_beta   109.65048169
_cell_angle_gamma   109.22078137
_symmetry_Int_Tables_number   1
_chemical_formula_structural   La10Zn4PdRu5
_chemical_formula_sum   'La10 Zn4 Pd1 Ru5'
_cell_volume   494.89675144
_cell_formula_units_Z   1
loop_
 _symmetry_equiv_pos_site_id
 _symmetry_equiv_pos_as_xyz
  1  'x, y, z'
loop_
 _atom_site_type_symbol
 _atom_site_label
 _atom_site_symmetry_multiplicity
 _atom_site_fract_x
 _atom_site_fract_y
 _atom_site_fract_z
 _atom_site_occupancy
  La  La0  1  0.249992  0.688767  0.438769  1
  La  La1  1  0.750006  0.808664  0.058671  1
  La  La2  1  0.448039  0.254881  0.683382  1
  La  La3  1  0.694818  0.442856  0.253270  1
  La  La4  1  0.051963  0.735349  0.806854  1
  La  La5  1  0.805185  0.058436  0.748016  1
  La  La6  1  0.214923  0.220141  0.227092  1
  La  La7  1  0.500327  0.001042  0.281625  1
  La  La8  1  0.285048  0.512125  0.005188  1
  La  La9  1  0.999685  0.281290  0.500719  1
  Zn  Zn10  1  0.502564  0.996839  0.913015  1
  Zn  Zn11  1  0.586277  0.587479  0.585589  1
  Zn  Zn12  1  0.913725  0.499314  0.001201  1
  Zn  Zn13  1  0.997440  0.910455  0.494281  1
  Pd  Pd14  1  0.249999  0.123309  0.873309  1
  Ru  Ru15  1  0.749996  0.373734  0.623734  1
  Ru  Ru16  1  0.876609  0.251513  0.126257  1
  Ru  Ru17  1  0.129001  0.881710  0.251445  1
  Ru  Ru18  1  0.623393  0.749662  0.374905  1
  Ru  Ru19  1  0.371013  0.622435  0.752680  1
