# generated using pymatgen
data_Tb3Dy2LuNiTe2
_symmetry_space_group_name_H-M   'P 1'
_cell_length_a   8.35803763
_cell_length_b   8.40989647
_cell_length_c   3.92478100
_cell_angle_alpha   90.00000000
_cell_angle_beta   90.00000000
_cell_angle_gamma   120.20547012
_symmetry_Int_Tables_number   1
_chemical_formula_structural   Tb3Dy2LuNiTe2
_chemical_formula_sum   'Tb3 Dy2 Lu1 Ni1 Te2'
_cell_volume   238.41749289
_cell_formula_units_Z   1
loop_
 _symmetry_equiv_pos_site_id
 _symmetry_equiv_pos_as_xyz
  1  'x, y, z'
loop_
 _atom_site_type_symbol
 _atom_site_label
 _atom_site_symmetry_multiplicity
 _atom_site_fract_x
 _atom_site_fract_y
 _atom_site_fract_z
 _atom_site_occupancy
  Tb  Tb0  1  0.598527  0.000074  0.500000  1
  Tb  Tb1  1  0.401473  0.401548  0.500000  1
  Tb  Tb2  1  0.000000  0.593866  0.500000  1
  Dy  Dy3  1  0.764660  0.763715  0.000000  1
  Dy  Dy4  1  0.235340  0.999055  0.000000  1
  Lu  Lu5  1  0.000000  0.234798  0.000000  1
  Ni  Ni6  1  0.000000  0.009131  0.500000  1
  Te  Te7  1  0.332101  0.664956  0.000000  1
  Te  Te8  1  0.667899  0.332855  0.000000  1
