# generated using pymatgen
data_SrAgSb12Os2Ru
_symmetry_space_group_name_H-M   'P 1'
_cell_length_a   8.25723137
_cell_length_b   8.25038281
_cell_length_c   8.25252137
_cell_angle_alpha   109.45189137
_cell_angle_beta   109.49620645
_cell_angle_gamma   109.63969305
_symmetry_Int_Tables_number   1
_chemical_formula_structural   SrAgSb12Os2Ru
_chemical_formula_sum   'Sr1 Ag1 Sb12 Os2 Ru1'
_cell_volume   431.85261189
_cell_formula_units_Z   1
loop_
 _symmetry_equiv_pos_site_id
 _symmetry_equiv_pos_as_xyz
  1  'x, y, z'
loop_
 _atom_site_type_symbol
 _atom_site_label
 _atom_site_symmetry_multiplicity
 _atom_site_fract_x
 _atom_site_fract_y
 _atom_site_fract_z
 _atom_site_occupancy
  Sr  Sr0  1  0.000000  0.000000  0.000000  1
  Ag  Ag1  1  0.500000  0.500000  0.500000  1
  Sb  Sb2  1  0.142708  0.500277  0.338229  1
  Sb  Sb3  1  0.500053  0.662022  0.857493  1
  Sb  Sb4  1  0.337683  0.841399  0.179816  1
  Sb  Sb5  1  0.821622  0.663117  0.159841  1
  Sb  Sb6  1  0.662816  0.857724  0.499613  1
  Sb  Sb7  1  0.178378  0.336883  0.840159  1
  Sb  Sb8  1  0.662317  0.158601  0.820184  1
  Sb  Sb9  1  0.337184  0.142276  0.500387  1
  Sb  Sb10  1  0.499947  0.337978  0.142507  1
  Sb  Sb11  1  0.857292  0.499723  0.661771  1
  Sb  Sb12  1  0.840853  0.178486  0.337733  1
  Sb  Sb13  1  0.159147  0.821514  0.662267  1
  Os  Os14  1  0.500000  0.000000  0.000000  1
  Os  Os15  1  0.000000  0.500000  0.000000  1
  Ru  Ru16  1  0.000000  0.000000  0.500000  1
