# generated using pymatgen
data_Tb5YAl24TcRu4Pt3
_symmetry_space_group_name_H-M   'P 1'
_cell_length_a   8.86170108
_cell_length_b   8.84136934
_cell_length_c   9.52957700
_cell_angle_alpha   90.24117599
_cell_angle_beta   90.04776750
_cell_angle_gamma   119.81867982
_symmetry_Int_Tables_number   1
_chemical_formula_structural   Tb5YAl24TcRu4Pt3
_chemical_formula_sum   'Tb5 Y1 Al24 Tc1 Ru4 Pt3'
_cell_volume   647.77647312
_cell_formula_units_Z   1
loop_
 _symmetry_equiv_pos_site_id
 _symmetry_equiv_pos_as_xyz
  1  'x, y, z'
loop_
 _atom_site_type_symbol
 _atom_site_label
 _atom_site_symmetry_multiplicity
 _atom_site_fract_x
 _atom_site_fract_y
 _atom_site_fract_z
 _atom_site_occupancy
  Tb  Tb0  1  0.808783  0.192720  0.249813  1
  Tb  Tb1  1  0.811433  0.614819  0.248661  1
  Tb  Tb2  1  0.616564  0.810468  0.749958  1
  Tb  Tb3  1  0.191155  0.807306  0.750154  1
  Tb  Tb4  1  0.188496  0.385137  0.751303  1
  Y  Y5  1  0.383599  0.189527  0.250106  1
  Al  Al6  1  0.437518  0.874066  0.246876  1
  Al  Al7  1  0.123334  0.560185  0.250543  1
  Al  Al8  1  0.435041  0.563432  0.250694  1
  Al  Al9  1  0.562463  0.126092  0.753150  1
  Al  Al10  1  0.876719  0.439837  0.749476  1
  Al  Al11  1  0.564934  0.436342  0.749232  1
  Al  Al12  1  0.158286  0.831990  0.421714  1
  Al  Al13  1  0.157902  0.323925  0.422753  1
  Al  Al14  1  0.677013  0.837023  0.421944  1
  Al  Al15  1  0.841754  0.168089  0.578240  1
  Al  Al16  1  0.842125  0.676087  0.577219  1
  Al  Al17  1  0.322998  0.162935  0.577973  1
  Al  Al18  1  0.835023  0.164069  0.922661  1
  Al  Al19  1  0.840458  0.673353  0.923756  1
  Al  Al20  1  0.325768  0.159005  0.924715  1
  Al  Al21  1  0.165091  0.836089  0.077386  1
  Al  Al22  1  0.159653  0.326710  0.076225  1
  Al  Al23  1  0.674306  0.841028  0.075397  1
  Al  Al24  1  0.327225  0.664614  0.527691  1
  Al  Al25  1  0.672635  0.335273  0.472080  1
  Al  Al26  1  0.669646  0.329404  0.027965  1
  Al  Al27  1  0.330126  0.670445  0.972241  1
  Al  Al28  1  0.002838  0.998659  0.249008  1
  Al  Al29  1  0.996901  0.001276  0.751048  1
  Tc  Tc30  1  0.000125  0.000078  0.499963  1
  Ru  Ru31  1  0.000191  0.000121  0.000110  1
  Ru  Ru32  1  0.999910  0.499992  0.499962  1
  Ru  Ru33  1  0.500001  0.999983  0.000011  1
  Ru  Ru34  1  0.999875  0.499979  0.000056  1
  Pt  Pt35  1  0.500054  0.999994  0.500031  1
  Pt  Pt36  1  0.499981  0.499899  0.499926  1
  Pt  Pt37  1  0.500077  0.500052  0.999962  1
