# generated using pymatgen
data_Nd11Cd9Ni4
_symmetry_space_group_name_H-M   'P 1'
_cell_length_a   13.38642951
_cell_length_b   13.38642996
_cell_length_c   3.70249900
_cell_angle_alpha   90.00000000
_cell_angle_beta   90.00000000
_cell_angle_gamma   112.18198515
_symmetry_Int_Tables_number   1
_chemical_formula_structural   Nd11Cd9Ni4
_chemical_formula_sum   'Nd11 Cd9 Ni4'
_cell_volume   614.37065270
_cell_formula_units_Z   1
loop_
 _symmetry_equiv_pos_site_id
 _symmetry_equiv_pos_as_xyz
  1  'x, y, z'
loop_
 _atom_site_type_symbol
 _atom_site_label
 _atom_site_symmetry_multiplicity
 _atom_site_fract_x
 _atom_site_fract_y
 _atom_site_fract_z
 _atom_site_occupancy
  Nd  Nd0  1  0.080447  0.418632  0.000000  1
  Nd  Nd1  1  0.919553  0.581368  0.000000  1
  Nd  Nd2  1  0.418632  0.080447  0.000000  1
  Nd  Nd3  1  0.581368  0.919553  0.000000  1
  Nd  Nd4  1  0.625112  0.374888  0.000000  1
  Nd  Nd5  1  0.374888  0.625112  0.000000  1
  Nd  Nd6  1  0.837439  0.162561  0.000000  1
  Nd  Nd7  1  0.162561  0.837439  0.000000  1
  Nd  Nd8  1  0.000000  0.000000  0.000000  1
  Nd  Nd9  1  0.311550  0.311550  0.000000  1
  Nd  Nd10  1  0.688450  0.688450  0.000000  1
  Cd  Cd11  1  0.835963  0.365432  0.500000  1
  Cd  Cd12  1  0.164037  0.634568  0.500000  1
  Cd  Cd13  1  0.365432  0.835963  0.500000  1
  Cd  Cd14  1  0.634568  0.164037  0.500000  1
  Cd  Cd15  1  0.077153  0.217259  0.500000  1
  Cd  Cd16  1  0.922847  0.782741  0.500000  1
  Cd  Cd17  1  0.217259  0.077153  0.500000  1
  Cd  Cd18  1  0.782741  0.922847  0.500000  1
  Cd  Cd19  1  0.500000  0.500000  0.500000  1
  Ni  Ni20  1  0.249187  0.451378  0.500000  1
  Ni  Ni21  1  0.750813  0.548622  0.500000  1
  Ni  Ni22  1  0.451378  0.249187  0.500000  1
  Ni  Ni23  1  0.548622  0.750813  0.500000  1
