# generated using pymatgen
data_Sm3Dy(MoO4)6
_symmetry_space_group_name_H-M   'P 1'
_cell_length_a   7.54299053
_cell_length_b   7.54299053
_cell_length_c   10.82441782
_cell_angle_alpha   89.91611741
_cell_angle_beta   90.08388259
_cell_angle_gamma   89.87468319
_symmetry_Int_Tables_number   1
_chemical_formula_structural   Sm3Dy(MoO4)6
_chemical_formula_sum   'Sm3 Dy1 Mo6 O24'
_cell_volume   615.87092394
_cell_formula_units_Z   1
loop_
 _symmetry_equiv_pos_site_id
 _symmetry_equiv_pos_as_xyz
  1  'x, y, z'
loop_
 _atom_site_type_symbol
 _atom_site_label
 _atom_site_symmetry_multiplicity
 _atom_site_fract_x
 _atom_site_fract_y
 _atom_site_fract_z
 _atom_site_occupancy
  Sm  Sm0  1  0.188273  0.688056  0.738452  1
  Sm  Sm1  1  0.811944  0.311727  0.738452  1
  Sm  Sm2  1  0.686101  0.813899  0.261284  1
  Dy  Dy3  1  0.310627  0.189373  0.263174  1
  Mo  Mo4  1  0.208261  0.706935  0.354669  1
  Mo  Mo5  1  0.793065  0.291739  0.354669  1
  Mo  Mo6  1  0.707686  0.792314  0.644184  1
  Mo  Mo7  1  0.292154  0.207846  0.640875  1
  Mo  Mo8  1  0.002824  0.002107  0.002312  1
  Mo  Mo9  1  0.497893  0.497176  0.002312  1
  O  O10  1  0.004414  0.223998  0.296907  1
  O  O11  1  0.996972  0.771269  0.296115  1
  O  O12  1  0.225916  0.997796  0.700385  1
  O  O13  1  0.497733  0.725563  0.703442  1
  O  O14  1  0.774437  0.002267  0.703442  1
  O  O15  1  0.502204  0.274084  0.700385  1
  O  O16  1  0.276002  0.495586  0.296907  1
  O  O17  1  0.728731  0.503028  0.296115  1
  O  O18  1  0.189093  0.047710  0.100287  1
  O  O19  1  0.812391  0.958593  0.096157  1
  O  O20  1  0.047840  0.813666  0.906556  1
  O  O21  1  0.310397  0.540707  0.905078  1
  O  O22  1  0.959293  0.189603  0.905078  1
  O  O23  1  0.686334  0.452160  0.906556  1
  O  O24  1  0.452290  0.310907  0.100287  1
  O  O25  1  0.541407  0.687609  0.096157  1
  O  O26  1  0.624066  0.129878  0.308113  1
  O  O27  1  0.370122  0.875934  0.308113  1
  O  O28  1  0.127092  0.372908  0.688276  1
  O  O29  1  0.873386  0.626614  0.690916  1
  O  O30  1  0.197340  0.695825  0.518893  1
  O  O31  1  0.804175  0.302660  0.518893  1
  O  O32  1  0.695534  0.804466  0.480067  1
  O  O33  1  0.304003  0.195997  0.476493  1
