# generated using pymatgen
data_Th4Zr5TaSi8
_symmetry_space_group_name_H-M   'P 1'
_cell_length_a   7.40199806
_cell_length_b   7.40199806
_cell_length_c   13.65829200
_cell_angle_alpha   90.00000000
_cell_angle_beta   90.00000000
_cell_angle_gamma   89.85334688
_symmetry_Int_Tables_number   1
_chemical_formula_structural   Th4Zr5TaSi8
_chemical_formula_sum   'Th8 Zr10 Ta2 Si16'
_cell_volume   748.32956675
_cell_formula_units_Z   2
loop_
 _symmetry_equiv_pos_site_id
 _symmetry_equiv_pos_as_xyz
  1  'x, y, z'
loop_
 _atom_site_type_symbol
 _atom_site_label
 _atom_site_symmetry_multiplicity
 _atom_site_fract_x
 _atom_site_fract_y
 _atom_site_fract_z
 _atom_site_occupancy
  Th  Th0  1  0.998239  0.343224  0.215904  1
  Th  Th1  1  0.001761  0.656776  0.715904  1
  Th  Th2  1  0.157753  0.498224  0.466133  1
  Th  Th3  1  0.501776  0.842247  0.033867  1
  Th  Th4  1  0.842247  0.501776  0.966133  1
  Th  Th5  1  0.498224  0.157753  0.533867  1
  Th  Th6  1  0.343224  0.998239  0.784096  1
  Th  Th7  1  0.656776  0.001761  0.284096  1
  Zr  Zr8  1  0.173394  0.173394  0.000000  1
  Zr  Zr9  1  0.826606  0.826606  0.500000  1
  Zr  Zr10  1  0.154464  0.995762  0.374154  1
  Zr  Zr11  1  0.845536  0.004238  0.874154  1
  Zr  Zr12  1  0.505013  0.652001  0.626234  1
  Zr  Zr13  1  0.347999  0.494987  0.873766  1
  Zr  Zr14  1  0.494987  0.347999  0.126234  1
  Zr  Zr15  1  0.652001  0.505013  0.373766  1
  Zr  Zr16  1  0.995762  0.154464  0.625846  1
  Zr  Zr17  1  0.004238  0.845536  0.125846  1
  Ta  Ta18  1  0.326736  0.673264  0.250000  1
  Ta  Ta19  1  0.673264  0.326736  0.750000  1
  Si  Si20  1  0.293378  0.041533  0.186365  1
  Si  Si21  1  0.706622  0.958467  0.686365  1
  Si  Si22  1  0.450952  0.791681  0.433762  1
  Si  Si23  1  0.208319  0.549048  0.066238  1
  Si  Si24  1  0.549048  0.208319  0.933762  1
  Si  Si25  1  0.791681  0.450952  0.566238  1
  Si  Si26  1  0.041533  0.293378  0.813635  1
  Si  Si27  1  0.958467  0.706622  0.313635  1
  Si  Si28  1  0.365405  0.300640  0.316074  1
  Si  Si29  1  0.634595  0.699360  0.816074  1
  Si  Si30  1  0.204298  0.866114  0.565278  1
  Si  Si31  1  0.133886  0.795702  0.934722  1
  Si  Si32  1  0.795702  0.133886  0.065278  1
  Si  Si33  1  0.866114  0.204298  0.434722  1
  Si  Si34  1  0.300640  0.365405  0.683926  1
  Si  Si35  1  0.699360  0.634595  0.183926  1
