# generated using pymatgen
data_CeY2Th(Ni2Hg)2
_symmetry_space_group_name_H-M   'P 1'
_cell_length_a   7.46494755
_cell_length_b   7.53133918
_cell_length_c   3.65560700
_cell_angle_alpha   90.00000000
_cell_angle_beta   90.00000000
_cell_angle_gamma   89.94277402
_symmetry_Int_Tables_number   1
_chemical_formula_structural   CeY2Th(Ni2Hg)2
_chemical_formula_sum   'Ce1 Y2 Th1 Ni4 Hg2'
_cell_volume   205.52196865
_cell_formula_units_Z   1
loop_
 _symmetry_equiv_pos_site_id
 _symmetry_equiv_pos_as_xyz
  1  'x, y, z'
loop_
 _atom_site_type_symbol
 _atom_site_label
 _atom_site_symmetry_multiplicity
 _atom_site_fract_x
 _atom_site_fract_y
 _atom_site_fract_z
 _atom_site_occupancy
  Ce  Ce0  1  0.671747  0.676506  0.500000  1
  Y  Y1  1  0.325085  0.325553  0.500000  1
  Y  Y2  1  0.174989  0.824446  0.500000  1
  Th  Th3  1  0.827809  0.176367  0.500000  1
  Ni  Ni4  1  0.108546  0.116402  0.000000  1
  Ni  Ni5  1  0.865508  0.875888  0.000000  1
  Ni  Ni6  1  0.631644  0.379323  0.000000  1
  Ni  Ni7  1  0.395920  0.618997  0.000000  1
  Hg  Hg8  1  0.488870  0.999650  0.000000  1
  Hg  Hg9  1  0.009881  0.506867  0.000000  1
