# generated using pymatgen
data_La6Nd2LuPt6
_symmetry_space_group_name_H-M   'P 1'
_cell_length_a   7.76940856
_cell_length_b   7.76940822
_cell_length_c   7.76940871
_cell_angle_alpha   71.87721571
_cell_angle_beta   71.87721363
_cell_angle_gamma   71.87721620
_symmetry_Int_Tables_number   1
_chemical_formula_structural   La6Nd2LuPt6
_chemical_formula_sum   'La6 Nd2 Lu1 Pt6'
_cell_volume   411.51795736
_cell_formula_units_Z   1
loop_
 _symmetry_equiv_pos_site_id
 _symmetry_equiv_pos_as_xyz
  1  'x, y, z'
loop_
 _atom_site_type_symbol
 _atom_site_label
 _atom_site_symmetry_multiplicity
 _atom_site_fract_x
 _atom_site_fract_y
 _atom_site_fract_z
 _atom_site_occupancy
  La  La0  1  0.325235  0.611002  0.838829  1
  La  La1  1  0.838829  0.325235  0.611002  1
  La  La2  1  0.611002  0.838829  0.325235  1
  La  La3  1  0.674765  0.388998  0.161171  1
  La  La4  1  0.161171  0.674765  0.388998  1
  La  La5  1  0.388998  0.161171  0.674765  1
  Nd  Nd6  1  0.801984  0.801984  0.801984  1
  Nd  Nd7  1  0.198016  0.198016  0.198016  1
  Lu  Lu8  1  0.000000  0.000000  0.000000  1
  Pt  Pt9  1  0.158696  0.961431  0.599063  1
  Pt  Pt10  1  0.599063  0.158696  0.961431  1
  Pt  Pt11  1  0.961431  0.599063  0.158696  1
  Pt  Pt12  1  0.841304  0.038569  0.400937  1
  Pt  Pt13  1  0.400937  0.841304  0.038569  1
  Pt  Pt14  1  0.038569  0.400937  0.841304  1
