# generated using pymatgen
data_Dy4AlZn5Pt8
_symmetry_space_group_name_H-M   'P 1'
_cell_length_a   8.05522847
_cell_length_b   8.05522927
_cell_length_c   7.66456286
_cell_angle_alpha   90.28802838
_cell_angle_beta   89.71197329
_cell_angle_gamma   139.30683406
_symmetry_Int_Tables_number   1
_chemical_formula_structural   Dy4AlZn5Pt8
_chemical_formula_sum   'Dy4 Al1 Zn5 Pt8'
_cell_volume   324.25734498
_cell_formula_units_Z   1
loop_
 _symmetry_equiv_pos_site_id
 _symmetry_equiv_pos_as_xyz
  1  'x, y, z'
loop_
 _atom_site_type_symbol
 _atom_site_label
 _atom_site_symmetry_multiplicity
 _atom_site_fract_x
 _atom_site_fract_y
 _atom_site_fract_z
 _atom_site_occupancy
  Dy  Dy0  1  0.611309  0.388691  0.908491  1
  Dy  Dy1  1  0.388691  0.611309  0.091509  1
  Dy  Dy2  1  0.888969  0.111031  0.411072  1
  Dy  Dy3  1  0.111031  0.888969  0.588928  1
  Al  Al4  1  0.000000  0.000000  0.000000  1
  Zn  Zn5  1  0.500000  0.500000  0.500000  1
  Zn  Zn6  1  0.522277  0.977452  0.750321  1
  Zn  Zn7  1  0.977452  0.522277  0.249679  1
  Zn  Zn8  1  0.477723  0.022548  0.249679  1
  Zn  Zn9  1  0.022548  0.477723  0.750321  1
  Pt  Pt10  1  0.693403  0.804577  0.754913  1
  Pt  Pt11  1  0.804577  0.693403  0.245087  1
  Pt  Pt12  1  0.306597  0.195423  0.245087  1
  Pt  Pt13  1  0.195423  0.306597  0.754913  1
  Pt  Pt14  1  0.678465  0.321535  0.526282  1
  Pt  Pt15  1  0.321535  0.678465  0.473718  1
  Pt  Pt16  1  0.824757  0.175243  0.027185  1
  Pt  Pt17  1  0.175243  0.824757  0.972815  1
