# generated using pymatgen
data_Tb10In8AgRh3
_symmetry_space_group_name_H-M   'P 1'
_cell_length_a   8.16573112
_cell_length_b   18.43373139
_cell_length_c   3.64977600
_cell_angle_alpha   90.00000000
_cell_angle_beta   90.00000000
_cell_angle_gamma   90.02146631
_symmetry_Int_Tables_number   1
_chemical_formula_structural   Tb10In8AgRh3
_chemical_formula_sum   'Tb10 In8 Ag1 Rh3'
_cell_volume   549.38210697
_cell_formula_units_Z   1
loop_
 _symmetry_equiv_pos_site_id
 _symmetry_equiv_pos_as_xyz
  1  'x, y, z'
loop_
 _atom_site_type_symbol
 _atom_site_label
 _atom_site_symmetry_multiplicity
 _atom_site_fract_x
 _atom_site_fract_y
 _atom_site_fract_z
 _atom_site_occupancy
  Tb  Tb0  1  0.501313  0.501284  0.000000  1
  Tb  Tb1  1  0.001131  0.998172  0.000000  1
  Tb  Tb2  1  0.764785  0.283787  0.000000  1
  Tb  Tb3  1  0.254108  0.721938  0.000000  1
  Tb  Tb4  1  0.755182  0.778134  0.000000  1
  Tb  Tb5  1  0.220027  0.221691  0.000000  1
  Tb  Tb6  1  0.621797  0.077661  0.000000  1
  Tb  Tb7  1  0.385000  0.910258  0.000000  1
  Tb  Tb8  1  0.882988  0.589401  0.000000  1
  Tb  Tb9  1  0.117147  0.415349  0.000000  1
  In  In10  1  0.708839  0.928909  0.500000  1
  In  In11  1  0.292878  0.067134  0.500000  1
  In  In12  1  0.793276  0.433486  0.500000  1
  In  In13  1  0.207108  0.569291  0.500000  1
  In  In14  1  0.571867  0.650883  0.500000  1
  In  In15  1  0.421342  0.351069  0.500000  1
  In  In16  1  0.920625  0.148679  0.500000  1
  In  In17  1  0.072608  0.849391  0.500000  1
  Ag  Ag18  1  0.523795  0.198382  0.500000  1
  Rh  Rh19  1  0.479673  0.803953  0.500000  1
  Rh  Rh20  1  0.979767  0.695159  0.500000  1
  Rh  Rh21  1  0.024741  0.305989  0.500000  1
