# generated using pymatgen
data_PrNdBi2(Mo2O7)2
_symmetry_space_group_name_H-M   'P 1'
_cell_length_a   7.52089227
_cell_length_b   7.53677635
_cell_length_c   7.60079044
_cell_angle_alpha   120.42371119
_cell_angle_beta   120.13426062
_cell_angle_gamma   89.95305997
_symmetry_Int_Tables_number   1
_chemical_formula_structural   PrNdBi2(Mo2O7)2
_chemical_formula_sum   'Pr1 Nd1 Bi2 Mo4 O14'
_cell_volume   302.18663069
_cell_formula_units_Z   1
loop_
 _symmetry_equiv_pos_site_id
 _symmetry_equiv_pos_as_xyz
  1  'x, y, z'
loop_
 _atom_site_type_symbol
 _atom_site_label
 _atom_site_symmetry_multiplicity
 _atom_site_fract_x
 _atom_site_fract_y
 _atom_site_fract_z
 _atom_site_occupancy
  Pr  Pr0  1  0.375000  0.625000  0.750000  1
  Nd  Nd1  1  0.375000  0.625000  0.250000  1
  Bi  Bi2  1  0.875000  0.625000  0.250000  1
  Bi  Bi3  1  0.375000  0.125000  0.750000  1
  Mo  Mo4  1  0.875000  0.625000  0.750000  1
  Mo  Mo5  1  0.375000  0.125000  0.250000  1
  Mo  Mo6  1  0.875000  0.125000  0.250000  1
  Mo  Mo7  1  0.875000  0.125000  0.750000  1
  O  O8  1  0.784956  0.198081  0.996179  1
  O  O9  1  0.545474  0.462753  0.496385  1
  O  O10  1  0.205321  0.208744  0.999904  1
  O  O11  1  0.957690  0.455993  0.500994  1
  O  O12  1  0.801281  0.794433  0.584199  1
  O  O13  1  0.537396  0.039067  0.086992  1
  O  O14  1  0.250602  0.748731  0.498809  1
  O  O15  1  0.948719  0.455567  0.915801  1
  O  O16  1  0.965044  0.051919  0.503821  1
  O  O17  1  0.544679  0.041256  0.500096  1
  O  O18  1  0.212604  0.210933  0.413008  1
  O  O19  1  0.499398  0.501269  0.001191  1
  O  O20  1  0.792310  0.794007  0.999006  1
  O  O21  1  0.204526  0.787247  0.003615  1
