# generated using pymatgen
data_HoUSe6
_symmetry_space_group_name_H-M   'P 1'
_cell_length_a   12.83735532
_cell_length_b   12.83735621
_cell_length_c   3.98034400
_cell_angle_alpha   90.00000000
_cell_angle_beta   90.00000000
_cell_angle_gamma   162.23508199
_symmetry_Int_Tables_number   1
_chemical_formula_structural   HoUSe6
_chemical_formula_sum   'Ho1 U1 Se6'
_cell_volume   200.13886092
_cell_formula_units_Z   1
loop_
 _symmetry_equiv_pos_site_id
 _symmetry_equiv_pos_as_xyz
  1  'x, y, z'
loop_
 _atom_site_type_symbol
 _atom_site_label
 _atom_site_symmetry_multiplicity
 _atom_site_fract_x
 _atom_site_fract_y
 _atom_site_fract_z
 _atom_site_occupancy
  Ho  Ho0  1  0.171561  0.828439  0.500000  1
  U  U1  1  0.826839  0.173161  0.000000  1
  Se  Se2  1  0.415549  0.584451  0.000000  1
  Se  Se3  1  0.584007  0.415993  0.500000  1
  Se  Se4  1  0.708833  0.291167  0.000000  1
  Se  Se5  1  0.293388  0.706612  0.500000  1
  Se  Se6  1  0.084326  0.915674  0.000000  1
  Se  Se7  1  0.915496  0.084504  0.500000  1
