# generated using pymatgen
data_Li2Nd6Co(Ni5P4)3
_symmetry_space_group_name_H-M   'P 1'
_cell_length_a   3.85943700
_cell_length_b   10.65764800
_cell_length_c   12.47913500
_cell_angle_alpha   90.00000000
_cell_angle_beta   90.00000000
_cell_angle_gamma   90.00000000
_symmetry_Int_Tables_number   1
_chemical_formula_structural   Li2Nd6Co(Ni5P4)3
_chemical_formula_sum   'Li2 Nd6 Co1 Ni15 P12'
_cell_volume   513.29828275
_cell_formula_units_Z   1
loop_
 _symmetry_equiv_pos_site_id
 _symmetry_equiv_pos_as_xyz
  1  'x, y, z'
loop_
 _atom_site_type_symbol
 _atom_site_label
 _atom_site_symmetry_multiplicity
 _atom_site_fract_x
 _atom_site_fract_y
 _atom_site_fract_z
 _atom_site_occupancy
  Li  Li0  1  0.500000  0.500000  0.148503  1
  Li  Li1  1  0.000000  0.000000  0.850666  1
  Nd  Nd2  1  0.000000  0.500000  0.521573  1
  Nd  Nd3  1  0.500000  0.000000  0.479021  1
  Nd  Nd4  1  0.500000  0.815321  0.205024  1
  Nd  Nd5  1  0.500000  0.184679  0.205024  1
  Nd  Nd6  1  0.000000  0.684891  0.795697  1
  Nd  Nd7  1  0.000000  0.315109  0.795697  1
  Co  Co8  1  0.500000  0.000000  0.014784  1
  Ni  Ni9  1  0.500000  0.500000  0.701917  1
  Ni  Ni10  1  0.000000  0.000000  0.297583  1
  Ni  Ni11  1  0.000000  0.500000  0.985633  1
  Ni  Ni12  1  0.500000  0.330487  0.996593  1
  Ni  Ni13  1  0.500000  0.669513  0.996593  1
  Ni  Ni14  1  0.000000  0.166152  0.003051  1
  Ni  Ni15  1  0.000000  0.833848  0.003051  1
  Ni  Ni16  1  0.500000  0.301174  0.427669  1
  Ni  Ni17  1  0.500000  0.698826  0.427669  1
  Ni  Ni18  1  0.000000  0.199011  0.572562  1
  Ni  Ni19  1  0.000000  0.800989  0.572562  1
  Ni  Ni20  1  0.500000  0.882689  0.710424  1
  Ni  Ni21  1  0.500000  0.117311  0.710424  1
  Ni  Ni22  1  0.000000  0.617143  0.289505  1
  Ni  Ni23  1  0.000000  0.382857  0.289505  1
  P  P24  1  0.500000  0.500000  0.882523  1
  P  P25  1  0.000000  0.000000  0.116071  1
  P  P26  1  0.500000  0.500000  0.343728  1
  P  P27  1  0.000000  0.000000  0.656226  1
  P  P28  1  0.500000  0.308299  0.613434  1
  P  P29  1  0.500000  0.691701  0.613434  1
  P  P30  1  0.000000  0.191846  0.386789  1
  P  P31  1  0.000000  0.808154  0.386789  1
  P  P32  1  0.500000  0.847875  0.897662  1
  P  P33  1  0.500000  0.152125  0.897662  1
  P  P34  1  0.000000  0.654592  0.102475  1
  P  P35  1  0.000000  0.345408  0.102475  1
