# generated using pymatgen
data_Y4LuSn3P
_symmetry_space_group_name_H-M   'P 1'
_cell_length_a   9.04933300
_cell_length_b   9.04933289
_cell_length_c   6.67177500
_cell_angle_alpha   90.00000000
_cell_angle_beta   90.00000000
_cell_angle_gamma   119.99998945
_symmetry_Int_Tables_number   1
_chemical_formula_structural   Y4LuSn3P
_chemical_formula_sum   'Y8 Lu2 Sn6 P2'
_cell_volume   473.15692825
_cell_formula_units_Z   2
loop_
 _symmetry_equiv_pos_site_id
 _symmetry_equiv_pos_as_xyz
  1  'x, y, z'
loop_
 _atom_site_type_symbol
 _atom_site_label
 _atom_site_symmetry_multiplicity
 _atom_site_fract_x
 _atom_site_fract_y
 _atom_site_fract_z
 _atom_site_occupancy
  Y  Y0  1  0.666667  0.333333  0.000000  1
  Y  Y1  1  0.333333  0.666667  0.000000  1
  Y  Y2  1  0.758099  0.758099  0.749237  1
  Y  Y3  1  0.241901  0.000000  0.749237  1
  Y  Y4  1  0.000000  0.241901  0.749237  1
  Y  Y5  1  0.241901  0.241901  0.250763  1
  Y  Y6  1  0.758099  0.000000  0.250763  1
  Y  Y7  1  0.000000  0.758099  0.250763  1
  Lu  Lu8  1  0.333333  0.666667  0.500000  1
  Lu  Lu9  1  0.666667  0.333333  0.500000  1
  Sn  Sn10  1  0.400523  0.400523  0.746952  1
  Sn  Sn11  1  0.599477  0.000000  0.746952  1
  Sn  Sn12  1  0.000000  0.599477  0.746952  1
  Sn  Sn13  1  0.599477  0.599477  0.253048  1
  Sn  Sn14  1  0.400523  0.000000  0.253048  1
  Sn  Sn15  1  0.000000  0.400523  0.253048  1
  P  P16  1  0.000000  0.000000  0.000000  1
  P  P17  1  0.000000  0.000000  0.500000  1
