# generated using pymatgen
data_Dy5HoCo2
_symmetry_space_group_name_H-M   'P 1'
_cell_length_a   6.93441030
_cell_length_b   9.49236342
_cell_length_c   6.19871600
_cell_angle_alpha   90.00125047
_cell_angle_beta   89.99853032
_cell_angle_gamma   90.03381095
_symmetry_Int_Tables_number   1
_chemical_formula_structural   Dy5HoCo2
_chemical_formula_sum   'Dy10 Ho2 Co4'
_cell_volume   408.02385528
_cell_formula_units_Z   2
loop_
 _symmetry_equiv_pos_site_id
 _symmetry_equiv_pos_as_xyz
  1  'x, y, z'
loop_
 _atom_site_type_symbol
 _atom_site_label
 _atom_site_symmetry_multiplicity
 _atom_site_fract_x
 _atom_site_fract_y
 _atom_site_fract_z
 _atom_site_occupancy
  Dy  Dy0  1  0.675812  0.067909  0.323117  1
  Dy  Dy1  1  0.824378  0.932060  0.823129  1
  Dy  Dy2  1  0.824853  0.568992  0.823925  1
  Dy  Dy3  1  0.675109  0.431127  0.323934  1
  Dy  Dy4  1  0.324625  0.931657  0.676202  1
  Dy  Dy5  1  0.175591  0.068218  0.176149  1
  Dy  Dy6  1  0.955089  0.749506  0.356917  1
  Dy  Dy7  1  0.544532  0.250527  0.857305  1
  Dy  Dy8  1  0.454809  0.749431  0.143306  1
  Dy  Dy9  1  0.044970  0.250608  0.642677  1
  Ho  Ho10  1  0.175514  0.430998  0.176704  1
  Ho  Ho11  1  0.324479  0.569070  0.676792  1
  Co  Co12  1  0.611382  0.749956  0.548385  1
  Co  Co13  1  0.888705  0.249996  0.048294  1
  Co  Co14  1  0.111803  0.751176  0.951698  1
  Co  Co15  1  0.388343  0.248774  0.451462  1
