# generated using pymatgen
data_K3Ag3Cl8
_symmetry_space_group_name_H-M   'P 1'
_cell_length_a   7.12238643
_cell_length_b   7.12238556
_cell_length_c   17.81437204
_cell_angle_alpha   87.56814098
_cell_angle_beta   87.56814228
_cell_angle_gamma   61.79773566
_symmetry_Int_Tables_number   1
_chemical_formula_structural   K3Ag3Cl8
_chemical_formula_sum   'K6 Ag6 Cl16'
_cell_volume   795.43770460
_cell_formula_units_Z   2
loop_
 _symmetry_equiv_pos_site_id
 _symmetry_equiv_pos_as_xyz
  1  'x, y, z'
loop_
 _atom_site_type_symbol
 _atom_site_label
 _atom_site_symmetry_multiplicity
 _atom_site_fract_x
 _atom_site_fract_y
 _atom_site_fract_z
 _atom_site_occupancy
  K  K0  1  0.688852  0.673960  0.408941  1
  K  K1  1  0.311148  0.326040  0.591059  1
  K  K2  1  0.326040  0.311148  0.091059  1
  K  K3  1  0.673960  0.688852  0.908941  1
  K  K4  1  0.982191  0.017809  0.250000  1
  K  K5  1  0.017809  0.982191  0.750000  1
  Ag  Ag6  1  0.000000  0.000000  0.000000  1
  Ag  Ag7  1  0.000000  0.000000  0.500000  1
  Ag  Ag8  1  0.663079  0.654158  0.169355  1
  Ag  Ag9  1  0.336921  0.345842  0.830645  1
  Ag  Ag10  1  0.345842  0.336921  0.330645  1
  Ag  Ag11  1  0.654158  0.663079  0.669355  1
  Cl  Cl12  1  0.309274  0.750381  0.123760  1
  Cl  Cl13  1  0.690726  0.249619  0.876240  1
  Cl  Cl14  1  0.249619  0.690726  0.376240  1
  Cl  Cl15  1  0.750381  0.309274  0.623760  1
  Cl  Cl16  1  0.507231  0.024239  0.248758  1
  Cl  Cl17  1  0.492769  0.975761  0.751242  1
  Cl  Cl18  1  0.975761  0.492769  0.251242  1
  Cl  Cl19  1  0.024239  0.507231  0.748758  1
  Cl  Cl20  1  0.768401  0.865914  0.055747  1
  Cl  Cl21  1  0.231599  0.134086  0.944253  1
  Cl  Cl22  1  0.134086  0.231599  0.444253  1
  Cl  Cl23  1  0.865914  0.768401  0.555747  1
  Cl  Cl24  1  0.691239  0.165589  0.412124  1
  Cl  Cl25  1  0.308761  0.834411  0.587876  1
  Cl  Cl26  1  0.834411  0.308761  0.087876  1
  Cl  Cl27  1  0.165589  0.691239  0.912124  1
