# generated using pymatgen
data_Tb7Y9Cd4OsPt3
_symmetry_space_group_name_H-M   'P 1'
_cell_length_a   9.74012739
_cell_length_b   9.74073326
_cell_length_c   9.74806681
_cell_angle_alpha   59.52223055
_cell_angle_beta   59.56700673
_cell_angle_gamma   59.60186836
_symmetry_Int_Tables_number   1
_chemical_formula_structural   Tb7Y9Cd4OsPt3
_chemical_formula_sum   'Tb7 Y9 Cd4 Os1 Pt3'
_cell_volume   647.48572362
_cell_formula_units_Z   1
loop_
 _symmetry_equiv_pos_site_id
 _symmetry_equiv_pos_as_xyz
  1  'x, y, z'
loop_
 _atom_site_type_symbol
 _atom_site_label
 _atom_site_symmetry_multiplicity
 _atom_site_fract_x
 _atom_site_fract_y
 _atom_site_fract_z
 _atom_site_occupancy
  Tb  Tb0  1  0.351726  0.351714  0.351938  1
  Tb  Tb1  1  0.349696  0.349333  0.948692  1
  Tb  Tb2  1  0.349996  0.948192  0.349565  1
  Tb  Tb3  1  0.948450  0.349712  0.349736  1
  Tb  Tb4  1  0.814707  0.189033  0.188759  1
  Tb  Tb5  1  0.188882  0.809911  0.809471  1
  Tb  Tb6  1  0.189006  0.814799  0.189038  1
  Y  Y7  1  0.809399  0.189125  0.809384  1
  Y  Y8  1  0.189220  0.189610  0.813853  1
  Y  Y9  1  0.809096  0.809438  0.189123  1
  Y  Y10  1  0.935581  0.565085  0.565077  1
  Y  Y11  1  0.558755  0.937512  0.937388  1
  Y  Y12  1  0.564848  0.935984  0.564940  1
  Y  Y13  1  0.937550  0.558701  0.937566  1
  Y  Y14  1  0.564832  0.564925  0.936085  1
  Y  Y15  1  0.937569  0.937648  0.558507  1
  Cd  Cd16  1  0.580812  0.580247  0.580127  1
  Cd  Cd17  1  0.581365  0.581483  0.254202  1
  Cd  Cd18  1  0.580967  0.254213  0.581561  1
  Cd  Cd19  1  0.254319  0.580857  0.581260  1
  Os  Os20  1  0.142820  0.142824  0.144420  1
  Pt  Pt21  1  0.144105  0.143260  0.571887  1
  Pt  Pt22  1  0.144209  0.572326  0.143378  1
  Pt  Pt23  1  0.572094  0.144071  0.144047  1
