# generated using pymatgen
data_Ti10GaP5O
_symmetry_space_group_name_H-M   'P 1'
_cell_length_a   7.28567188
_cell_length_b   7.30674330
_cell_length_c   5.09713744
_cell_angle_alpha   90.12529062
_cell_angle_beta   89.74869341
_cell_angle_gamma   119.90464034
_symmetry_Int_Tables_number   1
_chemical_formula_structural   Ti10GaP5O
_chemical_formula_sum   'Ti10 Ga1 P5 O1'
_cell_volume   235.21378552
_cell_formula_units_Z   1
loop_
 _symmetry_equiv_pos_site_id
 _symmetry_equiv_pos_as_xyz
  1  'x, y, z'
loop_
 _atom_site_type_symbol
 _atom_site_label
 _atom_site_symmetry_multiplicity
 _atom_site_fract_x
 _atom_site_fract_y
 _atom_site_fract_z
 _atom_site_occupancy
  Ti  Ti0  1  0.001339  0.753889  0.255529  1
  Ti  Ti1  1  0.247451  0.246111  0.255529  1
  Ti  Ti2  1  0.761280  0.000000  0.255108  1
  Ti  Ti3  1  0.005279  0.250736  0.743276  1
  Ti  Ti4  1  0.754543  0.749264  0.743276  1
  Ti  Ti5  1  0.236782  0.000000  0.748022  1
  Ti  Ti6  1  0.326481  0.657471  0.498797  1
  Ti  Ti7  1  0.669012  0.342529  0.498797  1
  Ti  Ti8  1  0.669083  0.342004  0.001533  1
  Ti  Ti9  1  0.327078  0.657996  0.001533  1
  Ga  Ga10  1  0.600936  0.000000  0.755189  1
  P  P11  1  0.997165  0.391340  0.243346  1
  P  P12  1  0.605825  0.608660  0.243346  1
  P  P13  1  0.400967  0.000000  0.241432  1
  P  P14  1  0.001153  0.606904  0.757929  1
  P  P15  1  0.394248  0.393096  0.757929  1
  O  O16  1  0.001375  0.000000  0.499429  1
