# generated using pymatgen
data_Tb6Er10Cd4TcNi3
_symmetry_space_group_name_H-M   'P 1'
_cell_length_a   9.54883341
_cell_length_b   9.54883390
_cell_length_c   9.54883423
_cell_angle_alpha   59.57760513
_cell_angle_beta   59.57760267
_cell_angle_gamma   59.57760199
_symmetry_Int_Tables_number   1
_chemical_formula_structural   Tb6Er10Cd4TcNi3
_chemical_formula_sum   'Tb6 Er10 Cd4 Tc1 Ni3'
_cell_volume   609.74157812
_cell_formula_units_Z   1
loop_
 _symmetry_equiv_pos_site_id
 _symmetry_equiv_pos_as_xyz
  1  'x, y, z'
loop_
 _atom_site_type_symbol
 _atom_site_label
 _atom_site_symmetry_multiplicity
 _atom_site_fract_x
 _atom_site_fract_y
 _atom_site_fract_z
 _atom_site_occupancy
  Tb  Tb0  1  0.936621  0.564475  0.564475  1
  Tb  Tb1  1  0.554039  0.940612  0.940612  1
  Tb  Tb2  1  0.564475  0.936621  0.564475  1
  Tb  Tb3  1  0.940612  0.554039  0.940612  1
  Tb  Tb4  1  0.564475  0.564475  0.936621  1
  Tb  Tb5  1  0.940612  0.940612  0.554039  1
  Er  Er6  1  0.346680  0.346680  0.346680  1
  Er  Er7  1  0.352114  0.352114  0.954982  1
  Er  Er8  1  0.352114  0.954982  0.352114  1
  Er  Er9  1  0.954982  0.352114  0.352114  1
  Er  Er10  1  0.811665  0.186548  0.186548  1
  Er  Er11  1  0.185404  0.811973  0.811973  1
  Er  Er12  1  0.186548  0.811665  0.186548  1
  Er  Er13  1  0.811973  0.185404  0.811973  1
  Er  Er14  1  0.186548  0.186548  0.811665  1
  Er  Er15  1  0.811973  0.811973  0.185404  1
  Cd  Cd16  1  0.579613  0.579613  0.579613  1
  Cd  Cd17  1  0.579467  0.579467  0.256673  1
  Cd  Cd18  1  0.579467  0.256673  0.579467  1
  Cd  Cd19  1  0.256673  0.579467  0.579467  1
  Tc  Tc20  1  0.144095  0.144095  0.144095  1
  Ni  Ni21  1  0.140711  0.140711  0.578430  1
  Ni  Ni22  1  0.140711  0.578430  0.140711  1
  Ni  Ni23  1  0.578430  0.140711  0.140711  1
