# generated using pymatgen
data_Ho4Ta4Mn11Fe5P12
_symmetry_space_group_name_H-M   'P 1'
_cell_length_a   3.64480500
_cell_length_b   10.73433356
_cell_length_c   12.40314334
_cell_angle_alpha   89.86167457
_cell_angle_beta   90.00000000
_cell_angle_gamma   90.00000000
_symmetry_Int_Tables_number   1
_chemical_formula_structural   Ho4Ta4Mn11Fe5P12
_chemical_formula_sum   'Ho4 Ta4 Mn11 Fe5 P12'
_cell_volume   485.26602031
_cell_formula_units_Z   1
loop_
 _symmetry_equiv_pos_site_id
 _symmetry_equiv_pos_as_xyz
  1  'x, y, z'
loop_
 _atom_site_type_symbol
 _atom_site_label
 _atom_site_symmetry_multiplicity
 _atom_site_fract_x
 _atom_site_fract_y
 _atom_site_fract_z
 _atom_site_occupancy
  Ho  Ho0  1  0.250000  0.581792  0.711971  1
  Ho  Ho1  1  0.250000  0.916089  0.209676  1
  Ho  Ho2  1  0.750000  0.415339  0.290459  1
  Ho  Ho3  1  0.750000  0.086783  0.789343  1
  Ta  Ta4  1  0.250000  0.704445  0.985575  1
  Ta  Ta5  1  0.250000  0.795399  0.486576  1
  Ta  Ta6  1  0.750000  0.297675  0.011756  1
  Ta  Ta7  1  0.750000  0.204063  0.513407  1
  Mn  Mn8  1  0.250000  0.408353  0.494257  1
  Mn  Mn9  1  0.250000  0.092881  0.991644  1
  Mn  Mn10  1  0.750000  0.589649  0.507822  1
  Mn  Mn11  1  0.750000  0.910017  0.006579  1
  Mn  Mn12  1  0.250000  0.216130  0.176261  1
  Mn  Mn13  1  0.250000  0.283710  0.675712  1
  Mn  Mn14  1  0.750000  0.781876  0.824000  1
  Mn  Mn15  1  0.750000  0.716326  0.324114  1
  Mn  Mn16  1  0.250000  0.878016  0.699768  1
  Mn  Mn17  1  0.250000  0.621538  0.199952  1
  Mn  Mn18  1  0.750000  0.121512  0.299780  1
  Fe  Fe19  1  0.750000  0.377511  0.800040  1
  Fe  Fe20  1  0.250000  0.463211  0.934767  1
  Fe  Fe21  1  0.250000  0.037238  0.432481  1
  Fe  Fe22  1  0.750000  0.538244  0.068148  1
  Fe  Fe23  1  0.750000  0.961340  0.567080  1
  P  P24  1  0.250000  0.426623  0.114056  1
  P  P25  1  0.250000  0.072297  0.613151  1
  P  P26  1  0.750000  0.568892  0.886673  1
  P  P27  1  0.750000  0.927231  0.386235  1
  P  P28  1  0.250000  0.270882  0.863339  1
  P  P29  1  0.250000  0.234671  0.365756  1
  P  P30  1  0.750000  0.735876  0.133507  1
  P  P31  1  0.750000  0.763455  0.634418  1
  P  P32  1  0.250000  0.586463  0.384869  1
  P  P33  1  0.250000  0.914213  0.883625  1
  P  P34  1  0.750000  0.411933  0.618259  1
  P  P35  1  0.750000  0.088331  0.114945  1
