# generated using pymatgen
data_Tb6Co16ReP12W
_symmetry_space_group_name_H-M   'P 1'
_cell_length_a   3.73376100
_cell_length_b   10.54134600
_cell_length_c   12.24829100
_cell_angle_alpha   90.00000000
_cell_angle_beta   90.00000000
_cell_angle_gamma   90.00000000
_symmetry_Int_Tables_number   1
_chemical_formula_structural   Tb6Co16ReP12W
_chemical_formula_sum   'Tb6 Co16 Re1 P12 W1'
_cell_volume   482.07885133
_cell_formula_units_Z   1
loop_
 _symmetry_equiv_pos_site_id
 _symmetry_equiv_pos_as_xyz
  1  'x, y, z'
loop_
 _atom_site_type_symbol
 _atom_site_label
 _atom_site_symmetry_multiplicity
 _atom_site_fract_x
 _atom_site_fract_y
 _atom_site_fract_z
 _atom_site_occupancy
  Tb  Tb0  1  0.000000  0.500000  0.524189  1
  Tb  Tb1  1  0.500000  0.000000  0.475589  1
  Tb  Tb2  1  0.500000  0.818375  0.205105  1
  Tb  Tb3  1  0.500000  0.181625  0.205105  1
  Tb  Tb4  1  0.000000  0.680962  0.794427  1
  Tb  Tb5  1  0.000000  0.319038  0.794427  1
  Co  Co6  1  0.500000  0.500000  0.701759  1
  Co  Co7  1  0.000000  0.000000  0.298497  1
  Co  Co8  1  0.000000  0.500000  0.988319  1
  Co  Co9  1  0.500000  0.000000  0.013085  1
  Co  Co10  1  0.500000  0.333453  0.990440  1
  Co  Co11  1  0.500000  0.666547  0.990440  1
  Co  Co12  1  0.000000  0.168316  0.010281  1
  Co  Co13  1  0.000000  0.831684  0.010281  1
  Co  Co14  1  0.500000  0.297017  0.430495  1
  Co  Co15  1  0.500000  0.702983  0.430495  1
  Co  Co16  1  0.000000  0.204261  0.568222  1
  Co  Co17  1  0.000000  0.795739  0.568222  1
  Co  Co18  1  0.500000  0.878430  0.707952  1
  Co  Co19  1  0.500000  0.121570  0.707952  1
  Co  Co20  1  0.000000  0.620228  0.291792  1
  Co  Co21  1  0.000000  0.379772  0.291792  1
  Re  Re22  1  0.500000  0.500000  0.156223  1
  P  P23  1  0.500000  0.500000  0.880768  1
  P  P24  1  0.000000  0.000000  0.119443  1
  P  P25  1  0.500000  0.500000  0.348378  1
  P  P26  1  0.000000  0.000000  0.650563  1
  P  P27  1  0.500000  0.311028  0.615230  1
  P  P28  1  0.500000  0.688972  0.615230  1
  P  P29  1  0.000000  0.189078  0.383884  1
  P  P30  1  0.000000  0.810922  0.383884  1
  P  P31  1  0.500000  0.844373  0.893658  1
  P  P32  1  0.500000  0.155627  0.893658  1
  P  P33  1  0.000000  0.653580  0.107949  1
  P  P34  1  0.000000  0.346420  0.107949  1
  W  W35  1  0.000000  0.000000  0.844319  1
