# generated using pymatgen
data_U4Si4As2Ru7
_symmetry_space_group_name_H-M   'P 1'
_cell_length_a   7.14812784
_cell_length_b   7.13218895
_cell_length_c   7.13246467
_cell_angle_alpha   109.71856426
_cell_angle_beta   109.28229003
_cell_angle_gamma   109.29035417
_symmetry_Int_Tables_number   1
_chemical_formula_structural   U4Si4As2Ru7
_chemical_formula_sum   'U4 Si4 As2 Ru7'
_cell_volume   280.33756058
_cell_formula_units_Z   1
loop_
 _symmetry_equiv_pos_site_id
 _symmetry_equiv_pos_as_xyz
  1  'x, y, z'
loop_
 _atom_site_type_symbol
 _atom_site_label
 _atom_site_symmetry_multiplicity
 _atom_site_fract_x
 _atom_site_fract_y
 _atom_site_fract_z
 _atom_site_occupancy
  U  U0  1  0.001245  0.000699  0.500828  1
  U  U1  1  0.496332  0.999877  0.999641  1
  U  U2  1  0.001302  0.500472  0.000579  1
  U  U3  1  0.496344  0.496733  0.496458  1
  Si  Si4  1  0.315017  0.001094  0.313996  1
  Si  Si5  1  0.000925  0.315304  0.315424  1
  Si  Si6  1  0.000813  0.685506  0.685538  1
  Si  Si7  1  0.314856  0.313771  0.001110  1
  As  As8  1  0.694571  0.694393  0.000140  1
  As  As9  1  0.694637  0.000190  0.694374  1
  Ru  Ru10  1  0.746811  0.496436  0.250426  1
  Ru  Ru11  1  0.491047  0.745444  0.245501  1
  Ru  Ru12  1  0.491045  0.245527  0.745569  1
  Ru  Ru13  1  0.746537  0.250397  0.496123  1
  Ru  Ru14  1  0.242688  0.747236  0.495457  1
  Ru  Ru15  1  0.242738  0.495448  0.747189  1
  Ru  Ru16  1  0.023093  0.011474  0.011648  1
