# generated using pymatgen
data_Sm2Lu3(GaSn)2
_symmetry_space_group_name_H-M   'P 1'
_cell_length_a   7.69008600
_cell_length_b   8.13628400
_cell_length_c   15.36205400
_cell_angle_alpha   90.00000000
_cell_angle_beta   90.00000000
_cell_angle_gamma   90.00000000
_symmetry_Int_Tables_number   1
_chemical_formula_structural   Sm2Lu3(GaSn)2
_chemical_formula_sum   'Sm8 Lu12 Ga8 Sn8'
_cell_volume   961.18411189
_cell_formula_units_Z   4
loop_
 _symmetry_equiv_pos_site_id
 _symmetry_equiv_pos_as_xyz
  1  'x, y, z'
loop_
 _atom_site_type_symbol
 _atom_site_label
 _atom_site_symmetry_multiplicity
 _atom_site_fract_x
 _atom_site_fract_y
 _atom_site_fract_z
 _atom_site_occupancy
  Sm  Sm0  1  0.501310  0.317318  0.900664  1
  Sm  Sm1  1  0.001310  0.182682  0.599336  1
  Sm  Sm2  1  0.498690  0.682682  0.400664  1
  Sm  Sm3  1  0.998690  0.817318  0.099336  1
  Sm  Sm4  1  0.498690  0.682682  0.099336  1
  Sm  Sm5  1  0.998690  0.817318  0.400664  1
  Sm  Sm6  1  0.501310  0.317318  0.599336  1
  Sm  Sm7  1  0.001310  0.182682  0.900664  1
  Lu  Lu8  1  0.337079  0.831166  0.867438  1
  Lu  Lu9  1  0.837079  0.668834  0.632562  1
  Lu  Lu10  1  0.662921  0.168834  0.367438  1
  Lu  Lu11  1  0.162921  0.331166  0.132562  1
  Lu  Lu12  1  0.662921  0.168834  0.132562  1
  Lu  Lu13  1  0.162921  0.331166  0.367438  1
  Lu  Lu14  1  0.337079  0.831166  0.632562  1
  Lu  Lu15  1  0.837079  0.668834  0.867438  1
  Lu  Lu16  1  0.179095  0.488438  0.750000  1
  Lu  Lu17  1  0.679095  0.011562  0.750000  1
  Lu  Lu18  1  0.820905  0.511562  0.250000  1
  Lu  Lu19  1  0.320905  0.988438  0.250000  1
  Ga  Ga20  1  0.539122  0.609148  0.750000  1
  Ga  Ga21  1  0.039122  0.890852  0.750000  1
  Ga  Ga22  1  0.460878  0.390852  0.250000  1
  Ga  Ga23  1  0.960878  0.109148  0.250000  1
  Ga  Ga24  1  0.291709  0.128448  0.750000  1
  Ga  Ga25  1  0.791709  0.371552  0.750000  1
  Ga  Ga26  1  0.708291  0.871552  0.250000  1
  Ga  Ga27  1  0.208291  0.628448  0.250000  1
  Sn  Sn28  1  0.320848  0.039724  0.038721  1
  Sn  Sn29  1  0.820848  0.460276  0.461279  1
  Sn  Sn30  1  0.679152  0.960276  0.538721  1
  Sn  Sn31  1  0.179152  0.539724  0.961279  1
  Sn  Sn32  1  0.679152  0.960276  0.961279  1
  Sn  Sn33  1  0.179152  0.539724  0.538721  1
  Sn  Sn34  1  0.320848  0.039724  0.461279  1
  Sn  Sn35  1  0.820848  0.460276  0.038721  1
