# generated using pymatgen
data_Nb16Ni7GeC4
_symmetry_space_group_name_H-M   'P 1'
_cell_length_a   8.33781012
_cell_length_b   8.33780990
_cell_length_c   8.33781000
_cell_angle_alpha   59.85309536
_cell_angle_beta   59.85309632
_cell_angle_gamma   59.85309019
_symmetry_Int_Tables_number   1
_chemical_formula_structural   Nb16Ni7GeC4
_chemical_formula_sum   'Nb16 Ni7 Ge1 C4'
_cell_volume   408.49873817
_cell_formula_units_Z   1
loop_
 _symmetry_equiv_pos_site_id
 _symmetry_equiv_pos_as_xyz
  1  'x, y, z'
loop_
 _atom_site_type_symbol
 _atom_site_label
 _atom_site_symmetry_multiplicity
 _atom_site_fract_x
 _atom_site_fract_y
 _atom_site_fract_z
 _atom_site_occupancy
  Nb  Nb0  1  0.436203  0.064586  0.064586  1
  Nb  Nb1  1  0.067257  0.432026  0.432026  1
  Nb  Nb2  1  0.064586  0.436203  0.064586  1
  Nb  Nb3  1  0.064586  0.064586  0.436203  1
  Nb  Nb4  1  0.432026  0.067257  0.432026  1
  Nb  Nb5  1  0.432026  0.432026  0.067257  1
  Nb  Nb6  1  0.181617  0.818197  0.181617  1
  Nb  Nb7  1  0.813541  0.191886  0.813541  1
  Nb  Nb8  1  0.818197  0.181617  0.181617  1
  Nb  Nb9  1  0.181617  0.181617  0.818197  1
  Nb  Nb10  1  0.191886  0.813541  0.813541  1
  Nb  Nb11  1  0.813541  0.813541  0.191886  1
  Nb  Nb12  1  0.624928  0.624928  0.624928  1
  Nb  Nb13  1  0.619030  0.619030  0.129086  1
  Nb  Nb14  1  0.129086  0.619030  0.619030  1
  Nb  Nb15  1  0.619030  0.129086  0.619030  1
  Ni  Ni16  1  0.830479  0.830479  0.509870  1
  Ni  Ni17  1  0.509870  0.830479  0.830479  1
  Ni  Ni18  1  0.830479  0.509870  0.830479  1
  Ni  Ni19  1  0.420466  0.420466  0.420466  1
  Ni  Ni20  1  0.420012  0.420012  0.738340  1
  Ni  Ni21  1  0.420012  0.738340  0.420012  1
  Ni  Ni22  1  0.738340  0.420012  0.420012  1
  Ge  Ge23  1  0.839637  0.839637  0.839637  1
  C  C24  1  0.124697  0.626334  0.124697  1
  C  C25  1  0.626334  0.124697  0.124697  1
  C  C26  1  0.124697  0.124697  0.626334  1
  C  C27  1  0.125819  0.125819  0.125819  1
