# generated using pymatgen
data_Sc22Ir5Os2Rh
_symmetry_space_group_name_H-M   'P 1'
_cell_length_a   9.48044846
_cell_length_b   9.48044843
_cell_length_c   9.50468000
_cell_angle_alpha   59.91541370
_cell_angle_beta   59.91541382
_cell_angle_gamma   59.92379590
_symmetry_Int_Tables_number   1
_chemical_formula_structural   Sc22Ir5Os2Rh
_chemical_formula_sum   'Sc22 Ir5 Os2 Rh1'
_cell_volume   602.93948446
_cell_formula_units_Z   1
loop_
 _symmetry_equiv_pos_site_id
 _symmetry_equiv_pos_as_xyz
  1  'x, y, z'
loop_
 _atom_site_type_symbol
 _atom_site_label
 _atom_site_symmetry_multiplicity
 _atom_site_fract_x
 _atom_site_fract_y
 _atom_site_fract_z
 _atom_site_occupancy
  Sc  Sc0  1  0.842800  0.842800  0.843791  1
  Sc  Sc1  1  0.531148  0.156492  0.156180  1
  Sc  Sc2  1  0.157200  0.157200  0.529389  1
  Sc  Sc3  1  0.156492  0.531148  0.156180  1
  Sc  Sc4  1  0.842800  0.842800  0.470611  1
  Sc  Sc5  1  0.843508  0.468852  0.843820  1
  Sc  Sc6  1  0.468852  0.843508  0.843820  1
  Sc  Sc7  1  0.157200  0.157200  0.156209  1
  Sc  Sc8  1  0.195568  0.804432  0.198220  1
  Sc  Sc9  1  0.195568  0.804432  0.801780  1
  Sc  Sc10  1  0.804432  0.195568  0.198220  1
  Sc  Sc11  1  0.802909  0.802909  0.197091  1
  Sc  Sc12  1  0.197091  0.197091  0.802909  1
  Sc  Sc13  1  0.804432  0.195568  0.801780  1
  Sc  Sc14  1  0.382520  0.382520  0.385273  1
  Sc  Sc15  1  0.148711  0.616901  0.617194  1
  Sc  Sc16  1  0.616901  0.148711  0.617194  1
  Sc  Sc17  1  0.617480  0.617480  0.150315  1
  Sc  Sc18  1  0.383099  0.851289  0.382806  1
  Sc  Sc19  1  0.382520  0.382520  0.849685  1
  Sc  Sc20  1  0.851289  0.383099  0.382806  1
  Sc  Sc21  1  0.617480  0.617480  0.614727  1
  Ir  Ir22  1  0.000000  0.000000  0.500000  1
  Ir  Ir23  1  0.500000  0.000000  0.500000  1
  Ir  Ir24  1  0.000000  0.500000  0.500000  1
  Ir  Ir25  1  0.500000  0.000000  0.000000  1
  Ir  Ir26  1  0.000000  0.500000  0.000000  1
  Os  Os27  1  0.500000  0.500000  0.500000  1
  Os  Os28  1  0.000000  0.000000  0.000000  1
  Rh  Rh29  1  0.500000  0.500000  0.000000  1
