# generated using pymatgen
data_Er12Fe2CuNi2Sn
_symmetry_space_group_name_H-M   'P 1'
_cell_length_a   8.25447587
_cell_length_b   8.25260642
_cell_length_c   8.25447656
_cell_angle_alpha   110.69650056
_cell_angle_beta   109.72364607
_cell_angle_gamma   108.01394789
_symmetry_Int_Tables_number   1
_chemical_formula_structural   Er12Fe2CuNi2Sn
_chemical_formula_sum   'Er12 Fe2 Cu1 Ni2 Sn1'
_cell_volume   432.56984568
_cell_formula_units_Z   1
loop_
 _symmetry_equiv_pos_site_id
 _symmetry_equiv_pos_as_xyz
  1  'x, y, z'
loop_
 _atom_site_type_symbol
 _atom_site_label
 _atom_site_symmetry_multiplicity
 _atom_site_fract_x
 _atom_site_fract_y
 _atom_site_fract_z
 _atom_site_occupancy
  Er  Er0  1  0.318575  0.124879  0.806304  1
  Er  Er1  1  0.681467  0.487771  0.806303  1
  Er  Er2  1  0.421832  0.723382  0.698419  1
  Er  Er3  1  0.578168  0.276618  0.301581  1
  Er  Er4  1  0.975038  0.276618  0.698450  1
  Er  Er5  1  0.024962  0.723382  0.301550  1
  Er  Er6  1  0.318533  0.512229  0.193697  1
  Er  Er7  1  0.681425  0.875121  0.193696  1
  Er  Er8  1  0.181442  0.786448  0.967976  1
  Er  Er9  1  0.818473  0.786448  0.605006  1
  Er  Er10  1  0.181527  0.213552  0.394994  1
  Er  Er11  1  0.818558  0.213552  0.032024  1
  Fe  Fe12  1  0.889185  0.889554  0.000369  1
  Fe  Fe13  1  0.110815  0.110446  0.999631  1
  Cu  Cu14  1  0.000000  0.500000  0.500000  1
  Ni  Ni15  1  0.637972  0.500000  0.137972  1
  Ni  Ni16  1  0.362028  0.500000  0.862028  1
  Sn  Sn17  1  0.500000  0.000000  0.500000  1
