# generated using pymatgen
data_Cs6Dy(IrBr6)3
_symmetry_space_group_name_H-M   'P 1'
_cell_length_a   7.87343100
_cell_length_b   7.87343176
_cell_length_c   19.98776000
_cell_angle_alpha   90.00000000
_cell_angle_beta   90.00000000
_cell_angle_gamma   119.99998422
_symmetry_Int_Tables_number   1
_chemical_formula_structural   Cs6Dy(IrBr6)3
_chemical_formula_sum   'Cs6 Dy1 Ir3 Br18'
_cell_volume   1073.05731682
_cell_formula_units_Z   1
loop_
 _symmetry_equiv_pos_site_id
 _symmetry_equiv_pos_as_xyz
  1  'x, y, z'
loop_
 _atom_site_type_symbol
 _atom_site_label
 _atom_site_symmetry_multiplicity
 _atom_site_fract_x
 _atom_site_fract_y
 _atom_site_fract_z
 _atom_site_occupancy
  Cs  Cs0  1  0.333333  0.666667  0.068054  1
  Cs  Cs1  1  0.666667  0.333333  0.939288  1
  Cs  Cs2  1  0.666667  0.333333  0.568070  1
  Cs  Cs3  1  0.333333  0.666667  0.436000  1
  Cs  Cs4  1  0.000000  0.000000  0.250787  1
  Cs  Cs5  1  0.000000  0.000000  0.744959  1
  Dy  Dy6  1  0.333333  0.666667  0.837255  1
  Ir  Ir7  1  0.333333  0.666667  0.667283  1
  Ir  Ir8  1  0.666667  0.333333  0.333440  1
  Ir  Ir9  1  0.666667  0.333333  0.167225  1
  Br  Br10  1  0.182866  0.365732  0.595770  1
  Br  Br11  1  0.817569  0.635138  0.404000  1
  Br  Br12  1  0.634268  0.817134  0.595770  1
  Br  Br13  1  0.817624  0.635248  0.096676  1
  Br  Br14  1  0.364862  0.182431  0.404000  1
  Br  Br15  1  0.165346  0.330692  0.910056  1
  Br  Br16  1  0.182866  0.817134  0.595770  1
  Br  Br17  1  0.364752  0.182376  0.096676  1
  Br  Br18  1  0.817569  0.182431  0.404000  1
  Br  Br19  1  0.669308  0.834654  0.910056  1
  Br  Br20  1  0.817624  0.182376  0.096676  1
  Br  Br21  1  0.165346  0.834654  0.910056  1
  Br  Br22  1  0.523931  0.047863  0.250232  1
  Br  Br23  1  0.489227  0.978453  0.739144  1
  Br  Br24  1  0.952137  0.476069  0.250232  1
  Br  Br25  1  0.021547  0.510773  0.739144  1
  Br  Br26  1  0.523931  0.476069  0.250232  1
  Br  Br27  1  0.489227  0.510773  0.739144  1
