# generated using pymatgen
data_Ho2Fe8CoNi3P7
_symmetry_space_group_name_H-M   'P 1'
_cell_length_a   9.03079301
_cell_length_b   8.99463684
_cell_length_c   3.62907200
_cell_angle_alpha   90.00000000
_cell_angle_beta   90.00000000
_cell_angle_gamma   120.06328228
_symmetry_Int_Tables_number   1
_chemical_formula_structural   Ho2Fe8CoNi3P7
_chemical_formula_sum   'Ho2 Fe8 Co1 Ni3 P7'
_cell_volume   255.12818902
_cell_formula_units_Z   1
loop_
 _symmetry_equiv_pos_site_id
 _symmetry_equiv_pos_as_xyz
  1  'x, y, z'
loop_
 _atom_site_type_symbol
 _atom_site_label
 _atom_site_symmetry_multiplicity
 _atom_site_fract_x
 _atom_site_fract_y
 _atom_site_fract_z
 _atom_site_occupancy
  Ho  Ho0  1  0.001877  0.999513  0.000000  1
  Ho  Ho1  1  0.329827  0.665049  0.500000  1
  Fe  Fe2  1  0.096616  0.393713  0.000000  1
  Fe  Fe3  1  0.786323  0.177683  0.000000  1
  Fe  Fe4  1  0.392899  0.216638  0.000000  1
  Fe  Fe5  1  0.820221  0.606068  0.000000  1
  Fe  Fe6  1  0.053029  0.769307  0.500000  1
  Fe  Fe7  1  0.541170  0.111094  0.500000  1
  Fe  Fe8  1  0.571076  0.452179  0.500000  1
  Fe  Fe9  1  0.888806  0.431862  0.500000  1
  Co  Co10  1  0.231794  0.285292  0.500000  1
  Ni  Ni11  1  0.294891  0.901090  0.000000  1
  Ni  Ni12  1  0.605880  0.706171  0.000000  1
  Ni  Ni13  1  0.718558  0.947972  0.500000  1
  P  P14  1  0.553595  0.927390  0.000000  1
  P  P15  1  0.365967  0.443927  0.000000  1
  P  P16  1  0.070728  0.626907  0.000000  1
  P  P17  1  0.959072  0.226588  0.500000  1
  P  P18  1  0.263859  0.047852  0.500000  1
  P  P19  1  0.787014  0.732001  0.500000  1
  P  P20  1  0.666798  0.331698  0.000000  1
