# generated using pymatgen
data_ScTa3(ReB2)2
_symmetry_space_group_name_H-M   'P 1'
_cell_length_a   6.08329253
_cell_length_b   6.08329234
_cell_length_c   3.30930300
_cell_angle_alpha   90.00000000
_cell_angle_beta   90.00000000
_cell_angle_gamma   89.33997029
_symmetry_Int_Tables_number   1
_chemical_formula_structural   ScTa3(ReB2)2
_chemical_formula_sum   'Sc1 Ta3 Re2 B4'
_cell_volume   122.45741988
_cell_formula_units_Z   1
loop_
 _symmetry_equiv_pos_site_id
 _symmetry_equiv_pos_as_xyz
  1  'x, y, z'
loop_
 _atom_site_type_symbol
 _atom_site_label
 _atom_site_symmetry_multiplicity
 _atom_site_fract_x
 _atom_site_fract_y
 _atom_site_fract_z
 _atom_site_occupancy
  Sc  Sc0  1  0.678740  0.178740  0.500000  1
  Ta  Ta1  1  0.823811  0.677838  0.500000  1
  Ta  Ta2  1  0.322024  0.822024  0.500000  1
  Ta  Ta3  1  0.177838  0.323811  0.500000  1
  Re  Re4  1  0.499253  0.501787  0.000000  1
  Re  Re5  1  0.001787  0.999253  0.000000  1
  B  B6  1  0.110391  0.610391  0.000000  1
  B  B7  1  0.608523  0.885477  0.000000  1
  B  B8  1  0.385477  0.108523  0.000000  1
  B  B9  1  0.892155  0.392155  0.000000  1
