# generated using pymatgen
data_Dy6CrCo2(P4Rh5)3
_symmetry_space_group_name_H-M   'P 1'
_cell_length_a   3.86088200
_cell_length_b   11.12893600
_cell_length_c   12.78588800
_cell_angle_alpha   90.00000000
_cell_angle_beta   90.00000000
_cell_angle_gamma   90.00000000
_symmetry_Int_Tables_number   1
_chemical_formula_structural   Dy6CrCo2(P4Rh5)3
_chemical_formula_sum   'Dy6 Cr1 Co2 P12 Rh15'
_cell_volume   549.37775364
_cell_formula_units_Z   1
loop_
 _symmetry_equiv_pos_site_id
 _symmetry_equiv_pos_as_xyz
  1  'x, y, z'
loop_
 _atom_site_type_symbol
 _atom_site_label
 _atom_site_symmetry_multiplicity
 _atom_site_fract_x
 _atom_site_fract_y
 _atom_site_fract_z
 _atom_site_occupancy
  Dy  Dy0  1  0.000000  0.500000  0.520358  1
  Dy  Dy1  1  0.500000  0.000000  0.478328  1
  Dy  Dy2  1  0.500000  0.815580  0.202213  1
  Dy  Dy3  1  0.500000  0.184420  0.202213  1
  Dy  Dy4  1  0.000000  0.683324  0.799885  1
  Dy  Dy5  1  0.000000  0.316676  0.799885  1
  Cr  Cr6  1  0.500000  0.500000  0.160664  1
  Co  Co7  1  0.000000  0.500000  0.986275  1
  Co  Co8  1  0.500000  0.000000  0.020504  1
  P  P9  1  0.500000  0.500000  0.882508  1
  P  P10  1  0.000000  0.000000  0.118460  1
  P  P11  1  0.500000  0.500000  0.345542  1
  P  P12  1  0.000000  0.000000  0.649035  1
  P  P13  1  0.500000  0.316115  0.619147  1
  P  P14  1  0.500000  0.683885  0.619147  1
  P  P15  1  0.000000  0.185486  0.380553  1
  P  P16  1  0.000000  0.814514  0.380553  1
  P  P17  1  0.500000  0.853807  0.894714  1
  P  P18  1  0.500000  0.146193  0.894714  1
  P  P19  1  0.000000  0.647053  0.105556  1
  P  P20  1  0.000000  0.352947  0.105556  1
  Rh  Rh21  1  0.000000  0.000000  0.832881  1
  Rh  Rh22  1  0.500000  0.500000  0.703081  1
  Rh  Rh23  1  0.000000  0.000000  0.296974  1
  Rh  Rh24  1  0.500000  0.335959  0.994175  1
  Rh  Rh25  1  0.500000  0.664041  0.994175  1
  Rh  Rh26  1  0.000000  0.163731  0.007460  1
  Rh  Rh27  1  0.000000  0.836269  0.007460  1
  Rh  Rh28  1  0.500000  0.293464  0.430740  1
  Rh  Rh29  1  0.500000  0.706536  0.430740  1
  Rh  Rh30  1  0.000000  0.205681  0.569812  1
  Rh  Rh31  1  0.000000  0.794319  0.569812  1
  Rh  Rh32  1  0.500000  0.872981  0.711529  1
  Rh  Rh33  1  0.500000  0.127019  0.711529  1
  Rh  Rh34  1  0.000000  0.624967  0.286910  1
  Rh  Rh35  1  0.000000  0.375033  0.286910  1
