# generated using pymatgen
data_Nd8Zn8Ru3Pt4Rh
_symmetry_space_group_name_H-M   'P 1'
_cell_length_a   4.04105300
_cell_length_b   7.37990787
_cell_length_c   16.68871930
_cell_angle_alpha   90.06937741
_cell_angle_beta   90.00000000
_cell_angle_gamma   90.00000000
_symmetry_Int_Tables_number   1
_chemical_formula_structural   Nd8Zn8Ru3Pt4Rh
_chemical_formula_sum   'Nd8 Zn8 Ru3 Pt4 Rh1'
_cell_volume   497.70061620
_cell_formula_units_Z   1
loop_
 _symmetry_equiv_pos_site_id
 _symmetry_equiv_pos_as_xyz
  1  'x, y, z'
loop_
 _atom_site_type_symbol
 _atom_site_label
 _atom_site_symmetry_multiplicity
 _atom_site_fract_x
 _atom_site_fract_y
 _atom_site_fract_z
 _atom_site_occupancy
  Nd  Nd0  1  0.250000  0.165831  0.943140  1
  Nd  Nd1  1  0.250000  0.664044  0.560615  1
  Nd  Nd2  1  0.750000  0.328143  0.442334  1
  Nd  Nd3  1  0.750000  0.946501  0.278652  1
  Nd  Nd4  1  0.750000  0.829388  0.060709  1
  Nd  Nd5  1  0.750000  0.457308  0.213130  1
  Nd  Nd6  1  0.250000  0.053821  0.713796  1
  Nd  Nd7  1  0.250000  0.552540  0.788319  1
  Zn  Zn8  1  0.750000  0.004925  0.560670  1
  Zn  Zn9  1  0.250000  0.625339  0.345053  1
  Zn  Zn10  1  0.750000  0.375898  0.649795  1
  Zn  Zn11  1  0.250000  0.502275  0.059087  1
  Zn  Zn12  1  0.750000  0.503829  0.942432  1
  Zn  Zn13  1  0.250000  0.000687  0.441386  1
  Zn  Zn14  1  0.250000  0.119222  0.148464  1
  Zn  Zn15  1  0.750000  0.875012  0.851819  1
  Ru  Ru16  1  0.250000  0.244355  0.565751  1
  Ru  Ru17  1  0.250000  0.744895  0.188015  1
  Ru  Ru18  1  0.250000  0.743508  0.934148  1
  Pt  Pt19  1  0.750000  0.752716  0.434144  1
  Pt  Pt20  1  0.250000  0.243695  0.311944  1
  Pt  Pt21  1  0.750000  0.253636  0.814613  1
  Pt  Pt22  1  0.750000  0.755760  0.686377  1
  Rh  Rh23  1  0.750000  0.256673  0.065608  1
