# generated using pymatgen
data_Sc3AlGa4Pd
_symmetry_space_group_name_H-M   'P 1'
_cell_length_a   6.77194400
_cell_length_b   6.80866355
_cell_length_c   4.13863500
_cell_angle_alpha   90.00000000
_cell_angle_beta   90.00000000
_cell_angle_gamma   119.82176842
_symmetry_Int_Tables_number   1
_chemical_formula_structural   Sc3AlGa4Pd
_chemical_formula_sum   'Sc3 Al1 Ga4 Pd1'
_cell_volume   165.55418951
_cell_formula_units_Z   1
loop_
 _symmetry_equiv_pos_site_id
 _symmetry_equiv_pos_as_xyz
  1  'x, y, z'
loop_
 _atom_site_type_symbol
 _atom_site_label
 _atom_site_symmetry_multiplicity
 _atom_site_fract_x
 _atom_site_fract_y
 _atom_site_fract_z
 _atom_site_occupancy
  Sc  Sc0  1  0.581567  0.000000  0.000000  1
  Sc  Sc1  1  0.999952  0.579970  0.000000  1
  Sc  Sc2  1  0.419983  0.420030  0.000000  1
  Al  Al3  1  0.238187  0.000000  0.500000  1
  Ga  Ga4  1  0.003938  0.250340  0.500000  1
  Ga  Ga5  1  0.753598  0.749660  0.500000  1
  Ga  Ga6  1  0.334535  0.670728  0.500000  1
  Ga  Ga7  1  0.663809  0.329272  0.500000  1
  Pd  Pd8  1  0.004429  0.000000  0.000000  1
