# generated using pymatgen
data_EuErMn6Ni6P7
_symmetry_space_group_name_H-M   'P 1'
_cell_length_a   9.18166000
_cell_length_b   9.18166085
_cell_length_c   3.66210400
_cell_angle_alpha   90.00000000
_cell_angle_beta   90.00000000
_cell_angle_gamma   120.00000685
_symmetry_Int_Tables_number   1
_chemical_formula_structural   EuErMn6Ni6P7
_chemical_formula_sum   'Eu1 Er1 Mn6 Ni6 P7'
_cell_volume   267.36449195
_cell_formula_units_Z   1
loop_
 _symmetry_equiv_pos_site_id
 _symmetry_equiv_pos_as_xyz
  1  'x, y, z'
loop_
 _atom_site_type_symbol
 _atom_site_label
 _atom_site_symmetry_multiplicity
 _atom_site_fract_x
 _atom_site_fract_y
 _atom_site_fract_z
 _atom_site_occupancy
  Eu  Eu0  1  0.333333  0.666667  0.000000  1
  Er  Er1  1  0.000000  0.000000  0.500000  1
  Mn  Mn2  1  0.547674  0.058174  0.000000  1
  Mn  Mn3  1  0.941826  0.489501  0.000000  1
  Mn  Mn4  1  0.510499  0.452326  0.000000  1
  Mn  Mn5  1  0.784149  0.234677  0.500000  1
  Mn  Mn6  1  0.765323  0.549471  0.500000  1
  Mn  Mn7  1  0.450529  0.215851  0.500000  1
  Ni  Ni8  1  0.037850  0.268533  0.000000  1
  Ni  Ni9  1  0.731467  0.769317  0.000000  1
  Ni  Ni10  1  0.230683  0.962150  0.000000  1
  Ni  Ni11  1  0.621111  0.898749  0.500000  1
  Ni  Ni12  1  0.101251  0.722361  0.500000  1
  Ni  Ni13  1  0.277639  0.378889  0.500000  1
  P  P14  1  0.778549  0.037414  0.000000  1
  P  P15  1  0.962586  0.741134  0.000000  1
  P  P16  1  0.258866  0.221451  0.000000  1
  P  P17  1  0.383321  0.934027  0.500000  1
  P  P18  1  0.065973  0.449294  0.500000  1
  P  P19  1  0.550706  0.616679  0.500000  1
  P  P20  1  0.666667  0.333333  0.000000  1
