# generated using pymatgen
data_Er4Mg3AlIr4
_symmetry_space_group_name_H-M   'P 1'
_cell_length_a   6.97566548
_cell_length_b   4.12989000
_cell_length_c   8.33926433
_cell_angle_alpha   90.00000000
_cell_angle_beta   89.02158095
_cell_angle_gamma   90.00000000
_symmetry_Int_Tables_number   1
_chemical_formula_structural   Er4Mg3AlIr4
_chemical_formula_sum   'Er4 Mg3 Al1 Ir4'
_cell_volume   240.20859588
_cell_formula_units_Z   1
loop_
 _symmetry_equiv_pos_site_id
 _symmetry_equiv_pos_as_xyz
  1  'x, y, z'
loop_
 _atom_site_type_symbol
 _atom_site_label
 _atom_site_symmetry_multiplicity
 _atom_site_fract_x
 _atom_site_fract_y
 _atom_site_fract_z
 _atom_site_occupancy
  Er  Er0  1  0.959824  0.250000  0.173590  1
  Er  Er1  1  0.465441  0.250000  0.321373  1
  Er  Er2  1  0.036372  0.750000  0.829144  1
  Er  Er3  1  0.533814  0.750000  0.674328  1
  Mg  Mg4  1  0.860438  0.250000  0.562195  1
  Mg  Mg5  1  0.364231  0.250000  0.940109  1
  Mg  Mg6  1  0.135163  0.750000  0.439532  1
  Al  Al7  1  0.637311  0.750000  0.057953  1
  Ir  Ir8  1  0.743326  0.250000  0.887814  1
  Ir  Ir9  1  0.250586  0.250000  0.629214  1
  Ir  Ir10  1  0.262895  0.750000  0.125147  1
  Ir  Ir11  1  0.750599  0.750000  0.359600  1
