# generated using pymatgen
data_Ho3Er(Si4Tc3)2
_symmetry_space_group_name_H-M   'P 1'
_cell_length_a   6.77724616
_cell_length_b   6.75459517
_cell_length_c   6.76911395
_cell_angle_alpha   69.81022774
_cell_angle_beta   90.01941839
_cell_angle_gamma   89.99182033
_symmetry_Int_Tables_number   1
_chemical_formula_structural   Ho3Er(Si4Tc3)2
_chemical_formula_sum   'Ho3 Er1 Si8 Tc6'
_cell_volume   290.83316726
_cell_formula_units_Z   1
loop_
 _symmetry_equiv_pos_site_id
 _symmetry_equiv_pos_as_xyz
  1  'x, y, z'
loop_
 _atom_site_type_symbol
 _atom_site_label
 _atom_site_symmetry_multiplicity
 _atom_site_fract_x
 _atom_site_fract_y
 _atom_site_fract_z
 _atom_site_occupancy
  Ho  Ho0  1  0.667778  0.442146  0.191541  1
  Ho  Ho1  1  0.167649  0.057888  0.808487  1
  Ho  Ho2  1  0.332309  0.557898  0.808406  1
  Er  Er3  1  0.831922  0.942149  0.191973  1
  Si  Si4  1  0.449356  0.122333  0.102512  1
  Si  Si5  1  0.948861  0.377245  0.897737  1
  Si  Si6  1  0.551267  0.877561  0.897782  1
  Si  Si7  1  0.050908  0.622776  0.102560  1
  Si  Si8  1  0.858612  0.131360  0.512426  1
  Si  Si9  1  0.358589  0.368523  0.487112  1
  Si  Si10  1  0.141077  0.868482  0.486997  1
  Si  Si11  1  0.641635  0.631806  0.512522  1
  Tc  Tc12  1  0.500214  0.999945  0.499836  1
  Tc  Tc13  1  0.999859  0.500338  0.499800  1
  Tc  Tc14  1  0.150103  0.242394  0.239107  1
  Tc  Tc15  1  0.650591  0.256960  0.760987  1
  Tc  Tc16  1  0.849627  0.757263  0.761033  1
  Tc  Tc17  1  0.349644  0.742934  0.239181  1
