# generated using pymatgen
data_YbPa(TiPd6)2
_symmetry_space_group_name_H-M   'P 1'
_cell_length_a   5.69916400
_cell_length_b   5.69916417
_cell_length_c   9.26113300
_cell_angle_alpha   90.00000000
_cell_angle_beta   90.00000000
_cell_angle_gamma   119.99999902
_symmetry_Int_Tables_number   1
_chemical_formula_structural   YbPa(TiPd6)2
_chemical_formula_sum   'Yb1 Pa1 Ti2 Pd12'
_cell_volume   260.50560926
_cell_formula_units_Z   1
loop_
 _symmetry_equiv_pos_site_id
 _symmetry_equiv_pos_as_xyz
  1  'x, y, z'
loop_
 _atom_site_type_symbol
 _atom_site_label
 _atom_site_symmetry_multiplicity
 _atom_site_fract_x
 _atom_site_fract_y
 _atom_site_fract_z
 _atom_site_occupancy
  Yb  Yb0  1  0.333333  0.666667  0.250000  1
  Pa  Pa1  1  0.666667  0.333333  0.750000  1
  Ti  Ti2  1  0.000000  0.000000  0.487181  1
  Ti  Ti3  1  0.000000  0.000000  0.012819  1
  Pd  Pd4  1  0.501252  0.498748  0.501289  1
  Pd  Pd5  1  0.501252  0.002504  0.501289  1
  Pd  Pd6  1  0.997496  0.498748  0.501289  1
  Pd  Pd7  1  0.501252  0.498748  0.998711  1
  Pd  Pd8  1  0.501252  0.002504  0.998711  1
  Pd  Pd9  1  0.997496  0.498748  0.998711  1
  Pd  Pd10  1  0.833076  0.666154  0.250000  1
  Pd  Pd11  1  0.333846  0.166924  0.250000  1
  Pd  Pd12  1  0.833076  0.166924  0.250000  1
  Pd  Pd13  1  0.166350  0.332700  0.750000  1
  Pd  Pd14  1  0.667300  0.833650  0.750000  1
  Pd  Pd15  1  0.166350  0.833650  0.750000  1
