# generated using pymatgen
data_Mg3ScPa4(ReB6)4
_symmetry_space_group_name_H-M   'P 1'
_cell_length_a   3.63883000
_cell_length_b   8.95717327
_cell_length_c   11.32429135
_cell_angle_alpha   89.97169269
_cell_angle_beta   90.00000000
_cell_angle_gamma   90.00000000
_symmetry_Int_Tables_number   1
_chemical_formula_structural   Mg3ScPa4(ReB6)4
_chemical_formula_sum   'Mg3 Sc1 Pa4 Re4 B24'
_cell_volume   369.09972639
_cell_formula_units_Z   1
loop_
 _symmetry_equiv_pos_site_id
 _symmetry_equiv_pos_as_xyz
  1  'x, y, z'
loop_
 _atom_site_type_symbol
 _atom_site_label
 _atom_site_symmetry_multiplicity
 _atom_site_fract_x
 _atom_site_fract_y
 _atom_site_fract_z
 _atom_site_occupancy
  Mg  Mg0  1  0.000000  0.947449  0.378598  1
  Mg  Mg1  1  0.000000  0.052399  0.620598  1
  Mg  Mg2  1  0.000000  0.446805  0.122614  1
  Sc  Sc3  1  0.000000  0.553884  0.876404  1
  Pa  Pa4  1  0.000000  0.320317  0.412958  1
  Pa  Pa5  1  0.000000  0.680946  0.584546  1
  Pa  Pa6  1  0.000000  0.820629  0.087612  1
  Pa  Pa7  1  0.000000  0.179673  0.914461  1
  Re  Re8  1  0.000000  0.640965  0.318786  1
  Re  Re9  1  0.000000  0.359351  0.680941  1
  Re  Re10  1  0.000000  0.140813  0.180248  1
  Re  Re11  1  0.000000  0.859435  0.819267  1
  B  B12  1  0.500000  0.554980  0.432763  1
  B  B13  1  0.500000  0.444820  0.567086  1
  B  B14  1  0.500000  0.054492  0.067177  1
  B  B15  1  0.500000  0.945012  0.932989  1
  B  B16  1  0.500000  0.754301  0.419200  1
  B  B17  1  0.500000  0.246024  0.580163  1
  B  B18  1  0.500000  0.253014  0.081149  1
  B  B19  1  0.500000  0.746098  0.919914  1
  B  B20  1  0.500000  0.793289  0.263774  1
  B  B21  1  0.500000  0.206186  0.736379  1
  B  B22  1  0.500000  0.293013  0.236381  1
  B  B23  1  0.500000  0.706261  0.764703  1
  B  B24  1  0.500000  0.629447  0.182922  1
  B  B25  1  0.500000  0.370248  0.817662  1
  B  B26  1  0.500000  0.128907  0.317720  1
  B  B27  1  0.500000  0.871050  0.682504  1
  B  B28  1  0.500000  0.981818  0.213629  1
  B  B29  1  0.500000  0.018421  0.786788  1
  B  B30  1  0.500000  0.481694  0.286492  1
  B  B31  1  0.500000  0.518182  0.714162  1
  B  B32  1  0.500000  0.600801  0.027535  1
  B  B33  1  0.500000  0.399187  0.972059  1
  B  B34  1  0.500000  0.100492  0.472189  1
  B  B35  1  0.500000  0.899597  0.527627  1
