# generated using pymatgen
data_Ho2Pa2Pd3PtPb2
_symmetry_space_group_name_H-M   'P 1'
_cell_length_a   7.91031335
_cell_length_b   7.88506734
_cell_length_c   3.64551700
_cell_angle_alpha   90.00000000
_cell_angle_beta   90.00000000
_cell_angle_gamma   89.96620749
_symmetry_Int_Tables_number   1
_chemical_formula_structural   Ho2Pa2Pd3PtPb2
_chemical_formula_sum   'Ho2 Pa2 Pd3 Pt1 Pb2'
_cell_volume   227.38308069
_cell_formula_units_Z   1
loop_
 _symmetry_equiv_pos_site_id
 _symmetry_equiv_pos_as_xyz
  1  'x, y, z'
loop_
 _atom_site_type_symbol
 _atom_site_label
 _atom_site_symmetry_multiplicity
 _atom_site_fract_x
 _atom_site_fract_y
 _atom_site_fract_z
 _atom_site_occupancy
  Ho  Ho0  1  0.829466  0.669988  0.500000  1
  Ho  Ho1  1  0.324015  0.832447  0.500000  1
  Pa  Pa2  1  0.665076  0.172633  0.500000  1
  Pa  Pa3  1  0.173446  0.326032  0.500000  1
  Pd  Pd4  1  0.128384  0.611481  0.000000  1
  Pd  Pd5  1  0.629212  0.882448  0.000000  1
  Pd  Pd6  1  0.873025  0.361278  0.000000  1
  Pt  Pt7  1  0.376850  0.136801  0.000000  1
  Pb  Pb8  1  0.997169  0.988923  0.000000  1
  Pb  Pb9  1  0.503356  0.517969  0.000000  1
