# generated using pymatgen
data_Ta4Fe3B4As2Ru7
_symmetry_space_group_name_H-M   'P 1'
_cell_length_a   9.11634594
_cell_length_b   9.07476698
_cell_length_c   2.98897800
_cell_angle_alpha   90.00000000
_cell_angle_beta   90.00000000
_cell_angle_gamma   90.07518966
_symmetry_Int_Tables_number   1
_chemical_formula_structural   Ta4Fe3B4As2Ru7
_chemical_formula_sum   'Ta4 Fe3 B4 As2 Ru7'
_cell_volume   247.27409642
_cell_formula_units_Z   1
loop_
 _symmetry_equiv_pos_site_id
 _symmetry_equiv_pos_as_xyz
  1  'x, y, z'
loop_
 _atom_site_type_symbol
 _atom_site_label
 _atom_site_symmetry_multiplicity
 _atom_site_fract_x
 _atom_site_fract_y
 _atom_site_fract_z
 _atom_site_occupancy
  Ta  Ta0  1  0.824324  0.672393  0.000000  1
  Ta  Ta1  1  0.171813  0.328884  0.000000  1
  Ta  Ta2  1  0.334325  0.826884  0.000000  1
  Ta  Ta3  1  0.669792  0.170161  0.000000  1
  Fe  Fe4  1  0.567309  0.718434  0.500000  1
  Fe  Fe5  1  0.500328  0.996239  0.500000  1
  Fe  Fe6  1  0.000230  0.500128  0.500000  1
  B  B7  1  0.611654  0.873236  0.000000  1
  B  B8  1  0.386759  0.115684  0.000000  1
  B  B9  1  0.114089  0.614912  0.000000  1
  B  B10  1  0.885456  0.386245  0.000000  1
  As  As11  1  0.503674  0.512504  0.000000  1
  As  As12  1  0.999231  0.999106  0.000000  1
  Ru  Ru13  1  0.434600  0.285057  0.500000  1
  Ru  Ru14  1  0.066562  0.783519  0.500000  1
  Ru  Ru15  1  0.931627  0.216103  0.500000  1
  Ru  Ru16  1  0.284807  0.568582  0.500000  1
  Ru  Ru17  1  0.716141  0.435375  0.500000  1
  Ru  Ru18  1  0.217229  0.066724  0.500000  1
  Ru  Ru19  1  0.780050  0.929829  0.500000  1
