# generated using pymatgen
data_NaPr2Nd4OsI12
_symmetry_space_group_name_H-M   'P 1'
_cell_length_a   10.10553694
_cell_length_b   10.06323883
_cell_length_c   10.17561800
_cell_angle_alpha   107.16040680
_cell_angle_beta   107.01676703
_cell_angle_gamma   106.78299879
_symmetry_Int_Tables_number   1
_chemical_formula_structural   NaPr2Nd4OsI12
_chemical_formula_sum   'Na1 Pr2 Nd4 Os1 I12'
_cell_volume   862.09895366
_cell_formula_units_Z   1
loop_
 _symmetry_equiv_pos_site_id
 _symmetry_equiv_pos_as_xyz
  1  'x, y, z'
loop_
 _atom_site_type_symbol
 _atom_site_label
 _atom_site_symmetry_multiplicity
 _atom_site_fract_x
 _atom_site_fract_y
 _atom_site_fract_z
 _atom_site_occupancy
  Na  Na0  1  0.499775  0.500369  0.497218  1
  Pr  Pr1  1  0.969098  0.690582  0.896606  1
  Pr  Pr2  1  0.692478  0.897398  0.970786  1
  Nd  Nd3  1  0.304316  0.102724  0.029336  1
  Nd  Nd4  1  0.029054  0.305738  0.104043  1
  Nd  Nd5  1  0.102673  0.028988  0.303630  1
  Nd  Nd6  1  0.898838  0.970167  0.697287  1
  Os  Os7  1  0.999478  0.999205  0.000345  1
  I  I8  1  0.684362  0.227631  0.073550  1
  I  I9  1  0.372745  0.454769  0.149461  1
  I  I10  1  0.074117  0.683934  0.224251  1
  I  I11  1  0.780024  0.930633  0.318071  1
  I  I12  1  0.453299  0.148527  0.371539  1
  I  I13  1  0.150280  0.374833  0.452915  1
  I  I14  1  0.850786  0.624426  0.546251  1
  I  I15  1  0.547754  0.852773  0.625605  1
  I  I16  1  0.223119  0.072647  0.686260  1
  I  I17  1  0.929863  0.315712  0.779526  1
  I  I18  1  0.621231  0.542422  0.845282  1
  I  I19  1  0.316714  0.776528  0.928040  1
