# generated using pymatgen
data_Nd2YEr7Pt8
_symmetry_space_group_name_H-M   'P 1'
_cell_length_a   7.47682974
_cell_length_b   7.55745935
_cell_length_c   14.75649500
_cell_angle_alpha   90.00954493
_cell_angle_beta   90.02545686
_cell_angle_gamma   89.98542440
_symmetry_Int_Tables_number   1
_chemical_formula_structural   Nd2YEr7Pt8
_chemical_formula_sum   'Nd4 Y2 Er14 Pt16'
_cell_volume   833.82797747
_cell_formula_units_Z   2
loop_
 _symmetry_equiv_pos_site_id
 _symmetry_equiv_pos_as_xyz
  1  'x, y, z'
loop_
 _atom_site_type_symbol
 _atom_site_label
 _atom_site_symmetry_multiplicity
 _atom_site_fract_x
 _atom_site_fract_y
 _atom_site_fract_z
 _atom_site_occupancy
  Nd  Nd0  1  0.501731  0.324250  0.091995  1
  Nd  Nd1  1  0.001650  0.175731  0.407936  1
  Nd  Nd2  1  0.502015  0.325148  0.408110  1
  Nd  Nd3  1  0.001890  0.174792  0.091673  1
  Y  Y4  1  0.499410  0.681154  0.905371  1
  Y  Y5  1  0.999602  0.818676  0.594626  1
  Er  Er6  1  0.656185  0.166772  0.623807  1
  Er  Er7  1  0.156372  0.333302  0.876106  1
  Er  Er8  1  0.346717  0.832141  0.121807  1
  Er  Er9  1  0.846820  0.667779  0.378090  1
  Er  Er10  1  0.346830  0.831532  0.378376  1
  Er  Er11  1  0.846901  0.668487  0.121533  1
  Er  Er12  1  0.656490  0.166536  0.876265  1
  Er  Er13  1  0.156372  0.333614  0.623654  1
  Er  Er14  1  0.500064  0.682052  0.595083  1
  Er  Er15  1  0.000069  0.818012  0.904885  1
  Er  Er16  1  0.816872  0.510463  0.749923  1
  Er  Er17  1  0.316851  0.989636  0.749977  1
  Er  Er18  1  0.181662  0.489088  0.249784  1
  Er  Er19  1  0.681571  0.010881  0.250173  1
  Pt  Pt20  1  0.680132  0.957124  0.462574  1
  Pt  Pt21  1  0.180147  0.542726  0.037479  1
  Pt  Pt22  1  0.314742  0.027366  0.954157  1
  Pt  Pt23  1  0.814657  0.472683  0.546030  1
  Pt  Pt24  1  0.318026  0.027332  0.546238  1
  Pt  Pt25  1  0.818187  0.472606  0.953955  1
  Pt  Pt26  1  0.680661  0.957965  0.037623  1
  Pt  Pt27  1  0.180973  0.541910  0.462355  1
  Pt  Pt28  1  0.451411  0.385135  0.749773  1
  Pt  Pt29  1  0.951374  0.115028  0.750455  1
  Pt  Pt30  1  0.548563  0.623036  0.249920  1
  Pt  Pt31  1  0.048465  0.877031  0.250005  1
  Pt  Pt32  1  0.680326  0.857407  0.749524  1
  Pt  Pt33  1  0.180315  0.642767  0.750976  1
  Pt  Pt34  1  0.317853  0.138378  0.249941  1
  Pt  Pt35  1  0.818095  0.361461  0.249819  1
