# generated using pymatgen
data_HoNpB6Mo
_symmetry_space_group_name_H-M   'P 1'
_cell_length_a   3.62582800
_cell_length_b   9.32457700
_cell_length_c   11.38591000
_cell_angle_alpha   90.00000000
_cell_angle_beta   90.00000000
_cell_angle_gamma   90.00000000
_symmetry_Int_Tables_number   1
_chemical_formula_structural   HoNpB6Mo
_chemical_formula_sum   'Ho4 Np4 B24 Mo4'
_cell_volume   384.94978786
_cell_formula_units_Z   4
loop_
 _symmetry_equiv_pos_site_id
 _symmetry_equiv_pos_as_xyz
  1  'x, y, z'
loop_
 _atom_site_type_symbol
 _atom_site_label
 _atom_site_symmetry_multiplicity
 _atom_site_fract_x
 _atom_site_fract_y
 _atom_site_fract_z
 _atom_site_occupancy
  Ho  Ho0  1  0.000000  0.338524  0.408034  1
  Ho  Ho1  1  0.000000  0.661476  0.591966  1
  Ho  Ho2  1  0.000000  0.838524  0.091966  1
  Ho  Ho3  1  0.000000  0.161476  0.908034  1
  Np  Np4  1  0.000000  0.959072  0.400361  1
  Np  Np5  1  0.000000  0.040928  0.599639  1
  Np  Np6  1  0.000000  0.459072  0.099639  1
  Np  Np7  1  0.000000  0.540928  0.900361  1
  B  B8  1  0.500000  0.551891  0.432085  1
  B  B9  1  0.500000  0.448109  0.567915  1
  B  B10  1  0.500000  0.051891  0.067915  1
  B  B11  1  0.500000  0.948109  0.932085  1
  B  B12  1  0.500000  0.746071  0.424009  1
  B  B13  1  0.500000  0.253929  0.575991  1
  B  B14  1  0.500000  0.246071  0.075991  1
  B  B15  1  0.500000  0.753929  0.924009  1
  B  B16  1  0.500000  0.806469  0.275215  1
  B  B17  1  0.500000  0.193531  0.724785  1
  B  B18  1  0.500000  0.306469  0.224785  1
  B  B19  1  0.500000  0.693531  0.775215  1
  B  B20  1  0.500000  0.644214  0.186913  1
  B  B21  1  0.500000  0.355786  0.813087  1
  B  B22  1  0.500000  0.144214  0.313087  1
  B  B23  1  0.500000  0.855786  0.686913  1
  B  B24  1  0.500000  0.987877  0.221421  1
  B  B25  1  0.500000  0.012123  0.778579  1
  B  B26  1  0.500000  0.487877  0.278579  1
  B  B27  1  0.500000  0.512123  0.721421  1
  B  B28  1  0.500000  0.638702  0.038522  1
  B  B29  1  0.500000  0.361298  0.961478  1
  B  B30  1  0.500000  0.138702  0.461478  1
  B  B31  1  0.500000  0.861298  0.538522  1
  Mo  Mo32  1  0.000000  0.647436  0.317835  1
  Mo  Mo33  1  0.000000  0.352564  0.682165  1
  Mo  Mo34  1  0.000000  0.147436  0.182165  1
  Mo  Mo35  1  0.000000  0.852564  0.817835  1
