# generated using pymatgen
data_Tb16InHg3IrRu3
_symmetry_space_group_name_H-M   'P 1'
_cell_length_a   9.67691905
_cell_length_b   9.63779697
_cell_length_c   9.63848826
_cell_angle_alpha   59.78394151
_cell_angle_beta   59.86802009
_cell_angle_gamma   59.86563346
_symmetry_Int_Tables_number   1
_chemical_formula_structural   Tb16InHg3IrRu3
_chemical_formula_sum   'Tb16 In1 Hg3 Ir1 Ru3'
_cell_volume   633.31585929
_cell_formula_units_Z   1
loop_
 _symmetry_equiv_pos_site_id
 _symmetry_equiv_pos_as_xyz
  1  'x, y, z'
loop_
 _atom_site_type_symbol
 _atom_site_label
 _atom_site_symmetry_multiplicity
 _atom_site_fract_x
 _atom_site_fract_y
 _atom_site_fract_z
 _atom_site_occupancy
  Tb  Tb0  1  0.098370  0.705346  0.097914  1
  Tb  Tb1  1  0.940216  0.938581  0.560331  1
  Tb  Tb2  1  0.942241  0.560712  0.939025  1
  Tb  Tb3  1  0.310463  0.689946  0.309144  1
  Tb  Tb4  1  0.939851  0.561882  0.558415  1
  Tb  Tb5  1  0.312245  0.310263  0.686853  1
  Tb  Tb6  1  0.098855  0.097830  0.099568  1
  Tb  Tb7  1  0.558021  0.560712  0.939025  1
  Tb  Tb8  1  0.099231  0.098776  0.702762  1
  Tb  Tb9  1  0.690639  0.310263  0.686853  1
  Tb  Tb10  1  0.690446  0.689946  0.309144  1
  Tb  Tb11  1  0.689659  0.310102  0.310579  1
  Tb  Tb12  1  0.310686  0.691064  0.687564  1
  Tb  Tb13  1  0.560873  0.938581  0.560331  1
  Tb  Tb14  1  0.703747  0.097830  0.099568  1
  Tb  Tb15  1  0.559882  0.941330  0.938906  1
  In  In16  1  0.330609  0.330066  0.008716  1
  Hg  Hg17  1  0.334774  0.334078  0.334623  1
  Hg  Hg18  1  0.996526  0.334078  0.334623  1
  Hg  Hg19  1  0.334904  0.996087  0.334105  1
  Ir  Ir20  1  0.890285  0.327208  0.892223  1
  Ru  Ru21  1  0.887526  0.891385  0.889946  1
  Ru  Ru22  1  0.888808  0.892550  0.329836  1
  Ru  Ru23  1  0.331143  0.891385  0.889946  1
