# generated using pymatgen
data_Tb2HoGaC3
_symmetry_space_group_name_H-M   'P 1'
_cell_length_a   3.58432000
_cell_length_b   7.08297194
_cell_length_c   9.88640804
_cell_angle_alpha   89.82034050
_cell_angle_beta   90.00000000
_cell_angle_gamma   90.00000000
_symmetry_Int_Tables_number   1
_chemical_formula_structural   Tb2HoGaC3
_chemical_formula_sum   'Tb4 Ho2 Ga2 C6'
_cell_volume   250.99131412
_cell_formula_units_Z   2
loop_
 _symmetry_equiv_pos_site_id
 _symmetry_equiv_pos_as_xyz
  1  'x, y, z'
loop_
 _atom_site_type_symbol
 _atom_site_label
 _atom_site_symmetry_multiplicity
 _atom_site_fract_x
 _atom_site_fract_y
 _atom_site_fract_z
 _atom_site_occupancy
  Tb  Tb0  1  0.500000  0.510926  0.195726  1
  Tb  Tb1  1  0.500000  0.489074  0.804274  1
  Tb  Tb2  1  0.000000  0.750217  0.459519  1
  Tb  Tb3  1  0.000000  0.249783  0.540481  1
  Ho  Ho4  1  0.500000  0.987741  0.197480  1
  Ho  Ho5  1  0.500000  0.012259  0.802520  1
  Ga  Ga6  1  0.000000  0.755083  0.000588  1
  Ga  Ga7  1  0.000000  0.244917  0.999412  1
  C  C8  1  0.500000  0.509157  0.566763  1
  C  C9  1  0.500000  0.490843  0.433237  1
  C  C10  1  0.500000  0.990937  0.566826  1
  C  C11  1  0.500000  0.009063  0.433174  1
  C  C12  1  0.000000  0.752245  0.208810  1
  C  C13  1  0.000000  0.247755  0.791190  1
