# generated using pymatgen
data_LaNdNi7Ir2Rh
_symmetry_space_group_name_H-M   'P 1'
_cell_length_a   4.04707900
_cell_length_b   5.11868133
_cell_length_c   8.86952337
_cell_angle_alpha   92.47253268
_cell_angle_beta   90.00000000
_cell_angle_gamma   90.00000000
_symmetry_Int_Tables_number   1
_chemical_formula_structural   LaNdNi7Ir2Rh
_chemical_formula_sum   'La1 Nd1 Ni7 Ir2 Rh1'
_cell_volume   183.56739639
_cell_formula_units_Z   1
loop_
 _symmetry_equiv_pos_site_id
 _symmetry_equiv_pos_as_xyz
  1  'x, y, z'
loop_
 _atom_site_type_symbol
 _atom_site_label
 _atom_site_symmetry_multiplicity
 _atom_site_fract_x
 _atom_site_fract_y
 _atom_site_fract_z
 _atom_site_occupancy
  La  La0  1  0.000000  0.002326  0.000426  1
  Nd  Nd1  1  0.000000  0.498898  0.499753  1
  Ni  Ni2  1  0.000000  0.986243  0.341888  1
  Ni  Ni3  1  0.000000  0.483670  0.826255  1
  Ni  Ni4  1  0.000000  0.520269  0.171366  1
  Ni  Ni5  1  0.000000  0.007830  0.659813  1
  Ni  Ni6  1  0.500000  0.996039  0.500541  1
  Ni  Ni7  1  0.500000  0.751932  0.254243  1
  Ni  Ni8  1  0.500000  0.247629  0.746113  1
  Ir  Ir9  1  0.500000  0.504921  0.999631  1
  Ir  Ir10  1  0.500000  0.753549  0.745460  1
  Rh  Rh11  1  0.500000  0.246693  0.254511  1
