# generated using pymatgen
data_Ce2TmGa2Ge3
_symmetry_space_group_name_H-M   'P 1'
_cell_length_a   7.89097128
_cell_length_b   7.89097125
_cell_length_c   7.89097148
_cell_angle_alpha   119.89516829
_cell_angle_beta   119.89517049
_cell_angle_gamma   90.18167149
_symmetry_Int_Tables_number   1
_chemical_formula_structural   Ce2TmGa2Ge3
_chemical_formula_sum   'Ce4 Tm2 Ga4 Ge6'
_cell_volume   347.98588082
_cell_formula_units_Z   2
loop_
 _symmetry_equiv_pos_site_id
 _symmetry_equiv_pos_as_xyz
  1  'x, y, z'
loop_
 _atom_site_type_symbol
 _atom_site_label
 _atom_site_symmetry_multiplicity
 _atom_site_fract_x
 _atom_site_fract_y
 _atom_site_fract_z
 _atom_site_occupancy
  Ce  Ce0  1  0.661808  0.161808  0.819562  1
  Ce  Ce1  1  0.342246  0.842246  0.180438  1
  Ce  Ce2  1  0.842246  0.661808  0.500000  1
  Ce  Ce3  1  0.161808  0.342246  0.500000  1
  Tm  Tm4  1  0.742985  0.742985  0.000000  1
  Tm  Tm5  1  0.242985  0.242985  0.000000  1
  Ga  Ga6  1  0.954044  0.454044  0.780431  1
  Ga  Ga7  1  0.673613  0.173613  0.219569  1
  Ga  Ga8  1  0.173613  0.954044  0.500000  1
  Ga  Ga9  1  0.454044  0.673613  0.500000  1
  Ge  Ge10  1  0.491438  0.491438  0.000000  1
  Ge  Ge11  1  0.991438  0.991438  0.000000  1
  Ge  Ge12  1  0.042796  0.542796  0.201725  1
  Ge  Ge13  1  0.341071  0.841071  0.798275  1
  Ge  Ge14  1  0.841071  0.042796  0.500000  1
  Ge  Ge15  1  0.542796  0.341071  0.500000  1
