# generated using pymatgen
data_CsDyGeSe4
_symmetry_space_group_name_H-M   'P 1'
_cell_length_a   7.13851500
_cell_length_b   6.82044459
_cell_length_c   9.81388547
_cell_angle_alpha   72.52371961
_cell_angle_beta   90.00000000
_cell_angle_gamma   90.00000000
_symmetry_Int_Tables_number   1
_chemical_formula_structural   CsDyGeSe4
_chemical_formula_sum   'Cs2 Dy2 Ge2 Se8'
_cell_volume   455.76156240
_cell_formula_units_Z   2
loop_
 _symmetry_equiv_pos_site_id
 _symmetry_equiv_pos_as_xyz
  1  'x, y, z'
loop_
 _atom_site_type_symbol
 _atom_site_label
 _atom_site_symmetry_multiplicity
 _atom_site_fract_x
 _atom_site_fract_y
 _atom_site_fract_z
 _atom_site_occupancy
  Cs  Cs0  1  0.991362  0.740891  0.063360  1
  Cs  Cs1  1  0.491362  0.259109  0.936640  1
  Dy  Dy2  1  0.509860  0.228311  0.454153  1
  Dy  Dy3  1  0.009860  0.771689  0.545847  1
  Ge  Ge4  1  0.474071  0.778088  0.337904  1
  Ge  Ge5  1  0.974071  0.221912  0.662096  1
  Se  Se6  1  0.480546  0.567669  0.186079  1
  Se  Se7  1  0.234111  0.033927  0.295273  1
  Se  Se8  1  0.747461  0.988663  0.313824  1
  Se  Se9  1  0.895589  0.438769  0.430918  1
  Se  Se10  1  0.395589  0.561231  0.569082  1
  Se  Se11  1  0.247461  0.011337  0.686176  1
  Se  Se12  1  0.734111  0.966073  0.704727  1
  Se  Se13  1  0.980546  0.432331  0.813921  1
