# generated using pymatgen
data_DyY9(InSb2)2
_symmetry_space_group_name_H-M   'P 1'
_cell_length_a   6.51031400
_cell_length_b   8.97663635
_cell_length_c   8.98130801
_cell_angle_alpha   120.02183007
_cell_angle_beta   89.99836101
_cell_angle_gamma   90.00046082
_symmetry_Int_Tables_number   1
_chemical_formula_structural   DyY9(InSb2)2
_chemical_formula_sum   'Dy1 Y9 In2 Sb4'
_cell_volume   454.45429708
_cell_formula_units_Z   1
loop_
 _symmetry_equiv_pos_site_id
 _symmetry_equiv_pos_as_xyz
  1  'x, y, z'
loop_
 _atom_site_type_symbol
 _atom_site_label
 _atom_site_symmetry_multiplicity
 _atom_site_fract_x
 _atom_site_fract_y
 _atom_site_fract_z
 _atom_site_occupancy
  Dy  Dy0  1  0.000968  0.336147  0.667492  1
  Y  Y1  1  0.498830  0.335893  0.667526  1
  Y  Y2  1  0.498923  0.664007  0.331569  1
  Y  Y3  1  0.001094  0.664067  0.331602  1
  Y  Y4  1  0.750028  0.241920  0.004533  1
  Y  Y5  1  0.750089  0.758011  0.762553  1
  Y  Y6  1  0.750031  0.999974  0.240174  1
  Y  Y7  1  0.249990  0.758838  0.997836  1
  Y  Y8  1  0.250019  0.241133  0.239009  1
  Y  Y9  1  0.249975  0.999987  0.756753  1
  In  In10  1  0.750161  0.605500  0.000755  1
  In  In11  1  0.750209  0.394371  0.395372  1
  Sb  Sb12  1  0.750157  0.000121  0.609550  1
  Sb  Sb13  1  0.249856  0.391880  0.998257  1
  Sb  Sb14  1  0.249833  0.608103  0.606396  1
  Sb  Sb15  1  0.249842  0.000049  0.390627  1
