# generated using pymatgen
data_HfSeBr8
_symmetry_space_group_name_H-M   'P 1'
_cell_length_a   7.11457856
_cell_length_b   8.27669800
_cell_length_c   6.72122295
_cell_angle_alpha   90.00000000
_cell_angle_beta   107.38131280
_cell_angle_gamma   90.00000000
_symmetry_Int_Tables_number   1
_chemical_formula_structural   HfSeBr8
_chemical_formula_sum   'Hf1 Se1 Br8'
_cell_volume   377.70846715
_cell_formula_units_Z   1
loop_
 _symmetry_equiv_pos_site_id
 _symmetry_equiv_pos_as_xyz
  1  'x, y, z'
loop_
 _atom_site_type_symbol
 _atom_site_label
 _atom_site_symmetry_multiplicity
 _atom_site_fract_x
 _atom_site_fract_y
 _atom_site_fract_z
 _atom_site_occupancy
  Hf  Hf0  1  0.000000  0.347979  0.750001  1
  Se  Se1  1  0.000000  0.650835  0.250000  1
  Br  Br2  1  0.774003  0.395943  0.988600  1
  Br  Br3  1  0.776480  0.844388  0.041890  1
  Br  Br4  1  0.223520  0.844388  0.458110  1
  Br  Br5  1  0.225998  0.395943  0.511400  1
  Br  Br6  1  0.787254  0.607206  0.509282  1
  Br  Br7  1  0.759650  0.153054  0.531614  1
  Br  Br8  1  0.240350  0.153054  0.968386  1
  Br  Br9  1  0.212746  0.607206  0.990718  1
