# generated using pymatgen
data_Sc12Mn3Si12Pt
_symmetry_space_group_name_H-M   'P 1'
_cell_length_a   3.97995400
_cell_length_b   10.30050700
_cell_length_c   11.74090700
_cell_angle_alpha   90.00060109
_cell_angle_beta   90.00000000
_cell_angle_gamma   90.00000000
_symmetry_Int_Tables_number   1
_chemical_formula_structural   Sc12Mn3Si12Pt
_chemical_formula_sum   'Sc12 Mn3 Si12 Pt1'
_cell_volume   481.32486994
_cell_formula_units_Z   1
loop_
 _symmetry_equiv_pos_site_id
 _symmetry_equiv_pos_as_xyz
  1  'x, y, z'
loop_
 _atom_site_type_symbol
 _atom_site_label
 _atom_site_symmetry_multiplicity
 _atom_site_fract_x
 _atom_site_fract_y
 _atom_site_fract_z
 _atom_site_occupancy
  Sc  Sc0  1  0.250000  0.878607  0.022699  1
  Sc  Sc1  1  0.250000  0.621326  0.521773  1
  Sc  Sc2  1  0.750000  0.124549  0.981516  1
  Sc  Sc3  1  0.750000  0.379376  0.478703  1
  Sc  Sc4  1  0.250000  0.922065  0.602678  1
  Sc  Sc5  1  0.250000  0.578098  0.102571  1
  Sc  Sc6  1  0.750000  0.077488  0.398213  1
  Sc  Sc7  1  0.750000  0.422520  0.897464  1
  Sc  Sc8  1  0.250000  0.656036  0.798686  1
  Sc  Sc9  1  0.250000  0.838743  0.298853  1
  Sc  Sc10  1  0.750000  0.340668  0.200646  1
  Sc  Sc11  1  0.750000  0.161302  0.699301  1
  Mn  Mn12  1  0.250000  0.387667  0.676834  1
  Mn  Mn13  1  0.250000  0.112641  0.176788  1
  Mn  Mn14  1  0.750000  0.614076  0.322992  1
  Si  Si15  1  0.250000  0.019923  0.824507  1
  Si  Si16  1  0.250000  0.485553  0.322764  1
  Si  Si17  1  0.750000  0.984613  0.176476  1
  Si  Si18  1  0.750000  0.513499  0.677643  1
  Si  Si19  1  0.250000  0.252875  0.840523  1
  Si  Si20  1  0.250000  0.247691  0.341459  1
  Si  Si21  1  0.750000  0.747432  0.158319  1
  Si  Si22  1  0.750000  0.748489  0.654834  1
  Si  Si23  1  0.250000  0.196219  0.544160  1
  Si  Si24  1  0.250000  0.305760  0.044381  1
  Si  Si25  1  0.750000  0.805692  0.454930  1
  Si  Si26  1  0.750000  0.690523  0.957592  1
  Pt  Pt27  1  0.750000  0.886570  0.822693  1
