# generated using pymatgen
data_Th(Ni2B)6
_symmetry_space_group_name_H-M   'P 1'
_cell_length_a   6.01814560
_cell_length_b   6.01814584
_cell_length_c   6.01814567
_cell_angle_alpha   104.40530065
_cell_angle_beta   104.40530343
_cell_angle_gamma   104.40531005
_symmetry_Int_Tables_number   1
_chemical_formula_structural   Th(Ni2B)6
_chemical_formula_sum   'Th1 Ni12 B6'
_cell_volume   192.93737195
_cell_formula_units_Z   1
loop_
 _symmetry_equiv_pos_site_id
 _symmetry_equiv_pos_as_xyz
  1  'x, y, z'
loop_
 _atom_site_type_symbol
 _atom_site_label
 _atom_site_symmetry_multiplicity
 _atom_site_fract_x
 _atom_site_fract_y
 _atom_site_fract_z
 _atom_site_occupancy
  Th  Th0  1  0.000000  0.000000  0.000000  1
  Ni  Ni1  1  0.869064  0.130936  0.500000  1
  Ni  Ni2  1  0.130936  0.500000  0.869064  1
  Ni  Ni3  1  0.500000  0.869064  0.130936  1
  Ni  Ni4  1  0.869064  0.500000  0.130936  1
  Ni  Ni5  1  0.500000  0.130936  0.869064  1
  Ni  Ni6  1  0.130936  0.869064  0.500000  1
  Ni  Ni7  1  0.812860  0.546401  0.546401  1
  Ni  Ni8  1  0.546401  0.546401  0.812860  1
  Ni  Ni9  1  0.546401  0.812860  0.546401  1
  Ni  Ni10  1  0.187140  0.453599  0.453599  1
  Ni  Ni11  1  0.453599  0.453599  0.187140  1
  Ni  Ni12  1  0.453599  0.187140  0.453599  1
  B  B13  1  0.332171  0.766682  0.766682  1
  B  B14  1  0.766682  0.766682  0.332171  1
  B  B15  1  0.766682  0.332171  0.766682  1
  B  B16  1  0.667829  0.233318  0.233318  1
  B  B17  1  0.233318  0.233318  0.667829  1
  B  B18  1  0.233318  0.667829  0.233318  1
