# generated using pymatgen
data_GdDyNi2Pb
_symmetry_space_group_name_H-M   'P 1'
_cell_length_a   7.44407000
_cell_length_b   7.44406954
_cell_length_c   3.69267800
_cell_angle_alpha   90.00000000
_cell_angle_beta   90.00000000
_cell_angle_gamma   148.34210637
_symmetry_Int_Tables_number   1
_chemical_formula_structural   GdDyNi2Pb
_chemical_formula_sum   'Gd1 Dy1 Ni2 Pb1'
_cell_volume   107.39755869
_cell_formula_units_Z   1
loop_
 _symmetry_equiv_pos_site_id
 _symmetry_equiv_pos_as_xyz
  1  'x, y, z'
loop_
 _atom_site_type_symbol
 _atom_site_label
 _atom_site_symmetry_multiplicity
 _atom_site_fract_x
 _atom_site_fract_y
 _atom_site_fract_z
 _atom_site_occupancy
  Gd  Gd0  1  0.360194  0.639805  0.500000  1
  Dy  Dy1  1  0.639805  0.360194  0.500000  1
  Ni  Ni2  1  0.798063  0.201937  0.000000  1
  Ni  Ni3  1  0.201937  0.798063  0.000000  1
  Pb  Pb4  1  0.000000  0.000000  0.000000  1
