# generated using pymatgen
data_TbCe3Zn5Re3
_symmetry_space_group_name_H-M   'P 1'
_cell_length_a   5.43789400
_cell_length_b   5.43789507
_cell_length_c   8.97588500
_cell_angle_alpha   90.00000000
_cell_angle_beta   90.00000000
_cell_angle_gamma   120.00000569
_symmetry_Int_Tables_number   1
_chemical_formula_structural   TbCe3Zn5Re3
_chemical_formula_sum   'Tb1 Ce3 Zn5 Re3'
_cell_volume   229.86319929
_cell_formula_units_Z   1
loop_
 _symmetry_equiv_pos_site_id
 _symmetry_equiv_pos_as_xyz
  1  'x, y, z'
loop_
 _atom_site_type_symbol
 _atom_site_label
 _atom_site_symmetry_multiplicity
 _atom_site_fract_x
 _atom_site_fract_y
 _atom_site_fract_z
 _atom_site_occupancy
  Tb  Tb0  1  0.333333  0.666667  0.060935  1
  Ce  Ce1  1  0.333333  0.666667  0.441292  1
  Ce  Ce2  1  0.666667  0.333333  0.572024  1
  Ce  Ce3  1  0.666667  0.333333  0.928875  1
  Zn  Zn4  1  0.000000  0.000000  0.497630  1
  Zn  Zn5  1  0.000000  0.000000  0.001981  1
  Zn  Zn6  1  0.832431  0.167569  0.247725  1
  Zn  Zn7  1  0.832431  0.664863  0.247725  1
  Zn  Zn8  1  0.335137  0.167569  0.247725  1
  Re  Re9  1  0.169289  0.830711  0.751363  1
  Re  Re10  1  0.169289  0.338579  0.751363  1
  Re  Re11  1  0.661421  0.830711  0.751363  1
