# generated using pymatgen
data_Sc8Ta3Nb9Si16
_symmetry_space_group_name_H-M   'P 1'
_cell_length_a   6.71454202
_cell_length_b   6.89165402
_cell_length_c   13.15838900
_cell_angle_alpha   90.00000000
_cell_angle_beta   90.00000000
_cell_angle_gamma   90.00904524
_symmetry_Int_Tables_number   1
_chemical_formula_structural   Sc8Ta3Nb9Si16
_chemical_formula_sum   'Sc8 Ta3 Nb9 Si16'
_cell_volume   608.89523937
_cell_formula_units_Z   1
loop_
 _symmetry_equiv_pos_site_id
 _symmetry_equiv_pos_as_xyz
  1  'x, y, z'
loop_
 _atom_site_type_symbol
 _atom_site_label
 _atom_site_symmetry_multiplicity
 _atom_site_fract_x
 _atom_site_fract_y
 _atom_site_fract_z
 _atom_site_occupancy
  Sc  Sc0  1  0.499897  0.674520  0.595485  1
  Sc  Sc1  1  0.999850  0.825194  0.904626  1
  Sc  Sc2  1  0.500076  0.325404  0.095214  1
  Sc  Sc3  1  0.000233  0.174680  0.404786  1
  Sc  Sc4  1  0.500076  0.325404  0.404786  1
  Sc  Sc5  1  0.000233  0.174680  0.095214  1
  Sc  Sc6  1  0.499897  0.674520  0.904515  1
  Sc  Sc7  1  0.999850  0.825194  0.595374  1
  Ta  Ta8  1  0.836523  0.494088  0.750000  1
  Ta  Ta9  1  0.336481  0.006245  0.750000  1
  Ta  Ta10  1  0.163641  0.506115  0.250000  1
  Nb  Nb11  1  0.661213  0.175105  0.625104  1
  Nb  Nb12  1  0.161445  0.324791  0.875003  1
  Nb  Nb13  1  0.338602  0.824920  0.124962  1
  Nb  Nb14  1  0.838924  0.675026  0.375089  1
  Nb  Nb15  1  0.338602  0.824920  0.375038  1
  Nb  Nb16  1  0.838924  0.675026  0.124911  1
  Nb  Nb17  1  0.661213  0.175105  0.874896  1
  Nb  Nb18  1  0.161445  0.324791  0.624997  1
  Nb  Nb19  1  0.663585  0.994662  0.250000  1
  Si  Si20  1  0.669428  0.967224  0.461155  1
  Si  Si21  1  0.169537  0.532324  0.039191  1
  Si  Si22  1  0.330472  0.032274  0.960737  1
  Si  Si23  1  0.830427  0.467552  0.539261  1
  Si  Si24  1  0.330472  0.032274  0.539263  1
  Si  Si25  1  0.830427  0.467552  0.960739  1
  Si  Si26  1  0.669428  0.967224  0.038845  1
  Si  Si27  1  0.169537  0.532324  0.460809  1
  Si  Si28  1  0.457752  0.386535  0.750000  1
  Si  Si29  1  0.957554  0.113834  0.750000  1
  Si  Si30  1  0.542416  0.613484  0.250000  1
  Si  Si31  1  0.042311  0.886127  0.250000  1
  Si  Si32  1  0.703350  0.861107  0.750000  1
  Si  Si33  1  0.203500  0.639024  0.750000  1
  Si  Si34  1  0.296033  0.138928  0.250000  1
  Si  Si35  1  0.796644  0.361828  0.250000  1
