# generated using pymatgen
data_Hf8Tc4Os3Au
_symmetry_space_group_name_H-M   'P 1'
_cell_length_a   6.56612700
_cell_length_b   4.63113900
_cell_length_c   9.26205501
_cell_angle_alpha   90.00000000
_cell_angle_beta   90.00402617
_cell_angle_gamma   90.00000000
_symmetry_Int_Tables_number   1
_chemical_formula_structural   Hf8Tc4Os3Au
_chemical_formula_sum   'Hf8 Tc4 Os3 Au1'
_cell_volume   281.64655905
_cell_formula_units_Z   1
loop_
 _symmetry_equiv_pos_site_id
 _symmetry_equiv_pos_as_xyz
  1  'x, y, z'
loop_
 _atom_site_type_symbol
 _atom_site_label
 _atom_site_symmetry_multiplicity
 _atom_site_fract_x
 _atom_site_fract_y
 _atom_site_fract_z
 _atom_site_occupancy
  Hf  Hf0  1  0.988841  0.750001  0.124989  1
  Hf  Hf1  1  0.511252  0.750001  0.124981  1
  Hf  Hf2  1  0.995155  0.250001  0.380984  1
  Hf  Hf3  1  0.504920  0.250001  0.380985  1
  Hf  Hf4  1  0.498811  0.750001  0.625002  1
  Hf  Hf5  1  0.001074  0.750001  0.625014  1
  Hf  Hf6  1  0.504804  0.250001  0.869015  1
  Hf  Hf7  1  0.995079  0.250001  0.869025  1
  Tc  Tc8  1  0.750033  0.250001  0.125008  1
  Tc  Tc9  1  0.250039  0.750001  0.373035  1
  Tc  Tc10  1  0.749959  0.250001  0.625008  1
  Tc  Tc11  1  0.249948  0.750001  0.876938  1
  Os  Os12  1  0.750032  0.750001  0.375408  1
  Os  Os13  1  0.249961  0.250001  0.624990  1
  Os  Os14  1  0.749949  0.750001  0.874597  1
  Au  Au15  1  0.250044  0.250001  0.125019  1
