# generated using pymatgen
data_La3Y(Tm4Bi3)4
_symmetry_space_group_name_H-M   'P 1'
_cell_length_a   8.28604123
_cell_length_b   9.45979100
_cell_length_c   12.07211500
_cell_angle_alpha   90.00000000
_cell_angle_beta   89.94938413
_cell_angle_gamma   90.00000000
_symmetry_Int_Tables_number   1
_chemical_formula_structural   La3Y(Tm4Bi3)4
_chemical_formula_sum   'La3 Y1 Tm16 Bi12'
_cell_volume   946.26292807
_cell_formula_units_Z   1
loop_
 _symmetry_equiv_pos_site_id
 _symmetry_equiv_pos_as_xyz
  1  'x, y, z'
loop_
 _atom_site_type_symbol
 _atom_site_label
 _atom_site_symmetry_multiplicity
 _atom_site_fract_x
 _atom_site_fract_y
 _atom_site_fract_z
 _atom_site_occupancy
  La  La0  1  0.316704  0.250000  0.219744  1
  La  La1  1  0.816090  0.250000  0.279994  1
  La  La2  1  0.684206  0.750000  0.780795  1
  Y  Y3  1  0.185623  0.750000  0.717005  1
  Tm  Tm4  1  0.350186  0.750000  0.218438  1
  Tm  Tm5  1  0.851876  0.750000  0.282616  1
  Tm  Tm6  1  0.647368  0.250000  0.779906  1
  Tm  Tm7  1  0.148551  0.250000  0.718890  1
  Tm  Tm8  1  0.689814  0.567568  0.061355  1
  Tm  Tm9  1  0.191789  0.933162  0.439566  1
  Tm  Tm10  1  0.310063  0.066703  0.937345  1
  Tm  Tm11  1  0.807876  0.433210  0.561714  1
  Tm  Tm12  1  0.310063  0.433297  0.937345  1
  Tm  Tm13  1  0.807876  0.066790  0.561714  1
  Tm  Tm14  1  0.689814  0.932432  0.061355  1
  Tm  Tm15  1  0.191789  0.566838  0.439566  1
  Tm  Tm16  1  0.477023  0.250000  0.490339  1
  Tm  Tm17  1  0.979201  0.250000  0.010238  1
  Tm  Tm18  1  0.521885  0.750000  0.513157  1
  Tm  Tm19  1  0.022014  0.750000  0.988032  1
  Bi  Bi20  1  0.399025  0.750000  0.962871  1
  Bi  Bi21  1  0.906343  0.750000  0.538873  1
  Bi  Bi22  1  0.599182  0.250000  0.034195  1
  Bi  Bi23  1  0.097674  0.250000  0.465031  1
  Bi  Bi24  1  0.564177  0.988478  0.329293  1
  Bi  Bi25  1  0.063825  0.510997  0.171540  1
  Bi  Bi26  1  0.430427  0.492099  0.672711  1
  Bi  Bi27  1  0.940556  0.007675  0.826413  1
  Bi  Bi28  1  0.430427  0.007901  0.672711  1
  Bi  Bi29  1  0.940556  0.492325  0.826413  1
  Bi  Bi30  1  0.564177  0.511522  0.329293  1
  Bi  Bi31  1  0.063825  0.989003  0.171540  1
