# generated using pymatgen
data_Pr8Sc11Si16Pd
_symmetry_space_group_name_H-M   'P 1'
_cell_length_a   7.17602800
_cell_length_b   7.55080948
_cell_length_c   14.12549200
_cell_angle_alpha   90.00000000
_cell_angle_beta   90.00000000
_cell_angle_gamma   90.11222706
_symmetry_Int_Tables_number   1
_chemical_formula_structural   Pr8Sc11Si16Pd
_chemical_formula_sum   'Pr8 Sc11 Si16 Pd1'
_cell_volume   765.38577721
_cell_formula_units_Z   1
loop_
 _symmetry_equiv_pos_site_id
 _symmetry_equiv_pos_as_xyz
  1  'x, y, z'
loop_
 _atom_site_type_symbol
 _atom_site_label
 _atom_site_symmetry_multiplicity
 _atom_site_fract_x
 _atom_site_fract_y
 _atom_site_fract_z
 _atom_site_occupancy
  Pr  Pr0  1  0.013271  0.173290  0.403414  1
  Pr  Pr1  1  0.512883  0.327708  0.403996  1
  Pr  Pr2  1  0.492321  0.681651  0.897113  1
  Pr  Pr3  1  0.492321  0.681651  0.602887  1
  Pr  Pr4  1  0.979296  0.826380  0.602969  1
  Pr  Pr5  1  0.979296  0.826380  0.897031  1
  Pr  Pr6  1  0.512883  0.327708  0.096004  1
  Pr  Pr7  1  0.013271  0.173290  0.096586  1
  Sc  Sc8  1  0.328817  0.172647  0.625159  1
  Sc  Sc9  1  0.673533  0.823797  0.375117  1
  Sc  Sc10  1  0.173049  0.675787  0.375418  1
  Sc  Sc11  1  0.828519  0.314203  0.874787  1
  Sc  Sc12  1  0.828519  0.314203  0.625213  1
  Sc  Sc13  1  0.842114  0.502315  0.250000  1
  Sc  Sc14  1  0.341628  0.998322  0.250000  1
  Sc  Sc15  1  0.328817  0.172647  0.874841  1
  Sc  Sc16  1  0.173049  0.675787  0.124582  1
  Sc  Sc17  1  0.673533  0.823797  0.124883  1
  Sc  Sc18  1  0.159990  0.494223  0.750000  1
  Si  Si19  1  0.285494  0.886343  0.750000  1
  Si  Si20  1  0.470125  0.623738  0.250000  1
  Si  Si21  1  0.034923  0.117595  0.750000  1
  Si  Si22  1  0.532828  0.376462  0.750000  1
  Si  Si23  1  0.153331  0.466024  0.540800  1
  Si  Si24  1  0.968868  0.875814  0.250000  1
  Si  Si25  1  0.712612  0.116075  0.250000  1
  Si  Si26  1  0.851255  0.536711  0.038110  1
  Si  Si27  1  0.350026  0.962404  0.038501  1
  Si  Si28  1  0.153331  0.466024  0.959200  1
  Si  Si29  1  0.650460  0.040001  0.537579  1
  Si  Si30  1  0.350026  0.962404  0.461499  1
  Si  Si31  1  0.851255  0.536711  0.461890  1
  Si  Si32  1  0.791878  0.589402  0.750000  1
  Si  Si33  1  0.212181  0.384336  0.250000  1
  Si  Si34  1  0.650460  0.040001  0.962421  1
  Pd  Pd35  1  0.633840  0.034168  0.750000  1
