# generated using pymatgen
data_HoTm5Zr4(Sn3N)2
_symmetry_space_group_name_H-M   'P 1'
_cell_length_a   8.69476216
_cell_length_b   8.69476219
_cell_length_c   6.08402700
_cell_angle_alpha   90.00000000
_cell_angle_beta   90.00000000
_cell_angle_gamma   119.97782956
_symmetry_Int_Tables_number   1
_chemical_formula_structural   HoTm5Zr4(Sn3N)2
_chemical_formula_sum   'Ho1 Tm5 Zr4 Sn6 N2'
_cell_volume   398.41360384
_cell_formula_units_Z   1
loop_
 _symmetry_equiv_pos_site_id
 _symmetry_equiv_pos_as_xyz
  1  'x, y, z'
loop_
 _atom_site_type_symbol
 _atom_site_label
 _atom_site_symmetry_multiplicity
 _atom_site_fract_x
 _atom_site_fract_y
 _atom_site_fract_z
 _atom_site_occupancy
  Ho  Ho0  1  0.781707  0.781707  0.750000  1
  Tm  Tm1  1  0.216350  0.000109  0.750000  1
  Tm  Tm2  1  0.000109  0.216350  0.750000  1
  Tm  Tm3  1  0.216291  0.216291  0.250000  1
  Tm  Tm4  1  0.783873  0.000217  0.250000  1
  Tm  Tm5  1  0.000217  0.783873  0.250000  1
  Zr  Zr6  1  0.666614  0.333240  0.000030  1
  Zr  Zr7  1  0.333240  0.666614  0.000030  1
  Zr  Zr8  1  0.333240  0.666614  0.499970  1
  Zr  Zr9  1  0.666614  0.333240  0.499970  1
  Sn  Sn10  1  0.406476  0.406476  0.750000  1
  Sn  Sn11  1  0.592837  0.000398  0.750000  1
  Sn  Sn12  1  0.000398  0.592837  0.750000  1
  Sn  Sn13  1  0.593018  0.593018  0.250000  1
  Sn  Sn14  1  0.406957  0.999950  0.250000  1
  Sn  Sn15  1  0.999950  0.406957  0.250000  1
  N  N16  1  0.001055  0.001055  0.000917  1
  N  N17  1  0.001055  0.001055  0.499083  1
