# generated using pymatgen
data_DyHo3(Tm2Co)4
_symmetry_space_group_name_H-M   'P 1'
_cell_length_a   6.12621421
_cell_length_b   6.92078528
_cell_length_c   9.26783700
_cell_angle_alpha   90.00000000
_cell_angle_beta   90.00000000
_cell_angle_gamma   89.98148751
_symmetry_Int_Tables_number   1
_chemical_formula_structural   DyHo3(Tm2Co)4
_chemical_formula_sum   'Dy1 Ho3 Tm8 Co4'
_cell_volume   392.93970820
_cell_formula_units_Z   1
loop_
 _symmetry_equiv_pos_site_id
 _symmetry_equiv_pos_as_xyz
  1  'x, y, z'
loop_
 _atom_site_type_symbol
 _atom_site_label
 _atom_site_symmetry_multiplicity
 _atom_site_fract_x
 _atom_site_fract_y
 _atom_site_fract_z
 _atom_site_occupancy
  Dy  Dy0  1  0.638852  0.040788  0.250000  1
  Ho  Ho1  1  0.139492  0.459225  0.750000  1
  Ho  Ho2  1  0.361077  0.958996  0.750000  1
  Ho  Ho3  1  0.861755  0.540988  0.250000  1
  Tm  Tm4  1  0.675040  0.326910  0.932716  1
  Tm  Tm5  1  0.174688  0.173302  0.433045  1
  Tm  Tm6  1  0.824839  0.826193  0.567574  1
  Tm  Tm7  1  0.174688  0.173302  0.066955  1
  Tm  Tm8  1  0.824839  0.826193  0.932426  1
  Tm  Tm9  1  0.675040  0.326910  0.567284  1
  Tm  Tm10  1  0.324918  0.673461  0.067449  1
  Tm  Tm11  1  0.324918  0.673461  0.432551  1
  Co  Co12  1  0.549897  0.616232  0.750000  1
  Co  Co13  1  0.950208  0.116210  0.750000  1
  Co  Co14  1  0.050091  0.883764  0.250000  1
  Co  Co15  1  0.449655  0.384066  0.250000  1
