# generated using pymatgen
data_Er3In3HgRh
_symmetry_space_group_name_H-M   'P 1'
_cell_length_a   7.80010800
_cell_length_b   7.80010878
_cell_length_c   3.64386400
_cell_angle_alpha   90.00000000
_cell_angle_beta   90.00000000
_cell_angle_gamma   120.00000519
_symmetry_Int_Tables_number   1
_chemical_formula_structural   Er3In3HgRh
_chemical_formula_sum   'Er3 In3 Hg1 Rh1'
_cell_volume   191.99682351
_cell_formula_units_Z   1
loop_
 _symmetry_equiv_pos_site_id
 _symmetry_equiv_pos_as_xyz
  1  'x, y, z'
loop_
 _atom_site_type_symbol
 _atom_site_label
 _atom_site_symmetry_multiplicity
 _atom_site_fract_x
 _atom_site_fract_y
 _atom_site_fract_z
 _atom_site_occupancy
  Er  Er0  1  0.569015  0.975568  0.500000  1
  Er  Er1  1  0.406553  0.430984  0.500000  1
  Er  Er2  1  0.024432  0.593448  0.500000  1
  In  In3  1  0.228064  0.993843  0.000000  1
  In  In4  1  0.006157  0.234221  0.000000  1
  In  In5  1  0.765778  0.771936  0.000000  1
  Hg  Hg6  1  0.666667  0.333334  0.000000  1
  Rh  Rh7  1  0.333333  0.666666  0.000000  1
