# generated using pymatgen
data_CaPr6ZnBr12
_symmetry_space_group_name_H-M   'P 1'
_cell_length_a   9.64368685
_cell_length_b   9.64663602
_cell_length_c   9.63859603
_cell_angle_alpha   107.27530649
_cell_angle_beta   107.16097951
_cell_angle_gamma   107.29997267
_symmetry_Int_Tables_number   1
_chemical_formula_structural   CaPr6ZnBr12
_chemical_formula_sum   'Ca1 Pr6 Zn1 Br12'
_cell_volume   741.69848095
_cell_formula_units_Z   1
loop_
 _symmetry_equiv_pos_site_id
 _symmetry_equiv_pos_as_xyz
  1  'x, y, z'
loop_
 _atom_site_type_symbol
 _atom_site_label
 _atom_site_symmetry_multiplicity
 _atom_site_fract_x
 _atom_site_fract_y
 _atom_site_fract_z
 _atom_site_occupancy
  Ca  Ca0  1  0.500000  0.500000  0.500000  1
  Pr  Pr1  1  0.322842  0.109095  0.024726  1
  Pr  Pr2  1  0.024462  0.322420  0.110165  1
  Pr  Pr3  1  0.109162  0.024721  0.323001  1
  Pr  Pr4  1  0.890838  0.975279  0.677000  1
  Pr  Pr5  1  0.975538  0.677581  0.889836  1
  Pr  Pr6  1  0.677159  0.890905  0.975275  1
  Zn  Zn7  1  0.000000  0.000000  0.000000  1
  Br  Br8  1  0.682060  0.218958  0.068405  1
  Br  Br9  1  0.376986  0.458084  0.168084  1
  Br  Br10  1  0.068062  0.682358  0.218160  1
  Br  Br11  1  0.780389  0.931550  0.317703  1
  Br  Br12  1  0.458096  0.168337  0.377222  1
  Br  Br13  1  0.167980  0.376877  0.458797  1
  Br  Br14  1  0.832020  0.623124  0.541203  1
  Br  Br15  1  0.541904  0.831664  0.622778  1
  Br  Br16  1  0.219612  0.068451  0.682297  1
  Br  Br17  1  0.931938  0.317642  0.781841  1
  Br  Br18  1  0.623015  0.541916  0.831916  1
  Br  Br19  1  0.317941  0.781042  0.931595  1
