# generated using pymatgen
data_NdTe13
_symmetry_space_group_name_H-M   'P 1'
_cell_length_a   23.84454900
_cell_length_b   23.84454843
_cell_length_c   3.15991600
_cell_angle_alpha   90.00000000
_cell_angle_beta   90.00000000
_cell_angle_gamma   166.33536152
_symmetry_Int_Tables_number   1
_chemical_formula_structural   NdTe13
_chemical_formula_sum   'Nd1 Te13'
_cell_volume   424.42836610
_cell_formula_units_Z   1
loop_
 _symmetry_equiv_pos_site_id
 _symmetry_equiv_pos_as_xyz
  1  'x, y, z'
loop_
 _atom_site_type_symbol
 _atom_site_label
 _atom_site_symmetry_multiplicity
 _atom_site_fract_x
 _atom_site_fract_y
 _atom_site_fract_z
 _atom_site_occupancy
  Nd  Nd0  1  0.102307  0.897693  0.750000  1
  Te  Te1  1  0.684003  0.315997  0.250000  1
  Te  Te2  1  0.321714  0.678286  0.750000  1
  Te  Te3  1  0.884953  0.115047  0.250000  1
  Te  Te4  1  0.621187  0.378813  0.250000  1
  Te  Te5  1  0.384831  0.615169  0.750000  1
  Te  Te6  1  0.821014  0.178986  0.250000  1
  Te  Te7  1  0.176143  0.823857  0.750000  1
  Te  Te8  1  0.952361  0.047639  0.750000  1
  Te  Te9  1  0.043470  0.956530  0.250000  1
  Te  Te10  1  0.545224  0.454776  0.750000  1
  Te  Te11  1  0.456423  0.543577  0.250000  1
  Te  Te12  1  0.751101  0.248899  0.750000  1
  Te  Te13  1  0.255268  0.744732  0.250000  1
