# generated using pymatgen
data_Ho20AlGaBi10
_symmetry_space_group_name_H-M   'P 1'
_cell_length_a   8.16775200
_cell_length_b   9.43466300
_cell_length_c   11.97303000
_cell_angle_alpha   90.00000000
_cell_angle_beta   90.00066212
_cell_angle_gamma   90.00000000
_symmetry_Int_Tables_number   1
_chemical_formula_structural   Ho20AlGaBi10
_chemical_formula_sum   'Ho20 Al1 Ga1 Bi10'
_cell_volume   922.64154315
_cell_formula_units_Z   1
loop_
 _symmetry_equiv_pos_site_id
 _symmetry_equiv_pos_as_xyz
  1  'x, y, z'
loop_
 _atom_site_type_symbol
 _atom_site_label
 _atom_site_symmetry_multiplicity
 _atom_site_fract_x
 _atom_site_fract_y
 _atom_site_fract_z
 _atom_site_occupancy
  Ho  Ho0  1  0.354316  0.750000  0.205984  1
  Ho  Ho1  1  0.854039  0.750000  0.292976  1
  Ho  Ho2  1  0.652068  0.250000  0.784154  1
  Ho  Ho3  1  0.152128  0.250000  0.715761  1
  Ho  Ho4  1  0.685146  0.569791  0.055709  1
  Ho  Ho5  1  0.185884  0.930968  0.443785  1
  Ho  Ho6  1  0.308022  0.049715  0.940923  1
  Ho  Ho7  1  0.807202  0.448217  0.559033  1
  Ho  Ho8  1  0.308022  0.450285  0.940923  1
  Ho  Ho9  1  0.807202  0.051783  0.559033  1
  Ho  Ho10  1  0.685146  0.930209  0.055709  1
  Ho  Ho11  1  0.185884  0.569032  0.443785  1
  Ho  Ho12  1  0.478095  0.250000  0.489915  1
  Ho  Ho13  1  0.978241  0.250000  0.009953  1
  Ho  Ho14  1  0.534483  0.750000  0.509860  1
  Ho  Ho15  1  0.036056  0.750000  0.990282  1
  Ho  Ho16  1  0.312116  0.250000  0.219265  1
  Ho  Ho17  1  0.812131  0.250000  0.280879  1
  Ho  Ho18  1  0.678674  0.750000  0.784259  1
  Ho  Ho19  1  0.181211  0.750000  0.716592  1
  Al  Al20  1  0.909926  0.750000  0.542276  1
  Ga  Ga21  1  0.410100  0.750000  0.959309  1
  Bi  Bi22  1  0.592166  0.250000  0.042239  1
  Bi  Bi23  1  0.092837  0.250000  0.457644  1
  Bi  Bi24  1  0.562250  0.996828  0.324264  1
  Bi  Bi25  1  0.062153  0.503100  0.175500  1
  Bi  Bi26  1  0.437493  0.497659  0.676892  1
  Bi  Bi27  1  0.937556  0.001894  0.823220  1
  Bi  Bi28  1  0.437493  0.002341  0.676892  1
  Bi  Bi29  1  0.937556  0.498106  0.823220  1
  Bi  Bi30  1  0.562250  0.503172  0.324264  1
  Bi  Bi31  1  0.062153  0.996900  0.175500  1
