# generated using pymatgen
data_Y3Nb(Co4P3)2
_symmetry_space_group_name_H-M   'P 1'
_cell_length_a   3.69746500
_cell_length_b   10.58397100
_cell_length_c   12.28208900
_cell_angle_alpha   90.00000000
_cell_angle_beta   90.00000000
_cell_angle_gamma   90.00000000
_symmetry_Int_Tables_number   1
_chemical_formula_structural   Y3Nb(Co4P3)2
_chemical_formula_sum   'Y6 Nb2 Co16 P12'
_cell_volume   480.64558009
_cell_formula_units_Z   2
loop_
 _symmetry_equiv_pos_site_id
 _symmetry_equiv_pos_as_xyz
  1  'x, y, z'
loop_
 _atom_site_type_symbol
 _atom_site_label
 _atom_site_symmetry_multiplicity
 _atom_site_fract_x
 _atom_site_fract_y
 _atom_site_fract_z
 _atom_site_occupancy
  Y  Y0  1  0.000000  0.500000  0.526355  1
  Y  Y1  1  0.500000  0.000000  0.473645  1
  Y  Y2  1  0.500000  0.820144  0.205425  1
  Y  Y3  1  0.500000  0.179856  0.205425  1
  Y  Y4  1  0.000000  0.679856  0.794575  1
  Y  Y5  1  0.000000  0.320144  0.794575  1
  Nb  Nb6  1  0.500000  0.500000  0.156788  1
  Nb  Nb7  1  0.000000  0.000000  0.843212  1
  Co  Co8  1  0.500000  0.500000  0.701877  1
  Co  Co9  1  0.000000  0.000000  0.298123  1
  Co  Co10  1  0.000000  0.500000  0.985595  1
  Co  Co11  1  0.500000  0.000000  0.014405  1
  Co  Co12  1  0.500000  0.332440  0.991573  1
  Co  Co13  1  0.500000  0.667560  0.991573  1
  Co  Co14  1  0.000000  0.167560  0.008427  1
  Co  Co15  1  0.000000  0.832440  0.008427  1
  Co  Co16  1  0.500000  0.295457  0.432285  1
  Co  Co17  1  0.500000  0.704543  0.432285  1
  Co  Co18  1  0.000000  0.204543  0.567715  1
  Co  Co19  1  0.000000  0.795457  0.567715  1
  Co  Co20  1  0.500000  0.877491  0.704665  1
  Co  Co21  1  0.500000  0.122509  0.704665  1
  Co  Co22  1  0.000000  0.622509  0.295335  1
  Co  Co23  1  0.000000  0.377491  0.295335  1
  P  P24  1  0.500000  0.500000  0.881652  1
  P  P25  1  0.000000  0.000000  0.118348  1
  P  P26  1  0.500000  0.500000  0.355581  1
  P  P27  1  0.000000  0.000000  0.644419  1
  P  P28  1  0.500000  0.310980  0.615543  1
  P  P29  1  0.500000  0.689020  0.615543  1
  P  P30  1  0.000000  0.189020  0.384457  1
  P  P31  1  0.000000  0.810980  0.384457  1
  P  P32  1  0.500000  0.841426  0.893336  1
  P  P33  1  0.500000  0.158574  0.893336  1
  P  P34  1  0.000000  0.658574  0.106664  1
  P  P35  1  0.000000  0.341426  0.106664  1
