# generated using pymatgen
data_Lu2Co6Ge2BC
_symmetry_space_group_name_H-M   'P 1'
_cell_length_a   5.13763900
_cell_length_b   5.13763985
_cell_length_c   6.51810900
_cell_angle_alpha   90.00000000
_cell_angle_beta   90.00000000
_cell_angle_gamma   120.00001387
_symmetry_Int_Tables_number   1
_chemical_formula_structural   Lu2Co6Ge2BC
_chemical_formula_sum   'Lu2 Co6 Ge2 B1 C1'
_cell_volume   148.99765427
_cell_formula_units_Z   1
loop_
 _symmetry_equiv_pos_site_id
 _symmetry_equiv_pos_as_xyz
  1  'x, y, z'
loop_
 _atom_site_type_symbol
 _atom_site_label
 _atom_site_symmetry_multiplicity
 _atom_site_fract_x
 _atom_site_fract_y
 _atom_site_fract_z
 _atom_site_occupancy
  Lu  Lu0  1  0.000000  0.000000  0.500000  1
  Lu  Lu1  1  0.000000  0.000000  0.000000  1
  Co  Co2  1  0.497763  0.995527  0.203484  1
  Co  Co3  1  0.497763  0.995527  0.796516  1
  Co  Co4  1  0.004473  0.502237  0.203484  1
  Co  Co5  1  0.004473  0.502237  0.796516  1
  Co  Co6  1  0.497763  0.502237  0.203484  1
  Co  Co7  1  0.497763  0.502237  0.796516  1
  Ge  Ge8  1  0.333333  0.666667  0.500000  1
  Ge  Ge9  1  0.666667  0.333333  0.500000  1
  B  B10  1  0.666667  0.333333  0.000000  1
  C  C11  1  0.333333  0.666667  0.000000  1
