# generated using pymatgen
data_TbSm4Dy(AlC3)2
_symmetry_space_group_name_H-M   'P 1'
_cell_length_a   3.65641500
_cell_length_b   7.25446304
_cell_length_c   10.06802301
_cell_angle_alpha   89.64029617
_cell_angle_beta   90.00000000
_cell_angle_gamma   90.00000000
_symmetry_Int_Tables_number   1
_chemical_formula_structural   TbSm4Dy(AlC3)2
_chemical_formula_sum   'Tb1 Sm4 Dy1 Al2 C6'
_cell_volume   267.05234433
_cell_formula_units_Z   1
loop_
 _symmetry_equiv_pos_site_id
 _symmetry_equiv_pos_as_xyz
  1  'x, y, z'
loop_
 _atom_site_type_symbol
 _atom_site_label
 _atom_site_symmetry_multiplicity
 _atom_site_fract_x
 _atom_site_fract_y
 _atom_site_fract_z
 _atom_site_occupancy
  Tb  Tb0  1  0.500000  0.989404  0.200262  1
  Sm  Sm1  1  0.500000  0.512263  0.194393  1
  Sm  Sm2  1  0.500000  0.487708  0.805462  1
  Sm  Sm3  1  0.000000  0.750346  0.460068  1
  Sm  Sm4  1  0.000000  0.249487  0.540048  1
  Dy  Dy5  1  0.500000  0.011929  0.799522  1
  Al  Al6  1  0.000000  0.767499  0.006418  1
  Al  Al7  1  0.000000  0.232526  0.992974  1
  C  C8  1  0.500000  0.507604  0.565339  1
  C  C9  1  0.500000  0.492243  0.434633  1
  C  C10  1  0.500000  0.991624  0.566013  1
  C  C11  1  0.500000  0.008134  0.435235  1
  C  C12  1  0.000000  0.755678  0.207327  1
  C  C13  1  0.000000  0.243554  0.792304  1
