# generated using pymatgen
data_Tb3Ho7Cd4(InPd)4
_symmetry_space_group_name_H-M   'P 1'
_cell_length_a   3.60636100
_cell_length_b   8.09235047
_cell_length_c   18.39036607
_cell_angle_alpha   89.96084995
_cell_angle_beta   90.00000000
_cell_angle_gamma   90.00000000
_symmetry_Int_Tables_number   1
_chemical_formula_structural   Tb3Ho7Cd4(InPd)4
_chemical_formula_sum   'Tb3 Ho7 Cd4 In4 Pd4'
_cell_volume   536.70316220
_cell_formula_units_Z   1
loop_
 _symmetry_equiv_pos_site_id
 _symmetry_equiv_pos_as_xyz
  1  'x, y, z'
loop_
 _atom_site_type_symbol
 _atom_site_label
 _atom_site_symmetry_multiplicity
 _atom_site_fract_x
 _atom_site_fract_y
 _atom_site_fract_z
 _atom_site_occupancy
  Tb  Tb0  1  0.000000  0.499958  0.499973  1
  Tb  Tb1  1  0.000000  0.000012  0.000007  1
  Tb  Tb2  1  0.000000  0.741126  0.281006  1
  Ho  Ho3  1  0.000000  0.258749  0.719053  1
  Ho  Ho4  1  0.000000  0.758710  0.780912  1
  Ho  Ho5  1  0.000000  0.241223  0.219075  1
  Ho  Ho6  1  0.000000  0.612368  0.083409  1
  Ho  Ho7  1  0.000000  0.387549  0.916446  1
  Ho  Ho8  1  0.000000  0.887635  0.583577  1
  Ho  Ho9  1  0.000000  0.112603  0.416598  1
  Cd  Cd10  1  0.500000  0.711562  0.931257  1
  Cd  Cd11  1  0.500000  0.288355  0.068726  1
  Cd  Cd12  1  0.500000  0.788550  0.431513  1
  Cd  Cd13  1  0.500000  0.211524  0.568756  1
  In  In14  1  0.500000  0.577318  0.648126  1
  In  In15  1  0.500000  0.422250  0.351954  1
  In  In16  1  0.500000  0.923067  0.147911  1
  In  In17  1  0.500000  0.077282  0.851871  1
  Pd  Pd18  1  0.500000  0.523927  0.196278  1
  Pd  Pd19  1  0.500000  0.475109  0.803438  1
  Pd  Pd20  1  0.500000  0.975117  0.696582  1
  Pd  Pd21  1  0.500000  0.026005  0.303534  1
