# generated using pymatgen
data_Lu10Hg3Pt
_symmetry_space_group_name_H-M   'P 1'
_cell_length_a   9.53523457
_cell_length_b   9.53500274
_cell_length_c   9.31532400
_cell_angle_alpha   90.00000000
_cell_angle_beta   90.00000000
_cell_angle_gamma   120.00433752
_symmetry_Int_Tables_number   1
_chemical_formula_structural   Lu10Hg3Pt
_chemical_formula_sum   'Lu20 Hg6 Pt2'
_cell_volume   733.43531303
_cell_formula_units_Z   2
loop_
 _symmetry_equiv_pos_site_id
 _symmetry_equiv_pos_as_xyz
  1  'x, y, z'
loop_
 _atom_site_type_symbol
 _atom_site_label
 _atom_site_symmetry_multiplicity
 _atom_site_fract_x
 _atom_site_fract_y
 _atom_site_fract_z
 _atom_site_occupancy
  Lu  Lu0  1  0.000000  0.000000  0.500000  1
  Lu  Lu1  1  0.000000  0.000000  0.000000  1
  Lu  Lu2  1  0.207348  0.792622  0.441919  1
  Lu  Lu3  1  0.207379  0.414743  0.441920  1
  Lu  Lu4  1  0.585300  0.792625  0.441898  1
  Lu  Lu5  1  0.792652  0.207378  0.558081  1
  Lu  Lu6  1  0.792621  0.585257  0.558080  1
  Lu  Lu7  1  0.414700  0.207375  0.558102  1
  Lu  Lu8  1  0.792652  0.207378  0.941919  1
  Lu  Lu9  1  0.792621  0.585257  0.941920  1
  Lu  Lu10  1  0.414700  0.207375  0.941898  1
  Lu  Lu11  1  0.207348  0.792622  0.058081  1
  Lu  Lu12  1  0.207379  0.414743  0.058080  1
  Lu  Lu13  1  0.585300  0.792625  0.058102  1
  Lu  Lu14  1  0.541745  0.458230  0.250000  1
  Lu  Lu15  1  0.541747  0.083498  0.250000  1
  Lu  Lu16  1  0.916485  0.458244  0.250000  1
  Lu  Lu17  1  0.458255  0.541770  0.750000  1
  Lu  Lu18  1  0.458253  0.916502  0.750000  1
  Lu  Lu19  1  0.083515  0.541756  0.750000  1
  Hg  Hg20  1  0.880444  0.119849  0.250000  1
  Hg  Hg21  1  0.880447  0.760607  0.250000  1
  Hg  Hg22  1  0.239392  0.119680  0.250000  1
  Hg  Hg23  1  0.119556  0.880151  0.750000  1
  Hg  Hg24  1  0.119553  0.239393  0.750000  1
  Hg  Hg25  1  0.760608  0.880320  0.750000  1
  Pt  Pt26  1  0.332958  0.666492  0.250000  1
  Pt  Pt27  1  0.667042  0.333508  0.750000  1
