# generated using pymatgen
data_Ho5Sc5(In2Cu)4
_symmetry_space_group_name_H-M   'P 1'
_cell_length_a   3.58241900
_cell_length_b   7.77757045
_cell_length_c   17.53695229
_cell_angle_alpha   89.97531837
_cell_angle_beta   90.00000000
_cell_angle_gamma   90.00000000
_symmetry_Int_Tables_number   1
_chemical_formula_structural   Ho5Sc5(In2Cu)4
_chemical_formula_sum   'Ho5 Sc5 In8 Cu4'
_cell_volume   488.62357109
_cell_formula_units_Z   1
loop_
 _symmetry_equiv_pos_site_id
 _symmetry_equiv_pos_as_xyz
  1  'x, y, z'
loop_
 _atom_site_type_symbol
 _atom_site_label
 _atom_site_symmetry_multiplicity
 _atom_site_fract_x
 _atom_site_fract_y
 _atom_site_fract_z
 _atom_site_occupancy
  Ho  Ho0  1  0.000000  0.000000  0.000000  1
  Ho  Ho1  1  0.000000  0.758547  0.782217  1
  Ho  Ho2  1  0.000000  0.241453  0.217783  1
  Ho  Ho3  1  0.000000  0.261110  0.713061  1
  Ho  Ho4  1  0.000000  0.738890  0.286939  1
  Sc  Sc5  1  0.000000  0.500000  0.500000  1
  Sc  Sc6  1  0.000000  0.882804  0.582324  1
  Sc  Sc7  1  0.000000  0.117196  0.417676  1
  Sc  Sc8  1  0.000000  0.377953  0.915277  1
  Sc  Sc9  1  0.000000  0.622047  0.084723  1
  In  In10  1  0.500000  0.797849  0.440336  1
  In  In11  1  0.500000  0.202151  0.559664  1
  In  In12  1  0.500000  0.309329  0.062717  1
  In  In13  1  0.500000  0.690671  0.937283  1
  In  In14  1  0.500000  0.912043  0.152123  1
  In  In15  1  0.500000  0.087957  0.847877  1
  In  In16  1  0.500000  0.412919  0.354255  1
  In  In17  1  0.500000  0.587081  0.645745  1
  Cu  Cu18  1  0.500000  0.968301  0.691889  1
  Cu  Cu19  1  0.500000  0.031699  0.308111  1
  Cu  Cu20  1  0.500000  0.465823  0.804515  1
  Cu  Cu21  1  0.500000  0.534177  0.195485  1
