# generated using pymatgen
data_NaPaN2
_symmetry_space_group_name_H-M   'P 1'
_cell_length_a   6.04034404
_cell_length_b   6.04034460
_cell_length_c   6.04034372
_cell_angle_alpha   34.57843800
_cell_angle_beta   34.57842773
_cell_angle_gamma   34.57842048
_symmetry_Int_Tables_number   1
_chemical_formula_structural   NaPaN2
_chemical_formula_sum   'Na1 Pa1 N2'
_cell_volume   63.33602753
_cell_formula_units_Z   1
loop_
 _symmetry_equiv_pos_site_id
 _symmetry_equiv_pos_as_xyz
  1  'x, y, z'
loop_
 _atom_site_type_symbol
 _atom_site_label
 _atom_site_symmetry_multiplicity
 _atom_site_fract_x
 _atom_site_fract_y
 _atom_site_fract_z
 _atom_site_occupancy
  Na  Na0  1  0.500000  0.500000  0.500000  1
  Pa  Pa1  1  0.000000  0.000000  0.000000  1
  N  N2  1  0.727300  0.727300  0.727300  1
  N  N3  1  0.272700  0.272700  0.272700  1
