# generated using pymatgen
data_HoTm11Co4RuPb
_symmetry_space_group_name_H-M   'P 1'
_cell_length_a   8.18588055
_cell_length_b   8.18587915
_cell_length_c   8.18204319
_cell_angle_alpha   110.85966326
_cell_angle_beta   111.40099445
_cell_angle_gamma   106.22229092
_symmetry_Int_Tables_number   1
_chemical_formula_structural   HoTm11Co4RuPb
_chemical_formula_sum   'Ho1 Tm11 Co4 Ru1 Pb1'
_cell_volume   420.92486008
_cell_formula_units_Z   1
loop_
 _symmetry_equiv_pos_site_id
 _symmetry_equiv_pos_as_xyz
  1  'x, y, z'
loop_
 _atom_site_type_symbol
 _atom_site_label
 _atom_site_symmetry_multiplicity
 _atom_site_fract_x
 _atom_site_fract_y
 _atom_site_fract_z
 _atom_site_occupancy
  Ho  Ho0  1  0.284804  0.184504  0.469310  1
  Tm  Tm1  1  0.716162  0.816156  0.532318  1
  Tm  Tm2  1  0.284161  0.815323  0.099484  1
  Tm  Tm3  1  0.716316  0.184039  0.900357  1
  Tm  Tm4  1  0.619598  0.311997  0.307206  1
  Tm  Tm5  1  0.380723  0.688580  0.692947  1
  Tm  Tm6  1  0.004366  0.312223  0.692947  1
  Tm  Tm7  1  0.995209  0.687608  0.307206  1
  Tm  Tm8  1  0.215422  0.410814  0.194768  1
  Tm  Tm9  1  0.785220  0.590406  0.805681  1
  Tm  Tm10  1  0.215276  0.020463  0.805681  1
  Tm  Tm11  1  0.783953  0.979345  0.194768  1
  Co  Co12  1  0.999263  0.377142  0.376404  1
  Co  Co13  1  0.000119  0.623429  0.623547  1
  Co  Co14  1  0.388752  0.887519  0.499543  1
  Co  Co15  1  0.612025  0.110790  0.499543  1
  Ru  Ru16  1  0.998270  0.000131  0.998401  1
  Pb  Pb17  1  0.500359  0.499530  0.999889  1
