# generated using pymatgen
data_YbPa2Ga8Tc3
_symmetry_space_group_name_H-M   'P 1'
_cell_length_a   8.15869577
_cell_length_b   8.15869567
_cell_length_c   8.15889001
_cell_angle_alpha   149.16623448
_cell_angle_beta   105.59957735
_cell_angle_gamma   82.66919347
_symmetry_Int_Tables_number   1
_chemical_formula_structural   YbPa2Ga8Tc3
_chemical_formula_sum   'Yb1 Pa2 Ga8 Tc3'
_cell_volume   262.17116506
_cell_formula_units_Z   1
loop_
 _symmetry_equiv_pos_site_id
 _symmetry_equiv_pos_as_xyz
  1  'x, y, z'
loop_
 _atom_site_type_symbol
 _atom_site_label
 _atom_site_symmetry_multiplicity
 _atom_site_fract_x
 _atom_site_fract_y
 _atom_site_fract_z
 _atom_site_occupancy
  Yb  Yb0  1  0.500000  0.500000  0.000000  1
  Pa  Pa1  1  0.156861  0.156861  0.000000  1
  Pa  Pa2  1  0.843139  0.843139  0.000000  1
  Ga  Ga3  1  0.098758  0.376558  0.722164  1
  Ga  Ga4  1  0.901242  0.623442  0.277836  1
  Ga  Ga5  1  0.654394  0.376595  0.277836  1
  Ga  Ga6  1  0.345606  0.623405  0.722164  1
  Ga  Ga7  1  0.800688  0.168854  0.631859  1
  Ga  Ga8  1  0.199312  0.831146  0.368141  1
  Ga  Ga9  1  0.536995  0.168830  0.368141  1
  Ga  Ga10  1  0.463005  0.831170  0.631859  1
  Tc  Tc11  1  0.000000  0.500000  0.500000  1
  Tc  Tc12  1  0.789962  0.000031  0.789993  1
  Tc  Tc13  1  0.210038  0.999969  0.210007  1
