# generated using pymatgen
data_Zr3NbCr8
_symmetry_space_group_name_H-M   'P 1'
_cell_length_a   8.73145120
_cell_length_b   8.73145087
_cell_length_c   8.73145143
_cell_angle_alpha   33.35709829
_cell_angle_beta   33.35710415
_cell_angle_gamma   33.35710557
_symmetry_Int_Tables_number   1
_chemical_formula_structural   Zr3NbCr8
_chemical_formula_sum   'Zr3 Nb1 Cr8'
_cell_volume   179.20776618
_cell_formula_units_Z   1
loop_
 _symmetry_equiv_pos_site_id
 _symmetry_equiv_pos_as_xyz
  1  'x, y, z'
loop_
 _atom_site_type_symbol
 _atom_site_label
 _atom_site_symmetry_multiplicity
 _atom_site_fract_x
 _atom_site_fract_y
 _atom_site_fract_z
 _atom_site_occupancy
  Zr  Zr0  1  0.625088  0.625088  0.625088  1
  Zr  Zr1  1  0.000843  0.000843  0.000843  1
  Zr  Zr2  1  0.499345  0.499345  0.499345  1
  Nb  Nb3  1  0.124966  0.124966  0.124966  1
  Cr  Cr4  1  0.563650  0.063094  0.563650  1
  Cr  Cr5  1  0.061616  0.561257  0.061616  1
  Cr  Cr6  1  0.063094  0.563650  0.563650  1
  Cr  Cr7  1  0.561257  0.061616  0.061616  1
  Cr  Cr8  1  0.812298  0.812298  0.812298  1
  Cr  Cr9  1  0.312578  0.312578  0.312578  1
  Cr  Cr10  1  0.563650  0.563650  0.063094  1
  Cr  Cr11  1  0.061616  0.061616  0.561257  1
