# generated using pymatgen
data_TbCe7(Nb3Ge4)4
_symmetry_space_group_name_H-M   'P 1'
_cell_length_a   7.10848892
_cell_length_b   7.25708023
_cell_length_c   13.69239549
_cell_angle_alpha   89.94294514
_cell_angle_beta   89.96986002
_cell_angle_gamma   89.98592272
_symmetry_Int_Tables_number   1
_chemical_formula_structural   TbCe7(Nb3Ge4)4
_chemical_formula_sum   'Tb1 Ce7 Nb12 Ge16'
_cell_volume   706.34741729
_cell_formula_units_Z   1
loop_
 _symmetry_equiv_pos_site_id
 _symmetry_equiv_pos_as_xyz
  1  'x, y, z'
loop_
 _atom_site_type_symbol
 _atom_site_label
 _atom_site_symmetry_multiplicity
 _atom_site_fract_x
 _atom_site_fract_y
 _atom_site_fract_z
 _atom_site_occupancy
  Tb  Tb0  1  0.996314  0.172369  0.094452  1
  Ce  Ce1  1  0.498247  0.329369  0.092917  1
  Ce  Ce2  1  0.997737  0.170770  0.406559  1
  Ce  Ce3  1  0.503026  0.670559  0.593461  1
  Ce  Ce4  1  0.002823  0.827384  0.905924  1
  Ce  Ce5  1  0.503053  0.671071  0.907448  1
  Ce  Ce6  1  0.003315  0.829058  0.593485  1
  Ce  Ce7  1  0.497588  0.329054  0.405890  1
  Nb  Nb8  1  0.665600  0.008046  0.750553  1
  Nb  Nb9  1  0.165299  0.491479  0.750138  1
  Nb  Nb10  1  0.334728  0.991200  0.249754  1
  Nb  Nb11  1  0.833516  0.509356  0.250496  1
  Nb  Nb12  1  0.839424  0.332028  0.626304  1
  Nb  Nb13  1  0.340304  0.168373  0.873786  1
  Nb  Nb14  1  0.160515  0.669314  0.125804  1
  Nb  Nb15  1  0.661201  0.832974  0.373598  1
  Nb  Nb16  1  0.160010  0.668343  0.373586  1
  Nb  Nb17  1  0.658606  0.830548  0.126028  1
  Nb  Nb18  1  0.838709  0.332156  0.873447  1
  Nb  Nb19  1  0.340179  0.167908  0.626568  1
  Ge  Ge20  1  0.806420  0.633305  0.750049  1
  Ge  Ge21  1  0.306896  0.866448  0.750120  1
  Ge  Ge22  1  0.192487  0.365909  0.248648  1
  Ge  Ge23  1  0.694707  0.133578  0.248966  1
  Ge  Ge24  1  0.538478  0.373257  0.750085  1
  Ge  Ge25  1  0.038701  0.126913  0.750185  1
  Ge  Ge26  1  0.460814  0.626706  0.250047  1
  Ge  Ge27  1  0.961252  0.873472  0.249478  1
  Ge  Ge28  1  0.670147  0.043861  0.544416  1
  Ge  Ge29  1  0.169643  0.455101  0.956596  1
  Ge  Ge30  1  0.326335  0.958322  0.044172  1
  Ge  Ge31  1  0.829346  0.544450  0.456095  1
  Ge  Ge32  1  0.330212  0.955709  0.455912  1
  Ge  Ge33  1  0.831569  0.542082  0.044280  1
  Ge  Ge34  1  0.672361  0.043490  0.956524  1
  Ge  Ge35  1  0.170443  0.456036  0.544229  1
