# generated using pymatgen
data_NdDy5Co16(P6Ru)2
_symmetry_space_group_name_H-M   'P 1'
_cell_length_a   3.71388800
_cell_length_b   10.53973100
_cell_length_c   12.27882400
_cell_angle_alpha   90.00000000
_cell_angle_beta   90.00000000
_cell_angle_gamma   90.00000000
_symmetry_Int_Tables_number   1
_chemical_formula_structural   NdDy5Co16(P6Ru)2
_chemical_formula_sum   'Nd1 Dy5 Co16 P12 Ru2'
_cell_volume   480.63467973
_cell_formula_units_Z   1
loop_
 _symmetry_equiv_pos_site_id
 _symmetry_equiv_pos_as_xyz
  1  'x, y, z'
loop_
 _atom_site_type_symbol
 _atom_site_label
 _atom_site_symmetry_multiplicity
 _atom_site_fract_x
 _atom_site_fract_y
 _atom_site_fract_z
 _atom_site_occupancy
  Nd  Nd0  1  0.000000  0.500000  0.524825  1
  Dy  Dy1  1  0.500000  0.000000  0.475777  1
  Dy  Dy2  1  0.500000  0.817190  0.206528  1
  Dy  Dy3  1  0.500000  0.182810  0.206528  1
  Dy  Dy4  1  0.000000  0.683629  0.794114  1
  Dy  Dy5  1  0.000000  0.316371  0.794114  1
  Co  Co6  1  0.500000  0.500000  0.706584  1
  Co  Co7  1  0.000000  0.000000  0.295369  1
  Co  Co8  1  0.000000  0.500000  0.986469  1
  Co  Co9  1  0.500000  0.000000  0.013969  1
  Co  Co10  1  0.500000  0.332020  0.990722  1
  Co  Co11  1  0.500000  0.667980  0.990722  1
  Co  Co12  1  0.000000  0.167239  0.009276  1
  Co  Co13  1  0.000000  0.832761  0.009276  1
  Co  Co14  1  0.500000  0.294434  0.430241  1
  Co  Co15  1  0.500000  0.705566  0.430241  1
  Co  Co16  1  0.000000  0.200578  0.569365  1
  Co  Co17  1  0.000000  0.799422  0.569365  1
  Co  Co18  1  0.500000  0.880090  0.708756  1
  Co  Co19  1  0.500000  0.119910  0.708756  1
  Co  Co20  1  0.000000  0.621196  0.290579  1
  Co  Co21  1  0.000000  0.378804  0.290579  1
  P  P22  1  0.500000  0.500000  0.883126  1
  P  P23  1  0.000000  0.000000  0.117738  1
  P  P24  1  0.500000  0.500000  0.346341  1
  P  P25  1  0.000000  0.000000  0.650442  1
  P  P26  1  0.500000  0.307650  0.617408  1
  P  P27  1  0.500000  0.692350  0.617408  1
  P  P28  1  0.000000  0.188311  0.383692  1
  P  P29  1  0.000000  0.811689  0.383692  1
  P  P30  1  0.500000  0.847012  0.893804  1
  P  P31  1  0.500000  0.152988  0.893804  1
  P  P32  1  0.000000  0.653900  0.105941  1
  P  P33  1  0.000000  0.346100  0.105941  1
  Ru  Ru34  1  0.500000  0.500000  0.157609  1
  Ru  Ru35  1  0.000000  0.000000  0.840902  1
