# generated using pymatgen
data_Mn3V4NiP4
_symmetry_space_group_name_H-M   'P 1'
_cell_length_a   3.49852300
_cell_length_b   5.90791179
_cell_length_c   6.84415433
_cell_angle_alpha   90.11222914
_cell_angle_beta   90.00000000
_cell_angle_gamma   90.00000000
_symmetry_Int_Tables_number   1
_chemical_formula_structural   Mn3V4NiP4
_chemical_formula_sum   'Mn3 V4 Ni1 P4'
_cell_volume   141.46131690
_cell_formula_units_Z   1
loop_
 _symmetry_equiv_pos_site_id
 _symmetry_equiv_pos_as_xyz
  1  'x, y, z'
loop_
 _atom_site_type_symbol
 _atom_site_label
 _atom_site_symmetry_multiplicity
 _atom_site_fract_x
 _atom_site_fract_y
 _atom_site_fract_z
 _atom_site_occupancy
  Mn  Mn0  1  0.750000  0.357045  0.056012  1
  Mn  Mn1  1  0.750000  0.862562  0.444478  1
  Mn  Mn2  1  0.250000  0.646771  0.938758  1
  V  V3  1  0.750000  0.474522  0.673806  1
  V  V4  1  0.750000  0.962227  0.828636  1
  V  V5  1  0.250000  0.529764  0.325060  1
  V  V6  1  0.250000  0.027704  0.169565  1
  Ni  Ni7  1  0.250000  0.148561  0.563584  1
  P  P8  1  0.750000  0.733007  0.135275  1
  P  P9  1  0.750000  0.233723  0.368430  1
  P  P10  1  0.250000  0.262894  0.873460  1
  P  P11  1  0.250000  0.761219  0.622935  1
