# generated using pymatgen
data_TbErMn17
_symmetry_space_group_name_H-M   'P 1'
_cell_length_a   6.31299578
_cell_length_b   6.31299768
_cell_length_c   6.31299700
_cell_angle_alpha   86.25064690
_cell_angle_beta   86.25064409
_cell_angle_gamma   86.25066011
_symmetry_Int_Tables_number   1
_chemical_formula_structural   TbErMn17
_chemical_formula_sum   'Tb1 Er1 Mn17'
_cell_volume   250.04953382
_cell_formula_units_Z   1
loop_
 _symmetry_equiv_pos_site_id
 _symmetry_equiv_pos_as_xyz
  1  'x, y, z'
loop_
 _atom_site_type_symbol
 _atom_site_label
 _atom_site_symmetry_multiplicity
 _atom_site_fract_x
 _atom_site_fract_y
 _atom_site_fract_z
 _atom_site_occupancy
  Tb  Tb0  1  0.644886  0.644886  0.644886  1
  Er  Er1  1  0.353928  0.353928  0.353928  1
  Mn  Mn2  1  0.274983  0.000202  0.725261  1
  Mn  Mn3  1  0.000202  0.725261  0.274983  1
  Mn  Mn4  1  0.725261  0.274983  0.000202  1
  Mn  Mn5  1  0.000202  0.274983  0.725261  1
  Mn  Mn6  1  0.274983  0.725261  0.000202  1
  Mn  Mn7  1  0.725261  0.000202  0.274983  1
  Mn  Mn8  1  0.644180  0.124504  0.644180  1
  Mn  Mn9  1  0.124504  0.644180  0.644180  1
  Mn  Mn10  1  0.644180  0.644180  0.124504  1
  Mn  Mn11  1  0.354782  0.876656  0.354782  1
  Mn  Mn12  1  0.876656  0.354782  0.354782  1
  Mn  Mn13  1  0.354782  0.354782  0.876656  1
  Mn  Mn14  1  0.000379  0.499975  0.000379  1
  Mn  Mn15  1  0.499975  0.000379  0.000379  1
  Mn  Mn16  1  0.000379  0.000379  0.499975  1
  Mn  Mn17  1  0.099172  0.099172  0.099172  1
  Mn  Mn18  1  0.901302  0.901302  0.901302  1
