# generated using pymatgen
data_Rb4MgMnTe4
_symmetry_space_group_name_H-M   'P 1'
_cell_length_a   9.13043148
_cell_length_b   9.13043098
_cell_length_c   9.13043139
_cell_angle_alpha   133.84148885
_cell_angle_beta   129.46953816
_cell_angle_gamma   70.83234458
_symmetry_Int_Tables_number   1
_chemical_formula_structural   Rb4MgMnTe4
_chemical_formula_sum   'Rb4 Mg1 Mn1 Te4'
_cell_volume   415.14204761
_cell_formula_units_Z   1
loop_
 _symmetry_equiv_pos_site_id
 _symmetry_equiv_pos_as_xyz
  1  'x, y, z'
loop_
 _atom_site_type_symbol
 _atom_site_label
 _atom_site_symmetry_multiplicity
 _atom_site_fract_x
 _atom_site_fract_y
 _atom_site_fract_z
 _atom_site_occupancy
  Rb  Rb0  1  0.468972  0.144614  0.325554  1
  Rb  Rb1  1  0.819060  0.643418  0.174446  1
  Rb  Rb2  1  0.531028  0.856582  0.675642  1
  Rb  Rb3  1  0.180940  0.355386  0.824358  1
  Mg  Mg4  1  0.000000  0.750000  0.750000  1
  Mn  Mn5  1  0.000000  0.250000  0.250000  1
  Te  Te6  1  0.086467  0.901146  0.197197  1
  Te  Te7  1  0.913533  0.110729  0.814678  1
  Te  Te8  1  0.296051  0.598854  0.685322  1
  Te  Te9  1  0.703949  0.389271  0.302803  1
