# generated using pymatgen
data_HoTmSbO2
_symmetry_space_group_name_H-M   'P 1'
_cell_length_a   7.18072862
_cell_length_b   7.17243577
_cell_length_c   7.18072900
_cell_angle_alpha   149.09986896
_cell_angle_beta   148.98745709
_cell_angle_gamma   44.36065270
_symmetry_Int_Tables_number   1
_chemical_formula_structural   HoTmSbO2
_chemical_formula_sum   'Ho1 Tm1 Sb1 O2'
_cell_volume   97.56108737
_cell_formula_units_Z   1
loop_
 _symmetry_equiv_pos_site_id
 _symmetry_equiv_pos_as_xyz
  1  'x, y, z'
loop_
 _atom_site_type_symbol
 _atom_site_label
 _atom_site_symmetry_multiplicity
 _atom_site_fract_x
 _atom_site_fract_y
 _atom_site_fract_z
 _atom_site_occupancy
  Ho  Ho0  1  0.333597  0.349019  0.015420  1
  Tm  Tm1  1  0.667992  0.681694  0.013702  1
  Sb  Sb2  1  0.000649  0.017273  0.016624  1
  O  O3  1  0.749340  0.263887  0.514548  1
  O  O4  1  0.248422  0.763127  0.514706  1
