# generated using pymatgen
data_TaCd2Hg2Sb3O14
_symmetry_space_group_name_H-M   'P 1'
_cell_length_a   7.44809100
_cell_length_b   7.44809086
_cell_length_c   7.51745155
_cell_angle_alpha   59.36467061
_cell_angle_beta   59.36467501
_cell_angle_gamma   59.07631065
_symmetry_Int_Tables_number   1
_chemical_formula_structural   TaCd2Hg2Sb3O14
_chemical_formula_sum   'Ta1 Cd2 Hg2 Sb3 O14'
_cell_volume   289.96299086
_cell_formula_units_Z   1
loop_
 _symmetry_equiv_pos_site_id
 _symmetry_equiv_pos_as_xyz
  1  'x, y, z'
loop_
 _atom_site_type_symbol
 _atom_site_label
 _atom_site_symmetry_multiplicity
 _atom_site_fract_x
 _atom_site_fract_y
 _atom_site_fract_z
 _atom_site_occupancy
  Ta  Ta0  1  0.625000  0.625000  0.625000  1
  Cd  Cd1  1  0.125000  0.125000  0.625000  1
  Cd  Cd2  1  0.125000  0.125000  0.125000  1
  Hg  Hg3  1  0.625000  0.125000  0.125000  1
  Hg  Hg4  1  0.125000  0.625000  0.125000  1
  Sb  Sb5  1  0.125000  0.625000  0.625000  1
  Sb  Sb6  1  0.625000  0.125000  0.625000  1
  Sb  Sb7  1  0.625000  0.625000  0.125000  1
  O  O8  1  0.688010  0.688010  0.311321  1
  O  O9  1  0.299146  0.299146  0.699883  1
  O  O10  1  0.695563  0.306801  0.686892  1
  O  O11  1  0.300241  0.704020  0.302263  1
  O  O12  1  0.306801  0.695563  0.686892  1
  O  O13  1  0.704020  0.300241  0.302263  1
  O  O14  1  0.561990  0.561990  0.938679  1
  O  O15  1  0.950854  0.950854  0.550117  1
  O  O16  1  0.554437  0.943199  0.563108  1
  O  O17  1  0.949759  0.545980  0.947737  1
  O  O18  1  0.943199  0.554437  0.563108  1
  O  O19  1  0.545980  0.949759  0.947737  1
  O  O20  1  0.252670  0.252670  0.250237  1
  O  O21  1  0.997330  0.997330  0.999763  1
