# generated using pymatgen
data_TmWF7
_symmetry_space_group_name_H-M   'P 1'
_cell_length_a   5.68164800
_cell_length_b   5.98332040
_cell_length_c   8.25581962
_cell_angle_alpha   102.62357824
_cell_angle_beta   90.00000000
_cell_angle_gamma   90.00000000
_symmetry_Int_Tables_number   1
_chemical_formula_structural   TmWF7
_chemical_formula_sum   'Tm2 W2 F14'
_cell_volume   273.87322064
_cell_formula_units_Z   2
loop_
 _symmetry_equiv_pos_site_id
 _symmetry_equiv_pos_as_xyz
  1  'x, y, z'
loop_
 _atom_site_type_symbol
 _atom_site_label
 _atom_site_symmetry_multiplicity
 _atom_site_fract_x
 _atom_site_fract_y
 _atom_site_fract_z
 _atom_site_occupancy
  Tm  Tm0  1  0.700186  0.653637  0.684801  1
  Tm  Tm1  1  0.200186  0.346363  0.315199  1
  W  W2  1  0.707490  0.812756  0.224848  1
  W  W3  1  0.207490  0.187244  0.775152  1
  F  F4  1  0.906992  0.466178  0.481920  1
  F  F5  1  0.406992  0.533822  0.518080  1
  F  F6  1  0.433709  0.917191  0.766934  1
  F  F7  1  0.933709  0.082809  0.233066  1
  F  F8  1  0.941289  0.961714  0.757480  1
  F  F9  1  0.441289  0.038286  0.242520  1
  F  F10  1  0.982413  0.462417  0.790647  1
  F  F11  1  0.482413  0.537583  0.209353  1
  F  F12  1  0.698659  0.760770  0.978885  1
  F  F13  1  0.198659  0.239230  0.021115  1
  F  F14  1  0.713872  0.869660  0.472446  1
  F  F15  1  0.213872  0.130340  0.527554  1
  F  F16  1  0.491749  0.389114  0.785716  1
  F  F17  1  0.991749  0.610886  0.214284  1
