# generated using pymatgen
data_Tm12Th4MgZn3Fe4
_symmetry_space_group_name_H-M   'P 1'
_cell_length_a   9.35395135
_cell_length_b   9.37034467
_cell_length_c   9.37034500
_cell_angle_alpha   59.99998826
_cell_angle_beta   59.94199720
_cell_angle_gamma   59.94199260
_symmetry_Int_Tables_number   1
_chemical_formula_structural   Tm12Th4MgZn3Fe4
_chemical_formula_sum   'Tm12 Th4 Mg1 Zn3 Fe4'
_cell_volume   580.24297968
_cell_formula_units_Z   1
loop_
 _symmetry_equiv_pos_site_id
 _symmetry_equiv_pos_as_xyz
  1  'x, y, z'
loop_
 _atom_site_type_symbol
 _atom_site_label
 _atom_site_symmetry_multiplicity
 _atom_site_fract_x
 _atom_site_fract_y
 _atom_site_fract_z
 _atom_site_occupancy
  Tm  Tm0  1  0.060397  0.439549  0.439549  1
  Tm  Tm1  1  0.437512  0.063176  0.063176  1
  Tm  Tm2  1  0.437512  0.063176  0.436136  1
  Tm  Tm3  1  0.060397  0.439549  0.060505  1
  Tm  Tm4  1  0.437512  0.436136  0.063176  1
  Tm  Tm5  1  0.060397  0.060505  0.439549  1
  Tm  Tm6  1  0.181339  0.814435  0.814435  1
  Tm  Tm7  1  0.811919  0.186174  0.186174  1
  Tm  Tm8  1  0.811919  0.186174  0.815732  1
  Tm  Tm9  1  0.181339  0.814435  0.189793  1
  Tm  Tm10  1  0.811919  0.815732  0.186174  1
  Tm  Tm11  1  0.181339  0.189793  0.814435  1
  Th  Th12  1  0.597097  0.595259  0.595259  1
  Th  Th13  1  0.597097  0.595259  0.212385  1
  Th  Th14  1  0.597097  0.212385  0.595259  1
  Th  Th15  1  0.203124  0.598958  0.598958  1
  Mg  Mg16  1  0.535538  0.821487  0.821487  1
  Zn  Zn17  1  0.833202  0.831876  0.831876  1
  Zn  Zn18  1  0.833202  0.831876  0.503045  1
  Zn  Zn19  1  0.833202  0.503045  0.831876  1
  Fe  Fe20  1  0.392487  0.393827  0.393827  1
  Fe  Fe21  1  0.392487  0.393827  0.819861  1
  Fe  Fe22  1  0.392487  0.819861  0.393827  1
  Fe  Fe23  1  0.819478  0.393507  0.393507  1
