# generated using pymatgen
data_NdTmReB6
_symmetry_space_group_name_H-M   'P 1'
_cell_length_a   3.71006100
_cell_length_b   9.21600000
_cell_length_c   11.67725800
_cell_angle_alpha   90.00000000
_cell_angle_beta   90.00000000
_cell_angle_gamma   90.00000000
_symmetry_Int_Tables_number   1
_chemical_formula_structural   NdTmReB6
_chemical_formula_sum   'Nd4 Tm4 Re4 B24'
_cell_volume   399.26789677
_cell_formula_units_Z   4
loop_
 _symmetry_equiv_pos_site_id
 _symmetry_equiv_pos_as_xyz
  1  'x, y, z'
loop_
 _atom_site_type_symbol
 _atom_site_label
 _atom_site_symmetry_multiplicity
 _atom_site_fract_x
 _atom_site_fract_y
 _atom_site_fract_z
 _atom_site_occupancy
  Nd  Nd0  1  0.000000  0.322644  0.414279  1
  Nd  Nd1  1  0.000000  0.677356  0.585721  1
  Nd  Nd2  1  0.000000  0.822644  0.085721  1
  Nd  Nd3  1  0.000000  0.177356  0.914279  1
  Tm  Tm4  1  0.000000  0.943358  0.369647  1
  Tm  Tm5  1  0.000000  0.056642  0.630353  1
  Tm  Tm6  1  0.000000  0.443358  0.130353  1
  Tm  Tm7  1  0.000000  0.556642  0.869647  1
  Re  Re8  1  0.000000  0.640024  0.318849  1
  Re  Re9  1  0.000000  0.359976  0.681151  1
  Re  Re10  1  0.000000  0.140024  0.181151  1
  Re  Re11  1  0.000000  0.859976  0.818849  1
  B  B12  1  0.500000  0.555312  0.430306  1
  B  B13  1  0.500000  0.444688  0.569694  1
  B  B14  1  0.500000  0.055312  0.069694  1
  B  B15  1  0.500000  0.944688  0.930306  1
  B  B16  1  0.500000  0.750827  0.415975  1
  B  B17  1  0.500000  0.249173  0.584025  1
  B  B18  1  0.500000  0.250827  0.084025  1
  B  B19  1  0.500000  0.749173  0.915975  1
  B  B20  1  0.500000  0.792227  0.266139  1
  B  B21  1  0.500000  0.207773  0.733861  1
  B  B22  1  0.500000  0.292227  0.233861  1
  B  B23  1  0.500000  0.707773  0.766139  1
  B  B24  1  0.500000  0.629401  0.185999  1
  B  B25  1  0.500000  0.370599  0.814001  1
  B  B26  1  0.500000  0.129401  0.314001  1
  B  B27  1  0.500000  0.870599  0.685999  1
  B  B28  1  0.500000  0.983718  0.213547  1
  B  B29  1  0.500000  0.016282  0.786453  1
  B  B30  1  0.500000  0.483718  0.286453  1
  B  B31  1  0.500000  0.516282  0.713547  1
  B  B32  1  0.500000  0.595736  0.026380  1
  B  B33  1  0.500000  0.404264  0.973620  1
  B  B34  1  0.500000  0.095736  0.473620  1
  B  B35  1  0.500000  0.904264  0.526380  1
