# generated using pymatgen
data_TmHf(Al3Rh)3
_symmetry_space_group_name_H-M   'P 1'
_cell_length_a   7.50158162
_cell_length_b   7.49251530
_cell_length_c   9.30892800
_cell_angle_alpha   90.00000000
_cell_angle_beta   90.00000000
_cell_angle_gamma   119.73528410
_symmetry_Int_Tables_number   1
_chemical_formula_structural   TmHf(Al3Rh)3
_chemical_formula_sum   'Tm2 Hf2 Al18 Rh6'
_cell_volume   454.32127129
_cell_formula_units_Z   2
loop_
 _symmetry_equiv_pos_site_id
 _symmetry_equiv_pos_as_xyz
  1  'x, y, z'
loop_
 _atom_site_type_symbol
 _atom_site_label
 _atom_site_symmetry_multiplicity
 _atom_site_fract_x
 _atom_site_fract_y
 _atom_site_fract_z
 _atom_site_occupancy
  Tm  Tm0  1  0.670580  0.993875  0.250000  1
  Tm  Tm1  1  0.329420  0.006125  0.750000  1
  Hf  Hf2  1  0.995084  0.671272  0.250000  1
  Hf  Hf3  1  0.004916  0.328728  0.750000  1
  Al  Al4  1  0.124721  0.122862  0.250000  1
  Al  Al5  1  0.875279  0.877138  0.750000  1
  Al  Al6  1  0.999053  0.337158  0.075941  1
  Al  Al7  1  0.000947  0.662842  0.924059  1
  Al  Al8  1  0.000947  0.662842  0.575941  1
  Al  Al9  1  0.332176  0.997679  0.420955  1
  Al  Al10  1  0.999053  0.337158  0.424059  1
  Al  Al11  1  0.667824  0.002321  0.579045  1
  Al  Al12  1  0.667824  0.002321  0.920955  1
  Al  Al13  1  0.332176  0.997679  0.079045  1
  Al  Al14  1  0.330798  0.333299  0.557183  1
  Al  Al15  1  0.669202  0.666701  0.442817  1
  Al  Al16  1  0.669202  0.666701  0.057183  1
  Al  Al17  1  0.330798  0.333299  0.942817  1
  Al  Al18  1  0.334282  0.548845  0.250000  1
  Al  Al19  1  0.665718  0.451155  0.750000  1
  Al  Al20  1  0.555592  0.343096  0.250000  1
  Al  Al21  1  0.444408  0.656904  0.750000  1
  Rh  Rh22  1  0.672882  0.327786  0.999357  1
  Rh  Rh23  1  0.327118  0.672214  0.000643  1
  Rh  Rh24  1  0.327118  0.672214  0.499357  1
  Rh  Rh25  1  0.672882  0.327786  0.500643  1
  Rh  Rh26  1  0.000000  0.000000  0.000000  1
  Rh  Rh27  1  0.000000  0.000000  0.500000  1
