# generated using pymatgen
data_Dy15Tm5(Ir3Os)3
_symmetry_space_group_name_H-M   'P 1'
_cell_length_a   10.83860309
_cell_length_b   10.84308812
_cell_length_c   6.39674306
_cell_angle_alpha   90.01219181
_cell_angle_beta   89.99075860
_cell_angle_gamma   89.98835196
_symmetry_Int_Tables_number   1
_chemical_formula_structural   Dy15Tm5(Ir3Os)3
_chemical_formula_sum   'Dy15 Tm5 Ir9 Os3'
_cell_volume   751.77033061
_cell_formula_units_Z   1
loop_
 _symmetry_equiv_pos_site_id
 _symmetry_equiv_pos_as_xyz
  1  'x, y, z'
loop_
 _atom_site_type_symbol
 _atom_site_label
 _atom_site_symmetry_multiplicity
 _atom_site_fract_x
 _atom_site_fract_y
 _atom_site_fract_z
 _atom_site_occupancy
  Dy  Dy0  1  0.293192  0.914057  0.877876  1
  Dy  Dy1  1  0.706620  0.086221  0.877892  1
  Dy  Dy2  1  0.706673  0.913565  0.377845  1
  Dy  Dy3  1  0.586147  0.793331  0.877894  1
  Dy  Dy4  1  0.586044  0.206570  0.377593  1
  Dy  Dy5  1  0.413250  0.793652  0.377762  1
  Dy  Dy6  1  0.413453  0.206519  0.877957  1
  Dy  Dy7  1  0.208647  0.412827  0.623752  1
  Dy  Dy8  1  0.208253  0.587288  0.119905  1
  Dy  Dy9  1  0.791829  0.412745  0.119903  1
  Dy  Dy10  1  0.791346  0.587026  0.623774  1
  Dy  Dy11  1  0.912777  0.708224  0.119909  1
  Dy  Dy12  1  0.912853  0.291438  0.624035  1
  Dy  Dy13  1  0.087101  0.708657  0.623788  1
  Dy  Dy14  1  0.087543  0.291558  0.120162  1
  Tm  Tm15  1  0.294114  0.086239  0.378575  1
  Tm  Tm16  1  0.000452  0.000233  0.499337  1
  Tm  Tm17  1  0.000068  0.000065  0.999873  1
  Tm  Tm18  1  0.499980  0.499897  0.999849  1
  Tm  Tm19  1  0.499908  0.499955  0.499476  1
  Ir  Ir20  1  0.849789  0.151843  0.250187  1
  Ir  Ir21  1  0.849508  0.848476  0.749695  1
  Ir  Ir22  1  0.151004  0.151312  0.747991  1
  Ir  Ir23  1  0.150674  0.848762  0.250646  1
  Ir  Ir24  1  0.651484  0.349386  0.749719  1
  Ir  Ir25  1  0.651772  0.650300  0.250398  1
  Ir  Ir26  1  0.348148  0.348782  0.250949  1
  Ir  Ir27  1  0.348484  0.650582  0.749726  1
  Ir  Ir28  1  0.000038  0.499974  0.377632  1
  Os  Os29  1  0.499463  0.000257  0.125711  1
  Os  Os30  1  0.499316  0.000239  0.623878  1
  Os  Os31  1  0.000069  0.500016  0.876309  1
