# generated using pymatgen
data_Nb2GaFeBr16
_symmetry_space_group_name_H-M   'P 1'
_cell_length_a   10.48482665
_cell_length_b   10.48482599
_cell_length_c   9.46165800
_cell_angle_alpha   90.00000000
_cell_angle_beta   90.00000000
_cell_angle_gamma   128.28598454
_symmetry_Int_Tables_number   1
_chemical_formula_structural   Nb2GaFeBr16
_chemical_formula_sum   'Nb2 Ga1 Fe1 Br16'
_cell_volume   816.43107052
_cell_formula_units_Z   1
loop_
 _symmetry_equiv_pos_site_id
 _symmetry_equiv_pos_as_xyz
  1  'x, y, z'
loop_
 _atom_site_type_symbol
 _atom_site_label
 _atom_site_symmetry_multiplicity
 _atom_site_fract_x
 _atom_site_fract_y
 _atom_site_fract_z
 _atom_site_occupancy
  Nb  Nb0  1  0.613674  0.386326  0.250000  1
  Nb  Nb1  1  0.387726  0.612274  0.750000  1
  Ga  Ga2  1  0.185578  0.814422  0.750000  1
  Fe  Fe3  1  0.811785  0.188215  0.250000  1
  Br  Br4  1  0.527087  0.073150  0.250000  1
  Br  Br5  1  0.074220  0.529192  0.750000  1
  Br  Br6  1  0.470808  0.925780  0.750000  1
  Br  Br7  1  0.926850  0.472913  0.250000  1
  Br  Br8  1  0.631741  0.368259  0.989252  1
  Br  Br9  1  0.368805  0.631195  0.010370  1
  Br  Br10  1  0.631741  0.368259  0.510748  1
  Br  Br11  1  0.368805  0.631195  0.489630  1
  Br  Br12  1  0.326577  0.262009  0.250000  1
  Br  Br13  1  0.261112  0.325230  0.750000  1
  Br  Br14  1  0.674770  0.738888  0.750000  1
  Br  Br15  1  0.737991  0.673423  0.250000  1
  Br  Br16  1  0.879265  0.120735  0.452968  1
  Br  Br17  1  0.121100  0.878900  0.542596  1
  Br  Br18  1  0.879265  0.120735  0.047032  1
  Br  Br19  1  0.121100  0.878900  0.957404  1
