# generated using pymatgen
data_SmSc5(CI5)2
_symmetry_space_group_name_H-M   'P 1'
_cell_length_a   7.39769931
_cell_length_b   9.68386816
_cell_length_c   9.42978709
_cell_angle_alpha   106.56809566
_cell_angle_beta   95.58380965
_cell_angle_gamma   104.78200657
_symmetry_Int_Tables_number   1
_chemical_formula_structural   SmSc5(CI5)2
_chemical_formula_sum   'Sm1 Sc5 C2 I10'
_cell_volume   615.42747501
_cell_formula_units_Z   1
loop_
 _symmetry_equiv_pos_site_id
 _symmetry_equiv_pos_as_xyz
  1  'x, y, z'
loop_
 _atom_site_type_symbol
 _atom_site_label
 _atom_site_symmetry_multiplicity
 _atom_site_fract_x
 _atom_site_fract_y
 _atom_site_fract_z
 _atom_site_occupancy
  Sm  Sm0  1  0.107770  0.035559  0.770518  1
  Sc  Sc1  1  0.365858  0.124968  0.167755  1
  Sc  Sc2  1  0.901012  0.967248  0.205465  1
  Sc  Sc3  1  0.027297  0.767740  0.934078  1
  Sc  Sc4  1  0.975836  0.230910  0.068945  1
  Sc  Sc5  1  0.634573  0.872772  0.833253  1
  C  C6  1  0.906423  0.970368  0.959355  1
  C  C7  1  0.095708  0.028485  0.040002  1
  I  I8  1  0.204452  0.732155  0.666523  1
  I  I9  1  0.078652  0.356946  0.836395  1
  I  I10  1  0.456894  0.825655  0.096490  1
  I  I11  1  0.248086  0.083735  0.444866  1
  I  I12  1  0.556193  0.180613  0.912193  1
  I  I13  1  0.800526  0.246030  0.333871  1
  I  I14  1  0.338259  0.426183  0.259564  1
  I  I15  1  0.915636  0.668414  0.177679  1
  I  I16  1  0.665403  0.572405  0.743571  1
  I  I17  1  0.721424  0.909814  0.549478  1
