# generated using pymatgen
data_Li3Tb2TmSi2Ge
_symmetry_space_group_name_H-M   'P 1'
_cell_length_a   6.98029967
_cell_length_b   6.98029897
_cell_length_c   4.25515100
_cell_angle_alpha   90.00000000
_cell_angle_beta   90.00000000
_cell_angle_gamma   119.44759282
_symmetry_Int_Tables_number   1
_chemical_formula_structural   Li3Tb2TmSi2Ge
_chemical_formula_sum   'Li3 Tb2 Tm1 Si2 Ge1'
_cell_volume   180.54453683
_cell_formula_units_Z   1
loop_
 _symmetry_equiv_pos_site_id
 _symmetry_equiv_pos_as_xyz
  1  'x, y, z'
loop_
 _atom_site_type_symbol
 _atom_site_label
 _atom_site_symmetry_multiplicity
 _atom_site_fract_x
 _atom_site_fract_y
 _atom_site_fract_z
 _atom_site_occupancy
  Li  Li0  1  0.234724  0.000402  0.500000  1
  Li  Li1  1  0.000402  0.234724  0.500000  1
  Li  Li2  1  0.765144  0.765144  0.500000  1
  Tb  Tb3  1  0.571476  0.999744  0.000000  1
  Tb  Tb4  1  0.999744  0.571476  0.000000  1
  Tm  Tm5  1  0.427015  0.427015  0.000000  1
  Si  Si6  1  0.334187  0.663844  0.500000  1
  Si  Si7  1  0.663844  0.334187  0.500000  1
  Ge  Ge8  1  0.003463  0.003463  0.000000  1
