# generated using pymatgen
data_Cs11Rb(SnSe3)4
_symmetry_space_group_name_H-M   'P 1'
_cell_length_a   10.98924409
_cell_length_b   10.98923769
_cell_length_c   9.93462391
_cell_angle_alpha   85.39716832
_cell_angle_beta   85.39720708
_cell_angle_gamma   78.44280746
_symmetry_Int_Tables_number   1
_chemical_formula_structural   Cs11Rb(SnSe3)4
_chemical_formula_sum   'Cs11 Rb1 Sn4 Se12'
_cell_volume   1169.09168144
_cell_formula_units_Z   1
loop_
 _symmetry_equiv_pos_site_id
 _symmetry_equiv_pos_as_xyz
  1  'x, y, z'
loop_
 _atom_site_type_symbol
 _atom_site_label
 _atom_site_symmetry_multiplicity
 _atom_site_fract_x
 _atom_site_fract_y
 _atom_site_fract_z
 _atom_site_occupancy
  Cs  Cs0  1  0.403268  0.596732  0.750000  1
  Cs  Cs1  1  0.919228  0.080772  0.250000  1
  Cs  Cs2  1  0.080606  0.919394  0.750000  1
  Cs  Cs3  1  0.792761  0.401123  0.867652  1
  Cs  Cs4  1  0.598877  0.207240  0.632348  1
  Cs  Cs5  1  0.207174  0.598656  0.132941  1
  Cs  Cs6  1  0.401344  0.792825  0.367059  1
  Cs  Cs7  1  0.752283  0.804177  0.686272  1
  Cs  Cs8  1  0.195823  0.247717  0.813728  1
  Cs  Cs9  1  0.247920  0.195631  0.313520  1
  Cs  Cs10  1  0.804369  0.752080  0.186480  1
  Rb  Rb11  1  0.595036  0.404964  0.250000  1
  Sn  Sn12  1  0.912488  0.430355  0.454439  1
  Sn  Sn13  1  0.569645  0.087512  0.045561  1
  Sn  Sn14  1  0.087762  0.568967  0.544593  1
  Sn  Sn15  1  0.431033  0.912238  0.955407  1
  Se  Se16  1  0.053706  0.584995  0.803553  1
  Se  Se17  1  0.415005  0.946295  0.696446  1
  Se  Se18  1  0.943816  0.414547  0.195823  1
  Se  Se19  1  0.585453  0.056183  0.304178  1
  Se  Se20  1  0.050279  0.787066  0.425635  1
  Se  Se21  1  0.212934  0.949721  0.074365  1
  Se  Se22  1  0.950054  0.212793  0.574762  1
  Se  Se23  1  0.787207  0.049946  0.925238  1
  Se  Se24  1  0.687455  0.542862  0.517551  1
  Se  Se25  1  0.457138  0.312545  0.982449  1
  Se  Se26  1  0.311527  0.454192  0.476314  1
  Se  Se27  1  0.545808  0.688473  0.023686  1
