# generated using pymatgen
data_Ho2Er2Tc5Ru3
_symmetry_space_group_name_H-M   'P 1'
_cell_length_a   5.30460290
_cell_length_b   5.30460272
_cell_length_c   9.14132700
_cell_angle_alpha   90.00289505
_cell_angle_beta   89.99710547
_cell_angle_gamma   121.95745187
_symmetry_Int_Tables_number   1
_chemical_formula_structural   Ho2Er2Tc5Ru3
_chemical_formula_sum   'Ho2 Er2 Tc5 Ru3'
_cell_volume   218.24124450
_cell_formula_units_Z   1
loop_
 _symmetry_equiv_pos_site_id
 _symmetry_equiv_pos_as_xyz
  1  'x, y, z'
loop_
 _atom_site_type_symbol
 _atom_site_label
 _atom_site_symmetry_multiplicity
 _atom_site_fract_x
 _atom_site_fract_y
 _atom_site_fract_z
 _atom_site_occupancy
  Ho  Ho0  1  0.335416  0.664584  0.434981  1
  Ho  Ho1  1  0.665157  0.334843  0.563304  1
  Er  Er2  1  0.665089  0.334911  0.936698  1
  Er  Er3  1  0.335469  0.664531  0.064998  1
  Tc  Tc4  1  0.170704  0.341710  0.750253  1
  Tc  Tc5  1  0.171533  0.828467  0.750258  1
  Tc  Tc6  1  0.340140  0.174500  0.249750  1
  Tc  Tc7  1  0.825500  0.659860  0.249750  1
  Tc  Tc8  1  0.658290  0.829296  0.750253  1
  Ru  Ru9  1  0.003395  0.996605  0.001687  1
  Ru  Ru10  1  0.825932  0.174068  0.249749  1
  Ru  Ru11  1  0.003375  0.996625  0.498319  1
