# generated using pymatgen
data_Er3Tm7CoBi5
_symmetry_space_group_name_H-M   'P 1'
_cell_length_a   8.00991100
_cell_length_b   9.31852900
_cell_length_c   11.99983300
_cell_angle_alpha   90.00000000
_cell_angle_beta   90.00000000
_cell_angle_gamma   90.00000000
_symmetry_Int_Tables_number   1
_chemical_formula_structural   Er3Tm7CoBi5
_chemical_formula_sum   'Er6 Tm14 Co2 Bi10'
_cell_volume   895.67459031
_cell_formula_units_Z   2
loop_
 _symmetry_equiv_pos_site_id
 _symmetry_equiv_pos_as_xyz
  1  'x, y, z'
loop_
 _atom_site_type_symbol
 _atom_site_label
 _atom_site_symmetry_multiplicity
 _atom_site_fract_x
 _atom_site_fract_y
 _atom_site_fract_z
 _atom_site_occupancy
  Er  Er0  1  0.573395  0.500000  0.773116  1
  Er  Er1  1  0.426605  0.500000  0.273116  1
  Er  Er2  1  0.258332  0.500000  0.993618  1
  Er  Er3  1  0.741668  0.500000  0.493618  1
  Er  Er4  1  0.089656  0.500000  0.718403  1
  Er  Er5  1  0.910344  0.500000  0.218403  1
  Tm  Tm6  1  0.430607  0.175449  0.562786  1
  Tm  Tm7  1  0.569393  0.824551  0.062786  1
  Tm  Tm8  1  0.072743  0.729356  0.436566  1
  Tm  Tm9  1  0.927257  0.270644  0.936566  1
  Tm  Tm10  1  0.072743  0.270644  0.436566  1
  Tm  Tm11  1  0.927257  0.729356  0.936566  1
  Tm  Tm12  1  0.430607  0.824551  0.562786  1
  Tm  Tm13  1  0.569393  0.175449  0.062786  1
  Tm  Tm14  1  0.905747  0.000000  0.200071  1
  Tm  Tm15  1  0.094253  0.000000  0.700071  1
  Tm  Tm16  1  0.195311  0.000000  0.996338  1
  Tm  Tm17  1  0.804689  0.000000  0.496338  1
  Tm  Tm18  1  0.371669  0.000000  0.308664  1
  Tm  Tm19  1  0.628331  0.000000  0.808664  1
  Co  Co20  1  0.174152  0.000000  0.487980  1
  Co  Co21  1  0.825848  0.000000  0.987980  1
  Bi  Bi22  1  0.814257  0.742015  0.672141  1
  Bi  Bi23  1  0.185743  0.257985  0.172141  1
  Bi  Bi24  1  0.680349  0.241220  0.325171  1
  Bi  Bi25  1  0.319651  0.758780  0.825171  1
  Bi  Bi26  1  0.680349  0.758780  0.325171  1
  Bi  Bi27  1  0.319651  0.241220  0.825171  1
  Bi  Bi28  1  0.814257  0.257985  0.672141  1
  Bi  Bi29  1  0.185743  0.742015  0.172141  1
  Bi  Bi30  1  0.348416  0.500000  0.528486  1
  Bi  Bi31  1  0.651584  0.500000  0.028486  1
