# generated using pymatgen
data_Tb11Y5MgIn3Pt4
_symmetry_space_group_name_H-M   'P 1'
_cell_length_a   9.78182449
_cell_length_b   9.76961578
_cell_length_c   9.76961689
_cell_angle_alpha   59.90324099
_cell_angle_beta   60.04047455
_cell_angle_gamma   60.04046979
_symmetry_Int_Tables_number   1
_chemical_formula_structural   Tb11Y5MgIn3Pt4
_chemical_formula_sum   'Tb11 Y5 Mg1 In3 Pt4'
_cell_volume   660.09480529
_cell_formula_units_Z   1
loop_
 _symmetry_equiv_pos_site_id
 _symmetry_equiv_pos_as_xyz
  1  'x, y, z'
loop_
 _atom_site_type_symbol
 _atom_site_label
 _atom_site_symmetry_multiplicity
 _atom_site_fract_x
 _atom_site_fract_y
 _atom_site_fract_z
 _atom_site_occupancy
  Tb  Tb0  1  0.599491  0.599313  0.599313  1
  Tb  Tb1  1  0.600418  0.600173  0.198918  1
  Tb  Tb2  1  0.600418  0.198918  0.600173  1
  Tb  Tb3  1  0.195896  0.601143  0.601143  1
  Tb  Tb4  1  0.058860  0.441573  0.441573  1
  Tb  Tb5  1  0.439512  0.060470  0.060470  1
  Tb  Tb6  1  0.439022  0.061739  0.439322  1
  Tb  Tb7  1  0.058841  0.442108  0.058318  1
  Tb  Tb8  1  0.439022  0.439322  0.061739  1
  Tb  Tb9  1  0.058841  0.058318  0.442108  1
  Tb  Tb10  1  0.185106  0.814694  0.814694  1
  Y  Y11  1  0.812904  0.187164  0.187164  1
  Y  Y12  1  0.814216  0.185899  0.812962  1
  Y  Y13  1  0.185864  0.813033  0.187288  1
  Y  Y14  1  0.814216  0.812962  0.185899  1
  Y  Y15  1  0.185864  0.187288  0.813033  1
  Mg  Mg16  1  0.517023  0.827654  0.827654  1
  In  In17  1  0.833037  0.833597  0.833597  1
  In  In18  1  0.832148  0.833448  0.501115  1
  In  In19  1  0.832148  0.501115  0.833448  1
  Pt  Pt20  1  0.392489  0.393383  0.393383  1
  Pt  Pt21  1  0.391188  0.392817  0.821798  1
  Pt  Pt22  1  0.391188  0.821798  0.392817  1
  Pt  Pt23  1  0.822292  0.392072  0.392072  1
