# generated using pymatgen
data_Tb3Co8Si4P2Ru
_symmetry_space_group_name_H-M   'P 1'
_cell_length_a   3.75912400
_cell_length_b   10.74225400
_cell_length_c   12.40740000
_cell_angle_alpha   90.00000000
_cell_angle_beta   90.00000000
_cell_angle_gamma   90.00000000
_symmetry_Int_Tables_number   1
_chemical_formula_structural   Tb3Co8Si4P2Ru
_chemical_formula_sum   'Tb6 Co16 Si8 P4 Ru2'
_cell_volume   501.02898668
_cell_formula_units_Z   2
loop_
 _symmetry_equiv_pos_site_id
 _symmetry_equiv_pos_as_xyz
  1  'x, y, z'
loop_
 _atom_site_type_symbol
 _atom_site_label
 _atom_site_symmetry_multiplicity
 _atom_site_fract_x
 _atom_site_fract_y
 _atom_site_fract_z
 _atom_site_occupancy
  Tb  Tb0  1  0.000000  0.500000  0.525281  1
  Tb  Tb1  1  0.500000  0.000000  0.474719  1
  Tb  Tb2  1  0.500000  0.819809  0.203869  1
  Tb  Tb3  1  0.500000  0.180191  0.203869  1
  Tb  Tb4  1  0.000000  0.680191  0.796131  1
  Tb  Tb5  1  0.000000  0.319809  0.796131  1
  Co  Co6  1  0.500000  0.500000  0.703291  1
  Co  Co7  1  0.000000  0.000000  0.296709  1
  Co  Co8  1  0.000000  0.500000  0.981015  1
  Co  Co9  1  0.500000  0.000000  0.018985  1
  Co  Co10  1  0.500000  0.333149  0.990509  1
  Co  Co11  1  0.500000  0.666851  0.990509  1
  Co  Co12  1  0.000000  0.166851  0.009491  1
  Co  Co13  1  0.000000  0.833149  0.009491  1
  Co  Co14  1  0.500000  0.303559  0.429256  1
  Co  Co15  1  0.500000  0.696441  0.429256  1
  Co  Co16  1  0.000000  0.196441  0.570744  1
  Co  Co17  1  0.000000  0.803559  0.570744  1
  Co  Co18  1  0.500000  0.883575  0.705804  1
  Co  Co19  1  0.500000  0.116425  0.705804  1
  Co  Co20  1  0.000000  0.616425  0.294196  1
  Co  Co21  1  0.000000  0.383575  0.294196  1
  Si  Si22  1  0.500000  0.305744  0.614634  1
  Si  Si23  1  0.500000  0.694256  0.614634  1
  Si  Si24  1  0.000000  0.194256  0.385366  1
  Si  Si25  1  0.000000  0.805744  0.385366  1
  Si  Si26  1  0.500000  0.850873  0.894013  1
  Si  Si27  1  0.500000  0.149127  0.894013  1
  Si  Si28  1  0.000000  0.649127  0.105987  1
  Si  Si29  1  0.000000  0.350873  0.105987  1
  P  P30  1  0.500000  0.500000  0.884124  1
  P  P31  1  0.000000  0.000000  0.115876  1
  P  P32  1  0.500000  0.500000  0.344481  1
  P  P33  1  0.000000  0.000000  0.655519  1
  Ru  Ru34  1  0.500000  0.500000  0.155755  1
  Ru  Ru35  1  0.000000  0.000000  0.844245  1
