# generated using pymatgen
data_LiPr2ThZn2Pd3
_symmetry_space_group_name_H-M   'P 1'
_cell_length_a   7.46699879
_cell_length_b   7.50941003
_cell_length_c   4.03277600
_cell_angle_alpha   90.00000000
_cell_angle_beta   90.00000000
_cell_angle_gamma   119.86628231
_symmetry_Int_Tables_number   1
_chemical_formula_structural   LiPr2ThZn2Pd3
_chemical_formula_sum   'Li1 Pr2 Th1 Zn2 Pd3'
_cell_volume   196.09667783
_cell_formula_units_Z   1
loop_
 _symmetry_equiv_pos_site_id
 _symmetry_equiv_pos_as_xyz
  1  'x, y, z'
loop_
 _atom_site_type_symbol
 _atom_site_label
 _atom_site_symmetry_multiplicity
 _atom_site_fract_x
 _atom_site_fract_y
 _atom_site_fract_z
 _atom_site_occupancy
  Li  Li0  1  0.772396  0.768975  0.000000  1
  Pr  Pr1  1  0.399650  0.396764  0.500000  1
  Pr  Pr2  1  0.008920  0.590537  0.500000  1
  Th  Th3  1  0.585503  0.003550  0.500000  1
  Zn  Zn4  1  0.997698  0.242545  0.000000  1
  Zn  Zn5  1  0.229648  0.993501  0.000000  1
  Pd  Pd6  1  0.993982  0.006551  0.500000  1
  Pd  Pd7  1  0.349089  0.682562  0.000000  1
  Pd  Pd8  1  0.663114  0.315015  0.000000  1
