# generated using pymatgen
data_Y5In2PbS
_symmetry_space_group_name_H-M   'P 1'
_cell_length_a   9.12575100
_cell_length_b   9.12575132
_cell_length_c   6.75096500
_cell_angle_alpha   90.00002511
_cell_angle_beta   90.00003139
_cell_angle_gamma   119.91759244
_symmetry_Int_Tables_number   1
_chemical_formula_structural   Y5In2PbS
_chemical_formula_sum   'Y10 In4 Pb2 S2'
_cell_volume   487.29703531
_cell_formula_units_Z   2
loop_
 _symmetry_equiv_pos_site_id
 _symmetry_equiv_pos_as_xyz
  1  'x, y, z'
loop_
 _atom_site_type_symbol
 _atom_site_label
 _atom_site_symmetry_multiplicity
 _atom_site_fract_x
 _atom_site_fract_y
 _atom_site_fract_z
 _atom_site_occupancy
  Y  Y0  1  0.665964  0.332056  0.995550  1
  Y  Y1  1  0.332056  0.665965  0.995550  1
  Y  Y2  1  0.760552  0.760552  0.250237  1
  Y  Y3  1  0.242554  0.002787  0.249676  1
  Y  Y4  1  0.002786  0.242554  0.249676  1
  Y  Y5  1  0.665563  0.332801  0.504509  1
  Y  Y6  1  0.332802  0.665564  0.504509  1
  Y  Y7  1  0.241305  0.241305  0.750633  1
  Y  Y8  1  0.758110  0.001110  0.749762  1
  Y  Y9  1  0.001109  0.758109  0.749762  1
  In  In10  1  0.403983  0.403983  0.249410  1
  In  In11  1  0.401419  0.999036  0.749684  1
  In  In12  1  0.999036  0.401418  0.749684  1
  In  In13  1  0.595392  0.595392  0.751411  1
  Pb  Pb14  1  0.598473  0.999536  0.250173  1
  Pb  Pb15  1  0.999537  0.598474  0.250173  1
  S  S16  1  0.999366  0.999366  0.001628  1
  S  S17  1  0.999995  0.999994  0.497971  1
