# generated using pymatgen
data_Tb2NdY3(Al3Os)8
_symmetry_space_group_name_H-M   'P 1'
_cell_length_a   8.84933600
_cell_length_b   8.84937689
_cell_length_c   9.62730900
_cell_angle_alpha   90.00000000
_cell_angle_beta   90.00000000
_cell_angle_gamma   119.99984714
_symmetry_Int_Tables_number   1
_chemical_formula_structural   Tb2NdY3(Al3Os)8
_chemical_formula_sum   'Tb2 Nd1 Y3 Al24 Os8'
_cell_volume   652.91942414
_cell_formula_units_Z   1
loop_
 _symmetry_equiv_pos_site_id
 _symmetry_equiv_pos_as_xyz
  1  'x, y, z'
loop_
 _atom_site_type_symbol
 _atom_site_label
 _atom_site_symmetry_multiplicity
 _atom_site_fract_x
 _atom_site_fract_y
 _atom_site_fract_z
 _atom_site_occupancy
  Tb  Tb0  1  0.613491  0.807110  0.250000  1
  Tb  Tb1  1  0.193619  0.807110  0.250000  1
  Nd  Nd2  1  0.191694  0.383389  0.250000  1
  Y  Y3  1  0.807050  0.614100  0.750000  1
  Y  Y4  1  0.386077  0.193143  0.750000  1
  Y  Y5  1  0.807066  0.193143  0.750000  1
  Al  Al6  1  0.333829  0.667658  0.014286  1
  Al  Al7  1  0.666477  0.332953  0.982627  1
  Al  Al8  1  0.666477  0.332953  0.517373  1
  Al  Al9  1  0.333829  0.667658  0.485714  1
  Al  Al10  1  0.163731  0.327462  0.576927  1
  Al  Al11  1  0.836386  0.672773  0.426013  1
  Al  Al12  1  0.672942  0.836373  0.574626  1
  Al  Al13  1  0.836386  0.672773  0.073987  1
  Al  Al14  1  0.328318  0.163407  0.426893  1
  Al  Al15  1  0.163731  0.327462  0.923073  1
  Al  Al16  1  0.163432  0.836373  0.574626  1
  Al  Al17  1  0.328318  0.163407  0.073107  1
  Al  Al18  1  0.835088  0.163407  0.426893  1
  Al  Al19  1  0.672942  0.836373  0.925374  1
  Al  Al20  1  0.835088  0.163407  0.073107  1
  Al  Al21  1  0.163432  0.836373  0.925374  1
  Al  Al22  1  0.561449  0.122898  0.250000  1
  Al  Al23  1  0.438972  0.877945  0.750000  1
  Al  Al24  1  0.875610  0.439120  0.250000  1
  Al  Al25  1  0.122228  0.561363  0.750000  1
  Al  Al26  1  0.563510  0.439120  0.250000  1
  Al  Al27  1  0.439134  0.561363  0.750000  1
  Al  Al28  1  0.998245  0.996490  0.250000  1
  Al  Al29  1  0.999677  0.999353  0.750000  1
  Os  Os30  1  0.500176  0.000354  0.999576  1
  Os  Os31  1  0.999132  0.500527  0.998770  1
  Os  Os32  1  0.500176  0.000354  0.500424  1
  Os  Os33  1  0.501395  0.500527  0.998770  1
  Os  Os34  1  0.999132  0.500527  0.501230  1
  Os  Os35  1  0.501395  0.500527  0.501230  1
  Os  Os36  1  0.000183  0.000366  0.999723  1
  Os  Os37  1  0.000183  0.000366  0.500277  1
