# generated using pymatgen
data_YZrP7Ru12
_symmetry_space_group_name_H-M   'P 1'
_cell_length_a   9.40087900
_cell_length_b   9.40087822
_cell_length_c   3.92745600
_cell_angle_alpha   90.00000000
_cell_angle_beta   90.00000000
_cell_angle_gamma   119.99999218
_symmetry_Int_Tables_number   1
_chemical_formula_structural   YZrP7Ru12
_chemical_formula_sum   'Y1 Zr1 P7 Ru12'
_cell_volume   300.59301463
_cell_formula_units_Z   1
loop_
 _symmetry_equiv_pos_site_id
 _symmetry_equiv_pos_as_xyz
  1  'x, y, z'
loop_
 _atom_site_type_symbol
 _atom_site_label
 _atom_site_symmetry_multiplicity
 _atom_site_fract_x
 _atom_site_fract_y
 _atom_site_fract_z
 _atom_site_occupancy
  Y  Y0  1  0.333333  0.666667  0.000000  1
  Zr  Zr1  1  0.666667  0.333333  0.500000  1
  P  P2  1  0.599866  0.719093  0.500000  1
  P  P3  1  0.000000  0.000000  0.000000  1
  P  P4  1  0.280907  0.880773  0.500000  1
  P  P5  1  0.119227  0.400134  0.500000  1
  P  P6  1  0.885181  0.572654  0.000000  1
  P  P7  1  0.427346  0.312526  0.000000  1
  P  P8  1  0.687474  0.114819  0.000000  1
  Ru  Ru9  1  0.557632  0.954229  0.500000  1
  Ru  Ru10  1  0.396598  0.442368  0.500000  1
  Ru  Ru11  1  0.914160  0.122587  0.500000  1
  Ru  Ru12  1  0.208427  0.085840  0.500000  1
  Ru  Ru13  1  0.877413  0.791573  0.500000  1
  Ru  Ru14  1  0.726953  0.890480  0.000000  1
  Ru  Ru15  1  0.109520  0.836472  0.000000  1
  Ru  Ru16  1  0.163528  0.273047  0.000000  1
  Ru  Ru17  1  0.427284  0.073110  0.000000  1
  Ru  Ru18  1  0.926890  0.354175  0.000000  1
  Ru  Ru19  1  0.645825  0.572716  0.000000  1
  Ru  Ru20  1  0.045771  0.603402  0.500000  1
