# generated using pymatgen
data_Y13Th3Mg2(CdIr2)2
_symmetry_space_group_name_H-M   'P 1'
_cell_length_a   9.78183882
_cell_length_b   9.79126168
_cell_length_c   9.80689400
_cell_angle_alpha   59.94717222
_cell_angle_beta   59.91523342
_cell_angle_gamma   59.86275870
_symmetry_Int_Tables_number   1
_chemical_formula_structural   Y13Th3Mg2(CdIr2)2
_chemical_formula_sum   'Y13 Th3 Mg2 Cd2 Ir4'
_cell_volume   662.78343243
_cell_formula_units_Z   1
loop_
 _symmetry_equiv_pos_site_id
 _symmetry_equiv_pos_as_xyz
  1  'x, y, z'
loop_
 _atom_site_type_symbol
 _atom_site_label
 _atom_site_symmetry_multiplicity
 _atom_site_fract_x
 _atom_site_fract_y
 _atom_site_fract_z
 _atom_site_occupancy
  Y  Y0  1  0.951879  0.349607  0.349257  1
  Y  Y1  1  0.811685  0.188428  0.189151  1
  Y  Y2  1  0.187335  0.812619  0.812809  1
  Y  Y3  1  0.187335  0.812619  0.187236  1
  Y  Y4  1  0.811685  0.188428  0.810736  1
  Y  Y5  1  0.188760  0.188706  0.811267  1
  Y  Y6  1  0.813385  0.812286  0.187165  1
  Y  Y7  1  0.939412  0.563843  0.563509  1
  Y  Y8  1  0.564655  0.937817  0.933183  1
  Y  Y9  1  0.564655  0.937817  0.564344  1
  Y  Y10  1  0.939412  0.563843  0.933235  1
  Y  Y11  1  0.565760  0.565676  0.934282  1
  Y  Y12  1  0.937366  0.937358  0.562638  1
  Th  Th13  1  0.346538  0.348711  0.348367  1
  Th  Th14  1  0.346538  0.348711  0.956384  1
  Th  Th15  1  0.346369  0.956048  0.348791  1
  Mg  Mg16  1  0.578221  0.576646  0.580539  1
  Mg  Mg17  1  0.578221  0.576646  0.264595  1
  Cd  Cd18  1  0.583215  0.253469  0.581659  1
  Cd  Cd19  1  0.252542  0.581999  0.582730  1
  Ir  Ir20  1  0.145338  0.141987  0.141812  1
  Ir  Ir21  1  0.145338  0.141987  0.570862  1
  Ir  Ir22  1  0.144921  0.571374  0.141853  1
  Ir  Ir23  1  0.569439  0.143370  0.143595  1
