# generated using pymatgen
data_LaNd4Er(CI5)2
_symmetry_space_group_name_H-M   'P 1'
_cell_length_a   7.89521430
_cell_length_b   9.67561438
_cell_length_c   9.77563295
_cell_angle_alpha   107.08812261
_cell_angle_beta   96.44777510
_cell_angle_gamma   104.59702956
_symmetry_Int_Tables_number   1
_chemical_formula_structural   LaNd4Er(CI5)2
_chemical_formula_sum   'La1 Nd4 Er1 C2 I10'
_cell_volume   676.60086666
_cell_formula_units_Z   1
loop_
 _symmetry_equiv_pos_site_id
 _symmetry_equiv_pos_as_xyz
  1  'x, y, z'
loop_
 _atom_site_type_symbol
 _atom_site_label
 _atom_site_symmetry_multiplicity
 _atom_site_fract_x
 _atom_site_fract_y
 _atom_site_fract_z
 _atom_site_occupancy
  La  La0  1  0.378175  0.135427  0.181844  1
  Nd  Nd1  1  0.027320  0.733748  0.921619  1
  Nd  Nd2  1  0.104493  0.038108  0.775025  1
  Nd  Nd3  1  0.968166  0.265225  0.076133  1
  Nd  Nd4  1  0.889973  0.958674  0.222776  1
  Er  Er5  1  0.634171  0.870106  0.825456  1
  C  C6  1  0.085524  0.029093  0.040282  1
  C  C7  1  0.908620  0.969545  0.958708  1
  I  I8  1  0.210403  0.737924  0.650665  1
  I  I9  1  0.909519  0.628798  0.180267  1
  I  I10  1  0.087669  0.369518  0.817483  1
  I  I11  1  0.735359  0.911735  0.546238  1
  I  I12  1  0.249548  0.082169  0.464736  1
  I  I13  1  0.645862  0.552389  0.726701  1
  I  I14  1  0.459182  0.803901  0.081710  1
  I  I15  1  0.812844  0.268788  0.360652  1
  I  I16  1  0.345528  0.463432  0.271807  1
  I  I17  1  0.547642  0.181420  0.897898  1
