# generated using pymatgen
data_Tb4HoIrRh2
_symmetry_space_group_name_H-M   'P 1'
_cell_length_a   10.91396800
_cell_length_b   10.91396800
_cell_length_c   6.38095800
_cell_angle_alpha   90.00000000
_cell_angle_beta   90.00000000
_cell_angle_gamma   90.00000000
_symmetry_Int_Tables_number   1
_chemical_formula_structural   Tb4HoIrRh2
_chemical_formula_sum   'Tb16 Ho4 Ir4 Rh8'
_cell_volume   760.06588196
_cell_formula_units_Z   4
loop_
 _symmetry_equiv_pos_site_id
 _symmetry_equiv_pos_as_xyz
  1  'x, y, z'
loop_
 _atom_site_type_symbol
 _atom_site_label
 _atom_site_symmetry_multiplicity
 _atom_site_fract_x
 _atom_site_fract_y
 _atom_site_fract_z
 _atom_site_occupancy
  Tb  Tb0  1  0.290810  0.089563  0.378368  1
  Tb  Tb1  1  0.290810  0.910437  0.878368  1
  Tb  Tb2  1  0.709190  0.089563  0.878368  1
  Tb  Tb3  1  0.709190  0.910437  0.378368  1
  Tb  Tb4  1  0.587483  0.789555  0.879431  1
  Tb  Tb5  1  0.587483  0.210445  0.379431  1
  Tb  Tb6  1  0.412517  0.789555  0.379431  1
  Tb  Tb7  1  0.412517  0.210445  0.879431  1
  Tb  Tb8  1  0.210445  0.412517  0.620569  1
  Tb  Tb9  1  0.210445  0.587483  0.120569  1
  Tb  Tb10  1  0.789555  0.412517  0.120569  1
  Tb  Tb11  1  0.789555  0.587483  0.620569  1
  Tb  Tb12  1  0.910437  0.709190  0.121632  1
  Tb  Tb13  1  0.910437  0.290810  0.621632  1
  Tb  Tb14  1  0.089563  0.709190  0.621632  1
  Tb  Tb15  1  0.089563  0.290810  0.121632  1
  Ho  Ho16  1  0.000000  0.000000  0.500000  1
  Ho  Ho17  1  0.000000  0.000000  0.000000  1
  Ho  Ho18  1  0.500000  0.500000  0.000000  1
  Ho  Ho19  1  0.500000  0.500000  0.500000  1
  Ir  Ir20  1  0.653674  0.346326  0.750000  1
  Ir  Ir21  1  0.653674  0.653674  0.250000  1
  Ir  Ir22  1  0.346326  0.346326  0.250000  1
  Ir  Ir23  1  0.346326  0.653674  0.750000  1
  Rh  Rh24  1  0.847636  0.152364  0.250000  1
  Rh  Rh25  1  0.847636  0.847636  0.750000  1
  Rh  Rh26  1  0.152364  0.152364  0.750000  1
  Rh  Rh27  1  0.152364  0.847636  0.250000  1
  Rh  Rh28  1  0.500000  0.000000  0.122272  1
  Rh  Rh29  1  0.500000  0.000000  0.622272  1
  Rh  Rh30  1  0.000000  0.500000  0.877728  1
  Rh  Rh31  1  0.000000  0.500000  0.377728  1
