# generated using pymatgen
data_Y3Th11Ru6
_symmetry_space_group_name_H-M   'P 1'
_cell_length_a   9.82342806
_cell_length_b   9.88785797
_cell_length_c   6.41168494
_cell_angle_alpha   90.12296017
_cell_angle_beta   89.96160067
_cell_angle_gamma   120.19281254
_symmetry_Int_Tables_number   1
_chemical_formula_structural   Y3Th11Ru6
_chemical_formula_sum   'Y3 Th11 Ru6'
_cell_volume   538.29453205
_cell_formula_units_Z   1
loop_
 _symmetry_equiv_pos_site_id
 _symmetry_equiv_pos_as_xyz
  1  'x, y, z'
loop_
 _atom_site_type_symbol
 _atom_site_label
 _atom_site_symmetry_multiplicity
 _atom_site_fract_x
 _atom_site_fract_y
 _atom_site_fract_z
 _atom_site_occupancy
  Y  Y0  1  0.460816  0.536450  0.295122  1
  Y  Y1  1  0.073983  0.536425  0.299001  1
  Y  Y2  1  0.925671  0.461862  0.798094  1
  Th  Th3  1  0.248773  0.125720  0.509389  1
  Th  Th4  1  0.542807  0.083907  0.797752  1
  Th  Th5  1  0.748158  0.873751  0.011478  1
  Th  Th6  1  0.665734  0.333393  0.280249  1
  Th  Th7  1  0.125283  0.870788  0.006272  1
  Th  Th8  1  0.459407  0.917138  0.298847  1
  Th  Th9  1  0.539726  0.462645  0.798190  1
  Th  Th10  1  0.876632  0.128340  0.510179  1
  Th  Th11  1  0.124054  0.251248  0.012567  1
  Th  Th12  1  0.873833  0.749478  0.507583  1
  Th  Th13  1  0.334693  0.666132  0.775976  1
  Ru  Ru14  1  0.811162  0.631716  0.048137  1
  Ru  Ru15  1  0.813602  0.180561  0.047458  1
  Ru  Ru16  1  0.632152  0.817502  0.546556  1
  Ru  Ru17  1  0.370351  0.187668  0.042201  1
  Ru  Ru18  1  0.183659  0.364525  0.554359  1
  Ru  Ru19  1  0.189506  0.820751  0.544585  1
