# generated using pymatgen
data_Tb2YbDy(Al8Pt3)3
_symmetry_space_group_name_H-M   'P 1'
_cell_length_a   7.53273610
_cell_length_b   7.55494833
_cell_length_c   13.20968494
_cell_angle_alpha   84.58832369
_cell_angle_beta   79.08205135
_cell_angle_gamma   59.89798013
_symmetry_Int_Tables_number   1
_chemical_formula_structural   Tb2YbDy(Al8Pt3)3
_chemical_formula_sum   'Tb2 Yb1 Dy1 Al24 Pt9'
_cell_volume   638.59693160
_cell_formula_units_Z   1
loop_
 _symmetry_equiv_pos_site_id
 _symmetry_equiv_pos_as_xyz
  1  'x, y, z'
loop_
 _atom_site_type_symbol
 _atom_site_label
 _atom_site_symmetry_multiplicity
 _atom_site_fract_x
 _atom_site_fract_y
 _atom_site_fract_z
 _atom_site_occupancy
  Tb  Tb0  1  0.393656  0.168461  0.808123  1
  Tb  Tb1  1  0.606449  0.830884  0.191755  1
  Yb  Yb2  1  0.734238  0.498625  0.807352  1
  Dy  Dy3  1  0.266891  0.501313  0.191971  1
  Al  Al4  1  0.684530  0.833423  0.944644  1
  Al  Al5  1  0.315314  0.166456  0.055945  1
  Al  Al6  1  0.146739  0.832413  0.561140  1
  Al  Al7  1  0.853359  0.167867  0.438291  1
  Al  Al8  1  0.480135  0.166420  0.558522  1
  Al  Al9  1  0.520459  0.833244  0.440873  1
  Al  Al10  1  0.216699  0.165389  0.329854  1
  Al  Al11  1  0.783140  0.833825  0.670029  1
  Al  Al12  1  0.438000  0.506980  0.670072  1
  Al  Al13  1  0.562968  0.493315  0.329602  1
  Al  Al14  1  0.108512  0.160978  0.668751  1
  Al  Al15  1  0.890527  0.839737  0.331191  1
  Al  Al16  1  0.352900  0.499740  0.944808  1
  Al  Al17  1  0.647481  0.500181  0.054737  1
  Al  Al18  1  0.015083  0.167958  0.954063  1
  Al  Al19  1  0.984511  0.831933  0.046535  1
  Al  Al20  1  0.186293  0.499433  0.440875  1
  Al  Al21  1  0.813551  0.500467  0.559060  1
  Al  Al22  1  0.733552  0.164863  0.183629  1
  Al  Al23  1  0.264500  0.837551  0.816780  1
  Al  Al24  1  0.063328  0.630904  0.815787  1
  Al  Al25  1  0.938437  0.368880  0.184717  1
  Al  Al26  1  0.854591  0.040407  0.816461  1
  Al  Al27  1  0.144547  0.958567  0.183912  1
  Pt  Pt28  1  0.120633  0.492538  0.637781  1
  Pt  Pt29  1  0.880068  0.507844  0.361662  1
  Pt  Pt30  1  0.657208  0.170963  0.000711  1
  Pt  Pt31  1  0.342257  0.828748  0.000742  1
  Pt  Pt32  1  0.537581  0.166902  0.361515  1
  Pt  Pt33  1  0.461842  0.833166  0.637714  1
  Pt  Pt34  1  0.779419  0.174291  0.636698  1
  Pt  Pt35  1  0.220764  0.825202  0.362865  1
  Pt  Pt36  1  0.999838  0.500130  0.000832  1
