# generated using pymatgen
data_Y3Tm3Al25Os7
_symmetry_space_group_name_H-M   'P 1'
_cell_length_a   8.86052324
_cell_length_b   8.85774370
_cell_length_c   9.54312276
_cell_angle_alpha   90.17860402
_cell_angle_beta   89.78492293
_cell_angle_gamma   120.05910832
_symmetry_Int_Tables_number   1
_chemical_formula_structural   Y3Tm3Al25Os7
_chemical_formula_sum   'Y3 Tm3 Al25 Os7'
_cell_volume   648.24792848
_cell_formula_units_Z   1
loop_
 _symmetry_equiv_pos_site_id
 _symmetry_equiv_pos_as_xyz
  1  'x, y, z'
loop_
 _atom_site_type_symbol
 _atom_site_label
 _atom_site_symmetry_multiplicity
 _atom_site_fract_x
 _atom_site_fract_y
 _atom_site_fract_z
 _atom_site_occupancy
  Y  Y0  1  0.192465  0.384057  0.244273  1
  Y  Y1  1  0.806961  0.616343  0.755850  1
  Y  Y2  1  0.616147  0.807229  0.244602  1
  Tm  Tm3  1  0.388068  0.193353  0.754056  1
  Tm  Tm4  1  0.195099  0.804155  0.256925  1
  Tm  Tm5  1  0.804164  0.195212  0.742993  1
  Al  Al6  1  0.326697  0.673579  0.023461  1
  Al  Al7  1  0.672946  0.326933  0.975302  1
  Al  Al8  1  0.666132  0.334177  0.518937  1
  Al  Al9  1  0.333945  0.665898  0.481599  1
  Al  Al10  1  0.162184  0.325516  0.571571  1
  Al  Al11  1  0.837889  0.673892  0.429255  1
  Al  Al12  1  0.673713  0.837571  0.571548  1
  Al  Al13  1  0.852667  0.677633  0.083008  1
  Al  Al14  1  0.325608  0.162040  0.429565  1
  Al  Al15  1  0.147592  0.321845  0.916489  1
  Al  Al16  1  0.162618  0.837347  0.576376  1
  Al  Al17  1  0.321978  0.147288  0.081791  1
  Al  Al18  1  0.836967  0.162838  0.424328  1
  Al  Al19  1  0.677702  0.852946  0.916819  1
  Al  Al20  1  0.836593  0.163201  0.075844  1
  Al  Al21  1  0.163232  0.837635  0.923111  1
  Al  Al22  1  0.561823  0.120184  0.249683  1
  Al  Al23  1  0.437278  0.879598  0.750320  1
  Al  Al24  1  0.879353  0.437563  0.249854  1
  Al  Al25  1  0.120026  0.562066  0.750285  1
  Al  Al26  1  0.565678  0.433952  0.258992  1
  Al  Al27  1  0.433388  0.564706  0.741888  1
  Al  Al28  1  0.000894  0.999275  0.250606  1
  Al  Al29  1  0.003085  0.002623  0.749184  1
  Al  Al30  1  0.499830  0.499959  0.000182  1
  Os  Os31  1  0.499653  0.000544  0.999267  1
  Os  Os32  1  0.999904  0.499909  0.000148  1
  Os  Os33  1  0.499453  0.000396  0.500779  1
  Os  Os34  1  0.999889  0.499780  0.499999  1
  Os  Os35  1  0.499658  0.499276  0.500832  1
  Os  Os36  1  0.999413  0.999757  0.000178  1
  Os  Os37  1  0.999311  0.999723  0.500103  1
