# generated using pymatgen
data_Co2(SiTc)3
_symmetry_space_group_name_H-M   'P 1'
_cell_length_a   6.87074400
_cell_length_b   6.87074413
_cell_length_c   4.82220500
_cell_angle_alpha   90.00000000
_cell_angle_beta   90.00000000
_cell_angle_gamma   119.99999936
_symmetry_Int_Tables_number   1
_chemical_formula_structural   Co2(SiTc)3
_chemical_formula_sum   'Co4 Si6 Tc6'
_cell_volume   197.14412820
_cell_formula_units_Z   2
loop_
 _symmetry_equiv_pos_site_id
 _symmetry_equiv_pos_as_xyz
  1  'x, y, z'
loop_
 _atom_site_type_symbol
 _atom_site_label
 _atom_site_symmetry_multiplicity
 _atom_site_fract_x
 _atom_site_fract_y
 _atom_site_fract_z
 _atom_site_occupancy
  Co  Co0  1  0.666667  0.333333  0.000000  1
  Co  Co1  1  0.333333  0.666666  0.000000  1
  Co  Co2  1  0.666667  0.333333  0.500001  1
  Co  Co3  1  0.333333  0.666666  0.500001  1
  Si  Si4  1  0.593316  0.000000  0.250000  1
  Si  Si5  1  0.406684  0.406684  0.250000  1
  Si  Si6  1  0.000000  0.593316  0.250000  1
  Si  Si7  1  0.406683  0.000000  0.749999  1
  Si  Si8  1  0.000000  0.406684  0.749999  1
  Si  Si9  1  0.593316  0.593316  0.749999  1
  Tc  Tc10  1  0.239364  0.000000  0.250000  1
  Tc  Tc11  1  0.000000  0.239363  0.250000  1
  Tc  Tc12  1  0.760637  0.760636  0.250000  1
  Tc  Tc13  1  0.760637  0.000000  0.749999  1
  Tc  Tc14  1  0.239363  0.239363  0.749999  1
  Tc  Tc15  1  0.000000  0.760636  0.749999  1
