# generated using pymatgen
data_CsSm6Er4(C2Br9)2
_symmetry_space_group_name_H-M   'P 1'
_cell_length_a   10.80150870
_cell_length_b   10.87195233
_cell_length_c   11.00715037
_cell_angle_alpha   113.34186087
_cell_angle_beta   87.58841761
_cell_angle_gamma   118.77894937
_symmetry_Int_Tables_number   1
_chemical_formula_structural   CsSm6Er4(C2Br9)2
_chemical_formula_sum   'Cs1 Sm6 Er4 C4 Br18'
_cell_volume   1022.31999700
_cell_formula_units_Z   1
loop_
 _symmetry_equiv_pos_site_id
 _symmetry_equiv_pos_as_xyz
  1  'x, y, z'
loop_
 _atom_site_type_symbol
 _atom_site_label
 _atom_site_symmetry_multiplicity
 _atom_site_fract_x
 _atom_site_fract_y
 _atom_site_fract_z
 _atom_site_occupancy
  Cs  Cs0  1  0.499172  0.996810  0.498576  1
  Sm  Sm1  1  0.908446  0.587985  0.695178  1
  Sm  Sm2  1  0.114018  0.942463  0.001518  1
  Sm  Sm3  1  0.038799  0.961990  0.662830  1
  Sm  Sm4  1  0.341222  0.285187  0.300941  1
  Sm  Sm5  1  0.715324  0.631258  0.986915  1
  Sm  Sm6  1  0.886577  0.059911  0.999970  1
  Er  Er7  1  0.663237  0.716460  0.703146  1
  Er  Er8  1  0.278567  0.362315  0.015323  1
  Er  Er9  1  0.095381  0.406176  0.300692  1
  Er  Er10  1  0.962693  0.039766  0.330328  1
  C  C11  1  0.156793  0.231450  0.126784  1
  C  C12  1  0.840134  0.768809  0.872042  1
  C  C13  1  0.917270  0.846886  0.792637  1
  C  C14  1  0.079017  0.153066  0.206267  1
  Br  Br15  1  0.449329  0.530839  0.830906  1
  Br  Br16  1  0.386751  0.037542  0.162081  1
  Br  Br17  1  0.773205  0.856449  0.499993  1
  Br  Br18  1  0.843545  0.319136  0.161675  1
  Br  Br19  1  0.543646  0.468912  0.164765  1
  Br  Br20  1  0.217888  0.142820  0.496742  1
  Br  Br21  1  0.316070  0.106565  0.834022  1
  Br  Br22  1  0.689644  0.904160  0.175343  1
  Br  Br23  1  0.976315  0.767415  0.178654  1
  Br  Br24  1  0.935580  0.299089  0.495959  1
  Br  Br25  1  0.030101  0.244153  0.831370  1
  Br  Br26  1  0.071616  0.695904  0.495754  1
  Br  Br27  1  0.259186  0.618105  0.186981  1
  Br  Br28  1  0.738408  0.370016  0.810228  1
  Br  Br29  1  0.635743  0.437629  0.501482  1
  Br  Br30  1  0.165700  0.687181  0.845940  1
  Br  Br31  1  0.613286  0.953696  0.833702  1
  Br  Br32  1  0.357338  0.569854  0.501258  1
