# generated using pymatgen
data_Nd19Y(SnSb)8
_symmetry_space_group_name_H-M   'P 1'
_cell_length_a   8.34806591
_cell_length_b   8.40286593
_cell_length_c   15.96528300
_cell_angle_alpha   90.00000000
_cell_angle_beta   90.00000000
_cell_angle_gamma   89.94628592
_symmetry_Int_Tables_number   1
_chemical_formula_structural   Nd19Y(SnSb)8
_chemical_formula_sum   'Nd19 Y1 Sn8 Sb8'
_cell_volume   1119.92704881
_cell_formula_units_Z   1
loop_
 _symmetry_equiv_pos_site_id
 _symmetry_equiv_pos_as_xyz
  1  'x, y, z'
loop_
 _atom_site_type_symbol
 _atom_site_label
 _atom_site_symmetry_multiplicity
 _atom_site_fract_x
 _atom_site_fract_y
 _atom_site_fract_z
 _atom_site_occupancy
  Nd  Nd0  1  0.393870  0.836603  0.883215  1
  Nd  Nd1  1  0.893991  0.663618  0.617432  1
  Nd  Nd2  1  0.606577  0.162934  0.382385  1
  Nd  Nd3  1  0.106696  0.336844  0.117790  1
  Nd  Nd4  1  0.606577  0.162934  0.117615  1
  Nd  Nd5  1  0.106696  0.336844  0.382210  1
  Nd  Nd6  1  0.393870  0.836603  0.616785  1
  Nd  Nd7  1  0.893991  0.663618  0.882568  1
  Nd  Nd8  1  0.554005  0.327721  0.892826  1
  Nd  Nd9  1  0.053746  0.172539  0.606755  1
  Nd  Nd10  1  0.445519  0.671756  0.392617  1
  Nd  Nd11  1  0.945813  0.828207  0.107314  1
  Nd  Nd12  1  0.445519  0.671756  0.107383  1
  Nd  Nd13  1  0.945813  0.828207  0.392686  1
  Nd  Nd14  1  0.554005  0.327721  0.607174  1
  Nd  Nd15  1  0.053746  0.172539  0.893245  1
  Nd  Nd16  1  0.222794  0.497229  0.750000  1
  Nd  Nd17  1  0.722604  0.002809  0.750000  1
  Nd  Nd18  1  0.777060  0.502802  0.250000  1
  Y  Y19  1  0.275993  0.997565  0.250000  1
  Sn  Sn20  1  0.592653  0.624704  0.750000  1
  Sn  Sn21  1  0.093194  0.875836  0.750000  1
  Sn  Sn22  1  0.406691  0.373239  0.250000  1
  Sn  Sn23  1  0.909671  0.124043  0.250000  1
  Sn  Sn24  1  0.355449  0.137349  0.750000  1
  Sn  Sn25  1  0.856008  0.362061  0.750000  1
  Sn  Sn26  1  0.640921  0.862614  0.250000  1
  Sn  Sn27  1  0.144706  0.641117  0.250000  1
  Sb  Sb28  1  0.266637  0.016232  0.050012  1
  Sb  Sb29  1  0.765884  0.482787  0.452759  1
  Sb  Sb30  1  0.734375  0.982995  0.547274  1
  Sb  Sb31  1  0.234016  0.517079  0.952855  1
  Sb  Sb32  1  0.734375  0.982995  0.952726  1
  Sb  Sb33  1  0.234016  0.517079  0.547145  1
  Sb  Sb34  1  0.266637  0.016232  0.449988  1
  Sb  Sb35  1  0.765884  0.482787  0.047241  1
