# generated using pymatgen
data_Lu5AlGaSb
_symmetry_space_group_name_H-M   'P 1'
_cell_length_a   8.56918900
_cell_length_b   8.59065772
_cell_length_c   6.36307500
_cell_angle_alpha   90.00000000
_cell_angle_beta   90.00000000
_cell_angle_gamma   120.01936105
_symmetry_Int_Tables_number   1
_chemical_formula_structural   Lu5AlGaSb
_chemical_formula_sum   'Lu10 Al2 Ga2 Sb2'
_cell_volume   405.58235181
_cell_formula_units_Z   2
loop_
 _symmetry_equiv_pos_site_id
 _symmetry_equiv_pos_as_xyz
  1  'x, y, z'
loop_
 _atom_site_type_symbol
 _atom_site_label
 _atom_site_symmetry_multiplicity
 _atom_site_fract_x
 _atom_site_fract_y
 _atom_site_fract_z
 _atom_site_occupancy
  Lu  Lu0  1  0.660969  0.317991  0.001272  1
  Lu  Lu1  1  0.331163  0.668074  0.001299  1
  Lu  Lu2  1  0.331163  0.668074  0.498701  1
  Lu  Lu3  1  0.660969  0.317991  0.498728  1
  Lu  Lu4  1  0.754936  0.764731  0.750000  1
  Lu  Lu5  1  0.245350  0.009117  0.750000  1
  Lu  Lu6  1  0.999509  0.233518  0.750000  1
  Lu  Lu7  1  0.234636  0.234749  0.250000  1
  Lu  Lu8  1  0.764640  0.013448  0.250000  1
  Lu  Lu9  1  0.013758  0.764957  0.250000  1
  Al  Al10  1  0.400553  0.402939  0.750000  1
  Al  Al11  1  0.597079  0.996445  0.750000  1
  Ga  Ga12  1  0.398537  0.999687  0.250000  1
  Ga  Ga13  1  0.002330  0.398695  0.250000  1
  Sb  Sb14  1  0.994811  0.604225  0.750000  1
  Sb  Sb15  1  0.609600  0.605363  0.250000  1
