# generated using pymatgen
data_PtBr35
_symmetry_space_group_name_H-M   'P 1'
_cell_length_a   15.98197694
_cell_length_b   11.40028128
_cell_length_c   10.79188300
_cell_angle_alpha   88.81408278
_cell_angle_beta   66.02770512
_cell_angle_gamma   92.31545406
_symmetry_Int_Tables_number   1
_chemical_formula_structural   PtBr35
_chemical_formula_sum   'Pt1 Br35'
_cell_volume   1793.71352310
_cell_formula_units_Z   1
loop_
 _symmetry_equiv_pos_site_id
 _symmetry_equiv_pos_as_xyz
  1  'x, y, z'
loop_
 _atom_site_type_symbol
 _atom_site_label
 _atom_site_symmetry_multiplicity
 _atom_site_fract_x
 _atom_site_fract_y
 _atom_site_fract_z
 _atom_site_occupancy
  Pt  Pt0  1  0.239794  0.449949  0.441797  1
  Br  Br1  1  0.512003  0.261744  0.516162  1
  Br  Br2  1  0.769372  0.575446  0.550872  1
  Br  Br3  1  0.496063  0.680716  0.746046  1
  Br  Br4  1  0.045823  0.888122  0.876492  1
  Br  Br5  1  0.891928  0.159969  0.000517  1
  Br  Br6  1  0.649500  0.321805  0.289111  1
  Br  Br7  1  0.625739  0.350129  0.837153  1
  Br  Br8  1  0.359807  0.747136  0.706140  1
  Br  Br9  1  0.336819  0.583829  0.239227  1
  Br  Br10  1  0.642936  0.145006  0.806904  1
  Br  Br11  1  0.904096  0.535666  0.341809  1
  Br  Br12  1  0.048710  0.955597  0.650900  1
  Br  Br13  1  0.891968  0.103196  0.239465  1
  Br  Br14  1  0.890377  0.220045  0.780555  1
  Br  Br15  1  0.652630  0.047558  0.237356  1
  Br  Br16  1  0.018940  0.815909  0.120216  1
  Br  Br17  1  0.371396  0.969788  0.717117  1
  Br  Br18  1  0.896730  0.312822  0.301915  1
  Br  Br19  1  0.866876  0.930994  0.723795  1
  Br  Br20  1  0.896572  0.663866  0.789943  1
  Br  Br21  1  0.318968  0.026832  0.293809  1
  Br  Br22  1  0.334087  0.301315  0.285706  1
  Br  Br23  1  0.635125  0.613827  0.788267  1
  Br  Br24  1  0.118970  0.431442  0.354925  1
  Br  Br25  1  0.700862  0.908237  0.793403  1
  Br  Br26  1  0.871952  0.455075  0.799468  1
  Br  Br27  1  0.493265  0.036627  0.264384  1
  Br  Br28  1  0.153461  0.299941  0.622324  1
  Br  Br29  1  0.670882  0.772383  0.270150  1
  Br  Br30  1  0.844969  0.796935  0.198947  1
  Br  Br31  1  0.376558  0.194511  0.730050  1
  Br  Br32  1  0.351156  0.483530  0.544968  1
  Br  Br33  1  0.653340  0.545305  0.268350  1
  Br  Br34  1  0.153930  0.610177  0.583141  1
  Br  Br35  1  0.314399  0.804574  0.288618  1
