# generated using pymatgen
data_La16Nd(LuIr4)3
_symmetry_space_group_name_H-M   'P 1'
_cell_length_a   11.36421300
_cell_length_b   11.36421300
_cell_length_c   6.54866700
_cell_angle_alpha   90.00000000
_cell_angle_beta   90.00000000
_cell_angle_gamma   90.00000000
_symmetry_Int_Tables_number   1
_chemical_formula_structural   La16Nd(LuIr4)3
_chemical_formula_sum   'La16 Nd1 Lu3 Ir12'
_cell_volume   845.72980733
_cell_formula_units_Z   1
loop_
 _symmetry_equiv_pos_site_id
 _symmetry_equiv_pos_as_xyz
  1  'x, y, z'
loop_
 _atom_site_type_symbol
 _atom_site_label
 _atom_site_symmetry_multiplicity
 _atom_site_fract_x
 _atom_site_fract_y
 _atom_site_fract_z
 _atom_site_occupancy
  La  La0  1  0.088730  0.288656  0.105815  1
  La  La1  1  0.786862  0.411090  0.105329  1
  La  La2  1  0.213138  0.588910  0.105329  1
  La  La3  1  0.911270  0.711344  0.105815  1
  La  La4  1  0.411374  0.786524  0.393937  1
  La  La5  1  0.588626  0.213476  0.393937  1
  La  La6  1  0.289805  0.088899  0.393653  1
  La  La7  1  0.710195  0.911101  0.393653  1
  La  La8  1  0.411090  0.213138  0.894671  1
  La  La9  1  0.711344  0.088730  0.894185  1
  La  La10  1  0.288656  0.911270  0.894185  1
  La  La11  1  0.588910  0.786862  0.894671  1
  La  La12  1  0.088899  0.710195  0.606347  1
  La  La13  1  0.911101  0.289805  0.606347  1
  La  La14  1  0.213476  0.411374  0.606063  1
  La  La15  1  0.786524  0.588626  0.606063  1
  Nd  Nd16  1  0.000000  0.000000  0.500000  1
  Lu  Lu17  1  0.000000  0.000000  0.000000  1
  Lu  Lu18  1  0.500000  0.500000  0.000000  1
  Lu  Lu19  1  0.500000  0.500000  0.500000  1
  Ir  Ir20  1  0.149379  0.849096  0.242592  1
  Ir  Ir21  1  0.354859  0.354104  0.250903  1
  Ir  Ir22  1  0.645141  0.645896  0.250903  1
  Ir  Ir23  1  0.850621  0.150904  0.242592  1
  Ir  Ir24  1  0.354104  0.645141  0.749097  1
  Ir  Ir25  1  0.150904  0.149379  0.757408  1
  Ir  Ir26  1  0.849096  0.850621  0.757408  1
  Ir  Ir27  1  0.645896  0.354859  0.749097  1
  Ir  Ir28  1  0.000000  0.500000  0.373439  1
  Ir  Ir29  1  0.500000  0.000000  0.128394  1
  Ir  Ir30  1  0.500000  0.000000  0.626561  1
  Ir  Ir31  1  0.000000  0.500000  0.871606  1
