# generated using pymatgen
data_Nd2GdHo(MoO6)2
_symmetry_space_group_name_H-M   'P 1'
_cell_length_a   10.13565987
_cell_length_b   10.13565926
_cell_length_c   5.48820501
_cell_angle_alpha   75.11521846
_cell_angle_beta   75.11522544
_cell_angle_gamma   68.34763593
_symmetry_Int_Tables_number   1
_chemical_formula_structural   Nd2GdHo(MoO6)2
_chemical_formula_sum   'Nd4 Gd2 Ho2 Mo4 O24'
_cell_volume   498.13081048
_cell_formula_units_Z   2
loop_
 _symmetry_equiv_pos_site_id
 _symmetry_equiv_pos_as_xyz
  1  'x, y, z'
loop_
 _atom_site_type_symbol
 _atom_site_label
 _atom_site_symmetry_multiplicity
 _atom_site_fract_x
 _atom_site_fract_y
 _atom_site_fract_z
 _atom_site_occupancy
  Nd  Nd0  1  0.448830  0.213128  0.380724  1
  Nd  Nd1  1  0.786872  0.551170  0.119276  1
  Nd  Nd2  1  0.551170  0.786872  0.619276  1
  Nd  Nd3  1  0.213128  0.448830  0.880724  1
  Gd  Gd4  1  0.863239  0.136761  0.250000  1
  Gd  Gd5  1  0.136761  0.863239  0.750000  1
  Ho  Ho6  1  0.396507  0.603493  0.250000  1
  Ho  Ho7  1  0.603493  0.396507  0.750000  1
  Mo  Mo8  1  0.293603  0.009386  0.065976  1
  Mo  Mo9  1  0.990614  0.706397  0.434024  1
  Mo  Mo10  1  0.706397  0.990614  0.934024  1
  Mo  Mo11  1  0.009386  0.293603  0.565976  1
  O  O12  1  0.604920  0.570595  0.923218  1
  O  O13  1  0.429405  0.395080  0.576782  1
  O  O14  1  0.395080  0.429405  0.076782  1
  O  O15  1  0.570595  0.604920  0.423218  1
  O  O16  1  0.333002  0.806699  0.933991  1
  O  O17  1  0.193301  0.666998  0.566009  1
  O  O18  1  0.666998  0.193301  0.066009  1
  O  O19  1  0.806699  0.333002  0.433991  1
  O  O20  1  0.326557  0.888502  0.375532  1
  O  O21  1  0.111498  0.673443  0.124468  1
  O  O22  1  0.673443  0.111498  0.624468  1
  O  O23  1  0.888502  0.326557  0.875532  1
  O  O24  1  0.179466  0.286555  0.635850  1
  O  O25  1  0.713445  0.820534  0.864150  1
  O  O26  1  0.820534  0.713445  0.364150  1
  O  O27  1  0.286555  0.179466  0.135850  1
  O  O28  1  0.046572  0.111459  0.518784  1
  O  O29  1  0.888541  0.953428  0.981216  1
  O  O30  1  0.953428  0.888541  0.481216  1
  O  O31  1  0.111459  0.046572  0.018784  1
  O  O32  1  0.023260  0.426811  0.266437  1
  O  O33  1  0.573189  0.976740  0.233563  1
  O  O34  1  0.976740  0.573189  0.733563  1
  O  O35  1  0.426811  0.023260  0.766437  1
