# generated using pymatgen
data_Ho6Co11P12Ir2Ru5
_symmetry_space_group_name_H-M   'P 1'
_cell_length_a   3.75893000
_cell_length_b   10.70183330
_cell_length_c   12.44588596
_cell_angle_alpha   90.54010810
_cell_angle_beta   90.00000000
_cell_angle_gamma   90.00000000
_symmetry_Int_Tables_number   1
_chemical_formula_structural   Ho6Co11P12Ir2Ru5
_chemical_formula_sum   'Ho6 Co11 P12 Ir2 Ru5'
_cell_volume   500.64391366
_cell_formula_units_Z   1
loop_
 _symmetry_equiv_pos_site_id
 _symmetry_equiv_pos_as_xyz
  1  'x, y, z'
loop_
 _atom_site_type_symbol
 _atom_site_label
 _atom_site_symmetry_multiplicity
 _atom_site_fract_x
 _atom_site_fract_y
 _atom_site_fract_z
 _atom_site_occupancy
  Ho  Ho0  1  0.000000  0.503959  0.522006  1
  Ho  Ho1  1  0.500000  0.992306  0.481616  1
  Ho  Ho2  1  0.500000  0.816018  0.201262  1
  Ho  Ho3  1  0.500000  0.187060  0.199270  1
  Ho  Ho4  1  0.000000  0.685414  0.797288  1
  Ho  Ho5  1  0.000000  0.313092  0.800382  1
  Co  Co6  1  0.000000  0.500306  0.987793  1
  Co  Co7  1  0.500000  0.999874  0.011369  1
  Co  Co8  1  0.000000  0.798492  0.575080  1
  Co  Co9  1  0.500000  0.877987  0.713489  1
  Co  Co10  1  0.500000  0.115540  0.715586  1
  Co  Co11  1  0.000000  0.621755  0.284763  1
  Co  Co12  1  0.000000  0.383331  0.283868  1
  Co  Co13  1  0.500000  0.331937  0.991516  1
  Co  Co14  1  0.500000  0.668865  0.992009  1
  Co  Co15  1  0.000000  0.168092  0.007249  1
  Co  Co16  1  0.000000  0.831798  0.007464  1
  P  P17  1  0.500000  0.303580  0.621046  1
  P  P18  1  0.500000  0.696318  0.619271  1
  P  P19  1  0.000000  0.195985  0.379381  1
  P  P20  1  0.000000  0.809778  0.383454  1
  P  P21  1  0.500000  0.499835  0.891118  1
  P  P22  1  0.000000  0.000972  0.108591  1
  P  P23  1  0.500000  0.845345  0.894741  1
  P  P24  1  0.500000  0.152389  0.894825  1
  P  P25  1  0.000000  0.654516  0.104915  1
  P  P26  1  0.000000  0.347464  0.104060  1
  P  P27  1  0.500000  0.500957  0.342679  1
  P  P28  1  0.000000  0.995883  0.655298  1
  Ir  Ir29  1  0.500000  0.498674  0.705187  1
  Ir  Ir30  1  0.000000  0.001828  0.295047  1
  Ru  Ru31  1  0.500000  0.300550  0.427135  1
  Ru  Ru32  1  0.500000  0.703148  0.429429  1
  Ru  Ru33  1  0.000000  0.198421  0.573192  1
  Ru  Ru34  1  0.500000  0.501395  0.156123  1
  Ru  Ru35  1  0.000000  0.997133  0.842497  1
