# generated using pymatgen
data_Y8AsPd23Pt
_symmetry_space_group_name_H-M   'P 1'
_cell_length_a   8.35449500
_cell_length_b   8.37987000
_cell_length_c   8.37987000
_cell_angle_alpha   90.00000000
_cell_angle_beta   90.00000000
_cell_angle_gamma   90.00000000
_symmetry_Int_Tables_number   1
_chemical_formula_structural   Y8AsPd23Pt
_chemical_formula_sum   'Y8 As1 Pd23 Pt1'
_cell_volume   586.67119605
_cell_formula_units_Z   1
loop_
 _symmetry_equiv_pos_site_id
 _symmetry_equiv_pos_as_xyz
  1  'x, y, z'
loop_
 _atom_site_type_symbol
 _atom_site_label
 _atom_site_symmetry_multiplicity
 _atom_site_fract_x
 _atom_site_fract_y
 _atom_site_fract_z
 _atom_site_occupancy
  Y  Y0  1  0.253459  0.254506  0.254506  1
  Y  Y1  1  0.746573  0.745990  0.745990  1
  Y  Y2  1  0.746573  0.745990  0.254010  1
  Y  Y3  1  0.746573  0.254010  0.745990  1
  Y  Y4  1  0.253459  0.254506  0.745494  1
  Y  Y5  1  0.253459  0.745494  0.254506  1
  Y  Y6  1  0.253459  0.745494  0.745494  1
  Y  Y7  1  0.746573  0.254010  0.254010  1
  As  As8  1  0.000418  0.000000  0.000000  1
  Pd  Pd9  1  0.259563  0.500000  0.000000  1
  Pd  Pd10  1  0.740443  0.500000  0.000000  1
  Pd  Pd11  1  0.999878  0.259779  0.500000  1
  Pd  Pd12  1  0.500098  0.260392  0.000000  1
  Pd  Pd13  1  0.999878  0.740221  0.500000  1
  Pd  Pd14  1  0.500098  0.739608  0.000000  1
  Pd  Pd15  1  0.500098  0.000000  0.260392  1
  Pd  Pd16  1  0.259563  0.000000  0.500000  1
  Pd  Pd17  1  0.500098  0.000000  0.739608  1
  Pd  Pd18  1  0.740443  0.000000  0.500000  1
  Pd  Pd19  1  0.999878  0.500000  0.259779  1
  Pd  Pd20  1  0.999878  0.500000  0.740221  1
  Pd  Pd21  1  0.746966  0.500000  0.500000  1
  Pd  Pd22  1  0.500125  0.253204  0.500000  1
  Pd  Pd23  1  0.500125  0.746796  0.500000  1
  Pd  Pd24  1  0.500125  0.500000  0.253204  1
  Pd  Pd25  1  0.500125  0.500000  0.746796  1
  Pd  Pd26  1  0.289341  0.000000  0.000000  1
  Pd  Pd27  1  0.710870  0.000000  0.000000  1
  Pd  Pd28  1  0.999797  0.288333  0.000000  1
  Pd  Pd29  1  0.999797  0.711667  0.000000  1
  Pd  Pd30  1  0.999797  0.000000  0.288333  1
  Pd  Pd31  1  0.999797  0.000000  0.711667  1
  Pt  Pt32  1  0.252673  0.500000  0.500000  1
