# generated using pymatgen
data_Ba8PdPt
_symmetry_space_group_name_H-M   'P 1'
_cell_length_a   8.85333301
_cell_length_b   8.85333417
_cell_length_c   10.84172943
_cell_angle_alpha   126.34999317
_cell_angle_beta   126.34999977
_cell_angle_gamma   63.84735309
_symmetry_Int_Tables_number   1
_chemical_formula_structural   Ba8PdPt
_chemical_formula_sum   'Ba8 Pd1 Pt1'
_cell_volume   545.98265022
_cell_formula_units_Z   1
loop_
 _symmetry_equiv_pos_site_id
 _symmetry_equiv_pos_as_xyz
  1  'x, y, z'
loop_
 _atom_site_type_symbol
 _atom_site_label
 _atom_site_symmetry_multiplicity
 _atom_site_fract_x
 _atom_site_fract_y
 _atom_site_fract_z
 _atom_site_occupancy
  Ba  Ba0  1  0.194940  0.200519  0.168929  1
  Ba  Ba1  1  0.700915  0.695315  0.169234  1
  Ba  Ba2  1  0.782079  0.282582  0.315258  1
  Ba  Ba3  1  0.282814  0.782398  0.318489  1
  Ba  Ba4  1  0.717418  0.217921  0.684742  1
  Ba  Ba5  1  0.217602  0.717186  0.681511  1
  Ba  Ba6  1  0.304684  0.299084  0.830767  1
  Ba  Ba7  1  0.799482  0.805061  0.831071  1
  Pd  Pd8  1  0.250289  0.749711  0.000000  1
  Pt  Pt9  1  0.749777  0.250223  0.000000  1
