# generated using pymatgen
data_Sc3UMn(GeRu)2
_symmetry_space_group_name_H-M   'P 1'
_cell_length_a   6.83470853
_cell_length_b   6.72451454
_cell_length_c   3.92229100
_cell_angle_alpha   90.00000000
_cell_angle_beta   90.00000000
_cell_angle_gamma   119.46808592
_symmetry_Int_Tables_number   1
_chemical_formula_structural   Sc3UMn(GeRu)2
_chemical_formula_sum   'Sc3 U1 Mn1 Ge2 Ru2'
_cell_volume   156.94746206
_cell_formula_units_Z   1
loop_
 _symmetry_equiv_pos_site_id
 _symmetry_equiv_pos_as_xyz
  1  'x, y, z'
loop_
 _atom_site_type_symbol
 _atom_site_label
 _atom_site_symmetry_multiplicity
 _atom_site_fract_x
 _atom_site_fract_y
 _atom_site_fract_z
 _atom_site_occupancy
  Sc  Sc0  1  0.468713  0.461396  0.000000  1
  Sc  Sc1  1  0.531287  0.992683  0.000000  1
  Sc  Sc2  1  0.000000  0.543721  0.000000  1
  U  U3  1  0.000000  0.028411  0.000000  1
  Mn  Mn4  1  0.000000  0.223802  0.500000  1
  Ge  Ge5  1  0.674459  0.329395  0.500000  1
  Ge  Ge6  1  0.325541  0.654937  0.500000  1
  Ru  Ru7  1  0.761676  0.763665  0.500000  1
  Ru  Ru8  1  0.238324  0.001990  0.500000  1
