# generated using pymatgen
data_Tb10CdCoHg2
_symmetry_space_group_name_H-M   'P 1'
_cell_length_a   9.62157945
_cell_length_b   9.62157139
_cell_length_c   9.72000300
_cell_angle_alpha   90.00000000
_cell_angle_beta   90.00000000
_cell_angle_gamma   119.84816640
_symmetry_Int_Tables_number   1
_chemical_formula_structural   Tb10CdCoHg2
_chemical_formula_sum   'Tb20 Cd2 Co2 Hg4'
_cell_volume   780.46213296
_cell_formula_units_Z   2
loop_
 _symmetry_equiv_pos_site_id
 _symmetry_equiv_pos_as_xyz
  1  'x, y, z'
loop_
 _atom_site_type_symbol
 _atom_site_label
 _atom_site_symmetry_multiplicity
 _atom_site_fract_x
 _atom_site_fract_y
 _atom_site_fract_z
 _atom_site_occupancy
  Tb  Tb0  1  0.002120  0.997880  0.492108  1
  Tb  Tb1  1  0.002120  0.997880  0.007892  1
  Tb  Tb2  1  0.542676  0.457324  0.250000  1
  Tb  Tb3  1  0.542806  0.085680  0.250000  1
  Tb  Tb4  1  0.914320  0.457194  0.250000  1
  Tb  Tb5  1  0.456541  0.543459  0.750000  1
  Tb  Tb6  1  0.453351  0.914368  0.750000  1
  Tb  Tb7  1  0.085632  0.546649  0.750000  1
  Tb  Tb8  1  0.211278  0.788722  0.433730  1
  Tb  Tb9  1  0.211398  0.422974  0.435222  1
  Tb  Tb10  1  0.577026  0.788602  0.435221  1
  Tb  Tb11  1  0.788563  0.211438  0.565120  1
  Tb  Tb12  1  0.787546  0.576524  0.564759  1
  Tb  Tb13  1  0.423476  0.212454  0.564759  1
  Tb  Tb14  1  0.788563  0.211438  0.934880  1
  Tb  Tb15  1  0.787546  0.576524  0.935241  1
  Tb  Tb16  1  0.423476  0.212454  0.935241  1
  Tb  Tb17  1  0.211278  0.788722  0.066270  1
  Tb  Tb18  1  0.211398  0.422974  0.064778  1
  Tb  Tb19  1  0.577026  0.788602  0.064779  1
  Cd  Cd20  1  0.112353  0.227297  0.750000  1
  Cd  Cd21  1  0.772704  0.887646  0.750000  1
  Co  Co22  1  0.333664  0.666336  0.250000  1
  Co  Co23  1  0.666812  0.333188  0.750000  1
  Hg  Hg24  1  0.879990  0.120009  0.250000  1
  Hg  Hg25  1  0.879514  0.758507  0.250000  1
  Hg  Hg26  1  0.241493  0.120486  0.250000  1
  Hg  Hg27  1  0.115333  0.884667  0.750000  1
