# generated using pymatgen
data_Dy2Mn5P7Ir6Rh
_symmetry_space_group_name_H-M   'P 1'
_cell_length_a   9.36057847
_cell_length_b   9.40468397
_cell_length_c   3.87715800
_cell_angle_alpha   90.00000000
_cell_angle_beta   90.00000000
_cell_angle_gamma   120.01602498
_symmetry_Int_Tables_number   1
_chemical_formula_structural   Dy2Mn5P7Ir6Rh
_chemical_formula_sum   'Dy2 Mn5 P7 Ir6 Rh1'
_cell_volume   295.54313365
_cell_formula_units_Z   1
loop_
 _symmetry_equiv_pos_site_id
 _symmetry_equiv_pos_as_xyz
  1  'x, y, z'
loop_
 _atom_site_type_symbol
 _atom_site_label
 _atom_site_symmetry_multiplicity
 _atom_site_fract_x
 _atom_site_fract_y
 _atom_site_fract_z
 _atom_site_occupancy
  Dy  Dy0  1  0.667424  0.333350  0.000000  1
  Dy  Dy1  1  0.333624  0.665705  0.500000  1
  Mn  Mn2  1  0.892493  0.732982  0.000000  1
  Mn  Mn3  1  0.270835  0.158828  0.000000  1
  Mn  Mn4  1  0.837242  0.108578  0.000000  1
  Mn  Mn5  1  0.097039  0.220328  0.500000  1
  Mn  Mn6  1  0.777797  0.874896  0.500000  1
  P  P7  1  0.109348  0.695627  0.000000  1
  P  P8  1  0.299131  0.407854  0.000000  1
  P  P9  1  0.588600  0.887025  0.000000  1
  P  P10  1  0.723097  0.606454  0.500000  1
  P  P11  1  0.399127  0.123310  0.500000  1
  P  P12  1  0.882157  0.275765  0.500000  1
  P  P13  1  0.000211  0.003903  0.000000  1
  Ir  Ir14  1  0.361236  0.933256  0.000000  1
  Ir  Ir15  1  0.063886  0.424887  0.000000  1
  Ir  Ir16  1  0.573991  0.637119  0.000000  1
  Ir  Ir17  1  0.943349  0.555607  0.500000  1
  Ir  Ir18  1  0.443037  0.388336  0.500000  1
  Ir  Ir19  1  0.610349  0.054966  0.500000  1
  Rh  Rh20  1  0.126026  0.911227  0.500000  1
