# generated using pymatgen
data_ThGa(NiIr)2
_symmetry_space_group_name_H-M   'P 1'
_cell_length_a   5.07007340
_cell_length_b   5.07007299
_cell_length_c   4.12966000
_cell_angle_alpha   90.00000000
_cell_angle_beta   90.00000000
_cell_angle_gamma   114.32978700
_symmetry_Int_Tables_number   1
_chemical_formula_structural   ThGa(NiIr)2
_chemical_formula_sum   'Th1 Ga1 Ni2 Ir2'
_cell_volume   96.72780359
_cell_formula_units_Z   1
loop_
 _symmetry_equiv_pos_site_id
 _symmetry_equiv_pos_as_xyz
  1  'x, y, z'
loop_
 _atom_site_type_symbol
 _atom_site_label
 _atom_site_symmetry_multiplicity
 _atom_site_fract_x
 _atom_site_fract_y
 _atom_site_fract_z
 _atom_site_occupancy
  Th  Th0  1  0.000000  0.000000  0.000000  1
  Ga  Ga1  1  0.500000  0.500000  0.500000  1
  Ni  Ni2  1  0.664640  0.335360  0.000000  1
  Ni  Ni3  1  0.335360  0.664640  0.000000  1
  Ir  Ir4  1  0.500000  0.000000  0.500000  1
  Ir  Ir5  1  0.000000  0.500000  0.500000  1
