# generated using pymatgen
data_K4Hf5ZrGeI18
_symmetry_space_group_name_H-M   'P 1'
_cell_length_a   11.21234035
_cell_length_b   11.37149825
_cell_length_c   11.48469436
_cell_angle_alpha   118.55825719
_cell_angle_beta   100.08020803
_cell_angle_gamma   103.84753286
_symmetry_Int_Tables_number   1
_chemical_formula_structural   K4Hf5ZrGeI18
_chemical_formula_sum   'K4 Hf5 Zr1 Ge1 I18'
_cell_volume   1174.64493913
_cell_formula_units_Z   1
loop_
 _symmetry_equiv_pos_site_id
 _symmetry_equiv_pos_as_xyz
  1  'x, y, z'
loop_
 _atom_site_type_symbol
 _atom_site_label
 _atom_site_symmetry_multiplicity
 _atom_site_fract_x
 _atom_site_fract_y
 _atom_site_fract_z
 _atom_site_occupancy
  K  K0  1  0.652545  0.538425  0.227190  1
  K  K1  1  0.347852  0.461716  0.772706  1
  K  K2  1  0.686198  0.224637  0.563974  1
  K  K3  1  0.313741  0.775710  0.436258  1
  Hf  Hf4  1  0.149839  0.055098  0.230785  1
  Hf  Hf5  1  0.848794  0.942634  0.768798  1
  Hf  Hf6  1  0.860592  0.125676  0.132994  1
  Hf  Hf7  1  0.137919  0.871969  0.866560  1
  Hf  Hf8  1  0.146837  0.241438  0.045692  1
  Zr  Zr9  1  0.854455  0.760630  0.954697  1
  Ge  Ge10  1  0.001274  0.002142  0.000419  1
  I  I11  1  0.007470  0.411601  0.198083  1
  I  I12  1  0.994623  0.586955  0.800148  1
  I  I13  1  0.330134  0.334779  0.312678  1
  I  I14  1  0.668127  0.664780  0.684198  1
  I  I15  1  0.322819  0.524986  0.100541  1
  I  I16  1  0.675127  0.472044  0.898932  1
  I  I17  1  0.006431  0.795818  0.213416  1
  I  I18  1  0.995825  0.205273  0.789777  1
  I  I19  1  0.700440  0.277847  0.290209  1
  I  I20  1  0.299971  0.722833  0.709853  1
  I  I21  1  0.318418  0.127874  0.902588  1
  I  I22  1  0.679989  0.874190  0.099318  1
  I  I23  1  0.014256  0.205760  0.410189  1
  I  I24  1  0.985871  0.794400  0.589876  1
  I  I25  1  0.322335  0.922499  0.110440  1
  I  I26  1  0.677805  0.077670  0.889607  1
  I  I27  1  0.333850  0.121792  0.504609  1
  I  I28  1  0.666464  0.878825  0.495464  1
