# generated using pymatgen
data_Ta3Mn8Pt
_symmetry_space_group_name_H-M   'P 1'
_cell_length_a   4.76402900
_cell_length_b   4.76402863
_cell_length_c   7.88370300
_cell_angle_alpha   90.00000000
_cell_angle_beta   90.00000000
_cell_angle_gamma   119.99999562
_symmetry_Int_Tables_number   1
_chemical_formula_structural   Ta3Mn8Pt
_chemical_formula_sum   'Ta3 Mn8 Pt1'
_cell_volume   154.95645240
_cell_formula_units_Z   1
loop_
 _symmetry_equiv_pos_site_id
 _symmetry_equiv_pos_as_xyz
  1  'x, y, z'
loop_
 _atom_site_type_symbol
 _atom_site_label
 _atom_site_symmetry_multiplicity
 _atom_site_fract_x
 _atom_site_fract_y
 _atom_site_fract_z
 _atom_site_occupancy
  Ta  Ta0  1  0.666667  0.333333  0.564886  1
  Ta  Ta1  1  0.666667  0.333333  0.941090  1
  Ta  Ta2  1  0.333333  0.666667  0.427834  1
  Mn  Mn3  1  0.000000  0.000000  0.001008  1
  Mn  Mn4  1  0.000000  0.000000  0.500209  1
  Mn  Mn5  1  0.826732  0.653463  0.249821  1
  Mn  Mn6  1  0.172893  0.827107  0.749671  1
  Mn  Mn7  1  0.654213  0.827107  0.749671  1
  Mn  Mn8  1  0.346537  0.173268  0.249821  1
  Mn  Mn9  1  0.826732  0.173268  0.249821  1
  Mn  Mn10  1  0.172893  0.345787  0.749671  1
  Pt  Pt11  1  0.333333  0.666667  0.066497  1
