# generated using pymatgen
data_ErP2Rh3
_symmetry_space_group_name_H-M   'P 1'
_cell_length_a   3.91349200
_cell_length_b   11.20131500
_cell_length_c   12.71966900
_cell_angle_alpha   90.00000000
_cell_angle_beta   90.00000000
_cell_angle_gamma   90.00000000
_symmetry_Int_Tables_number   1
_chemical_formula_structural   ErP2Rh3
_chemical_formula_sum   'Er6 P12 Rh18'
_cell_volume   557.58267469
_cell_formula_units_Z   6
loop_
 _symmetry_equiv_pos_site_id
 _symmetry_equiv_pos_as_xyz
  1  'x, y, z'
loop_
 _atom_site_type_symbol
 _atom_site_label
 _atom_site_symmetry_multiplicity
 _atom_site_fract_x
 _atom_site_fract_y
 _atom_site_fract_z
 _atom_site_occupancy
  Er  Er0  1  0.750000  0.250000  0.479315  1
  Er  Er1  1  0.250000  0.750000  0.520685  1
  Er  Er2  1  0.250000  0.934898  0.794588  1
  Er  Er3  1  0.250000  0.565102  0.794588  1
  Er  Er4  1  0.750000  0.065102  0.205412  1
  Er  Er5  1  0.750000  0.434898  0.205412  1
  P  P6  1  0.250000  0.250000  0.122747  1
  P  P7  1  0.750000  0.750000  0.877253  1
  P  P8  1  0.250000  0.250000  0.648101  1
  P  P9  1  0.750000  0.750000  0.351899  1
  P  P10  1  0.250000  0.434186  0.380890  1
  P  P11  1  0.250000  0.065814  0.380890  1
  P  P12  1  0.750000  0.565814  0.619110  1
  P  P13  1  0.750000  0.934186  0.619110  1
  P  P14  1  0.250000  0.903972  0.107695  1
  P  P15  1  0.250000  0.596028  0.107695  1
  P  P16  1  0.750000  0.096028  0.892305  1
  P  P17  1  0.750000  0.403972  0.892305  1
  Rh  Rh18  1  0.250000  0.250000  0.831597  1
  Rh  Rh19  1  0.750000  0.750000  0.168403  1
  Rh  Rh20  1  0.250000  0.250000  0.299843  1
  Rh  Rh21  1  0.750000  0.750000  0.700157  1
  Rh  Rh22  1  0.750000  0.250000  0.020770  1
  Rh  Rh23  1  0.250000  0.750000  0.979230  1
  Rh  Rh24  1  0.250000  0.416058  0.007658  1
  Rh  Rh25  1  0.250000  0.083942  0.007658  1
  Rh  Rh26  1  0.750000  0.583942  0.992342  1
  Rh  Rh27  1  0.750000  0.916058  0.992342  1
  Rh  Rh28  1  0.250000  0.453877  0.568291  1
  Rh  Rh29  1  0.250000  0.046123  0.568291  1
  Rh  Rh30  1  0.750000  0.546123  0.431709  1
  Rh  Rh31  1  0.750000  0.953877  0.431709  1
  Rh  Rh32  1  0.250000  0.877611  0.288979  1
  Rh  Rh33  1  0.250000  0.622389  0.288979  1
  Rh  Rh34  1  0.750000  0.122389  0.711021  1
  Rh  Rh35  1  0.750000  0.377611  0.711021  1
