# generated using pymatgen
data_CeDy5Al18
_symmetry_space_group_name_H-M   'P 1'
_cell_length_a   14.55156591
_cell_length_b   14.55156649
_cell_length_c   14.55156787
_cell_angle_alpha   24.53455532
_cell_angle_beta   24.53455122
_cell_angle_gamma   24.53455361
_symmetry_Int_Tables_number   1
_chemical_formula_structural   CeDy5Al18
_chemical_formula_sum   'Ce1 Dy5 Al18'
_cell_volume   467.13679587
_cell_formula_units_Z   1
loop_
 _symmetry_equiv_pos_site_id
 _symmetry_equiv_pos_as_xyz
  1  'x, y, z'
loop_
 _atom_site_type_symbol
 _atom_site_label
 _atom_site_symmetry_multiplicity
 _atom_site_fract_x
 _atom_site_fract_y
 _atom_site_fract_z
 _atom_site_occupancy
  Ce  Ce0  1  0.108926  0.108926  0.108926  1
  Dy  Dy1  1  0.891235  0.891235  0.891235  1
  Dy  Dy2  1  0.390810  0.390810  0.390810  1
  Dy  Dy3  1  0.999619  0.999619  0.999619  1
  Dy  Dy4  1  0.500031  0.500031  0.500031  1
  Dy  Dy5  1  0.609171  0.609171  0.609171  1
  Al  Al6  1  0.924785  0.370801  0.370801  1
  Al  Al7  1  0.422889  0.870271  0.870271  1
  Al  Al8  1  0.370801  0.370801  0.924785  1
  Al  Al9  1  0.870271  0.870271  0.422889  1
  Al  Al10  1  0.370801  0.924785  0.370801  1
  Al  Al11  1  0.870271  0.422889  0.870271  1
  Al  Al12  1  0.575773  0.129541  0.129541  1
  Al  Al13  1  0.077140  0.628965  0.628965  1
  Al  Al14  1  0.129541  0.129541  0.575773  1
  Al  Al15  1  0.628965  0.628965  0.077140  1
  Al  Al16  1  0.129541  0.575773  0.129541  1
  Al  Al17  1  0.628965  0.077140  0.628965  1
  Al  Al18  1  0.498989  0.498989  0.001140  1
  Al  Al19  1  0.001543  0.001543  0.498260  1
  Al  Al20  1  0.498989  0.001140  0.498989  1
  Al  Al21  1  0.001543  0.498260  0.001543  1
  Al  Al22  1  0.001140  0.498989  0.498989  1
  Al  Al23  1  0.498260  0.001543  0.001543  1
