# generated using pymatgen
data_Gd4ErThH18
_symmetry_space_group_name_H-M   'P 1'
_cell_length_a   6.49562912
_cell_length_b   6.49597353
_cell_length_c   6.68882300
_cell_angle_alpha   90.14117625
_cell_angle_beta   89.98892124
_cell_angle_gamma   119.98442138
_symmetry_Int_Tables_number   1
_chemical_formula_structural   Gd4ErThH18
_chemical_formula_sum   'Gd4 Er1 Th1 H18'
_cell_volume   244.46254378
_cell_formula_units_Z   1
loop_
 _symmetry_equiv_pos_site_id
 _symmetry_equiv_pos_as_xyz
  1  'x, y, z'
loop_
 _atom_site_type_symbol
 _atom_site_label
 _atom_site_symmetry_multiplicity
 _atom_site_fract_x
 _atom_site_fract_y
 _atom_site_fract_z
 _atom_site_occupancy
  Gd  Gd0  1  0.665830  0.666062  0.250051  1
  Gd  Gd1  1  0.669958  0.000535  0.750075  1
  Gd  Gd2  1  0.996245  0.661683  0.750393  1
  Gd  Gd3  1  0.333296  0.337660  0.749552  1
  Er  Er4  1  0.999848  0.334100  0.250010  1
  Th  Th5  1  0.333239  0.999980  0.249759  1
  H  H6  1  0.993454  0.006096  0.249584  1
  H  H7  1  0.002861  0.999430  0.750104  1
  H  H8  1  0.327310  0.654685  0.222117  1
  H  H9  1  0.679146  0.339899  0.278077  1
  H  H10  1  0.663275  0.330544  0.789128  1
  H  H11  1  0.333543  0.669838  0.710795  1
  H  H12  1  0.338877  0.326816  0.093078  1
  H  H13  1  0.671989  0.016071  0.096460  1
  H  H14  1  0.995121  0.665973  0.097561  1
  H  H15  1  0.013576  0.671167  0.406193  1
  H  H16  1  0.656998  0.988187  0.404990  1
  H  H17  1  0.324234  0.332447  0.401893  1
  H  H18  1  0.658010  0.673761  0.908155  1
  H  H19  1  0.326322  0.981103  0.904640  1
  H  H20  1  0.014529  0.341943  0.912548  1
  H  H21  1  0.985297  0.326268  0.587445  1
  H  H22  1  0.344502  0.018813  0.595606  1
  H  H23  1  0.672542  0.656937  0.591784  1
