# generated using pymatgen
data_Ho4Tm8GaCo5
_symmetry_space_group_name_H-M   'P 1'
_cell_length_a   8.14326404
_cell_length_b   8.14331867
_cell_length_c   8.14326341
_cell_angle_alpha   110.88158921
_cell_angle_beta   110.69578351
_cell_angle_gamma   106.86705156
_symmetry_Int_Tables_number   1
_chemical_formula_structural   Ho4Tm8GaCo5
_chemical_formula_sum   'Ho4 Tm8 Ga1 Co5'
_cell_volume   415.05651380
_cell_formula_units_Z   1
loop_
 _symmetry_equiv_pos_site_id
 _symmetry_equiv_pos_as_xyz
  1  'x, y, z'
loop_
 _atom_site_type_symbol
 _atom_site_label
 _atom_site_symmetry_multiplicity
 _atom_site_fract_x
 _atom_site_fract_y
 _atom_site_fract_z
 _atom_site_occupancy
  Ho  Ho0  1  0.288869  0.186674  0.475543  1
  Ho  Ho1  1  0.711131  0.813326  0.524457  1
  Ho  Ho2  1  0.288869  0.813326  0.102195  1
  Ho  Ho3  1  0.711131  0.186674  0.897805  1
  Tm  Tm4  1  0.620394  0.315947  0.304445  1
  Tm  Tm5  1  0.379606  0.684053  0.695555  1
  Tm  Tm6  1  0.011502  0.315947  0.695553  1
  Tm  Tm7  1  0.988498  0.684053  0.304447  1
  Tm  Tm8  1  0.215369  0.406156  0.190789  1
  Tm  Tm9  1  0.784631  0.593844  0.809211  1
  Tm  Tm10  1  0.215364  0.024576  0.809212  1
  Tm  Tm11  1  0.784636  0.975424  0.190788  1
  Ga  Ga12  1  0.500000  0.500000  0.000000  1
  Co  Co13  1  0.000001  0.376058  0.376058  1
  Co  Co14  1  0.999999  0.623942  0.623942  1
  Co  Co15  1  0.386060  0.886058  0.499999  1
  Co  Co16  1  0.613940  0.113942  0.500001  1
  Co  Co17  1  0.000000  0.000000  0.000000  1
