# generated using pymatgen
data_Nd12B(PBr4)3
_symmetry_space_group_name_H-M   'P 1'
_cell_length_a   10.33023357
_cell_length_b   10.23202140
_cell_length_c   10.23202074
_cell_angle_alpha   109.27595581
_cell_angle_beta   109.66579933
_cell_angle_gamma   109.66576114
_symmetry_Int_Tables_number   1
_chemical_formula_structural   Nd12B(PBr4)3
_chemical_formula_sum   'Nd12 B1 P3 Br12'
_cell_volume   830.54410977
_cell_formula_units_Z   1
loop_
 _symmetry_equiv_pos_site_id
 _symmetry_equiv_pos_as_xyz
  1  'x, y, z'
loop_
 _atom_site_type_symbol
 _atom_site_label
 _atom_site_symmetry_multiplicity
 _atom_site_fract_x
 _atom_site_fract_y
 _atom_site_fract_z
 _atom_site_occupancy
  Nd  Nd0  1  0.465896  0.489729  0.226876  1
  Nd  Nd1  1  0.750000  0.235697  0.264303  1
  Nd  Nd2  1  0.750001  0.013586  0.486414  1
  Nd  Nd3  1  0.236414  0.472827  0.486413  1
  Nd  Nd4  1  0.260978  0.737147  0.226877  1
  Nd  Nd5  1  0.034104  0.273125  0.010271  1
  Nd  Nd6  1  0.014303  0.028606  0.264303  1
  Nd  Nd7  1  0.476169  0.737147  0.010270  1
  Nd  Nd8  1  0.485697  0.235697  0.471394  1
  Nd  Nd9  1  0.023831  0.489730  0.762853  1
  Nd  Nd10  1  0.263586  0.013587  0.027173  1
  Nd  Nd11  1  0.239022  0.273124  0.762853  1
  B  B12  1  0.250000  0.500000  0.000000  1
  P  P13  1  0.250000  0.251017  0.248982  1
  P  P14  1  0.498982  0.997965  0.248982  1
  P  P15  1  0.001018  0.251018  0.502035  1
  Br  Br16  1  0.250000  0.756262  0.743738  1
  Br  Br17  1  0.511822  0.505552  0.756680  1
  Br  Br18  1  0.988178  0.743320  0.994448  1
  Br  Br19  1  0.744859  0.251128  0.756681  1
  Br  Br20  1  0.993739  0.987477  0.743738  1
  Br  Br21  1  0.250000  0.995415  0.504585  1
  Br  Br22  1  0.754584  0.509170  0.504585  1
  Br  Br23  1  0.506271  0.251129  0.994448  1
  Br  Br24  1  0.755141  0.743319  0.248872  1
  Br  Br25  1  0.745416  0.995415  0.990831  1
  Br  Br26  1  0.993729  0.505552  0.248871  1
  Br  Br27  1  0.506261  0.756262  0.512523  1
