# generated using pymatgen
data_Na3Li(GaI4)4
_symmetry_space_group_name_H-M   'P 1'
_cell_length_a   8.28221706
_cell_length_b   8.42039140
_cell_length_c   15.71759979
_cell_angle_alpha   86.97985416
_cell_angle_beta   89.81749538
_cell_angle_gamma   89.86496635
_symmetry_Int_Tables_number   1
_chemical_formula_structural   Na3Li(GaI4)4
_chemical_formula_sum   'Na3 Li1 Ga4 I16'
_cell_volume   1094.60705686
_cell_formula_units_Z   1
loop_
 _symmetry_equiv_pos_site_id
 _symmetry_equiv_pos_as_xyz
  1  'x, y, z'
loop_
 _atom_site_type_symbol
 _atom_site_label
 _atom_site_symmetry_multiplicity
 _atom_site_fract_x
 _atom_site_fract_y
 _atom_site_fract_z
 _atom_site_occupancy
  Na  Na0  1  0.511299  0.842789  0.873691  1
  Na  Na1  1  0.491081  0.153348  0.128405  1
  Na  Na2  1  0.011403  0.153565  0.628040  1
  Li  Li3  1  0.992792  0.846509  0.386996  1
  Ga  Ga4  1  0.680519  0.707663  0.106782  1
  Ga  Ga5  1  0.830906  0.710390  0.598116  1
  Ga  Ga6  1  0.166699  0.293664  0.396875  1
  Ga  Ga7  1  0.321484  0.293596  0.895090  1
  I  I8  1  0.317192  0.312725  0.539241  1
  I  I9  1  0.128758  0.800833  0.566375  1
  I  I10  1  0.382512  0.798171  0.075597  1
  I  I11  1  0.874753  0.182490  0.424683  1
  I  I12  1  0.619616  0.201963  0.923538  1
  I  I13  1  0.694826  0.935407  0.682293  1
  I  I14  1  0.812666  0.931001  0.192089  1
  I  I15  1  0.298433  0.063687  0.314799  1
  I  I16  1  0.306552  0.552734  0.801542  1
  I  I17  1  0.806962  0.452271  0.691317  1
  I  I18  1  0.690835  0.445322  0.197885  1
  I  I19  1  0.170093  0.562259  0.311049  1
  I  I20  1  0.824369  0.691513  0.961803  1
  I  I21  1  0.699967  0.696697  0.450074  1
  I  I22  1  0.177202  0.308989  0.039528  1
  I  I23  1  0.189082  0.062417  0.814189  1
