# generated using pymatgen
data_BaSrPIO4
_symmetry_space_group_name_H-M   'P 1'
_cell_length_a   9.23232800
_cell_length_b   8.86010284
_cell_length_c   9.40898053
_cell_angle_alpha   67.51585712
_cell_angle_beta   90.00000000
_cell_angle_gamma   90.00000000
_symmetry_Int_Tables_number   1
_chemical_formula_structural   BaSrPIO4
_chemical_formula_sum   'Ba4 Sr4 P4 I4 O16'
_cell_volume   711.14419791
_cell_formula_units_Z   4
loop_
 _symmetry_equiv_pos_site_id
 _symmetry_equiv_pos_as_xyz
  1  'x, y, z'
loop_
 _atom_site_type_symbol
 _atom_site_label
 _atom_site_symmetry_multiplicity
 _atom_site_fract_x
 _atom_site_fract_y
 _atom_site_fract_z
 _atom_site_occupancy
  Ba  Ba0  1  0.310694  0.450484  0.169819  1
  Ba  Ba1  1  0.810694  0.049516  0.830181  1
  Ba  Ba2  1  0.689306  0.549516  0.830181  1
  Ba  Ba3  1  0.189306  0.950484  0.169819  1
  Sr  Sr4  1  0.327314  0.948920  0.767549  1
  Sr  Sr5  1  0.827314  0.551080  0.232451  1
  Sr  Sr6  1  0.672686  0.051080  0.232451  1
  Sr  Sr7  1  0.172686  0.448920  0.767549  1
  P  P8  1  0.055255  0.736544  0.958824  1
  P  P9  1  0.555255  0.763456  0.041176  1
  P  P10  1  0.944745  0.263456  0.041176  1
  P  P11  1  0.444745  0.236544  0.958824  1
  I  I12  1  0.908449  0.742671  0.487806  1
  I  I13  1  0.408449  0.757329  0.512194  1
  I  I14  1  0.091551  0.257329  0.512194  1
  I  I15  1  0.591551  0.242671  0.487806  1
  O  O16  1  0.077949  0.657072  0.137679  1
  O  O17  1  0.577949  0.842928  0.862321  1
  O  O18  1  0.922051  0.342928  0.862321  1
  O  O19  1  0.422051  0.157072  0.137679  1
  O  O20  1  0.106208  0.286418  0.073364  1
  O  O21  1  0.606208  0.213582  0.926636  1
  O  O22  1  0.893792  0.713582  0.926636  1
  O  O23  1  0.393792  0.786418  0.073364  1
  O  O24  1  0.665303  0.835933  0.122812  1
  O  O25  1  0.165303  0.664067  0.877188  1
  O  O26  1  0.334697  0.164067  0.877188  1
  O  O27  1  0.834697  0.335933  0.122812  1
  O  O28  1  0.411354  0.423313  0.903018  1
  O  O29  1  0.911354  0.076687  0.096982  1
  O  O30  1  0.588646  0.576687  0.096982  1
  O  O31  1  0.088646  0.923313  0.903018  1
