# generated using pymatgen
data_Li3Nd8Si12Ni
_symmetry_space_group_name_H-M   'P 1'
_cell_length_a   8.22383200
_cell_length_b   8.22383163
_cell_length_c   8.45036600
_cell_angle_alpha   90.00000000
_cell_angle_beta   90.00000000
_cell_angle_gamma   120.00000149
_symmetry_Int_Tables_number   1
_chemical_formula_structural   Li3Nd8Si12Ni
_chemical_formula_sum   'Li3 Nd8 Si12 Ni1'
_cell_volume   494.94231411
_cell_formula_units_Z   1
loop_
 _symmetry_equiv_pos_site_id
 _symmetry_equiv_pos_as_xyz
  1  'x, y, z'
loop_
 _atom_site_type_symbol
 _atom_site_label
 _atom_site_symmetry_multiplicity
 _atom_site_fract_x
 _atom_site_fract_y
 _atom_site_fract_z
 _atom_site_occupancy
  Li  Li0  1  0.333333  0.666667  0.496383  1
  Li  Li1  1  0.666667  0.333333  0.505232  1
  Li  Li2  1  0.666667  0.333333  0.995869  1
  Nd  Nd3  1  0.000000  0.000000  0.250242  1
  Nd  Nd4  1  0.000000  0.000000  0.749678  1
  Nd  Nd5  1  0.498285  0.501715  0.248580  1
  Nd  Nd6  1  0.498285  0.996570  0.248580  1
  Nd  Nd7  1  0.003430  0.501715  0.248580  1
  Nd  Nd8  1  0.496678  0.503322  0.751178  1
  Nd  Nd9  1  0.496678  0.993356  0.751178  1
  Nd  Nd10  1  0.006644  0.503322  0.751178  1
  Si  Si11  1  0.166080  0.833920  0.500126  1
  Si  Si12  1  0.166080  0.332159  0.500126  1
  Si  Si13  1  0.667841  0.833920  0.500126  1
  Si  Si14  1  0.833589  0.166411  0.499629  1
  Si  Si15  1  0.833589  0.667177  0.499629  1
  Si  Si16  1  0.332823  0.166411  0.499629  1
  Si  Si17  1  0.835134  0.164866  0.000005  1
  Si  Si18  1  0.835134  0.670269  0.000005  1
  Si  Si19  1  0.329731  0.164866  0.000005  1
  Si  Si20  1  0.172313  0.827687  0.000436  1
  Si  Si21  1  0.172313  0.344627  0.000436  1
  Si  Si22  1  0.655373  0.827687  0.000436  1
  Ni  Ni23  1  0.333333  0.666667  0.002741  1
