# generated using pymatgen
data_YHo5Fe11Co6TcP12
_symmetry_space_group_name_H-M   'P 1'
_cell_length_a   3.68756400
_cell_length_b   10.49441300
_cell_length_c   12.17772900
_cell_angle_alpha   90.00000000
_cell_angle_beta   90.00000000
_cell_angle_gamma   90.00000000
_symmetry_Int_Tables_number   1
_chemical_formula_structural   YHo5Fe11Co6TcP12
_chemical_formula_sum   'Y1 Ho5 Fe11 Co6 Tc1 P12'
_cell_volume   471.26373746
_cell_formula_units_Z   1
loop_
 _symmetry_equiv_pos_site_id
 _symmetry_equiv_pos_as_xyz
  1  'x, y, z'
loop_
 _atom_site_type_symbol
 _atom_site_label
 _atom_site_symmetry_multiplicity
 _atom_site_fract_x
 _atom_site_fract_y
 _atom_site_fract_z
 _atom_site_occupancy
  Y  Y0  1  0.500000  0.000000  0.476069  1
  Ho  Ho1  1  0.000000  0.500000  0.525354  1
  Ho  Ho2  1  0.500000  0.820163  0.205742  1
  Ho  Ho3  1  0.500000  0.179837  0.205742  1
  Ho  Ho4  1  0.000000  0.679876  0.794965  1
  Ho  Ho5  1  0.000000  0.320124  0.794965  1
  Fe  Fe6  1  0.000000  0.000000  0.845257  1
  Fe  Fe7  1  0.000000  0.500000  0.986778  1
  Fe  Fe8  1  0.500000  0.000000  0.010387  1
  Fe  Fe9  1  0.500000  0.329434  0.993069  1
  Fe  Fe10  1  0.500000  0.670566  0.993069  1
  Fe  Fe11  1  0.000000  0.167599  0.003916  1
  Fe  Fe12  1  0.000000  0.832401  0.003916  1
  Fe  Fe13  1  0.500000  0.298199  0.430865  1
  Fe  Fe14  1  0.500000  0.701801  0.430865  1
  Fe  Fe15  1  0.000000  0.201496  0.571865  1
  Fe  Fe16  1  0.000000  0.798504  0.571865  1
  Co  Co17  1  0.500000  0.500000  0.700297  1
  Co  Co18  1  0.000000  0.000000  0.298537  1
  Co  Co19  1  0.500000  0.881045  0.710916  1
  Co  Co20  1  0.500000  0.118955  0.710916  1
  Co  Co21  1  0.000000  0.620907  0.290474  1
  Co  Co22  1  0.000000  0.379093  0.290474  1
  Tc  Tc23  1  0.500000  0.500000  0.153352  1
  P  P24  1  0.500000  0.500000  0.884226  1
  P  P25  1  0.000000  0.000000  0.114660  1
  P  P26  1  0.500000  0.500000  0.346728  1
  P  P27  1  0.000000  0.000000  0.658572  1
  P  P28  1  0.500000  0.307584  0.615090  1
  P  P29  1  0.500000  0.692416  0.615090  1
  P  P30  1  0.000000  0.192859  0.386393  1
  P  P31  1  0.000000  0.807141  0.386393  1
  P  P32  1  0.500000  0.848151  0.892409  1
  P  P33  1  0.500000  0.151849  0.892409  1
  P  P34  1  0.000000  0.655295  0.104183  1
  P  P35  1  0.000000  0.344705  0.104183  1
