# generated using pymatgen
data_Sr2Yb(TmSi2)2
_symmetry_space_group_name_H-M   'P 1'
_cell_length_a   7.49357700
_cell_length_b   7.92364200
_cell_length_c   15.26566900
_cell_angle_alpha   90.00000000
_cell_angle_beta   90.00000000
_cell_angle_gamma   90.00000000
_symmetry_Int_Tables_number   1
_chemical_formula_structural   Sr2Yb(TmSi2)2
_chemical_formula_sum   'Sr8 Yb4 Tm8 Si16'
_cell_volume   906.42079622
_cell_formula_units_Z   4
loop_
 _symmetry_equiv_pos_site_id
 _symmetry_equiv_pos_as_xyz
  1  'x, y, z'
loop_
 _atom_site_type_symbol
 _atom_site_label
 _atom_site_symmetry_multiplicity
 _atom_site_fract_x
 _atom_site_fract_y
 _atom_site_fract_z
 _atom_site_occupancy
  Sr  Sr0  1  0.977790  0.822598  0.403656  1
  Sr  Sr1  1  0.477790  0.677402  0.096344  1
  Sr  Sr2  1  0.522210  0.322598  0.596344  1
  Sr  Sr3  1  0.022210  0.177402  0.903656  1
  Sr  Sr4  1  0.022210  0.177402  0.596344  1
  Sr  Sr5  1  0.522210  0.322598  0.903656  1
  Sr  Sr6  1  0.477790  0.677402  0.403656  1
  Sr  Sr7  1  0.977790  0.822598  0.096344  1
  Yb  Yb8  1  0.351852  0.015006  0.750000  1
  Yb  Yb9  1  0.851852  0.484994  0.750000  1
  Yb  Yb10  1  0.148148  0.515006  0.250000  1
  Yb  Yb11  1  0.648148  0.984994  0.250000  1
  Tm  Tm12  1  0.317187  0.177799  0.121720  1
  Tm  Tm13  1  0.817187  0.322201  0.378280  1
  Tm  Tm14  1  0.182813  0.677799  0.878280  1
  Tm  Tm15  1  0.682813  0.822201  0.621720  1
  Tm  Tm16  1  0.317187  0.177799  0.378280  1
  Tm  Tm17  1  0.817187  0.322201  0.121720  1
  Tm  Tm18  1  0.182813  0.677799  0.621720  1
  Tm  Tm19  1  0.682813  0.822201  0.878280  1
  Si  Si20  1  0.860751  0.537680  0.538135  1
  Si  Si21  1  0.360751  0.962320  0.961865  1
  Si  Si22  1  0.639249  0.037680  0.461865  1
  Si  Si23  1  0.139249  0.462320  0.038135  1
  Si  Si24  1  0.139249  0.462320  0.461865  1
  Si  Si25  1  0.639249  0.037680  0.038135  1
  Si  Si26  1  0.360751  0.962320  0.538135  1
  Si  Si27  1  0.860751  0.537680  0.961865  1
  Si  Si28  1  0.973611  0.872647  0.750000  1
  Si  Si29  1  0.473611  0.627353  0.750000  1
  Si  Si30  1  0.526389  0.372647  0.250000  1
  Si  Si31  1  0.026389  0.127353  0.250000  1
  Si  Si32  1  0.244888  0.407414  0.750000  1
  Si  Si33  1  0.744888  0.092586  0.750000  1
  Si  Si34  1  0.255112  0.907414  0.250000  1
  Si  Si35  1  0.755112  0.592586  0.250000  1
