# generated using pymatgen
data_NdHo3CdPt
_symmetry_space_group_name_H-M   'P 1'
_cell_length_a   9.74069137
_cell_length_b   9.72004408
_cell_length_c   9.72004398
_cell_angle_alpha   60.14059068
_cell_angle_beta   59.92970159
_cell_angle_gamma   59.92970675
_symmetry_Int_Tables_number   1
_chemical_formula_structural   NdHo3CdPt
_chemical_formula_sum   'Nd4 Ho12 Cd4 Pt4'
_cell_volume   650.73972386
_cell_formula_units_Z   4
loop_
 _symmetry_equiv_pos_site_id
 _symmetry_equiv_pos_as_xyz
  1  'x, y, z'
loop_
 _atom_site_type_symbol
 _atom_site_label
 _atom_site_symmetry_multiplicity
 _atom_site_fract_x
 _atom_site_fract_y
 _atom_site_fract_z
 _atom_site_occupancy
  Nd  Nd0  1  0.564976  0.935024  0.564976  1
  Nd  Nd1  1  0.935024  0.564976  0.935024  1
  Nd  Nd2  1  0.564976  0.564976  0.935024  1
  Nd  Nd3  1  0.935024  0.935024  0.564976  1
  Ho  Ho4  1  0.351156  0.350623  0.350623  1
  Ho  Ho5  1  0.350623  0.351156  0.947599  1
  Ho  Ho6  1  0.350623  0.947599  0.351156  1
  Ho  Ho7  1  0.947599  0.350623  0.350623  1
  Ho  Ho8  1  0.811043  0.188957  0.188957  1
  Ho  Ho9  1  0.188957  0.811043  0.811043  1
  Ho  Ho10  1  0.189269  0.810731  0.189269  1
  Ho  Ho11  1  0.810731  0.189269  0.810731  1
  Ho  Ho12  1  0.189269  0.189269  0.810731  1
  Ho  Ho13  1  0.810731  0.810731  0.189269  1
  Ho  Ho14  1  0.941480  0.558520  0.558520  1
  Ho  Ho15  1  0.558520  0.941480  0.941480  1
  Cd  Cd16  1  0.582901  0.579091  0.579091  1
  Cd  Cd17  1  0.579091  0.582901  0.258917  1
  Cd  Cd18  1  0.579091  0.258917  0.582901  1
  Cd  Cd19  1  0.258917  0.579091  0.579091  1
  Pt  Pt20  1  0.145150  0.141560  0.141560  1
  Pt  Pt21  1  0.141560  0.145150  0.571731  1
  Pt  Pt22  1  0.141560  0.571731  0.145150  1
  Pt  Pt23  1  0.571731  0.141560  0.141560  1
