# generated using pymatgen
data_Ac(As3Os)4
_symmetry_space_group_name_H-M   'P 1'
_cell_length_a   7.49926104
_cell_length_b   7.49926136
_cell_length_c   7.49926100
_cell_angle_alpha   109.47122237
_cell_angle_beta   109.47122323
_cell_angle_gamma   109.47122100
_symmetry_Int_Tables_number   1
_chemical_formula_structural   Ac(As3Os)4
_chemical_formula_sum   'Ac1 As12 Os4'
_cell_volume   324.66353528
_cell_formula_units_Z   1
loop_
 _symmetry_equiv_pos_site_id
 _symmetry_equiv_pos_as_xyz
  1  'x, y, z'
loop_
 _atom_site_type_symbol
 _atom_site_label
 _atom_site_symmetry_multiplicity
 _atom_site_fract_x
 _atom_site_fract_y
 _atom_site_fract_z
 _atom_site_occupancy
  Ac  Ac0  1  0.000000  0.000000  0.000000  1
  As  As1  1  0.349772  0.199238  0.849466  1
  As  As2  1  0.650228  0.800762  0.150534  1
  As  As3  1  0.650228  0.499694  0.849466  1
  As  As4  1  0.349772  0.500306  0.150534  1
  As  As5  1  0.199238  0.849466  0.349772  1
  As  As6  1  0.800762  0.150534  0.650228  1
  As  As7  1  0.499694  0.849466  0.650228  1
  As  As8  1  0.500306  0.150534  0.349772  1
  As  As9  1  0.849466  0.349772  0.199238  1
  As  As10  1  0.150534  0.650228  0.800762  1
  As  As11  1  0.849466  0.650228  0.499694  1
  As  As12  1  0.150534  0.349772  0.500306  1
  Os  Os13  1  0.000000  0.000000  0.500000  1
  Os  Os14  1  0.500000  0.000000  0.000000  1
  Os  Os15  1  0.000000  0.500000  0.000000  1
  Os  Os16  1  0.500000  0.500000  0.500000  1
