# generated using pymatgen
data_Dy20Cd3Ru2Au3
_symmetry_space_group_name_H-M   'P 1'
_cell_length_a   9.59935700
_cell_length_b   9.59935636
_cell_length_c   9.61560300
_cell_angle_alpha   90.00000000
_cell_angle_beta   90.00000000
_cell_angle_gamma   120.00000563
_symmetry_Int_Tables_number   1
_chemical_formula_structural   Dy20Cd3Ru2Au3
_chemical_formula_sum   'Dy20 Cd3 Ru2 Au3'
_cell_volume   767.34627524
_cell_formula_units_Z   1
loop_
 _symmetry_equiv_pos_site_id
 _symmetry_equiv_pos_as_xyz
  1  'x, y, z'
loop_
 _atom_site_type_symbol
 _atom_site_label
 _atom_site_symmetry_multiplicity
 _atom_site_fract_x
 _atom_site_fract_y
 _atom_site_fract_z
 _atom_site_occupancy
  Dy  Dy0  1  0.000000  0.000000  0.460876  1
  Dy  Dy1  1  0.000000  0.000000  0.039124  1
  Dy  Dy2  1  0.209568  0.790432  0.440118  1
  Dy  Dy3  1  0.209568  0.419136  0.440118  1
  Dy  Dy4  1  0.580864  0.790432  0.440118  1
  Dy  Dy5  1  0.791472  0.208528  0.558642  1
  Dy  Dy6  1  0.791472  0.582943  0.558642  1
  Dy  Dy7  1  0.417057  0.208528  0.558642  1
  Dy  Dy8  1  0.791472  0.208528  0.941358  1
  Dy  Dy9  1  0.791472  0.582943  0.941358  1
  Dy  Dy10  1  0.417057  0.208528  0.941358  1
  Dy  Dy11  1  0.209568  0.790432  0.059882  1
  Dy  Dy12  1  0.209568  0.419136  0.059882  1
  Dy  Dy13  1  0.580864  0.790432  0.059882  1
  Dy  Dy14  1  0.540510  0.459490  0.250000  1
  Dy  Dy15  1  0.540510  0.081018  0.250000  1
  Dy  Dy16  1  0.918982  0.459490  0.250000  1
  Dy  Dy17  1  0.458728  0.541272  0.750000  1
  Dy  Dy18  1  0.458728  0.917458  0.750000  1
  Dy  Dy19  1  0.082542  0.541272  0.750000  1
  Cd  Cd20  1  0.109949  0.890051  0.750000  1
  Cd  Cd21  1  0.109949  0.219897  0.750000  1
  Cd  Cd22  1  0.780103  0.890051  0.750000  1
  Ru  Ru23  1  0.333333  0.666667  0.250000  1
  Ru  Ru24  1  0.666667  0.333333  0.750000  1
  Au  Au25  1  0.869630  0.130370  0.250000  1
  Au  Au26  1  0.869630  0.739260  0.250000  1
  Au  Au27  1  0.260740  0.130370  0.250000  1
