# generated using pymatgen
data_NdTh2Zn3PdPt2
_symmetry_space_group_name_H-M   'P 1'
_cell_length_a   7.58194665
_cell_length_b   7.60423342
_cell_length_c   3.87219500
_cell_angle_alpha   90.00000000
_cell_angle_beta   90.00000000
_cell_angle_gamma   120.09728330
_symmetry_Int_Tables_number   1
_chemical_formula_structural   NdTh2Zn3PdPt2
_chemical_formula_sum   'Nd1 Th2 Zn3 Pd1 Pt2'
_cell_volume   193.15121538
_cell_formula_units_Z   1
loop_
 _symmetry_equiv_pos_site_id
 _symmetry_equiv_pos_as_xyz
  1  'x, y, z'
loop_
 _atom_site_type_symbol
 _atom_site_label
 _atom_site_symmetry_multiplicity
 _atom_site_fract_x
 _atom_site_fract_y
 _atom_site_fract_z
 _atom_site_occupancy
  Nd  Nd0  1  0.000000  0.594570  0.000000  1
  Th  Th1  1  0.409063  0.407288  0.000000  1
  Th  Th2  1  0.590937  0.998226  0.000000  1
  Zn  Zn3  1  0.758520  0.751271  0.500000  1
  Zn  Zn4  1  0.241480  0.992750  0.500000  1
  Zn  Zn5  1  0.000000  0.256623  0.500000  1
  Pd  Pd6  1  0.000000  0.009418  0.000000  1
  Pt  Pt7  1  0.652978  0.321415  0.500000  1
  Pt  Pt8  1  0.347022  0.668439  0.500000  1
