# generated using pymatgen
data_Y5TmAl21Si3Os8
_symmetry_space_group_name_H-M   'P 1'
_cell_length_a   8.72578708
_cell_length_b   8.72578637
_cell_length_c   9.65249704
_cell_angle_alpha   89.99102476
_cell_angle_beta   90.00897255
_cell_angle_gamma   120.01306828
_symmetry_Int_Tables_number   1
_chemical_formula_structural   Y5TmAl21Si3Os8
_chemical_formula_sum   'Y5 Tm1 Al21 Si3 Os8'
_cell_volume   636.38844355
_cell_formula_units_Z   1
loop_
 _symmetry_equiv_pos_site_id
 _symmetry_equiv_pos_as_xyz
  1  'x, y, z'
loop_
 _atom_site_type_symbol
 _atom_site_label
 _atom_site_symmetry_multiplicity
 _atom_site_fract_x
 _atom_site_fract_y
 _atom_site_fract_z
 _atom_site_occupancy
  Y  Y0  1  0.194528  0.389002  0.247733  1
  Y  Y1  1  0.804903  0.609433  0.752675  1
  Y  Y2  1  0.610999  0.805472  0.247733  1
  Y  Y3  1  0.390565  0.195096  0.752676  1
  Y  Y4  1  0.194564  0.805436  0.247715  1
  Tm  Tm5  1  0.803217  0.196783  0.752713  1
  Al  Al6  1  0.333428  0.666571  0.476975  1
  Al  Al7  1  0.163863  0.328357  0.574587  1
  Al  Al8  1  0.834921  0.669809  0.423918  1
  Al  Al9  1  0.671644  0.836138  0.574587  1
  Al  Al10  1  0.834752  0.669499  0.076330  1
  Al  Al11  1  0.330191  0.165079  0.423918  1
  Al  Al12  1  0.165084  0.330819  0.922646  1
  Al  Al13  1  0.164393  0.835607  0.574321  1
  Al  Al14  1  0.330501  0.165247  0.076331  1
  Al  Al15  1  0.835010  0.164990  0.424343  1
  Al  Al16  1  0.669182  0.834916  0.922646  1
  Al  Al17  1  0.834828  0.165172  0.075773  1
  Al  Al18  1  0.165661  0.834339  0.922929  1
  Al  Al19  1  0.563638  0.127100  0.248846  1
  Al  Al20  1  0.437505  0.874085  0.748776  1
  Al  Al21  1  0.872901  0.436362  0.248846  1
  Al  Al22  1  0.125915  0.562496  0.748776  1
  Al  Al23  1  0.563627  0.436373  0.248824  1
  Al  Al24  1  0.436751  0.563249  0.748786  1
  Al  Al25  1  0.000004  0.999996  0.248728  1
  Al  Al26  1  0.998969  0.001030  0.749299  1
  Si  Si27  1  0.333425  0.666574  0.038353  1
  Si  Si28  1  0.666994  0.333006  0.962120  1
  Si  Si29  1  0.666919  0.333080  0.539116  1
  Os  Os30  1  0.500548  0.000166  0.998383  1
  Os  Os31  1  0.999834  0.499452  0.998383  1
  Os  Os32  1  0.504921  0.008859  0.502074  1
  Os  Os33  1  0.500026  0.499974  0.998867  1
  Os  Os34  1  0.991141  0.495078  0.502075  1
  Os  Os35  1  0.504457  0.495542  0.501538  1
  Os  Os36  1  0.000074  0.999928  0.998607  1
  Os  Os37  1  0.000113  0.999889  0.499053  1
