# generated using pymatgen
data_NdAg(WO4)2
_symmetry_space_group_name_H-M   'P 1'
_cell_length_a   7.57560108
_cell_length_b   7.57560050
_cell_length_c   7.43005090
_cell_angle_alpha   65.42798795
_cell_angle_beta   65.42798874
_cell_angle_gamma   94.30605338
_symmetry_Int_Tables_number   1
_chemical_formula_structural   NdAg(WO4)2
_chemical_formula_sum   'Nd2 Ag2 W4 O16'
_cell_volume   336.44560960
_cell_formula_units_Z   2
loop_
 _symmetry_equiv_pos_site_id
 _symmetry_equiv_pos_as_xyz
  1  'x, y, z'
loop_
 _atom_site_type_symbol
 _atom_site_label
 _atom_site_symmetry_multiplicity
 _atom_site_fract_x
 _atom_site_fract_y
 _atom_site_fract_z
 _atom_site_occupancy
  Nd  Nd0  1  0.699830  0.300170  0.000000  1
  Nd  Nd1  1  0.300170  0.699830  0.000000  1
  Ag  Ag2  1  0.688217  0.688217  0.480556  1
  Ag  Ag3  1  0.311783  0.311783  0.519444  1
  W  W4  1  0.212695  0.212695  0.029252  1
  W  W5  1  0.787305  0.787305  0.970748  1
  W  W6  1  0.839767  0.160233  0.500000  1
  W  W7  1  0.160233  0.839767  0.500000  1
  O  O8  1  0.347446  0.101178  0.240516  1
  O  O9  1  0.652554  0.898822  0.759484  1
  O  O10  1  0.898822  0.652554  0.759484  1
  O  O11  1  0.101178  0.347446  0.240516  1
  O  O12  1  0.688966  0.209236  0.359131  1
  O  O13  1  0.311034  0.790764  0.640869  1
  O  O14  1  0.790764  0.311034  0.640869  1
  O  O15  1  0.209236  0.688966  0.359131  1
  O  O16  1  0.699097  0.951131  0.090578  1
  O  O17  1  0.300903  0.048869  0.909422  1
  O  O18  1  0.048869  0.300903  0.909422  1
  O  O19  1  0.951131  0.699097  0.090578  1
  O  O20  1  0.979682  0.979682  0.340974  1
  O  O21  1  0.020318  0.020318  0.659026  1
  O  O22  1  0.556932  0.556932  0.141046  1
  O  O23  1  0.443068  0.443068  0.858954  1
