# generated using pymatgen
data_YHo19Bi7Sb5
_symmetry_space_group_name_H-M   'P 1'
_cell_length_a   8.15342254
_cell_length_b   9.41922304
_cell_length_c   11.93414600
_cell_angle_alpha   90.04504355
_cell_angle_beta   89.93955196
_cell_angle_gamma   89.99059477
_symmetry_Int_Tables_number   1
_chemical_formula_structural   YHo19Bi7Sb5
_chemical_formula_sum   'Y1 Ho19 Bi7 Sb5'
_cell_volume   916.52854406
_cell_formula_units_Z   1
loop_
 _symmetry_equiv_pos_site_id
 _symmetry_equiv_pos_as_xyz
  1  'x, y, z'
loop_
 _atom_site_type_symbol
 _atom_site_label
 _atom_site_symmetry_multiplicity
 _atom_site_fract_x
 _atom_site_fract_y
 _atom_site_fract_z
 _atom_site_occupancy
  Y  Y0  1  0.184339  0.749921  0.717959  1
  Ho  Ho1  1  0.356186  0.753218  0.214343  1
  Ho  Ho2  1  0.849899  0.752615  0.287264  1
  Ho  Ho3  1  0.647086  0.250263  0.786613  1
  Ho  Ho4  1  0.147071  0.249953  0.713117  1
  Ho  Ho5  1  0.689358  0.563337  0.057823  1
  Ho  Ho6  1  0.191452  0.937708  0.441437  1
  Ho  Ho7  1  0.310593  0.062982  0.942323  1
  Ho  Ho8  1  0.810205  0.436747  0.557302  1
  Ho  Ho9  1  0.310919  0.436865  0.942466  1
  Ho  Ho10  1  0.809474  0.062405  0.555931  1
  Ho  Ho11  1  0.687913  0.937310  0.060076  1
  Ho  Ho12  1  0.189914  0.563036  0.441856  1
  Ho  Ho13  1  0.472789  0.247739  0.486450  1
  Ho  Ho14  1  0.971971  0.250021  0.012526  1
  Ho  Ho15  1  0.528781  0.752242  0.510366  1
  Ho  Ho16  1  0.027484  0.750176  0.988067  1
  Ho  Ho17  1  0.317507  0.247566  0.218705  1
  Ho  Ho18  1  0.812548  0.246452  0.282659  1
  Ho  Ho19  1  0.684430  0.750071  0.782072  1
  Bi  Bi20  1  0.065142  0.504303  0.175377  1
  Bi  Bi21  1  0.435491  0.495600  0.674053  1
  Bi  Bi22  1  0.934549  0.004388  0.825064  1
  Bi  Bi23  1  0.435192  0.004479  0.675093  1
  Bi  Bi24  1  0.934709  0.495537  0.825144  1
  Bi  Bi25  1  0.564988  0.504032  0.324987  1
  Bi  Bi26  1  0.065302  0.995765  0.174747  1
  Sb  Sb27  1  0.407669  0.750018  0.958299  1
  Sb  Sb28  1  0.908140  0.749816  0.541727  1
  Sb  Sb29  1  0.592397  0.250085  0.041946  1
  Sb  Sb30  1  0.092041  0.250023  0.457667  1
  Sb  Sb31  1  0.564457  0.995326  0.326539  1
