# generated using pymatgen
data_Cs6DySe4
_symmetry_space_group_name_H-M   'P 1'
_cell_length_a   11.71151800
_cell_length_b   11.71151791
_cell_length_c   8.82582600
_cell_angle_alpha   90.00000000
_cell_angle_beta   90.00000000
_cell_angle_gamma   120.00000026
_symmetry_Int_Tables_number   1
_chemical_formula_structural   Cs6DySe4
_chemical_formula_sum   'Cs12 Dy2 Se8'
_cell_volume   1048.36465081
_cell_formula_units_Z   2
loop_
 _symmetry_equiv_pos_site_id
 _symmetry_equiv_pos_as_xyz
  1  'x, y, z'
loop_
 _atom_site_type_symbol
 _atom_site_label
 _atom_site_symmetry_multiplicity
 _atom_site_fract_x
 _atom_site_fract_y
 _atom_site_fract_z
 _atom_site_occupancy
  Cs  Cs0  1  0.132832  0.867168  0.545657  1
  Cs  Cs1  1  0.265665  0.132832  0.045657  1
  Cs  Cs2  1  0.867168  0.734335  0.045657  1
  Cs  Cs3  1  0.132832  0.265665  0.545657  1
  Cs  Cs4  1  0.734335  0.867168  0.545657  1
  Cs  Cs5  1  0.867168  0.132832  0.045657  1
  Cs  Cs6  1  0.532415  0.467585  0.358350  1
  Cs  Cs7  1  0.064830  0.532415  0.858350  1
  Cs  Cs8  1  0.467585  0.935170  0.858350  1
  Cs  Cs9  1  0.532415  0.064830  0.358350  1
  Cs  Cs10  1  0.935170  0.467585  0.358350  1
  Cs  Cs11  1  0.467585  0.532415  0.858350  1
  Dy  Dy12  1  0.333333  0.666667  0.259826  1
  Dy  Dy13  1  0.666667  0.333333  0.759826  1
  Se  Se14  1  0.333333  0.666667  0.571223  1
  Se  Se15  1  0.666667  0.333333  0.071223  1
  Se  Se16  1  0.205907  0.794093  0.155545  1
  Se  Se17  1  0.411813  0.205907  0.655545  1
  Se  Se18  1  0.794093  0.588187  0.655545  1
  Se  Se19  1  0.205907  0.411813  0.155545  1
  Se  Se20  1  0.588187  0.794093  0.155545  1
  Se  Se21  1  0.794093  0.205907  0.655545  1
