# generated using pymatgen
data_DyFeCoSi2
_symmetry_space_group_name_H-M   'P 1'
_cell_length_a   5.53311853
_cell_length_b   5.53311923
_cell_length_c   5.53311855
_cell_angle_alpha   138.34188659
_cell_angle_beta   138.34189827
_cell_angle_gamma   60.37977690
_symmetry_Int_Tables_number   1
_chemical_formula_structural   DyFeCoSi2
_chemical_formula_sum   'Dy1 Fe1 Co1 Si2'
_cell_volume   74.05312613
_cell_formula_units_Z   1
loop_
 _symmetry_equiv_pos_site_id
 _symmetry_equiv_pos_as_xyz
  1  'x, y, z'
loop_
 _atom_site_type_symbol
 _atom_site_label
 _atom_site_symmetry_multiplicity
 _atom_site_fract_x
 _atom_site_fract_y
 _atom_site_fract_z
 _atom_site_occupancy
  Dy  Dy0  1  0.000000  0.000000  0.000000  1
  Fe  Fe1  1  0.250000  0.750000  0.500000  1
  Co  Co2  1  0.750000  0.250000  0.500000  1
  Si  Si3  1  0.632029  0.632029  0.000000  1
  Si  Si4  1  0.367971  0.367971  0.000000  1
