# generated using pymatgen
data_Nd8Re2TcRuC8
_symmetry_space_group_name_H-M   'P 1'
_cell_length_a   5.35519400
_cell_length_b   6.69807622
_cell_length_c   10.20082820
_cell_angle_alpha   89.92552035
_cell_angle_beta   90.00000000
_cell_angle_gamma   90.00000000
_symmetry_Int_Tables_number   1
_chemical_formula_structural   Nd8Re2TcRuC8
_chemical_formula_sum   'Nd8 Re2 Tc1 Ru1 C8'
_cell_volume   365.89827351
_cell_formula_units_Z   1
loop_
 _symmetry_equiv_pos_site_id
 _symmetry_equiv_pos_as_xyz
  1  'x, y, z'
loop_
 _atom_site_type_symbol
 _atom_site_label
 _atom_site_symmetry_multiplicity
 _atom_site_fract_x
 _atom_site_fract_y
 _atom_site_fract_z
 _atom_site_occupancy
  Nd  Nd0  1  0.250000  0.472328  0.786898  1
  Nd  Nd1  1  0.750000  0.026126  0.285726  1
  Nd  Nd2  1  0.250000  0.974642  0.712147  1
  Nd  Nd3  1  0.750000  0.525322  0.213779  1
  Nd  Nd4  1  0.250000  0.813073  0.050835  1
  Nd  Nd5  1  0.750000  0.684083  0.550154  1
  Nd  Nd6  1  0.250000  0.311260  0.447853  1
  Nd  Nd7  1  0.750000  0.188110  0.947587  1
  Re  Re8  1  0.250000  0.770898  0.358344  1
  Re  Re9  1  0.750000  0.729403  0.857030  1
  Tc  Tc10  1  0.250000  0.270609  0.141447  1
  Ru  Ru11  1  0.750000  0.229980  0.642173  1
  C  C12  1  0.250000  0.686862  0.539487  1
  C  C13  1  0.750000  0.813600  0.037535  1
  C  C14  1  0.250000  0.186650  0.961844  1
  C  C15  1  0.750000  0.315140  0.463545  1
  C  C16  1  0.250000  0.033997  0.258568  1
  C  C17  1  0.750000  0.466548  0.758311  1
  C  C18  1  0.250000  0.536213  0.242813  1
  C  C19  1  0.750000  0.965157  0.743927  1
