# generated using pymatgen
data_YAl3Au
_symmetry_space_group_name_H-M   'P 1'
_cell_length_a   4.19771321
_cell_length_b   4.19771307
_cell_length_c   6.34683858
_cell_angle_alpha   70.68915099
_cell_angle_beta   70.68914767
_cell_angle_gamma   90.00000509
_symmetry_Int_Tables_number   1
_chemical_formula_structural   YAl3Au
_chemical_formula_sum   'Y1 Al3 Au1'
_cell_volume   98.85245463
_cell_formula_units_Z   1
loop_
 _symmetry_equiv_pos_site_id
 _symmetry_equiv_pos_as_xyz
  1  'x, y, z'
loop_
 _atom_site_type_symbol
 _atom_site_label
 _atom_site_symmetry_multiplicity
 _atom_site_fract_x
 _atom_site_fract_y
 _atom_site_fract_z
 _atom_site_occupancy
  Y  Y0  1  0.987870  0.987870  0.024259  1
  Al  Al1  1  0.749496  0.249496  0.501007  1
  Al  Al2  1  0.249496  0.749496  0.501007  1
  Al  Al3  1  0.396632  0.396632  0.206736  1
  Au  Au4  1  0.616504  0.616504  0.766992  1
