# generated using pymatgen
data_Pr8Sc12Si7Ge9
_symmetry_space_group_name_H-M   'P 1'
_cell_length_a   7.33704496
_cell_length_b   7.58275529
_cell_length_c   14.34364300
_cell_angle_alpha   90.00000000
_cell_angle_beta   90.00000000
_cell_angle_gamma   90.19657817
_symmetry_Int_Tables_number   1
_chemical_formula_structural   Pr8Sc12Si7Ge9
_chemical_formula_sum   'Pr8 Sc12 Si7 Ge9'
_cell_volume   798.00411861
_cell_formula_units_Z   1
loop_
 _symmetry_equiv_pos_site_id
 _symmetry_equiv_pos_as_xyz
  1  'x, y, z'
loop_
 _atom_site_type_symbol
 _atom_site_label
 _atom_site_symmetry_multiplicity
 _atom_site_fract_x
 _atom_site_fract_y
 _atom_site_fract_z
 _atom_site_occupancy
  Pr  Pr0  1  0.003666  0.174665  0.098852  1
  Pr  Pr1  1  0.997311  0.823909  0.901349  1
  Pr  Pr2  1  0.497272  0.674058  0.901582  1
  Pr  Pr3  1  0.997311  0.823909  0.598651  1
  Pr  Pr4  1  0.502966  0.325491  0.098988  1
  Pr  Pr5  1  0.003666  0.174665  0.401148  1
  Pr  Pr6  1  0.502966  0.325491  0.401012  1
  Pr  Pr7  1  0.497272  0.674058  0.598418  1
  Sc  Sc8  1  0.170672  0.499640  0.750000  1
  Sc  Sc9  1  0.829924  0.502887  0.250000  1
  Sc  Sc10  1  0.329890  0.996818  0.250000  1
  Sc  Sc11  1  0.667353  0.002403  0.750000  1
  Sc  Sc12  1  0.342693  0.171909  0.627135  1
  Sc  Sc13  1  0.658943  0.827717  0.372644  1
  Sc  Sc14  1  0.159026  0.672132  0.373035  1
  Sc  Sc15  1  0.658943  0.827717  0.127356  1
  Sc  Sc16  1  0.838064  0.330340  0.625398  1
  Sc  Sc17  1  0.342693  0.171909  0.872865  1
  Sc  Sc18  1  0.838064  0.330340  0.874602  1
  Sc  Sc19  1  0.159026  0.672132  0.126965  1
  Si  Si20  1  0.956339  0.875861  0.250000  1
  Si  Si21  1  0.455369  0.624193  0.250000  1
  Si  Si22  1  0.544149  0.375003  0.750000  1
  Si  Si23  1  0.300783  0.876481  0.750000  1
  Si  Si24  1  0.703532  0.119004  0.250000  1
  Si  Si25  1  0.203079  0.381659  0.250000  1
  Si  Si26  1  0.797432  0.619160  0.750000  1
  Ge  Ge27  1  0.039617  0.127879  0.750000  1
  Ge  Ge28  1  0.168850  0.456954  0.541811  1
  Ge  Ge29  1  0.831374  0.542606  0.457546  1
  Ge  Ge30  1  0.332426  0.957816  0.458595  1
  Ge  Ge31  1  0.831374  0.542606  0.042454  1
  Ge  Ge32  1  0.668339  0.041908  0.541119  1
  Ge  Ge33  1  0.168850  0.456954  0.958189  1
  Ge  Ge34  1  0.668339  0.041908  0.958881  1
  Ge  Ge35  1  0.332426  0.957816  0.041405  1
