# generated using pymatgen
data_BeNb10Si4P
_symmetry_space_group_name_H-M   'P 1'
_cell_length_a   7.54351022
_cell_length_b   7.54350902
_cell_length_c   7.53357036
_cell_angle_alpha   128.44430983
_cell_angle_beta   128.48301857
_cell_angle_gamma   75.97194184
_symmetry_Int_Tables_number   1
_chemical_formula_structural   BeNb10Si4P
_chemical_formula_sum   'Be1 Nb10 Si4 P1'
_cell_volume   255.42425098
_cell_formula_units_Z   1
loop_
 _symmetry_equiv_pos_site_id
 _symmetry_equiv_pos_as_xyz
  1  'x, y, z'
loop_
 _atom_site_type_symbol
 _atom_site_label
 _atom_site_symmetry_multiplicity
 _atom_site_fract_x
 _atom_site_fract_y
 _atom_site_fract_z
 _atom_site_occupancy
  Be  Be0  1  0.124559  0.623988  0.748547  1
  Nb  Nb1  1  0.019057  0.188420  0.505315  1
  Nb  Nb2  1  0.518265  0.017027  0.831821  1
  Nb  Nb3  1  0.183489  0.682392  0.158440  1
  Nb  Nb4  1  0.476049  0.974951  0.158440  1
  Nb  Nb5  1  0.688126  0.521714  0.505014  1
  Nb  Nb6  1  0.983300  0.816888  0.505014  1
  Nb  Nb7  1  0.316895  0.486257  0.505315  1
  Nb  Nb8  1  0.814793  0.313556  0.831821  1
  Nb  Nb9  1  0.497278  0.501770  0.999046  1
  Nb  Nb10  1  0.998572  0.995224  0.993795  1
  Si  Si11  1  0.367560  0.129785  0.497344  1
  Si  Si12  1  0.879775  0.378431  0.258207  1
  Si  Si13  1  0.752197  0.750367  0.002506  1
  Si  Si14  1  0.252139  0.250309  0.002506  1
  P  P15  1  0.627948  0.868920  0.496868  1
