# generated using pymatgen
data_Sc8Ti9Re3Si15P
_symmetry_space_group_name_H-M   'P 1'
_cell_length_a   6.77583968
_cell_length_b   6.77639941
_cell_length_c   12.46523955
_cell_angle_alpha   90.07524139
_cell_angle_beta   90.23817301
_cell_angle_gamma   90.15260032
_symmetry_Int_Tables_number   1
_chemical_formula_structural   Sc8Ti9Re3Si15P
_chemical_formula_sum   'Sc8 Ti9 Re3 Si15 P1'
_cell_volume   572.34391920
_cell_formula_units_Z   1
loop_
 _symmetry_equiv_pos_site_id
 _symmetry_equiv_pos_as_xyz
  1  'x, y, z'
loop_
 _atom_site_type_symbol
 _atom_site_label
 _atom_site_symmetry_multiplicity
 _atom_site_fract_x
 _atom_site_fract_y
 _atom_site_fract_z
 _atom_site_occupancy
  Sc  Sc0  1  0.000932  0.660159  0.028384  1
  Sc  Sc1  1  0.998693  0.342173  0.533586  1
  Sc  Sc2  1  0.338943  0.995823  0.468232  1
  Sc  Sc3  1  0.160388  0.496904  0.781318  1
  Sc  Sc4  1  0.840588  0.500452  0.281459  1
  Sc  Sc5  1  0.499971  0.158369  0.217489  1
  Sc  Sc6  1  0.503380  0.844293  0.721182  1
  Sc  Sc7  1  0.659575  0.002070  0.968470  1
  Ti  Ti8  1  0.673151  0.668520  0.499899  1
  Ti  Ti9  1  0.167246  0.823746  0.250479  1
  Ti  Ti10  1  0.330324  0.330472  0.999047  1
  Ti  Ti11  1  0.995320  0.847204  0.625780  1
  Ti  Ti12  1  0.001854  0.149257  0.125243  1
  Ti  Ti13  1  0.848141  0.986397  0.373655  1
  Ti  Ti14  1  0.343186  0.504233  0.379160  1
  Ti  Ti15  1  0.655413  0.501753  0.877014  1
  Ti  Ti16  1  0.502435  0.346222  0.623174  1
  Re  Re17  1  0.485167  0.654898  0.120925  1
  Re  Re18  1  0.166126  0.006600  0.876415  1
  Re  Re19  1  0.829123  0.172040  0.748758  1
  Si  Si20  1  0.635886  0.293269  0.428988  1
  Si  Si21  1  0.366079  0.708078  0.927647  1
  Si  Si22  1  0.202727  0.134590  0.681379  1
  Si  Si23  1  0.298631  0.638408  0.574139  1
  Si  Si24  1  0.702368  0.367311  0.070324  1
  Si  Si25  1  0.789672  0.860658  0.176851  1
  Si  Si26  1  0.135281  0.202954  0.320299  1
  Si  Si27  1  0.955479  0.293094  0.934041  1
  Si  Si28  1  0.703496  0.044031  0.564966  1
  Si  Si29  1  0.201638  0.454516  0.186165  1
  Si  Si30  1  0.796655  0.542922  0.686398  1
  Si  Si31  1  0.459884  0.210414  0.813309  1
  Si  Si32  1  0.540487  0.795422  0.312255  1
  Si  Si33  1  0.296728  0.957949  0.065499  1
  Si  Si34  1  0.872540  0.804905  0.822096  1
  P  P35  1  0.042490  0.699898  0.435974  1
