# generated using pymatgen
data_ErTm5Bi2Ru
_symmetry_space_group_name_H-M   'P 1'
_cell_length_a   8.25324000
_cell_length_b   8.24385363
_cell_length_c   4.17342500
_cell_angle_alpha   90.00000000
_cell_angle_beta   90.00000000
_cell_angle_gamma   120.03767141
_symmetry_Int_Tables_number   1
_chemical_formula_structural   ErTm5Bi2Ru
_chemical_formula_sum   'Er1 Tm5 Bi2 Ru1'
_cell_volume   245.81761874
_cell_formula_units_Z   1
loop_
 _symmetry_equiv_pos_site_id
 _symmetry_equiv_pos_as_xyz
  1  'x, y, z'
loop_
 _atom_site_type_symbol
 _atom_site_label
 _atom_site_symmetry_multiplicity
 _atom_site_fract_x
 _atom_site_fract_y
 _atom_site_fract_z
 _atom_site_occupancy
  Er  Er0  1  0.612191  0.000000  0.500000  1
  Tm  Tm1  1  0.233300  0.000000  0.000000  1
  Tm  Tm2  1  0.999932  0.612965  0.500000  1
  Tm  Tm3  1  0.386967  0.387035  0.500000  1
  Tm  Tm4  1  0.766982  0.766743  0.000000  1
  Tm  Tm5  1  0.000240  0.233257  0.000000  1
  Bi  Bi6  1  0.332984  0.666367  0.000000  1
  Bi  Bi7  1  0.666618  0.333633  0.000000  1
  Ru  Ru8  1  0.000786  0.000000  0.500000  1
