# generated using pymatgen
data_Rb2Ce(PdSe2)3
_symmetry_space_group_name_H-M   'P 1'
_cell_length_a   12.00161571
_cell_length_b   10.29392928
_cell_length_c   9.52162829
_cell_angle_alpha   74.43905403
_cell_angle_beta   55.71777902
_cell_angle_gamma   49.84315324
_symmetry_Int_Tables_number   1
_chemical_formula_structural   Rb2Ce(PdSe2)3
_chemical_formula_sum   'Rb4 Ce2 Pd6 Se12'
_cell_volume   734.41398343
_cell_formula_units_Z   2
loop_
 _symmetry_equiv_pos_site_id
 _symmetry_equiv_pos_as_xyz
  1  'x, y, z'
loop_
 _atom_site_type_symbol
 _atom_site_label
 _atom_site_symmetry_multiplicity
 _atom_site_fract_x
 _atom_site_fract_y
 _atom_site_fract_z
 _atom_site_occupancy
  Rb  Rb0  1  0.250000  0.249999  0.250000  1
  Rb  Rb1  1  0.750000  0.750000  0.750000  1
  Rb  Rb2  1  0.342816  0.657184  0.342817  1
  Rb  Rb3  1  0.657184  0.342817  0.657184  1
  Ce  Ce4  1  0.167652  0.167653  0.832348  1
  Ce  Ce5  1  0.832347  0.832348  0.167653  1
  Pd  Pd6  1  0.821930  0.178070  0.178070  1
  Pd  Pd7  1  0.178071  0.821930  0.821929  1
  Pd  Pd8  1  0.820753  0.497664  0.179247  1
  Pd  Pd9  1  0.497664  0.820753  0.502336  1
  Pd  Pd10  1  0.502336  0.179247  0.497664  1
  Pd  Pd11  1  0.179248  0.502336  0.820752  1
  Se  Se12  1  0.012559  0.187899  0.201912  1
  Se  Se13  1  0.187900  0.012558  0.597630  1
  Se  Se14  1  0.597630  0.201912  0.187900  1
  Se  Se15  1  0.201912  0.597629  0.012558  1
  Se  Se16  1  0.987441  0.812100  0.798088  1
  Se  Se17  1  0.812100  0.987442  0.402370  1
  Se  Se18  1  0.402370  0.798088  0.812100  1
  Se  Se19  1  0.798088  0.402370  0.987442  1
  Se  Se20  1  0.406554  0.192457  0.807543  1
  Se  Se21  1  0.192457  0.406554  0.593446  1
  Se  Se22  1  0.593446  0.807544  0.192457  1
  Se  Se23  1  0.807543  0.593447  0.406554  1
