# generated using pymatgen
data_Ba2Si4Pd5
_symmetry_space_group_name_H-M   'P 1'
_cell_length_a   8.90673084
_cell_length_b   8.90673095
_cell_length_c   5.84865800
_cell_angle_alpha   90.00000000
_cell_angle_beta   90.00000000
_cell_angle_gamma   103.42093680
_symmetry_Int_Tables_number   1
_chemical_formula_structural   Ba2Si4Pd5
_chemical_formula_sum   'Ba4 Si8 Pd10'
_cell_volume   451.30260845
_cell_formula_units_Z   2
loop_
 _symmetry_equiv_pos_site_id
 _symmetry_equiv_pos_as_xyz
  1  'x, y, z'
loop_
 _atom_site_type_symbol
 _atom_site_label
 _atom_site_symmetry_multiplicity
 _atom_site_fract_x
 _atom_site_fract_y
 _atom_site_fract_z
 _atom_site_occupancy
  Ba  Ba0  1  0.355380  0.644620  0.030140  1
  Ba  Ba1  1  0.644620  0.355380  0.969860  1
  Ba  Ba2  1  0.144620  0.855380  0.530140  1
  Ba  Ba3  1  0.855380  0.144620  0.469860  1
  Si  Si4  1  0.947569  0.702379  0.061003  1
  Si  Si5  1  0.702379  0.947569  0.938997  1
  Si  Si6  1  0.202379  0.447569  0.561003  1
  Si  Si7  1  0.447569  0.202379  0.438997  1
  Si  Si8  1  0.052431  0.297621  0.938997  1
  Si  Si9  1  0.297621  0.052431  0.061003  1
  Si  Si10  1  0.797621  0.552431  0.438997  1
  Si  Si11  1  0.552431  0.797621  0.561003  1
  Pd  Pd12  1  0.020853  0.479147  0.250000  1
  Pd  Pd13  1  0.479147  0.020853  0.750000  1
  Pd  Pd14  1  0.979147  0.520853  0.750000  1
  Pd  Pd15  1  0.520853  0.979147  0.250000  1
  Pd  Pd16  1  0.225453  0.274547  0.250000  1
  Pd  Pd17  1  0.274547  0.225453  0.750000  1
  Pd  Pd18  1  0.774547  0.725453  0.750000  1
  Pd  Pd19  1  0.725453  0.774547  0.250000  1
  Pd  Pd20  1  0.000000  0.000000  0.000000  1
  Pd  Pd21  1  0.500000  0.500000  0.500000  1
