# generated using pymatgen
data_Mg6Co15Si7Ru
_symmetry_space_group_name_H-M   'P 1'
_cell_length_a   8.02723583
_cell_length_b   8.02909042
_cell_length_c   8.02857912
_cell_angle_alpha   59.61918361
_cell_angle_beta   59.61077756
_cell_angle_gamma   59.61205422
_symmetry_Int_Tables_number   1
_chemical_formula_structural   Mg6Co15Si7Ru
_chemical_formula_sum   'Mg6 Co15 Si7 Ru1'
_cell_volume   362.68485292
_cell_formula_units_Z   1
loop_
 _symmetry_equiv_pos_site_id
 _symmetry_equiv_pos_as_xyz
  1  'x, y, z'
loop_
 _atom_site_type_symbol
 _atom_site_label
 _atom_site_symmetry_multiplicity
 _atom_site_fract_x
 _atom_site_fract_y
 _atom_site_fract_z
 _atom_site_occupancy
  Mg  Mg0  1  0.205133  0.794250  0.794191  1
  Mg  Mg1  1  0.202096  0.799556  0.202249  1
  Mg  Mg2  1  0.799555  0.202108  0.202098  1
  Mg  Mg3  1  0.794253  0.205137  0.794279  1
  Mg  Mg4  1  0.794214  0.794286  0.205157  1
  Mg  Mg5  1  0.202070  0.202227  0.799542  1
  Co  Co6  1  0.522778  0.826202  0.826174  1
  Co  Co7  1  0.620452  0.620438  0.144818  1
  Co  Co8  1  0.171793  0.171687  0.476186  1
  Co  Co9  1  0.826229  0.826176  0.522779  1
  Co  Co10  1  0.173315  0.173200  0.173258  1
  Co  Co11  1  0.825355  0.825277  0.825266  1
  Co  Co12  1  0.381176  0.381276  0.855446  1
  Co  Co13  1  0.826248  0.522753  0.826169  1
  Co  Co14  1  0.619503  0.619513  0.619502  1
  Co  Co15  1  0.381192  0.855414  0.381269  1
  Co  Co16  1  0.144842  0.620439  0.620436  1
  Co  Co17  1  0.620442  0.144848  0.620425  1
  Co  Co18  1  0.171781  0.476166  0.171724  1
  Co  Co19  1  0.855548  0.381223  0.381201  1
  Co  Co20  1  0.476221  0.171703  0.171749  1
  Si  Si21  1  0.999093  0.999045  0.501086  1
  Si  Si22  1  0.500408  0.997927  0.500403  1
  Si  Si23  1  0.504379  0.504507  0.504482  1
  Si  Si24  1  0.999086  0.501089  0.999041  1
  Si  Si25  1  0.500415  0.500398  0.997941  1
  Si  Si26  1  0.501061  0.999095  0.999100  1
  Si  Si27  1  0.997926  0.500417  0.500428  1
  Ru  Ru28  1  0.383430  0.383639  0.383593  1
