# generated using pymatgen
data_Cs2NaNbO4
_symmetry_space_group_name_H-M   'P 1'
_cell_length_a   6.47543900
_cell_length_b   6.35985876
_cell_length_c   8.59128357
_cell_angle_alpha   86.58692400
_cell_angle_beta   90.00000000
_cell_angle_gamma   90.00000000
_symmetry_Int_Tables_number   1
_chemical_formula_structural   Cs2NaNbO4
_chemical_formula_sum   'Cs4 Na2 Nb2 O8'
_cell_volume   353.18620702
_cell_formula_units_Z   2
loop_
 _symmetry_equiv_pos_site_id
 _symmetry_equiv_pos_as_xyz
  1  'x, y, z'
loop_
 _atom_site_type_symbol
 _atom_site_label
 _atom_site_symmetry_multiplicity
 _atom_site_fract_x
 _atom_site_fract_y
 _atom_site_fract_z
 _atom_site_occupancy
  Cs  Cs0  1  0.750000  0.145726  0.818759  1
  Cs  Cs1  1  0.250000  0.854274  0.181241  1
  Cs  Cs2  1  0.250000  0.311380  0.479789  1
  Cs  Cs3  1  0.750000  0.688620  0.520211  1
  Na  Na4  1  0.750000  0.625615  0.024728  1
  Na  Na5  1  0.250000  0.374385  0.975272  1
  Nb  Nb6  1  0.250000  0.805906  0.753562  1
  Nb  Nb7  1  0.750000  0.194094  0.246438  1
  O  O8  1  0.517031  0.336292  0.161916  1
  O  O9  1  0.017031  0.663708  0.838083  1
  O  O10  1  0.482969  0.663708  0.838083  1
  O  O11  1  0.982969  0.336292  0.161916  1
  O  O12  1  0.750000  0.200876  0.465198  1
  O  O13  1  0.750000  0.912669  0.187583  1
  O  O14  1  0.250000  0.799124  0.534802  1
  O  O15  1  0.250000  0.087331  0.812417  1
