# generated using pymatgen
data_LaPr3(Ga5Rh3)2
_symmetry_space_group_name_H-M   'P 1'
_cell_length_a   8.70612298
_cell_length_b   8.70992974
_cell_length_c   8.70994579
_cell_angle_alpha   141.06213608
_cell_angle_beta   107.98053797
_cell_angle_gamma   85.04229231
_symmetry_Int_Tables_number   1
_chemical_formula_structural   LaPr3(Ga5Rh3)2
_chemical_formula_sum   'La1 Pr3 Ga10 Rh6'
_cell_volume   381.54758201
_cell_formula_units_Z   1
loop_
 _symmetry_equiv_pos_site_id
 _symmetry_equiv_pos_as_xyz
  1  'x, y, z'
loop_
 _atom_site_type_symbol
 _atom_site_label
 _atom_site_symmetry_multiplicity
 _atom_site_fract_x
 _atom_site_fract_y
 _atom_site_fract_z
 _atom_site_occupancy
  La  La0  1  0.863799  0.635553  0.228238  1
  Pr  Pr1  1  0.136322  0.365221  0.771100  1
  Pr  Pr2  1  0.593666  0.864855  0.728812  1
  Pr  Pr3  1  0.406082  0.135016  0.271066  1
  Ga  Ga4  1  0.499530  0.749986  0.249852  1
  Ga  Ga5  1  0.499530  0.249680  0.749545  1
  Ga  Ga6  1  0.208979  0.959009  0.750787  1
  Ga  Ga7  1  0.791485  0.541396  0.749562  1
  Ga  Ga8  1  0.791486  0.041924  0.250090  1
  Ga  Ga9  1  0.208979  0.458192  0.249970  1
  Ga  Ga10  1  0.075136  0.906385  0.168754  1
  Ga  Ga11  1  0.925405  0.093569  0.831835  1
  Ga  Ga12  1  0.262222  0.593631  0.668589  1
  Ga  Ga13  1  0.737281  0.405933  0.331348  1
  Rh  Rh14  1  0.259670  0.853900  0.405774  1
  Rh  Rh15  1  0.740387  0.145702  0.594684  1
  Rh  Rh16  1  0.551626  0.646012  0.905617  1
  Rh  Rh17  1  0.448394  0.354131  0.094266  1
  Rh  Rh18  1  0.000012  0.750077  0.750181  1
  Rh  Rh19  1  0.000010  0.249828  0.249931  1
