# generated using pymatgen
data_Yb2Dy2Os7W
_symmetry_space_group_name_H-M   'P 1'
_cell_length_a   5.43626200
_cell_length_b   5.43626064
_cell_length_c   8.53678300
_cell_angle_alpha   90.00000000
_cell_angle_beta   90.00000000
_cell_angle_gamma   119.99999611
_symmetry_Int_Tables_number   1
_chemical_formula_structural   Yb2Dy2Os7W
_chemical_formula_sum   'Yb2 Dy2 Os7 W1'
_cell_volume   218.48696944
_cell_formula_units_Z   1
loop_
 _symmetry_equiv_pos_site_id
 _symmetry_equiv_pos_as_xyz
  1  'x, y, z'
loop_
 _atom_site_type_symbol
 _atom_site_label
 _atom_site_symmetry_multiplicity
 _atom_site_fract_x
 _atom_site_fract_y
 _atom_site_fract_z
 _atom_site_occupancy
  Yb  Yb0  1  0.666667  0.333333  0.941185  1
  Yb  Yb1  1  0.333333  0.666667  0.058815  1
  Dy  Dy2  1  0.333333  0.666667  0.424538  1
  Dy  Dy3  1  0.666667  0.333333  0.575462  1
  Os  Os4  1  0.000000  0.000000  0.000000  1
  Os  Os5  1  0.826923  0.173077  0.252036  1
  Os  Os6  1  0.826923  0.653847  0.252036  1
  Os  Os7  1  0.346153  0.173077  0.252036  1
  Os  Os8  1  0.173077  0.826923  0.747964  1
  Os  Os9  1  0.173077  0.346153  0.747964  1
  Os  Os10  1  0.653847  0.826923  0.747964  1
  W  W11  1  0.000000  0.000000  0.500000  1
