# generated using pymatgen
data_Y2Ho3IrRu
_symmetry_space_group_name_H-M   'P 1'
_cell_length_a   6.40086041
_cell_length_b   7.28357549
_cell_length_c   8.46874813
_cell_angle_alpha   96.88719296
_cell_angle_beta   112.20433136
_cell_angle_gamma   89.99999795
_symmetry_Int_Tables_number   1
_chemical_formula_structural   Y2Ho3IrRu
_chemical_formula_sum   'Y4 Ho6 Ir2 Ru2'
_cell_volume   362.46448170
_cell_formula_units_Z   2
loop_
 _symmetry_equiv_pos_site_id
 _symmetry_equiv_pos_as_xyz
  1  'x, y, z'
loop_
 _atom_site_type_symbol
 _atom_site_label
 _atom_site_symmetry_multiplicity
 _atom_site_fract_x
 _atom_site_fract_y
 _atom_site_fract_z
 _atom_site_occupancy
  Y  Y0  1  0.978341  0.917904  0.186710  1
  Y  Y1  1  0.791631  0.582096  0.813290  1
  Y  Y2  1  0.024261  0.084421  0.814249  1
  Y  Y3  1  0.210011  0.415579  0.185751  1
  Ho  Ho4  1  0.642529  0.816466  0.435279  1
  Ho  Ho5  1  0.207250  0.683534  0.564721  1
  Ho  Ho6  1  0.355559  0.185481  0.563428  1
  Ho  Ho7  1  0.792131  0.314519  0.436572  1
  Ho  Ho8  1  0.423374  0.750000  0.000000  1
  Ho  Ho9  1  0.575900  0.250000  0.000000  1
  Ir  Ir10  1  0.821858  0.575984  0.222107  1
  Ir  Ir11  1  0.599752  0.924016  0.777893  1
  Ru  Ru12  1  0.178003  0.425564  0.778604  1
  Ru  Ru13  1  0.399398  0.074436  0.221396  1
