# generated using pymatgen
data_Pa3Co(CuGe2)2
_symmetry_space_group_name_H-M   'P 1'
_cell_length_a   7.81093749
_cell_length_b   7.81496735
_cell_length_c   7.80902900
_cell_angle_alpha   109.23892933
_cell_angle_beta   109.90667488
_cell_angle_gamma   109.29399736
_symmetry_Int_Tables_number   1
_chemical_formula_structural   Pa3Co(CuGe2)2
_chemical_formula_sum   'Pa6 Co2 Cu4 Ge8'
_cell_volume   366.81975192
_cell_formula_units_Z   2
loop_
 _symmetry_equiv_pos_site_id
 _symmetry_equiv_pos_as_xyz
  1  'x, y, z'
loop_
 _atom_site_type_symbol
 _atom_site_label
 _atom_site_symmetry_multiplicity
 _atom_site_fract_x
 _atom_site_fract_y
 _atom_site_fract_z
 _atom_site_occupancy
  Pa  Pa0  1  0.864161  0.742365  0.127934  1
  Pa  Pa1  1  0.111851  0.374082  0.246953  1
  Pa  Pa2  1  0.627947  0.242329  0.364180  1
  Pa  Pa3  1  0.746919  0.874053  0.611800  1
  Pa  Pa4  1  0.388640  0.135170  0.762527  1
  Pa  Pa5  1  0.262510  0.635166  0.888657  1
  Co  Co6  1  0.748729  0.372654  0.123300  1
  Co  Co7  1  0.623243  0.872581  0.248703  1
  Cu  Cu8  1  0.249986  0.124674  0.375398  1
  Cu  Cu9  1  0.375086  0.751048  0.625350  1
  Cu  Cu10  1  0.875324  0.624887  0.750001  1
  Cu  Cu11  1  0.125394  0.250820  0.875054  1
  Ge  Ge12  1  0.164040  0.999780  0.999885  1
  Ge  Ge13  1  0.672731  0.000686  0.001187  1
  Ge  Ge14  1  0.501157  0.500638  0.172710  1
  Ge  Ge15  1  0.333224  0.832857  0.332022  1
  Ge  Ge16  1  0.997819  0.666816  0.499365  1
  Ge  Ge17  1  0.999344  0.166787  0.497733  1
  Ge  Ge18  1  0.499847  0.499769  0.664022  1
  Ge  Ge19  1  0.832053  0.332839  0.833220  1
