# generated using pymatgen
data_Nd12FeCoI17
_symmetry_space_group_name_H-M   'P 1'
_cell_length_a   9.98645342
_cell_length_b   11.94525275
_cell_length_c   11.99249222
_cell_angle_alpha   93.35159810
_cell_angle_beta   104.88497672
_cell_angle_gamma   114.56215064
_symmetry_Int_Tables_number   1
_chemical_formula_structural   Nd12FeCoI17
_chemical_formula_sum   'Nd12 Fe1 Co1 I17'
_cell_volume   1235.05813052
_cell_formula_units_Z   1
loop_
 _symmetry_equiv_pos_site_id
 _symmetry_equiv_pos_as_xyz
  1  'x, y, z'
loop_
 _atom_site_type_symbol
 _atom_site_label
 _atom_site_symmetry_multiplicity
 _atom_site_fract_x
 _atom_site_fract_y
 _atom_site_fract_z
 _atom_site_occupancy
  Nd  Nd0  1  0.055190  0.507083  0.321442  1
  Nd  Nd1  1  0.990872  0.810399  0.583257  1
  Nd  Nd2  1  0.648310  0.240858  0.283048  1
  Nd  Nd3  1  0.008622  0.190342  0.414288  1
  Nd  Nd4  1  0.222209  0.670339  0.987365  1
  Nd  Nd5  1  0.258779  0.983785  0.891578  1
  Nd  Nd6  1  0.352999  0.759140  0.716452  1
  Nd  Nd7  1  0.943338  0.491017  0.677735  1
  Nd  Nd8  1  0.742548  0.017746  0.109575  1
  Nd  Nd9  1  0.148184  0.286916  0.152464  1
  Nd  Nd10  1  0.778645  0.329317  0.013874  1
  Nd  Nd11  1  0.850702  0.712583  0.848398  1
  Fe  Fe12  1  0.895608  0.261774  0.214174  1
  Co  Co13  1  0.104102  0.738309  0.785330  1
  I  I14  1  0.783952  0.529436  0.418009  1
  I  I15  1  0.640528  0.418655  0.758046  1
  I  I16  1  0.842471  0.892890  0.325003  1
  I  I17  1  0.326094  0.212086  0.370693  1
  I  I18  1  0.157725  0.105709  0.676318  1
  I  I19  1  0.587362  0.052889  0.841959  1
  I  I20  1  0.754533  0.183367  0.538946  1
  I  I21  1  0.548735  0.706092  0.952955  1
  I  I22  1  0.359898  0.582539  0.240900  1
  I  I23  1  0.215990  0.471008  0.583504  1
  I  I24  1  0.055781  0.367188  0.896038  1
  I  I25  1  0.450473  0.292337  0.045755  1
  I  I26  1  0.000098  0.999597  0.999466  1
  I  I27  1  0.246376  0.818022  0.462588  1
  I  I28  1  0.410493  0.946266  0.157151  1
  I  I29  1  0.673745  0.788122  0.630036  1
  I  I30  1  0.945639  0.634191  0.103655  1
