# generated using pymatgen
data_DyTm9CuIrPb6
_symmetry_space_group_name_H-M   'P 1'
_cell_length_a   9.10113200
_cell_length_b   9.10113342
_cell_length_c   6.67904800
_cell_angle_alpha   90.00000000
_cell_angle_beta   90.00000000
_cell_angle_gamma   120.00000938
_symmetry_Int_Tables_number   1
_chemical_formula_structural   DyTm9CuIrPb6
_chemical_formula_sum   'Dy1 Tm9 Cu1 Ir1 Pb6'
_cell_volume   479.11089802
_cell_formula_units_Z   1
loop_
 _symmetry_equiv_pos_site_id
 _symmetry_equiv_pos_as_xyz
  1  'x, y, z'
loop_
 _atom_site_type_symbol
 _atom_site_label
 _atom_site_symmetry_multiplicity
 _atom_site_fract_x
 _atom_site_fract_y
 _atom_site_fract_z
 _atom_site_occupancy
  Dy  Dy0  1  0.333333  0.666667  0.500000  1
  Tm  Tm1  1  0.243865  0.000086  0.238075  1
  Tm  Tm2  1  0.756221  0.000086  0.761925  1
  Tm  Tm3  1  0.999914  0.243779  0.238075  1
  Tm  Tm4  1  0.999914  0.756135  0.761925  1
  Tm  Tm5  1  0.756221  0.756135  0.238075  1
  Tm  Tm6  1  0.243865  0.243779  0.761925  1
  Tm  Tm7  1  0.333333  0.666667  0.000000  1
  Tm  Tm8  1  0.666667  0.333333  0.000000  1
  Tm  Tm9  1  0.666667  0.333333  0.500000  1
  Cu  Cu10  1  0.000000  0.000000  0.500000  1
  Ir  Ir11  1  0.000000  0.000000  0.000000  1
  Pb  Pb12  1  0.602559  0.000576  0.253151  1
  Pb  Pb13  1  0.398016  0.000576  0.746849  1
  Pb  Pb14  1  0.999424  0.601984  0.253151  1
  Pb  Pb15  1  0.999424  0.397441  0.746849  1
  Pb  Pb16  1  0.398016  0.397441  0.253151  1
  Pb  Pb17  1  0.602559  0.601984  0.746849  1
