# generated using pymatgen
data_Ta12Mo5Ru6W
_symmetry_space_group_name_H-M   'P 1'
_cell_length_a   4.52353200
_cell_length_b   6.39729500
_cell_length_c   13.60895900
_cell_angle_alpha   90.00000000
_cell_angle_beta   90.00002530
_cell_angle_gamma   90.00000000
_symmetry_Int_Tables_number   1
_chemical_formula_structural   Ta12Mo5Ru6W
_chemical_formula_sum   'Ta12 Mo5 Ru6 W1'
_cell_volume   393.82107243
_cell_formula_units_Z   1
loop_
 _symmetry_equiv_pos_site_id
 _symmetry_equiv_pos_as_xyz
  1  'x, y, z'
loop_
 _atom_site_type_symbol
 _atom_site_label
 _atom_site_symmetry_multiplicity
 _atom_site_fract_x
 _atom_site_fract_y
 _atom_site_fract_z
 _atom_site_occupancy
  Ta  Ta0  1  0.500000  0.249595  0.000000  1
  Ta  Ta1  1  0.500000  0.750405  0.000000  1
  Ta  Ta2  1  0.999993  0.249806  0.166747  1
  Ta  Ta3  1  0.999993  0.750194  0.166747  1
  Ta  Ta4  1  0.499978  0.249902  0.333319  1
  Ta  Ta5  1  0.499978  0.750099  0.333319  1
  Ta  Ta6  1  0.000000  0.250027  0.500000  1
  Ta  Ta7  1  0.000000  0.749973  0.500000  1
  Ta  Ta8  1  0.500022  0.249902  0.666681  1
  Ta  Ta9  1  0.500022  0.750099  0.666681  1
  Ta  Ta10  1  0.000007  0.249806  0.833253  1
  Ta  Ta11  1  0.000007  0.750194  0.833253  1
  Mo  Mo12  1  0.499982  0.000000  0.166775  1
  Mo  Mo13  1  0.999991  0.500000  0.333325  1
  Mo  Mo14  1  0.500000  0.000000  0.500000  1
  Mo  Mo15  1  0.000009  0.500000  0.666675  1
  Mo  Mo16  1  0.500018  0.000000  0.833225  1
  Ru  Ru17  1  0.000000  0.000000  0.000000  1
  Ru  Ru18  1  0.499978  0.500000  0.166839  1
  Ru  Ru19  1  0.999993  0.000000  0.333424  1
  Ru  Ru20  1  0.500000  0.500000  0.500000  1
  Ru  Ru21  1  0.000007  0.000000  0.666576  1
  Ru  Ru22  1  0.500022  0.500000  0.833161  1
  W  W23  1  0.000000  0.500000  0.000000  1
