# generated using pymatgen
data_Nd3Er3Al17Si7Os8
_symmetry_space_group_name_H-M   'P 1'
_cell_length_a   8.73044803
_cell_length_b   8.71444030
_cell_length_c   9.54531300
_cell_angle_alpha   90.00000000
_cell_angle_beta   90.00000000
_cell_angle_gamma   120.12301354
_symmetry_Int_Tables_number   1
_chemical_formula_structural   Nd3Er3Al17Si7Os8
_chemical_formula_sum   'Nd3 Er3 Al17 Si7 Os8'
_cell_volume   628.14103180
_cell_formula_units_Z   1
loop_
 _symmetry_equiv_pos_site_id
 _symmetry_equiv_pos_as_xyz
  1  'x, y, z'
loop_
 _atom_site_type_symbol
 _atom_site_label
 _atom_site_symmetry_multiplicity
 _atom_site_fract_x
 _atom_site_fract_y
 _atom_site_fract_z
 _atom_site_occupancy
  Nd  Nd0  1  0.809678  0.618939  0.750000  1
  Nd  Nd1  1  0.382653  0.188689  0.750000  1
  Nd  Nd2  1  0.805372  0.189696  0.750000  1
  Er  Er3  1  0.193485  0.389526  0.250000  1
  Er  Er4  1  0.609528  0.806451  0.250000  1
  Er  Er5  1  0.196541  0.804461  0.250000  1
  Al  Al6  1  0.165330  0.331541  0.573933  1
  Al  Al7  1  0.834588  0.671989  0.418973  1
  Al  Al8  1  0.669607  0.834186  0.573297  1
  Al  Al9  1  0.834588  0.671989  0.081027  1
  Al  Al10  1  0.328760  0.165503  0.420166  1
  Al  Al11  1  0.165330  0.331541  0.926067  1
  Al  Al12  1  0.164510  0.833487  0.572054  1
  Al  Al13  1  0.328760  0.165503  0.079834  1
  Al  Al14  1  0.835880  0.163620  0.419633  1
  Al  Al15  1  0.669607  0.834186  0.926703  1
  Al  Al16  1  0.835880  0.163620  0.080367  1
  Al  Al17  1  0.164510  0.833487  0.927946  1
  Al  Al18  1  0.128679  0.567401  0.750000  1
  Al  Al19  1  0.564202  0.435364  0.250000  1
  Al  Al20  1  0.437961  0.567874  0.750000  1
  Al  Al21  1  0.999689  0.999232  0.250000  1
  Al  Al22  1  0.999665  0.001128  0.750000  1
  Si  Si23  1  0.333439  0.664644  0.041680  1
  Si  Si24  1  0.666299  0.335834  0.966713  1
  Si  Si25  1  0.666299  0.335834  0.533287  1
  Si  Si26  1  0.333439  0.664644  0.458320  1
  Si  Si27  1  0.564496  0.123404  0.250000  1
  Si  Si28  1  0.434903  0.870081  0.750000  1
  Si  Si29  1  0.875589  0.434960  0.250000  1
  Os  Os30  1  0.499849  0.998922  0.004895  1
  Os  Os31  1  0.000253  0.500200  0.009921  1
  Os  Os32  1  0.499849  0.998922  0.495105  1
  Os  Os33  1  0.499675  0.501059  0.003379  1
  Os  Os34  1  0.000253  0.500200  0.490079  1
  Os  Os35  1  0.499675  0.501059  0.496621  1
  Os  Os36  1  0.000588  0.000413  0.000440  1
  Os  Os37  1  0.000588  0.000413  0.499560  1
