# generated using pymatgen
data_CeHf4N5
_symmetry_space_group_name_H-M   'P 1'
_cell_length_a   13.74616902
_cell_length_b   13.74616896
_cell_length_c   13.74616978
_cell_angle_alpha   13.54835973
_cell_angle_beta   13.54836143
_cell_angle_gamma   13.54835856
_symmetry_Int_Tables_number   1
_chemical_formula_structural   CeHf4N5
_chemical_formula_sum   'Ce1 Hf4 N5'
_cell_volume   124.02608347
_cell_formula_units_Z   1
loop_
 _symmetry_equiv_pos_site_id
 _symmetry_equiv_pos_as_xyz
  1  'x, y, z'
loop_
 _atom_site_type_symbol
 _atom_site_label
 _atom_site_symmetry_multiplicity
 _atom_site_fract_x
 _atom_site_fract_y
 _atom_site_fract_z
 _atom_site_occupancy
  Ce  Ce0  1  0.000000  0.000000  0.000000  1
  Hf  Hf1  1  0.596698  0.596698  0.596698  1
  Hf  Hf2  1  0.198062  0.198062  0.198062  1
  Hf  Hf3  1  0.801938  0.801938  0.801938  1
  Hf  Hf4  1  0.403302  0.403302  0.403302  1
  N  N5  1  0.708321  0.708321  0.708321  1
  N  N6  1  0.500000  0.500000  0.500000  1
  N  N7  1  0.103065  0.103065  0.103065  1
  N  N8  1  0.291679  0.291679  0.291679  1
  N  N9  1  0.896935  0.896935  0.896935  1
