# generated using pymatgen
data_Dy8CdHgIrPt
_symmetry_space_group_name_H-M   'P 1'
_cell_length_a   9.65263593
_cell_length_b   9.65263574
_cell_length_c   9.62866200
_cell_angle_alpha   60.08213128
_cell_angle_beta   60.08213192
_cell_angle_gamma   60.27209369
_symmetry_Int_Tables_number   1
_chemical_formula_structural   Dy8CdHgIrPt
_chemical_formula_sum   'Dy16 Cd2 Hg2 Ir2 Pt2'
_cell_volume   636.45564976
_cell_formula_units_Z   2
loop_
 _symmetry_equiv_pos_site_id
 _symmetry_equiv_pos_as_xyz
  1  'x, y, z'
loop_
 _atom_site_type_symbol
 _atom_site_label
 _atom_site_symmetry_multiplicity
 _atom_site_fract_x
 _atom_site_fract_y
 _atom_site_fract_z
 _atom_site_occupancy
  Dy  Dy0  1  0.601085  0.601085  0.596551  1
  Dy  Dy1  1  0.601085  0.601085  0.201279  1
  Dy  Dy2  1  0.607693  0.190284  0.601012  1
  Dy  Dy3  1  0.190284  0.607693  0.601012  1
  Dy  Dy4  1  0.056537  0.440072  0.440931  1
  Dy  Dy5  1  0.440072  0.056537  0.062461  1
  Dy  Dy6  1  0.440072  0.056537  0.440931  1
  Dy  Dy7  1  0.056537  0.440072  0.062461  1
  Dy  Dy8  1  0.440814  0.440814  0.059186  1
  Dy  Dy9  1  0.060367  0.060367  0.439633  1
  Dy  Dy10  1  0.187040  0.814358  0.811786  1
  Dy  Dy11  1  0.814358  0.187040  0.186816  1
  Dy  Dy12  1  0.814358  0.187040  0.811786  1
  Dy  Dy13  1  0.187040  0.814358  0.186816  1
  Dy  Dy14  1  0.812746  0.812746  0.187254  1
  Dy  Dy15  1  0.186991  0.186991  0.813009  1
  Cd  Cd16  1  0.829868  0.506426  0.831853  1
  Cd  Cd17  1  0.506426  0.829868  0.831853  1
  Hg  Hg18  1  0.834586  0.834586  0.837423  1
  Hg  Hg19  1  0.834586  0.834586  0.493405  1
  Ir  Ir20  1  0.390592  0.822733  0.393338  1
  Ir  Ir21  1  0.822733  0.390592  0.393338  1
  Pt  Pt22  1  0.392065  0.392065  0.395746  1
  Pt  Pt23  1  0.392065  0.392065  0.820122  1
