# generated using pymatgen
data_YbYRe7Si4W
_symmetry_space_group_name_H-M   'P 1'
_cell_length_a   7.08427472
_cell_length_b   7.71745241
_cell_length_c   4.19729400
_cell_angle_alpha   90.00000000
_cell_angle_beta   90.00000000
_cell_angle_gamma   90.34636941
_symmetry_Int_Tables_number   1
_chemical_formula_structural   YbYRe7Si4W
_chemical_formula_sum   'Yb1 Y1 Re7 Si4 W1'
_cell_volume   229.47258581
_cell_formula_units_Z   1
loop_
 _symmetry_equiv_pos_site_id
 _symmetry_equiv_pos_as_xyz
  1  'x, y, z'
loop_
 _atom_site_type_symbol
 _atom_site_label
 _atom_site_symmetry_multiplicity
 _atom_site_fract_x
 _atom_site_fract_y
 _atom_site_fract_z
 _atom_site_occupancy
  Yb  Yb0  1  0.499977  0.497841  0.000000  1
  Y  Y1  1  0.998533  0.000111  0.500000  1
  Re  Re2  1  0.156877  0.606785  0.500000  1
  Re  Re3  1  0.083660  0.340255  0.000000  1
  Re  Re4  1  0.919838  0.658179  0.000000  1
  Re  Re5  1  0.416529  0.841946  0.500000  1
  Re  Re6  1  0.584269  0.162578  0.500000  1
  Re  Re7  1  0.342276  0.110252  0.000000  1
  Re  Re8  1  0.845643  0.391895  0.500000  1
  Si  Si9  1  0.225640  0.808619  0.000000  1
  Si  Si10  1  0.776398  0.195133  0.000000  1
  Si  Si11  1  0.721819  0.687305  0.500000  1
  Si  Si12  1  0.277803  0.308411  0.500000  1
  W  W13  1  0.650741  0.890690  0.000000  1
