# generated using pymatgen
data_Dy12InCo6
_symmetry_space_group_name_H-M   'P 1'
_cell_length_a   8.32927086
_cell_length_b   8.32781035
_cell_length_c   8.32781094
_cell_angle_alpha   109.43473785
_cell_angle_beta   109.48303633
_cell_angle_gamma   109.48878892
_symmetry_Int_Tables_number   1
_chemical_formula_structural   Dy12InCo6
_chemical_formula_sum   'Dy12 In1 Co6'
_cell_volume   444.71802528
_cell_formula_units_Z   1
loop_
 _symmetry_equiv_pos_site_id
 _symmetry_equiv_pos_as_xyz
  1  'x, y, z'
loop_
 _atom_site_type_symbol
 _atom_site_label
 _atom_site_symmetry_multiplicity
 _atom_site_fract_x
 _atom_site_fract_y
 _atom_site_fract_z
 _atom_site_occupancy
  Dy  Dy0  1  0.108478  0.806497  0.301981  1
  Dy  Dy1  1  0.891522  0.193503  0.698019  1
  Dy  Dy2  1  0.806645  0.697645  0.504923  1
  Dy  Dy3  1  0.193355  0.302355  0.495077  1
  Dy  Dy4  1  0.193355  0.698277  0.891000  1
  Dy  Dy5  1  0.806645  0.301723  0.109000  1
  Dy  Dy6  1  0.697317  0.503770  0.806387  1
  Dy  Dy7  1  0.302683  0.496230  0.193613  1
  Dy  Dy8  1  0.697317  0.890932  0.193547  1
  Dy  Dy9  1  0.302683  0.109068  0.806453  1
  Dy  Dy10  1  0.504589  0.806467  0.698122  1
  Dy  Dy11  1  0.495411  0.193533  0.301878  1
  In  In12  1  0.000000  0.000000  0.000000  1
  Co  Co13  1  0.886609  0.386424  0.500184  1
  Co  Co14  1  0.113391  0.613576  0.499816  1
  Co  Co15  1  0.387803  0.501538  0.886265  1
  Co  Co16  1  0.612197  0.498462  0.113735  1
  Co  Co17  1  0.500000  0.886596  0.386596  1
  Co  Co18  1  0.500000  0.113404  0.613404  1
