# generated using pymatgen
data_Ho9ErOs4
_symmetry_space_group_name_H-M   'P 1'
_cell_length_a   6.32335738
_cell_length_b   7.34218308
_cell_length_c   8.39318636
_cell_angle_alpha   96.91479109
_cell_angle_beta   112.12916122
_cell_angle_gamma   90.00000480
_symmetry_Int_Tables_number   1
_chemical_formula_structural   Ho9ErOs4
_chemical_formula_sum   'Ho9 Er1 Os4'
_cell_volume   357.90649274
_cell_formula_units_Z   1
loop_
 _symmetry_equiv_pos_site_id
 _symmetry_equiv_pos_as_xyz
  1  'x, y, z'
loop_
 _atom_site_type_symbol
 _atom_site_label
 _atom_site_symmetry_multiplicity
 _atom_site_fract_x
 _atom_site_fract_y
 _atom_site_fract_z
 _atom_site_occupancy
  Ho  Ho0  1  0.792383  0.583931  0.816120  1
  Ho  Ho1  1  0.976263  0.916069  0.183880  1
  Ho  Ho2  1  0.207566  0.415887  0.183837  1
  Ho  Ho3  1  0.023729  0.084113  0.816163  1
  Ho  Ho4  1  0.204062  0.683644  0.564352  1
  Ho  Ho5  1  0.639710  0.816356  0.435648  1
  Ho  Ho6  1  0.795914  0.316293  0.435540  1
  Ho  Ho7  1  0.360374  0.183707  0.564460  1
  Ho  Ho8  1  0.420384  0.750000  0.000000  1
  Er  Er9  1  0.579275  0.250000  0.000000  1
  Os  Os10  1  0.602452  0.923157  0.780449  1
  Os  Os11  1  0.822004  0.576843  0.219551  1
  Os  Os12  1  0.397730  0.077221  0.219577  1
  Os  Os13  1  0.178153  0.422779  0.780423  1
