# generated using pymatgen
data_Th2SiNi16H3
_symmetry_space_group_name_H-M   'P 1'
_cell_length_a   6.30617858
_cell_length_b   6.30617789
_cell_length_c   6.32246006
_cell_angle_alpha   84.52954292
_cell_angle_beta   84.52953558
_cell_angle_gamma   83.08272615
_symmetry_Int_Tables_number   1
_chemical_formula_structural   Th2SiNi16H3
_chemical_formula_sum   'Th2 Si1 Ni16 H3'
_cell_volume   247.56782438
_cell_formula_units_Z   1
loop_
 _symmetry_equiv_pos_site_id
 _symmetry_equiv_pos_as_xyz
  1  'x, y, z'
loop_
 _atom_site_type_symbol
 _atom_site_label
 _atom_site_symmetry_multiplicity
 _atom_site_fract_x
 _atom_site_fract_y
 _atom_site_fract_z
 _atom_site_occupancy
  Th  Th0  1  0.656373  0.656373  0.665045  1
  Th  Th1  1  0.343627  0.343627  0.334955  1
  Si  Si2  1  0.000000  0.000000  0.500000  1
  Ni  Ni3  1  0.500000  0.000000  0.000000  1
  Ni  Ni4  1  0.000000  0.500000  0.000000  1
  Ni  Ni5  1  0.713069  0.286931  0.000000  1
  Ni  Ni6  1  0.001239  0.712909  0.291047  1
  Ni  Ni7  1  0.287091  0.998761  0.708953  1
  Ni  Ni8  1  0.998761  0.287091  0.708953  1
  Ni  Ni9  1  0.712909  0.001239  0.291047  1
  Ni  Ni10  1  0.286931  0.713069  0.000000  1
  Ni  Ni11  1  0.345834  0.345834  0.848185  1
  Ni  Ni12  1  0.856214  0.344461  0.344905  1
  Ni  Ni13  1  0.344461  0.856214  0.344905  1
  Ni  Ni14  1  0.654166  0.654166  0.151815  1
  Ni  Ni15  1  0.143786  0.655539  0.655095  1
  Ni  Ni16  1  0.655539  0.143786  0.655095  1
  Ni  Ni17  1  0.898079  0.898079  0.901802  1
  Ni  Ni18  1  0.101921  0.101921  0.098198  1
  H  H19  1  0.500000  0.500000  0.000000  1
  H  H20  1  0.000000  0.500000  0.500000  1
  H  H21  1  0.500000  0.000000  0.500000  1
