# generated using pymatgen
data_NdDy2Ho3Ta2O14
_symmetry_space_group_name_H-M   'P 1'
_cell_length_a   6.50020984
_cell_length_b   6.49846666
_cell_length_c   7.51541905
_cell_angle_alpha   89.89880734
_cell_angle_beta   90.11187600
_cell_angle_gamma   108.68138318
_symmetry_Int_Tables_number   1
_chemical_formula_structural   NdDy2Ho3Ta2O14
_chemical_formula_sum   'Nd1 Dy2 Ho3 Ta2 O14'
_cell_volume   300.73534345
_cell_formula_units_Z   1
loop_
 _symmetry_equiv_pos_site_id
 _symmetry_equiv_pos_as_xyz
  1  'x, y, z'
loop_
 _atom_site_type_symbol
 _atom_site_label
 _atom_site_symmetry_multiplicity
 _atom_site_fract_x
 _atom_site_fract_y
 _atom_site_fract_z
 _atom_site_occupancy
  Nd  Nd0  1  0.520755  0.520792  0.500044  1
  Dy  Dy1  1  0.460231  0.460225  0.999965  1
  Dy  Dy2  1  0.999596  0.535026  0.239242  1
  Ho  Ho3  1  0.998806  0.465607  0.744656  1
  Ho  Ho4  1  0.534743  0.000007  0.760777  1
  Ho  Ho5  1  0.465685  0.998850  0.255332  1
  Ta  Ta6  1  0.001738  0.001691  0.500088  1
  Ta  Ta7  1  0.997228  0.997277  0.999914  1
  O  O8  1  0.932149  0.068139  0.749675  1
  O  O9  1  0.068199  0.932469  0.250315  1
  O  O10  1  0.358652  0.642766  0.240816  1
  O  O11  1  0.642597  0.357746  0.759182  1
  O  O12  1  0.366761  0.632187  0.759150  1
  O  O13  1  0.631329  0.366367  0.240877  1
  O  O14  1  0.327622  0.081354  0.975116  1
  O  O15  1  0.673515  0.924002  0.474236  1
  O  O16  1  0.312207  0.057057  0.543554  1
  O  O17  1  0.693000  0.952465  0.044205  1
  O  O18  1  0.057254  0.311933  0.456883  1
  O  O19  1  0.952399  0.693112  0.955458  1
  O  O20  1  0.923894  0.673601  0.526075  1
  O  O21  1  0.081641  0.327324  0.024440  1
