# generated using pymatgen
data_Ba2Hf3ZrF20
_symmetry_space_group_name_H-M   'P 1'
_cell_length_a   8.50273781
_cell_length_b   8.49939669
_cell_length_c   8.85479408
_cell_angle_alpha   84.07949775
_cell_angle_beta   84.08519051
_cell_angle_gamma   137.43344027
_symmetry_Int_Tables_number   1
_chemical_formula_structural   Ba2Hf3ZrF20
_chemical_formula_sum   'Ba2 Hf3 Zr1 F20'
_cell_volume   415.04279913
_cell_formula_units_Z   1
loop_
 _symmetry_equiv_pos_site_id
 _symmetry_equiv_pos_as_xyz
  1  'x, y, z'
loop_
 _atom_site_type_symbol
 _atom_site_label
 _atom_site_symmetry_multiplicity
 _atom_site_fract_x
 _atom_site_fract_y
 _atom_site_fract_z
 _atom_site_occupancy
  Ba  Ba0  1  0.428705  0.566854  0.752301  1
  Ba  Ba1  1  0.572197  0.431550  0.249660  1
  Hf  Hf2  1  0.344626  0.033478  0.902142  1
  Hf  Hf3  1  0.966845  0.656547  0.597974  1
  Hf  Hf4  1  0.655064  0.966217  0.096621  1
  Zr  Zr5  1  0.031561  0.341234  0.403370  1
  F  F6  1  0.137115  0.555737  0.574653  1
  F  F7  1  0.446255  0.864044  0.926168  1
  F  F8  1  0.862997  0.447675  0.427492  1
  F  F9  1  0.554604  0.136915  0.071314  1
  F  F10  1  0.695912  0.304375  0.749652  1
  F  F11  1  0.306190  0.699728  0.248212  1
  F  F12  1  0.198340  0.801658  0.750384  1
  F  F13  1  0.798208  0.197352  0.248127  1
  F  F14  1  0.966127  0.241328  0.938675  1
  F  F15  1  0.752799  0.027457  0.564960  1
  F  F16  1  0.034297  0.759170  0.060637  1
  F  F17  1  0.241218  0.966723  0.439373  1
  F  F18  1  0.258785  0.373564  0.500104  1
  F  F19  1  0.625359  0.743570  0.000633  1
  F  F20  1  0.744559  0.626915  0.501343  1
  F  F21  1  0.374961  0.256190  0.998920  1
  F  F22  1  0.296542  0.166257  0.741968  1
  F  F23  1  0.833693  0.703635  0.758635  1
  F  F24  1  0.703773  0.834328  0.257480  1
  F  F25  1  0.169267  0.297503  0.239201  1
