# generated using pymatgen
data_Ca4EuIr2
_symmetry_space_group_name_H-M   'P 1'
_cell_length_a   8.71323763
_cell_length_b   8.71323830
_cell_length_c   7.49096500
_cell_angle_alpha   82.91187539
_cell_angle_beta   82.91187484
_cell_angle_gamma   45.09585933
_symmetry_Int_Tables_number   1
_chemical_formula_structural   Ca4EuIr2
_chemical_formula_sum   'Ca8 Eu2 Ir4'
_cell_volume   399.20494814
_cell_formula_units_Z   2
loop_
 _symmetry_equiv_pos_site_id
 _symmetry_equiv_pos_as_xyz
  1  'x, y, z'
loop_
 _atom_site_type_symbol
 _atom_site_label
 _atom_site_symmetry_multiplicity
 _atom_site_fract_x
 _atom_site_fract_y
 _atom_site_fract_z
 _atom_site_occupancy
  Ca  Ca0  1  0.016383  0.807399  0.916457  1
  Ca  Ca1  1  0.192601  0.983617  0.583543  1
  Ca  Ca2  1  0.983617  0.192601  0.083543  1
  Ca  Ca3  1  0.807399  0.016383  0.416457  1
  Ca  Ca4  1  0.359416  0.202806  0.820608  1
  Ca  Ca5  1  0.797194  0.640584  0.679392  1
  Ca  Ca6  1  0.640584  0.797194  0.179392  1
  Ca  Ca7  1  0.202806  0.359416  0.320608  1
  Eu  Eu8  1  0.566781  0.433219  0.750000  1
  Eu  Eu9  1  0.433219  0.566781  0.250000  1
  Ir  Ir10  1  0.177857  0.602490  0.579611  1
  Ir  Ir11  1  0.397510  0.822143  0.920389  1
  Ir  Ir12  1  0.822143  0.397510  0.420389  1
  Ir  Ir13  1  0.602490  0.177857  0.079611  1
