# generated using pymatgen
data_PPb2Br
_symmetry_space_group_name_H-M   'P 1'
_cell_length_a   7.94427575
_cell_length_b   7.94427593
_cell_length_c   7.94427563
_cell_angle_alpha   31.45640500
_cell_angle_beta   31.45640512
_cell_angle_gamma   31.45639514
_symmetry_Int_Tables_number   1
_chemical_formula_structural   PPb2Br
_chemical_formula_sum   'P1 Pb2 Br1'
_cell_volume   121.21025608
_cell_formula_units_Z   1
loop_
 _symmetry_equiv_pos_site_id
 _symmetry_equiv_pos_as_xyz
  1  'x, y, z'
loop_
 _atom_site_type_symbol
 _atom_site_label
 _atom_site_symmetry_multiplicity
 _atom_site_fract_x
 _atom_site_fract_y
 _atom_site_fract_z
 _atom_site_occupancy
  P  P0  1  0.500000  0.500000  0.500000  1
  Pb  Pb1  1  0.234323  0.234323  0.234323  1
  Pb  Pb2  1  0.765677  0.765677  0.765677  1
  Br  Br3  1  0.000000  0.000000  0.000000  1
