# generated using pymatgen
data_Hf4Ta5TiOs2
_symmetry_space_group_name_H-M   'P 1'
_cell_length_a   5.57854015
_cell_length_b   5.57853933
_cell_length_c   8.51056200
_cell_angle_alpha   90.00000000
_cell_angle_beta   90.00000000
_cell_angle_gamma   119.97360717
_symmetry_Int_Tables_number   1
_chemical_formula_structural   Hf4Ta5TiOs2
_chemical_formula_sum   'Hf4 Ta5 Ti1 Os2'
_cell_volume   229.42744763
_cell_formula_units_Z   1
loop_
 _symmetry_equiv_pos_site_id
 _symmetry_equiv_pos_as_xyz
  1  'x, y, z'
loop_
 _atom_site_type_symbol
 _atom_site_label
 _atom_site_symmetry_multiplicity
 _atom_site_fract_x
 _atom_site_fract_y
 _atom_site_fract_z
 _atom_site_occupancy
  Hf  Hf0  1  0.334390  0.665610  0.438286  1
  Hf  Hf1  1  0.666768  0.333232  0.561130  1
  Hf  Hf2  1  0.666768  0.333232  0.938870  1
  Hf  Hf3  1  0.334390  0.665610  0.061714  1
  Ta  Ta4  1  0.830436  0.662621  0.250000  1
  Ta  Ta5  1  0.337379  0.169564  0.250000  1
  Ta  Ta6  1  0.168035  0.831965  0.750000  1
  Ta  Ta7  1  0.167545  0.337775  0.750000  1
  Ta  Ta8  1  0.662225  0.832455  0.750000  1
  Ti  Ti9  1  0.832343  0.167657  0.250000  1
  Os  Os10  1  0.999861  0.000139  0.498274  1
  Os  Os11  1  0.999861  0.000139  0.001726  1
