# generated using pymatgen
data_LaEr2WO7
_symmetry_space_group_name_H-M   'P 1'
_cell_length_a   6.49746044
_cell_length_b   6.49745957
_cell_length_c   7.59891700
_cell_angle_alpha   90.00000000
_cell_angle_beta   90.00000000
_cell_angle_gamma   108.79091157
_symmetry_Int_Tables_number   1
_chemical_formula_structural   LaEr2WO7
_chemical_formula_sum   'La2 Er4 W2 O14'
_cell_volume   303.70467425
_cell_formula_units_Z   2
loop_
 _symmetry_equiv_pos_site_id
 _symmetry_equiv_pos_as_xyz
  1  'x, y, z'
loop_
 _atom_site_type_symbol
 _atom_site_label
 _atom_site_symmetry_multiplicity
 _atom_site_fract_x
 _atom_site_fract_y
 _atom_site_fract_z
 _atom_site_occupancy
  La  La0  1  0.500000  0.500000  0.500000  1
  La  La1  1  0.500000  0.500000  0.000000  1
  Er  Er2  1  0.532399  0.001983  0.750000  1
  Er  Er3  1  0.001983  0.532399  0.250000  1
  Er  Er4  1  0.467601  0.998017  0.250000  1
  Er  Er5  1  0.998017  0.467601  0.750000  1
  W  W6  1  0.000000  0.000000  0.500000  1
  W  W7  1  0.000000  0.000000  0.000000  1
  O  O8  1  0.678973  0.931268  0.469981  1
  O  O9  1  0.931268  0.678973  0.530019  1
  O  O10  1  0.678973  0.931268  0.030019  1
  O  O11  1  0.931268  0.678973  0.969981  1
  O  O12  1  0.321027  0.068732  0.530019  1
  O  O13  1  0.068732  0.321027  0.469981  1
  O  O14  1  0.321027  0.068732  0.969981  1
  O  O15  1  0.068732  0.321027  0.030019  1
  O  O16  1  0.928079  0.071921  0.750000  1
  O  O17  1  0.071921  0.928079  0.250000  1
  O  O18  1  0.359891  0.640108  0.750000  1
  O  O19  1  0.640108  0.359891  0.250000  1
  O  O20  1  0.645377  0.354623  0.750000  1
  O  O21  1  0.354623  0.645377  0.250000  1
