# generated using pymatgen
data_KRbZr12(BI14)2
_symmetry_space_group_name_H-M   'P 1'
_cell_length_a   11.18191015
_cell_length_b   11.18190951
_cell_length_c   12.98545693
_cell_angle_alpha   89.90048765
_cell_angle_beta   89.90048898
_cell_angle_gamma   93.21073803
_symmetry_Int_Tables_number   1
_chemical_formula_structural   KRbZr12(BI14)2
_chemical_formula_sum   'K1 Rb1 Zr12 B2 I28'
_cell_volume   1621.08417359
_cell_formula_units_Z   1
loop_
 _symmetry_equiv_pos_site_id
 _symmetry_equiv_pos_as_xyz
  1  'x, y, z'
loop_
 _atom_site_type_symbol
 _atom_site_label
 _atom_site_symmetry_multiplicity
 _atom_site_fract_x
 _atom_site_fract_y
 _atom_site_fract_z
 _atom_site_occupancy
  K  K0  1  0.000000  0.000000  0.500000  1
  Rb  Rb1  1  0.500000  0.500000  0.000000  1
  Zr  Zr2  1  0.372497  0.372497  0.403395  1
  Zr  Zr3  1  0.627503  0.627503  0.596605  1
  Zr  Zr4  1  0.127843  0.127843  0.902765  1
  Zr  Zr5  1  0.872157  0.872157  0.097235  1
  Zr  Zr6  1  0.955265  0.164997  0.110395  1
  Zr  Zr7  1  0.044735  0.835003  0.889605  1
  Zr  Zr8  1  0.544867  0.334132  0.610144  1
  Zr  Zr9  1  0.665868  0.455133  0.389856  1
  Zr  Zr10  1  0.455133  0.665868  0.389856  1
  Zr  Zr11  1  0.334132  0.544867  0.610144  1
  Zr  Zr12  1  0.835003  0.044735  0.889605  1
  Zr  Zr13  1  0.164997  0.955265  0.110395  1
  B  B14  1  0.000000  0.000000  0.000000  1
  B  B15  1  0.500000  0.500000  0.500000  1
  I  I16  1  0.105338  0.352271  0.008842  1
  I  I17  1  0.894662  0.647729  0.991158  1
  I  I18  1  0.394952  0.147315  0.508597  1
  I  I19  1  0.852685  0.605048  0.491403  1
  I  I20  1  0.605048  0.852685  0.491403  1
  I  I21  1  0.147315  0.394952  0.508597  1
  I  I22  1  0.647729  0.894662  0.991158  1
  I  I23  1  0.352271  0.105338  0.008842  1
  I  I24  1  0.752700  0.247300  0.000000  1
  I  I25  1  0.247300  0.752700  0.000000  1
  I  I26  1  0.747882  0.252118  0.500000  1
  I  I27  1  0.252118  0.747882  0.500000  1
  I  I28  1  0.891830  0.391987  0.249626  1
  I  I29  1  0.108170  0.608013  0.750374  1
  I  I30  1  0.608013  0.108170  0.750374  1
  I  I31  1  0.391987  0.891830  0.249626  1
  I  I32  1  0.146218  0.146218  0.265835  1
  I  I33  1  0.853782  0.853782  0.734165  1
  I  I34  1  0.351106  0.351106  0.763511  1
  I  I35  1  0.648894  0.648894  0.236489  1
  I  I36  1  0.290676  0.535818  0.248516  1
  I  I37  1  0.709324  0.464182  0.751484  1
  I  I38  1  0.209413  0.964985  0.747501  1
  I  I39  1  0.035015  0.790587  0.252499  1
  I  I40  1  0.790587  0.035015  0.252499  1
  I  I41  1  0.964985  0.209413  0.747501  1
  I  I42  1  0.464182  0.709324  0.751484  1
  I  I43  1  0.535818  0.290676  0.248516  1
