# generated using pymatgen
data_CrIrPtO6
_symmetry_space_group_name_H-M   'P 1'
_cell_length_a   4.59250800
_cell_length_b   9.18319000
_cell_length_c   9.38711500
_cell_angle_alpha   90.00000000
_cell_angle_beta   90.00000000
_cell_angle_gamma   90.00000000
_symmetry_Int_Tables_number   1
_chemical_formula_structural   CrIrPtO6
_chemical_formula_sum   'Cr4 Ir4 Pt4 O24'
_cell_volume   395.89100092
_cell_formula_units_Z   4
loop_
 _symmetry_equiv_pos_site_id
 _symmetry_equiv_pos_as_xyz
  1  'x, y, z'
loop_
 _atom_site_type_symbol
 _atom_site_label
 _atom_site_symmetry_multiplicity
 _atom_site_fract_x
 _atom_site_fract_y
 _atom_site_fract_z
 _atom_site_occupancy
  Cr  Cr0  1  0.000000  0.500000  0.000150  1
  Cr  Cr1  1  0.500000  0.750000  0.500150  1
  Cr  Cr2  1  0.000000  0.000000  0.000150  1
  Cr  Cr3  1  0.500000  0.250000  0.500150  1
  Ir  Ir4  1  0.500000  0.250000  0.168004  1
  Ir  Ir5  1  0.500000  0.750000  0.168004  1
  Ir  Ir6  1  0.000000  0.000000  0.668004  1
  Ir  Ir7  1  0.000000  0.500000  0.668004  1
  Pt  Pt8  1  0.000000  0.000000  0.332059  1
  Pt  Pt9  1  0.000000  0.500000  0.332059  1
  Pt  Pt10  1  0.500000  0.250000  0.832059  1
  Pt  Pt11  1  0.500000  0.750000  0.832059  1
  O  O12  1  0.307183  0.153513  0.002259  1
  O  O13  1  0.307183  0.653513  0.002259  1
  O  O14  1  0.192817  0.403513  0.502259  1
  O  O15  1  0.192817  0.903513  0.502259  1
  O  O16  1  0.807183  0.096487  0.502259  1
  O  O17  1  0.807183  0.596487  0.502259  1
  O  O18  1  0.692817  0.346487  0.002259  1
  O  O19  1  0.692817  0.846487  0.002259  1
  O  O20  1  0.309601  0.154827  0.334469  1
  O  O21  1  0.309601  0.654827  0.334469  1
  O  O22  1  0.190399  0.404827  0.834469  1
  O  O23  1  0.190399  0.904827  0.834469  1
  O  O24  1  0.809601  0.095173  0.834469  1
  O  O25  1  0.809601  0.595173  0.834469  1
  O  O26  1  0.803027  0.098492  0.163165  1
  O  O27  1  0.803027  0.598492  0.163165  1
  O  O28  1  0.196973  0.401508  0.163165  1
  O  O29  1  0.196973  0.901508  0.163165  1
  O  O30  1  0.690399  0.345173  0.334469  1
  O  O31  1  0.690399  0.845173  0.334469  1
  O  O32  1  0.303027  0.151508  0.663165  1
  O  O33  1  0.303027  0.651508  0.663165  1
  O  O34  1  0.696973  0.348492  0.663165  1
  O  O35  1  0.696973  0.848492  0.663165  1
