# generated using pymatgen
data_Er12Tc2IrPd
_symmetry_space_group_name_H-M   'P 1'
_cell_length_a   6.34628615
_cell_length_b   7.27471509
_cell_length_c   9.08645400
_cell_angle_alpha   90.00000000
_cell_angle_beta   90.00000000
_cell_angle_gamma   90.15608429
_symmetry_Int_Tables_number   1
_chemical_formula_structural   Er12Tc2IrPd
_chemical_formula_sum   'Er12 Tc2 Ir1 Pd1'
_cell_volume   419.49661428
_cell_formula_units_Z   1
loop_
 _symmetry_equiv_pos_site_id
 _symmetry_equiv_pos_as_xyz
  1  'x, y, z'
loop_
 _atom_site_type_symbol
 _atom_site_label
 _atom_site_symmetry_multiplicity
 _atom_site_fract_x
 _atom_site_fract_y
 _atom_site_fract_z
 _atom_site_occupancy
  Er  Er0  1  0.334488  0.673055  0.060793  1
  Er  Er1  1  0.170377  0.183934  0.441911  1
  Er  Er2  1  0.669735  0.320186  0.561575  1
  Er  Er3  1  0.824940  0.822145  0.932573  1
  Er  Er4  1  0.669735  0.320186  0.938425  1
  Er  Er5  1  0.824940  0.822145  0.567427  1
  Er  Er6  1  0.334488  0.673055  0.439207  1
  Er  Er7  1  0.170377  0.183934  0.058089  1
  Er  Er8  1  0.871892  0.534453  0.250000  1
  Er  Er9  1  0.623591  0.039026  0.250000  1
  Er  Er10  1  0.128327  0.462185  0.750000  1
  Er  Er11  1  0.369074  0.961901  0.750000  1
  Tc  Tc12  1  0.462735  0.387915  0.250000  1
  Tc  Tc13  1  0.963357  0.111871  0.750000  1
  Ir  Ir14  1  0.536805  0.614852  0.750000  1
  Pd  Pd15  1  0.045134  0.889157  0.250000  1
