# generated using pymatgen
data_CaZr2AgF11
_symmetry_space_group_name_H-M   'P 1'
_cell_length_a   6.03195045
_cell_length_b   6.03194930
_cell_length_c   8.01865374
_cell_angle_alpha   69.75142139
_cell_angle_beta   69.75142278
_cell_angle_gamma   73.42921397
_symmetry_Int_Tables_number   1
_chemical_formula_structural   CaZr2AgF11
_chemical_formula_sum   'Ca1 Zr2 Ag1 F11'
_cell_volume   252.23185287
_cell_formula_units_Z   1
loop_
 _symmetry_equiv_pos_site_id
 _symmetry_equiv_pos_as_xyz
  1  'x, y, z'
loop_
 _atom_site_type_symbol
 _atom_site_label
 _atom_site_symmetry_multiplicity
 _atom_site_fract_x
 _atom_site_fract_y
 _atom_site_fract_z
 _atom_site_occupancy
  Ca  Ca0  1  0.000000  0.000000  0.500000  1
  Zr  Zr1  1  0.505274  0.505274  0.765472  1
  Zr  Zr2  1  0.494726  0.494726  0.234528  1
  Ag  Ag3  1  0.000000  0.000000  0.000000  1
  F  F4  1  0.204958  0.761582  0.306591  1
  F  F5  1  0.238418  0.795042  0.693409  1
  F  F6  1  0.795042  0.238418  0.693409  1
  F  F7  1  0.761582  0.204958  0.306591  1
  F  F8  1  0.500000  0.500000  0.500000  1
  F  F9  1  0.661409  0.338591  0.000000  1
  F  F10  1  0.338591  0.661409  0.000000  1
  F  F11  1  0.739521  0.739521  0.655551  1
  F  F12  1  0.260479  0.260479  0.344449  1
  F  F13  1  0.723104  0.723104  0.112963  1
  F  F14  1  0.276896  0.276896  0.887037  1
