# generated using pymatgen
data_DyHoB4IrRu3
_symmetry_space_group_name_H-M   'P 1'
_cell_length_a   6.69937301
_cell_length_b   5.93668396
_cell_length_c   5.53258161
_cell_angle_alpha   71.38202220
_cell_angle_beta   57.11702935
_cell_angle_gamma   51.89813671
_symmetry_Int_Tables_number   1
_chemical_formula_structural   DyHoB4IrRu3
_chemical_formula_sum   'Dy1 Ho1 B4 Ir1 Ru3'
_cell_volume   145.37051916
_cell_formula_units_Z   1
loop_
 _symmetry_equiv_pos_site_id
 _symmetry_equiv_pos_as_xyz
  1  'x, y, z'
loop_
 _atom_site_type_symbol
 _atom_site_label
 _atom_site_symmetry_multiplicity
 _atom_site_fract_x
 _atom_site_fract_y
 _atom_site_fract_z
 _atom_site_occupancy
  Dy  Dy0  1  0.749292  0.749292  0.750708  1
  Ho  Ho1  1  0.498778  0.498778  0.501222  1
  B  B2  1  0.184799  0.813286  0.186493  1
  B  B3  1  0.063939  0.439624  0.058087  1
  B  B4  1  0.813286  0.184799  0.815423  1
  B  B5  1  0.439624  0.063939  0.438350  1
  Ir  Ir6  1  0.113494  0.113494  0.386506  1
  Ru  Ru7  1  0.862895  0.862895  0.137105  1
  Ru  Ru8  1  0.136925  0.136925  0.863075  1
  Ru  Ru9  1  0.386970  0.386970  0.113030  1
