# generated using pymatgen
data_CsLi(POs)4
_symmetry_space_group_name_H-M   'P 1'
_cell_length_a   4.08214700
_cell_length_b   4.08214700
_cell_length_c   11.37764300
_cell_angle_alpha   90.00000000
_cell_angle_beta   90.00000000
_cell_angle_gamma   90.00000000
_symmetry_Int_Tables_number   1
_chemical_formula_structural   CsLi(POs)4
_chemical_formula_sum   'Cs1 Li1 P4 Os4'
_cell_volume   189.59617973
_cell_formula_units_Z   1
loop_
 _symmetry_equiv_pos_site_id
 _symmetry_equiv_pos_as_xyz
  1  'x, y, z'
loop_
 _atom_site_type_symbol
 _atom_site_label
 _atom_site_symmetry_multiplicity
 _atom_site_fract_x
 _atom_site_fract_y
 _atom_site_fract_z
 _atom_site_occupancy
  Cs  Cs0  1  0.500000  0.500000  0.500000  1
  Li  Li1  1  0.000000  0.000000  0.000000  1
  P  P2  1  0.000000  0.000000  0.704388  1
  P  P3  1  0.000000  0.000000  0.295612  1
  P  P4  1  0.500000  0.500000  0.902557  1
  P  P5  1  0.500000  0.500000  0.097443  1
  Os  Os6  1  0.500000  0.000000  0.807077  1
  Os  Os7  1  0.000000  0.500000  0.807077  1
  Os  Os8  1  0.500000  0.000000  0.192923  1
  Os  Os9  1  0.000000  0.500000  0.192923  1
