# generated using pymatgen
data_Dy4ErB(MoC3)2
_symmetry_space_group_name_H-M   'P 1'
_cell_length_a   8.40180413
_cell_length_b   8.40180501
_cell_length_c   3.43337000
_cell_angle_alpha   90.00000000
_cell_angle_beta   90.00000000
_cell_angle_gamma   122.49979700
_symmetry_Int_Tables_number   1
_chemical_formula_structural   Dy4ErB(MoC3)2
_chemical_formula_sum   'Dy4 Er1 B1 Mo2 C6'
_cell_volume   204.40707851
_cell_formula_units_Z   1
loop_
 _symmetry_equiv_pos_site_id
 _symmetry_equiv_pos_as_xyz
  1  'x, y, z'
loop_
 _atom_site_type_symbol
 _atom_site_label
 _atom_site_symmetry_multiplicity
 _atom_site_fract_x
 _atom_site_fract_y
 _atom_site_fract_z
 _atom_site_occupancy
  Dy  Dy0  1  0.076273  0.327186  0.500000  1
  Dy  Dy1  1  0.923727  0.672814  0.500000  1
  Dy  Dy2  1  0.672814  0.923727  0.500000  1
  Dy  Dy3  1  0.327186  0.076273  0.500000  1
  Er  Er4  1  0.500000  0.500000  0.000000  1
  B  B5  1  0.000000  0.000000  0.000000  1
  Mo  Mo6  1  0.711103  0.288897  0.000000  1
  Mo  Mo7  1  0.288897  0.711103  0.000000  1
  C  C8  1  0.625872  0.374128  0.500000  1
  C  C9  1  0.374128  0.625872  0.500000  1
  C  C10  1  0.182688  0.182688  0.000000  1
  C  C11  1  0.817312  0.817312  0.000000  1
  C  C12  1  0.000000  0.500000  0.000000  1
  C  C13  1  0.500000  0.000000  0.000000  1
