# generated using pymatgen
data_Tb2Nd(IrRh2)3
_symmetry_space_group_name_H-M   'P 1'
_cell_length_a   5.32448500
_cell_length_b   5.31869589
_cell_length_c   17.54430015
_cell_angle_alpha   89.93179066
_cell_angle_beta   90.00000000
_cell_angle_gamma   120.03601822
_symmetry_Int_Tables_number   1
_chemical_formula_structural   Tb2Nd(IrRh2)3
_chemical_formula_sum   'Tb4 Nd2 Ir6 Rh12'
_cell_volume   430.12164539
_cell_formula_units_Z   2
loop_
 _symmetry_equiv_pos_site_id
 _symmetry_equiv_pos_as_xyz
  1  'x, y, z'
loop_
 _atom_site_type_symbol
 _atom_site_label
 _atom_site_symmetry_multiplicity
 _atom_site_fract_x
 _atom_site_fract_y
 _atom_site_fract_z
 _atom_site_occupancy
  Tb  Tb0  1  0.332419  0.664838  0.541016  1
  Tb  Tb1  1  0.666826  0.333651  0.040830  1
  Tb  Tb2  1  0.666125  0.332249  0.458921  1
  Tb  Tb3  1  0.333210  0.666422  0.959523  1
  Nd  Nd4  1  0.333370  0.666741  0.749808  1
  Nd  Nd5  1  0.666616  0.333231  0.248860  1
  Ir  Ir6  1  0.167541  0.335081  0.125674  1
  Ir  Ir7  1  0.834418  0.668837  0.625096  1
  Ir  Ir8  1  0.665377  0.832666  0.125617  1
  Ir  Ir9  1  0.167290  0.832666  0.125617  1
  Ir  Ir10  1  0.000569  0.001139  0.999457  1
  Ir  Ir11  1  0.997932  0.995864  0.499822  1
  Rh  Rh12  1  0.834364  0.170254  0.625098  1
  Rh  Rh13  1  0.335889  0.170254  0.625098  1
  Rh  Rh14  1  0.832745  0.665491  0.875509  1
  Rh  Rh15  1  0.833030  0.167073  0.874234  1
  Rh  Rh16  1  0.334042  0.167073  0.874234  1
  Rh  Rh17  1  0.665328  0.832065  0.375364  1
  Rh  Rh18  1  0.166738  0.832065  0.375364  1
  Rh  Rh19  1  0.166868  0.333735  0.375313  1
  Rh  Rh20  1  0.999976  0.999952  0.249993  1
  Rh  Rh21  1  0.996783  0.993566  0.749778  1
  Rh  Rh22  1  0.333413  0.666828  0.250283  1
  Rh  Rh23  1  0.669129  0.338256  0.749491  1
