# generated using pymatgen
data_Eu5Mg(Ni7B2)2
_symmetry_space_group_name_H-M   'P 1'
_cell_length_a   5.15491000
_cell_length_b   5.15491049
_cell_length_c   14.52342000
_cell_angle_alpha   90.00000000
_cell_angle_beta   90.00000000
_cell_angle_gamma   120.00000970
_symmetry_Int_Tables_number   1
_chemical_formula_structural   Eu5Mg(Ni7B2)2
_chemical_formula_sum   'Eu5 Mg1 Ni14 B4'
_cell_volume   334.22713158
_cell_formula_units_Z   1
loop_
 _symmetry_equiv_pos_site_id
 _symmetry_equiv_pos_as_xyz
  1  'x, y, z'
loop_
 _atom_site_type_symbol
 _atom_site_label
 _atom_site_symmetry_multiplicity
 _atom_site_fract_x
 _atom_site_fract_y
 _atom_site_fract_z
 _atom_site_occupancy
  Eu  Eu0  1  0.666667  0.333333  0.531963  1
  Eu  Eu1  1  0.333333  0.666667  0.461998  1
  Eu  Eu2  1  0.333333  0.666667  0.038002  1
  Eu  Eu3  1  0.666667  0.333333  0.750000  1
  Eu  Eu4  1  0.666667  0.333333  0.968037  1
  Mg  Mg5  1  0.333333  0.666667  0.250000  1
  Ni  Ni6  1  0.164808  0.329617  0.652926  1
  Ni  Ni7  1  0.330007  0.165003  0.343159  1
  Ni  Ni8  1  0.330007  0.165003  0.156841  1
  Ni  Ni9  1  0.164808  0.835192  0.847074  1
  Ni  Ni10  1  0.834997  0.669993  0.343159  1
  Ni  Ni11  1  0.834997  0.165003  0.156841  1
  Ni  Ni12  1  0.670383  0.835192  0.652926  1
  Ni  Ni13  1  0.670383  0.835192  0.847074  1
  Ni  Ni14  1  0.164808  0.835192  0.652926  1
  Ni  Ni15  1  0.834997  0.669993  0.156841  1
  Ni  Ni16  1  0.000000  0.000000  0.000625  1
  Ni  Ni17  1  0.164808  0.329617  0.847074  1
  Ni  Ni18  1  0.834997  0.165003  0.343159  1
  Ni  Ni19  1  0.000000  0.000000  0.499375  1
  B  B20  1  0.666667  0.333333  0.250000  1
  B  B21  1  0.000000  0.000000  0.750000  1
  B  B22  1  0.333333  0.666667  0.750000  1
  B  B23  1  0.000000  0.000000  0.250000  1
