# generated using pymatgen
data_Cs13Zr2Tl2(In2As5)2
_symmetry_space_group_name_H-M   'P 1'
_cell_length_a   10.05199537
_cell_length_b   10.13065096
_cell_length_c   14.26858731
_cell_angle_alpha   81.73168701
_cell_angle_beta   78.52240547
_cell_angle_gamma   62.95786535
_symmetry_Int_Tables_number   1
_chemical_formula_structural   Cs13Zr2Tl2(In2As5)2
_chemical_formula_sum   'Cs13 Zr2 Tl2 In4 As10'
_cell_volume   1265.91158724
_cell_formula_units_Z   1
loop_
 _symmetry_equiv_pos_site_id
 _symmetry_equiv_pos_as_xyz
  1  'x, y, z'
loop_
 _atom_site_type_symbol
 _atom_site_label
 _atom_site_symmetry_multiplicity
 _atom_site_fract_x
 _atom_site_fract_y
 _atom_site_fract_z
 _atom_site_occupancy
  Cs  Cs0  1  0.498593  0.865396  0.355222  1
  Cs  Cs1  1  0.501407  0.134604  0.644778  1
  Cs  Cs2  1  0.854019  0.585521  0.885104  1
  Cs  Cs3  1  0.145981  0.414479  0.114896  1
  Cs  Cs4  1  0.094877  0.785839  0.429741  1
  Cs  Cs5  1  0.905123  0.214161  0.570259  1
  Cs  Cs6  1  0.750052  0.680778  0.594658  1
  Cs  Cs7  1  0.249948  0.319222  0.405342  1
  Cs  Cs8  1  0.500000  0.500000  0.000000  1
  Cs  Cs9  1  0.322428  0.928092  0.089304  1
  Cs  Cs10  1  0.677572  0.071908  0.910696  1
  Cs  Cs11  1  0.892603  0.854815  0.161094  1
  Cs  Cs12  1  0.107397  0.145185  0.838906  1
  Zr  Zr13  1  0.376136  0.738309  0.774026  1
  Zr  Zr14  1  0.623864  0.261691  0.225974  1
  Tl  Tl15  1  0.020767  0.815966  0.707504  1
  Tl  Tl16  1  0.979233  0.184034  0.292496  1
  In  In17  1  0.597351  0.443618  0.409694  1
  In  In18  1  0.402649  0.556382  0.590306  1
  In  In19  1  0.724639  0.549559  0.176267  1
  In  In20  1  0.275361  0.450441  0.823733  1
  As  As21  1  0.437874  0.551400  0.256026  1
  As  As22  1  0.562126  0.448600  0.743974  1
  As  As23  1  0.132945  0.741064  0.894401  1
  As  As24  1  0.867055  0.258936  0.105599  1
  As  As25  1  0.708709  0.136043  0.394757  1
  As  As26  1  0.291291  0.863957  0.605243  1
  As  As27  1  0.845452  0.508330  0.351263  1
  As  As28  1  0.154548  0.491670  0.648737  1
  As  As29  1  0.500337  0.865373  0.841588  1
  As  As30  1  0.499663  0.134627  0.158412  1
