# generated using pymatgen
data_Cs12Sc2AlFeSe12
_symmetry_space_group_name_H-M   'P 1'
_cell_length_a   11.20078598
_cell_length_b   11.20078747
_cell_length_c   14.32809898
_cell_angle_alpha   89.99073049
_cell_angle_beta   89.99072894
_cell_angle_gamma   139.63104613
_symmetry_Int_Tables_number   1
_chemical_formula_structural   Cs12Sc2AlFeSe12
_chemical_formula_sum   'Cs12 Sc2 Al1 Fe1 Se12'
_cell_volume   1164.29834314
_cell_formula_units_Z   1
loop_
 _symmetry_equiv_pos_site_id
 _symmetry_equiv_pos_as_xyz
  1  'x, y, z'
loop_
 _atom_site_type_symbol
 _atom_site_label
 _atom_site_symmetry_multiplicity
 _atom_site_fract_x
 _atom_site_fract_y
 _atom_site_fract_z
 _atom_site_occupancy
  Cs  Cs0  1  0.867019  0.863394  0.675418  1
  Cs  Cs1  1  0.136606  0.132981  0.324582  1
  Cs  Cs2  1  0.632094  0.635637  0.176711  1
  Cs  Cs3  1  0.364363  0.367906  0.823289  1
  Cs  Cs4  1  0.166646  0.521082  0.126172  1
  Cs  Cs5  1  0.478918  0.833354  0.873828  1
  Cs  Cs6  1  0.969816  0.327650  0.631313  1
  Cs  Cs7  1  0.672350  0.030184  0.368687  1
  Cs  Cs8  1  0.828440  0.467236  0.870637  1
  Cs  Cs9  1  0.532764  0.171560  0.129363  1
  Cs  Cs10  1  0.018827  0.664338  0.373873  1
  Cs  Cs11  1  0.335662  0.981173  0.626127  1
  Sc  Sc12  1  0.420952  0.579048  0.500000  1
  Sc  Sc13  1  0.078581  0.921419  0.000000  1
  Al  Al14  1  0.917720  0.082280  0.000000  1
  Fe  Fe15  1  0.581660  0.418340  0.500000  1
  Se  Se16  1  0.298377  0.286848  0.571347  1
  Se  Se17  1  0.713152  0.701623  0.428653  1
  Se  Se18  1  0.201445  0.214224  0.071370  1
  Se  Se19  1  0.785776  0.798555  0.928630  1
  Se  Se20  1  0.710799  0.002852  0.115724  1
  Se  Se21  1  0.997148  0.289201  0.884276  1
  Se  Se22  1  0.507406  0.804422  0.619588  1
  Se  Se23  1  0.195578  0.492594  0.380412  1
  Se  Se24  1  0.302509  0.006470  0.880448  1
  Se  Se25  1  0.993530  0.697491  0.119552  1
  Se  Se26  1  0.505119  0.213255  0.385250  1
  Se  Se27  1  0.786745  0.494881  0.614750  1
