# generated using pymatgen
data_Pr6Mg2Cd2IrPd12
_symmetry_space_group_name_H-M   'P 1'
_cell_length_a   8.55732032
_cell_length_b   8.52460959
_cell_length_c   8.55732029
_cell_angle_alpha   109.47388525
_cell_angle_beta   109.62083412
_cell_angle_gamma   109.47388479
_symmetry_Int_Tables_number   1
_chemical_formula_structural   Pr6Mg2Cd2IrPd12
_chemical_formula_sum   'Pr6 Mg2 Cd2 Ir1 Pd12'
_cell_volume   479.61662276
_cell_formula_units_Z   1
loop_
 _symmetry_equiv_pos_site_id
 _symmetry_equiv_pos_as_xyz
  1  'x, y, z'
loop_
 _atom_site_type_symbol
 _atom_site_label
 _atom_site_symmetry_multiplicity
 _atom_site_fract_x
 _atom_site_fract_y
 _atom_site_fract_z
 _atom_site_occupancy
  Pr  Pr0  1  0.003832  0.301747  0.297915  1
  Pr  Pr1  1  0.996168  0.698253  0.702085  1
  Pr  Pr2  1  0.297537  0.000000  0.297537  1
  Pr  Pr3  1  0.702085  0.698253  0.996168  1
  Pr  Pr4  1  0.702463  0.000000  0.702463  1
  Pr  Pr5  1  0.297915  0.301747  0.003832  1
  Mg  Mg6  1  0.000000  0.000000  0.500000  1
  Mg  Mg7  1  0.500000  0.000000  0.000000  1
  Cd  Cd8  1  0.000000  0.500000  0.000000  1
  Cd  Cd9  1  0.500000  0.500000  0.500000  1
  Ir  Ir10  1  0.000000  0.000000  0.000000  1
  Pd  Pd11  1  0.343256  0.665773  0.000562  1
  Pd  Pd12  1  0.999438  0.334227  0.656744  1
  Pd  Pd13  1  0.664272  0.000000  0.335728  1
  Pd  Pd14  1  0.322516  0.665773  0.665211  1
  Pd  Pd15  1  0.658133  0.316265  0.658133  1
  Pd  Pd16  1  0.677484  0.334227  0.334789  1
  Pd  Pd17  1  0.341867  0.683735  0.341867  1
  Pd  Pd18  1  0.334789  0.334227  0.677484  1
  Pd  Pd19  1  0.000562  0.665773  0.343256  1
  Pd  Pd20  1  0.665211  0.665773  0.322516  1
  Pd  Pd21  1  0.335728  0.000000  0.664272  1
  Pd  Pd22  1  0.656744  0.334227  0.999438  1
