# generated using pymatgen
data_DyTmFeB6
_symmetry_space_group_name_H-M   'P 1'
_cell_length_a   3.53039200
_cell_length_b   9.04202800
_cell_length_c   11.41243900
_cell_angle_alpha   90.00000000
_cell_angle_beta   90.00000000
_cell_angle_gamma   90.00000000
_symmetry_Int_Tables_number   1
_chemical_formula_structural   DyTmFeB6
_chemical_formula_sum   'Dy4 Tm4 Fe4 B24'
_cell_volume   364.30677435
_cell_formula_units_Z   4
loop_
 _symmetry_equiv_pos_site_id
 _symmetry_equiv_pos_as_xyz
  1  'x, y, z'
loop_
 _atom_site_type_symbol
 _atom_site_label
 _atom_site_symmetry_multiplicity
 _atom_site_fract_x
 _atom_site_fract_y
 _atom_site_fract_z
 _atom_site_occupancy
  Dy  Dy0  1  0.000000  0.823667  0.085527  1
  Dy  Dy1  1  0.000000  0.176333  0.914473  1
  Dy  Dy2  1  0.000000  0.323667  0.414473  1
  Dy  Dy3  1  0.000000  0.676333  0.585527  1
  Tm  Tm4  1  0.000000  0.443269  0.129523  1
  Tm  Tm5  1  0.000000  0.556731  0.870477  1
  Tm  Tm6  1  0.000000  0.943269  0.370477  1
  Tm  Tm7  1  0.000000  0.056731  0.629523  1
  Fe  Fe8  1  0.000000  0.139140  0.180120  1
  Fe  Fe9  1  0.000000  0.860860  0.819880  1
  Fe  Fe10  1  0.000000  0.639140  0.319880  1
  Fe  Fe11  1  0.000000  0.360860  0.680120  1
  B  B12  1  0.500000  0.054871  0.068468  1
  B  B13  1  0.500000  0.945129  0.931532  1
  B  B14  1  0.500000  0.554871  0.431532  1
  B  B15  1  0.500000  0.445129  0.568468  1
  B  B16  1  0.500000  0.247617  0.081981  1
  B  B17  1  0.500000  0.752383  0.918019  1
  B  B18  1  0.500000  0.747617  0.418019  1
  B  B19  1  0.500000  0.252383  0.581981  1
  B  B20  1  0.500000  0.289794  0.233803  1
  B  B21  1  0.500000  0.710206  0.766197  1
  B  B22  1  0.500000  0.789794  0.266197  1
  B  B23  1  0.500000  0.210206  0.733803  1
  B  B24  1  0.500000  0.131575  0.314580  1
  B  B25  1  0.500000  0.868425  0.685420  1
  B  B26  1  0.500000  0.631575  0.185420  1
  B  B27  1  0.500000  0.368425  0.814580  1
  B  B28  1  0.500000  0.485934  0.287877  1
  B  B29  1  0.500000  0.514066  0.712123  1
  B  B30  1  0.500000  0.985934  0.212123  1
  B  B31  1  0.500000  0.014066  0.787877  1
  B  B32  1  0.500000  0.106374  0.470955  1
  B  B33  1  0.500000  0.893626  0.529045  1
  B  B34  1  0.500000  0.606374  0.029045  1
  B  B35  1  0.500000  0.393626  0.970955  1
