# generated using pymatgen
data_Sc4Al24Pt7Rh2
_symmetry_space_group_name_H-M   'P 1'
_cell_length_a   7.43712289
_cell_length_b   7.43505032
_cell_length_c   13.05721913
_cell_angle_alpha   84.50961647
_cell_angle_beta   100.84765260
_cell_angle_gamma   119.83053217
_symmetry_Int_Tables_number   1
_chemical_formula_structural   Sc4Al24Pt7Rh2
_chemical_formula_sum   'Sc4 Al24 Pt7 Rh2'
_cell_volume   615.14496369
_cell_formula_units_Z   1
loop_
 _symmetry_equiv_pos_site_id
 _symmetry_equiv_pos_as_xyz
  1  'x, y, z'
loop_
 _atom_site_type_symbol
 _atom_site_label
 _atom_site_symmetry_multiplicity
 _atom_site_fract_x
 _atom_site_fract_y
 _atom_site_fract_z
 _atom_site_occupancy
  Sc  Sc0  1  0.732396  0.999647  0.189336  1
  Sc  Sc1  1  0.268049  0.001528  0.810391  1
  Sc  Sc2  1  0.061778  0.668326  0.190047  1
  Sc  Sc3  1  0.937421  0.330938  0.810242  1
  Al  Al4  1  0.815791  0.876135  0.818667  1
  Al  Al5  1  0.184288  0.123311  0.181280  1
  Al  Al6  1  0.988189  0.669353  0.943471  1
  Al  Al7  1  0.018639  0.334243  0.055909  1
  Al  Al8  1  0.391258  0.663214  0.819853  1
  Al  Al9  1  0.604374  0.336272  0.182080  1
  Al  Al10  1  0.887230  0.665134  0.678868  1
  Al  Al11  1  0.113518  0.334662  0.320621  1
  Al  Al12  1  0.602676  0.455335  0.817527  1
  Al  Al13  1  0.397191  0.549576  0.180564  1
  Al  Al14  1  0.229877  0.337278  0.676708  1
  Al  Al15  1  0.770279  0.662767  0.323264  1
  Al  Al16  1  0.853730  0.333530  0.560360  1
  Al  Al17  1  0.187171  0.999589  0.560421  1
  Al  Al18  1  0.813590  0.999829  0.439577  1
  Al  Al19  1  0.349344  0.992565  0.056527  1
  Al  Al20  1  0.647314  0.000372  0.944286  1
  Al  Al21  1  0.558708  0.994448  0.679206  1
  Al  Al22  1  0.441546  0.004586  0.321100  1
  Al  Al23  1  0.522173  0.667894  0.563089  1
  Al  Al24  1  0.478195  0.331968  0.436860  1
  Al  Al25  1  0.686494  0.674315  0.046672  1
  Al  Al26  1  0.309962  0.329185  0.953387  1
  Al  Al27  1  0.146778  0.665734  0.439692  1
  Pt  Pt28  1  0.546289  0.324192  0.637690  1
  Pt  Pt29  1  0.454188  0.675110  0.362292  1
  Pt  Pt30  1  0.888373  0.008305  0.638914  1
  Pt  Pt31  1  0.112105  0.991316  0.361108  1
  Pt  Pt32  1  0.671835  0.328344  0.999970  1
  Pt  Pt33  1  0.204094  0.666822  0.639080  1
  Pt  Pt34  1  0.796591  0.332791  0.360934  1
  Rh  Rh35  1  0.328512  0.671418  0.000037  1
  Rh  Rh36  1  0.000054  0.999968  0.999975  1
