# generated using pymatgen
data_Ho2ZnCd(Ga3Ni)2
_symmetry_space_group_name_H-M   'P 1'
_cell_length_a   8.02162483
_cell_length_b   8.02162470
_cell_length_c   6.44740037
_cell_angle_alpha   89.77023518
_cell_angle_beta   90.22976571
_cell_angle_gamma   149.92263703
_symmetry_Int_Tables_number   1
_chemical_formula_structural   Ho2ZnCd(Ga3Ni)2
_chemical_formula_sum   'Ho2 Zn1 Cd1 Ga6 Ni2'
_cell_volume   207.91684711
_cell_formula_units_Z   1
loop_
 _symmetry_equiv_pos_site_id
 _symmetry_equiv_pos_as_xyz
  1  'x, y, z'
loop_
 _atom_site_type_symbol
 _atom_site_label
 _atom_site_symmetry_multiplicity
 _atom_site_fract_x
 _atom_site_fract_y
 _atom_site_fract_z
 _atom_site_occupancy
  Ho  Ho0  1  0.874128  0.125872  0.253747  1
  Ho  Ho1  1  0.125872  0.874128  0.746253  1
  Zn  Zn2  1  0.500000  0.500000  0.500000  1
  Cd  Cd3  1  0.500000  0.500000  0.000000  1
  Ga  Ga4  1  0.315836  0.684164  0.549608  1
  Ga  Ga5  1  0.068476  0.931524  0.264970  1
  Ga  Ga6  1  0.684164  0.315836  0.450392  1
  Ga  Ga7  1  0.687033  0.312967  0.047488  1
  Ga  Ga8  1  0.312967  0.687033  0.952512  1
  Ga  Ga9  1  0.931524  0.068476  0.735030  1
  Ni  Ni10  1  0.779818  0.220182  0.747546  1
  Ni  Ni11  1  0.220182  0.779818  0.252454  1
