# generated using pymatgen
data_Th2Co5C3
_symmetry_space_group_name_H-M   'P 1'
_cell_length_a   8.27806700
_cell_length_b   8.27806700
_cell_length_c   3.87844900
_cell_angle_alpha   90.00000000
_cell_angle_beta   90.00000000
_cell_angle_gamma   90.00000000
_symmetry_Int_Tables_number   1
_chemical_formula_structural   Th2Co5C3
_chemical_formula_sum   'Th4 Co10 C6'
_cell_volume   265.77612140
_cell_formula_units_Z   2
loop_
 _symmetry_equiv_pos_site_id
 _symmetry_equiv_pos_as_xyz
  1  'x, y, z'
loop_
 _atom_site_type_symbol
 _atom_site_label
 _atom_site_symmetry_multiplicity
 _atom_site_fract_x
 _atom_site_fract_y
 _atom_site_fract_z
 _atom_site_occupancy
  Th  Th0  1  0.336098  0.836098  0.000000  1
  Th  Th1  1  0.663902  0.163902  0.000000  1
  Th  Th2  1  0.163902  0.336098  0.000000  1
  Th  Th3  1  0.836098  0.663902  0.000000  1
  Co  Co4  1  0.578711  0.711935  0.500000  1
  Co  Co5  1  0.421289  0.288065  0.500000  1
  Co  Co6  1  0.921289  0.211935  0.500000  1
  Co  Co7  1  0.078711  0.788065  0.500000  1
  Co  Co8  1  0.711935  0.421289  0.500000  1
  Co  Co9  1  0.288065  0.578711  0.500000  1
  Co  Co10  1  0.211935  0.078711  0.500000  1
  Co  Co11  1  0.788065  0.921289  0.500000  1
  Co  Co12  1  0.500000  0.500000  0.000000  1
  Co  Co13  1  0.000000  0.000000  0.000000  1
  C  C14  1  0.500000  0.500000  0.500000  1
  C  C15  1  0.000000  0.000000  0.500000  1
  C  C16  1  0.058987  0.558987  0.500000  1
  C  C17  1  0.941013  0.441013  0.500000  1
  C  C18  1  0.441013  0.058987  0.500000  1
  C  C19  1  0.558987  0.941013  0.500000  1
