# generated using pymatgen
data_Eu4CrIn(SbO7)2
_symmetry_space_group_name_H-M   'P 1'
_cell_length_a   7.45033541
_cell_length_b   7.41653141
_cell_length_c   7.52290608
_cell_angle_alpha   90.00752113
_cell_angle_beta   59.63860053
_cell_angle_gamma   119.65617651
_symmetry_Int_Tables_number   1
_chemical_formula_structural   Eu4CrIn(SbO7)2
_chemical_formula_sum   'Eu4 Cr1 In1 Sb2 O14'
_cell_volume   293.86236222
_cell_formula_units_Z   1
loop_
 _symmetry_equiv_pos_site_id
 _symmetry_equiv_pos_as_xyz
  1  'x, y, z'
loop_
 _atom_site_type_symbol
 _atom_site_label
 _atom_site_symmetry_multiplicity
 _atom_site_fract_x
 _atom_site_fract_y
 _atom_site_fract_z
 _atom_site_occupancy
  Eu  Eu0  1  0.499966  0.499994  0.000003  1
  Eu  Eu1  1  0.499964  0.999992  0.000043  1
  Eu  Eu2  1  0.999997  0.000028  0.499985  1
  Eu  Eu3  1  0.999981  0.000023  0.000009  1
  Cr  Cr4  1  0.499958  0.999982  0.500054  1
  In  In5  1  0.500037  0.499971  0.500004  1
  Sb  Sb6  1  0.000085  0.500017  0.999955  1
  Sb  Sb7  1  0.000021  0.500010  0.499991  1
  O  O8  1  0.253467  0.124751  0.123467  1
  O  O9  1  0.746491  0.875244  0.876536  1
  O  O10  1  0.684895  0.855992  0.407491  1
  O  O11  1  0.854506  0.417310  0.822762  1
  O  O12  1  0.260400  0.821784  0.826159  1
  O  O13  1  0.240257  0.413161  0.408100  1
  O  O14  1  0.240178  0.413181  0.851491  1
  O  O15  1  0.260476  0.821858  0.413267  1
  O  O16  1  0.315117  0.144023  0.592489  1
  O  O17  1  0.145456  0.582630  0.177254  1
  O  O18  1  0.739605  0.178221  0.173848  1
  O  O19  1  0.759807  0.586859  0.591889  1
  O  O20  1  0.759791  0.586822  0.148484  1
  O  O21  1  0.739547  0.178145  0.586722  1
