# generated using pymatgen
data_Zr4Si3P3Ir8
_symmetry_space_group_name_H-M   'P 1'
_cell_length_a   12.86009800
_cell_length_b   12.86009788
_cell_length_c   3.93098200
_cell_angle_alpha   90.00000000
_cell_angle_beta   90.00000000
_cell_angle_gamma   119.99999517
_symmetry_Int_Tables_number   1
_chemical_formula_structural   Zr4Si3P3Ir8
_chemical_formula_sum   'Zr8 Si6 P6 Ir16'
_cell_volume   563.01538189
_cell_formula_units_Z   2
loop_
 _symmetry_equiv_pos_site_id
 _symmetry_equiv_pos_as_xyz
  1  'x, y, z'
loop_
 _atom_site_type_symbol
 _atom_site_label
 _atom_site_symmetry_multiplicity
 _atom_site_fract_x
 _atom_site_fract_y
 _atom_site_fract_z
 _atom_site_occupancy
  Zr  Zr0  1  0.442743  0.442743  0.000000  1
  Zr  Zr1  1  0.557257  0.000000  0.000000  1
  Zr  Zr2  1  0.000000  0.557257  0.000000  1
  Zr  Zr3  1  0.666667  0.333333  0.000000  1
  Zr  Zr4  1  0.333333  0.666667  0.000000  1
  Zr  Zr5  1  0.807710  0.807710  0.500000  1
  Zr  Zr6  1  0.192290  0.000000  0.500000  1
  Zr  Zr7  1  0.000000  0.192290  0.500000  1
  Si  Si8  1  0.483197  0.310445  0.500000  1
  Si  Si9  1  0.689555  0.172751  0.500000  1
  Si  Si10  1  0.827249  0.516803  0.500000  1
  Si  Si11  1  0.516803  0.827249  0.500000  1
  Si  Si12  1  0.172751  0.689555  0.500000  1
  Si  Si13  1  0.310445  0.483197  0.500000  1
  P  P14  1  0.645503  0.645503  0.000000  1
  P  P15  1  0.354497  0.000000  0.000000  1
  P  P16  1  0.000000  0.354497  0.000000  1
  P  P17  1  0.826611  0.000000  0.000000  1
  P  P18  1  0.000000  0.826611  0.000000  1
  P  P19  1  0.173389  0.173389  0.000000  1
  Ir  Ir20  1  0.188296  0.367451  0.000000  1
  Ir  Ir21  1  0.179153  0.811704  0.000000  1
  Ir  Ir22  1  0.820847  0.632549  0.000000  1
  Ir  Ir23  1  0.811704  0.179153  0.000000  1
  Ir  Ir24  1  0.367451  0.188296  0.000000  1
  Ir  Ir25  1  0.129807  0.488638  0.500000  1
  Ir  Ir26  1  0.358831  0.870193  0.500000  1
  Ir  Ir27  1  0.511362  0.641169  0.500000  1
  Ir  Ir28  1  0.641169  0.511362  0.500000  1
  Ir  Ir29  1  0.870193  0.358831  0.500000  1
  Ir  Ir30  1  0.488638  0.129807  0.500000  1
  Ir  Ir31  1  0.000000  0.000000  0.000000  1
  Ir  Ir32  1  0.728899  0.000000  0.500000  1
  Ir  Ir33  1  0.000000  0.728899  0.500000  1
  Ir  Ir34  1  0.632549  0.820847  0.000000  1
  Ir  Ir35  1  0.271101  0.271101  0.500000  1
