# generated using pymatgen
data_HfZr2P
_symmetry_space_group_name_H-M   'P 1'
_cell_length_a   10.79632000
_cell_length_b   10.79632000
_cell_length_c   5.37240400
_cell_angle_alpha   90.00000000
_cell_angle_beta   90.00000000
_cell_angle_gamma   90.00000000
_symmetry_Int_Tables_number   1
_chemical_formula_structural   HfZr2P
_chemical_formula_sum   'Hf8 Zr16 P8'
_cell_volume   626.21023367
_cell_formula_units_Z   8
loop_
 _symmetry_equiv_pos_site_id
 _symmetry_equiv_pos_as_xyz
  1  'x, y, z'
loop_
 _atom_site_type_symbol
 _atom_site_label
 _atom_site_symmetry_multiplicity
 _atom_site_fract_x
 _atom_site_fract_y
 _atom_site_fract_z
 _atom_site_occupancy
  Hf  Hf0  1  0.820173  0.715385  0.013493  1
  Hf  Hf1  1  0.179827  0.284615  0.013493  1
  Hf  Hf2  1  0.784615  0.320173  0.513493  1
  Hf  Hf3  1  0.215385  0.679827  0.513493  1
  Hf  Hf4  1  0.679827  0.784615  0.486507  1
  Hf  Hf5  1  0.320173  0.215385  0.486507  1
  Hf  Hf6  1  0.715385  0.179827  0.986507  1
  Hf  Hf7  1  0.284615  0.820173  0.986507  1
  Zr  Zr8  1  0.915478  0.608511  0.534621  1
  Zr  Zr9  1  0.084522  0.391489  0.534621  1
  Zr  Zr10  1  0.891489  0.415478  0.034621  1
  Zr  Zr11  1  0.108511  0.584522  0.034621  1
  Zr  Zr12  1  0.584522  0.891489  0.965379  1
  Zr  Zr13  1  0.415478  0.108511  0.965379  1
  Zr  Zr14  1  0.608511  0.084522  0.465379  1
  Zr  Zr15  1  0.391489  0.915478  0.465379  1
  Zr  Zr16  1  0.862723  0.971364  0.721389  1
  Zr  Zr17  1  0.137277  0.028636  0.721389  1
  Zr  Zr18  1  0.528636  0.362723  0.221389  1
  Zr  Zr19  1  0.471364  0.637277  0.221389  1
  Zr  Zr20  1  0.637277  0.528636  0.778611  1
  Zr  Zr21  1  0.362723  0.471364  0.778611  1
  Zr  Zr22  1  0.971364  0.137277  0.278611  1
  Zr  Zr23  1  0.028636  0.862723  0.278611  1
  P  P24  1  0.793131  0.958397  0.213296  1
  P  P25  1  0.206869  0.041603  0.213296  1
  P  P26  1  0.541603  0.293131  0.713296  1
  P  P27  1  0.458397  0.706869  0.713296  1
  P  P28  1  0.706869  0.541603  0.286704  1
  P  P29  1  0.293131  0.458397  0.286704  1
  P  P30  1  0.958397  0.206869  0.786704  1
  P  P31  1  0.041603  0.793131  0.786704  1
