# generated using pymatgen
data_Hf2Sc4Al8Si8Ir7
_symmetry_space_group_name_H-M   'P 1'
_cell_length_a   8.61192472
_cell_length_b   8.61192421
_cell_length_c   8.59227100
_cell_angle_alpha   60.07545851
_cell_angle_beta   60.07546047
_cell_angle_gamma   59.84906785
_symmetry_Int_Tables_number   1
_chemical_formula_structural   Hf2Sc4Al8Si8Ir7
_chemical_formula_sum   'Hf2 Sc4 Al8 Si8 Ir7'
_cell_volume   450.59756001
_cell_formula_units_Z   1
loop_
 _symmetry_equiv_pos_site_id
 _symmetry_equiv_pos_as_xyz
  1  'x, y, z'
loop_
 _atom_site_type_symbol
 _atom_site_label
 _atom_site_symmetry_multiplicity
 _atom_site_fract_x
 _atom_site_fract_y
 _atom_site_fract_z
 _atom_site_occupancy
  Hf  Hf0  1  0.307050  0.307050  0.692950  1
  Hf  Hf1  1  0.692950  0.692950  0.307050  1
  Sc  Sc2  1  0.691148  0.308852  0.308852  1
  Sc  Sc3  1  0.308852  0.691148  0.691148  1
  Sc  Sc4  1  0.308852  0.691148  0.308852  1
  Sc  Sc5  1  0.691148  0.308852  0.691148  1
  Al  Al6  1  0.121532  0.121532  0.121224  1
  Al  Al7  1  0.878468  0.878468  0.878776  1
  Al  Al8  1  0.121532  0.121532  0.635713  1
  Al  Al9  1  0.121224  0.635713  0.121532  1
  Al  Al10  1  0.878468  0.878468  0.364287  1
  Al  Al11  1  0.878776  0.364287  0.878468  1
  Al  Al12  1  0.635713  0.121224  0.121532  1
  Al  Al13  1  0.364287  0.878776  0.878468  1
  Si  Si14  1  0.346830  0.346830  0.346819  1
  Si  Si15  1  0.653170  0.653170  0.653181  1
  Si  Si16  1  0.346830  0.346830  0.959521  1
  Si  Si17  1  0.346819  0.959521  0.346830  1
  Si  Si18  1  0.653170  0.653170  0.040479  1
  Si  Si19  1  0.653181  0.040479  0.653170  1
  Si  Si20  1  0.959521  0.346819  0.346830  1
  Si  Si21  1  0.040479  0.653181  0.653170  1
  Ir  Ir22  1  0.500000  0.000000  0.000000  1
  Ir  Ir23  1  0.000000  0.500000  0.500000  1
  Ir  Ir24  1  0.000000  0.500000  0.000000  1
  Ir  Ir25  1  0.500000  0.000000  0.500000  1
  Ir  Ir26  1  0.000000  0.000000  0.500000  1
  Ir  Ir27  1  0.500000  0.500000  0.000000  1
  Ir  Ir28  1  0.000000  0.000000  0.000000  1
