# generated using pymatgen
data_Li3Nb2SnRh6
_symmetry_space_group_name_H-M   'P 1'
_cell_length_a   4.38356300
_cell_length_b   6.13427300
_cell_length_c   13.13604300
_cell_angle_alpha   90.00000000
_cell_angle_beta   89.99772009
_cell_angle_gamma   90.00000000
_symmetry_Int_Tables_number   1
_chemical_formula_structural   Li3Nb2SnRh6
_chemical_formula_sum   'Li6 Nb4 Sn2 Rh12'
_cell_volume   353.22783035
_cell_formula_units_Z   2
loop_
 _symmetry_equiv_pos_site_id
 _symmetry_equiv_pos_as_xyz
  1  'x, y, z'
loop_
 _atom_site_type_symbol
 _atom_site_label
 _atom_site_symmetry_multiplicity
 _atom_site_fract_x
 _atom_site_fract_y
 _atom_site_fract_z
 _atom_site_occupancy
  Li  Li0  1  0.999994  0.499999  0.000572  1
  Li  Li1  1  0.499950  0.000000  0.166083  1
  Li  Li2  1  0.999956  0.499999  0.334945  1
  Li  Li3  1  0.499993  0.000000  0.499192  1
  Li  Li4  1  0.000054  0.499999  0.667432  1
  Li  Li5  1  0.500061  0.000000  0.831775  1
  Nb  Nb6  1  0.999919  0.000000  0.334190  1
  Nb  Nb7  1  0.500048  0.499999  0.499606  1
  Nb  Nb8  1  0.999989  0.000000  0.667106  1
  Nb  Nb9  1  0.500084  0.499999  0.832380  1
  Sn  Sn10  1  0.000008  0.000000  0.002255  1
  Sn  Sn11  1  0.499924  0.499999  0.164491  1
  Rh  Rh12  1  0.500014  0.254654  0.993608  1
  Rh  Rh13  1  0.500014  0.745346  0.993608  1
  Rh  Rh14  1  0.999940  0.245354  0.173100  1
  Rh  Rh15  1  0.999940  0.754646  0.173100  1
  Rh  Rh16  1  0.499940  0.249680  0.336075  1
  Rh  Rh17  1  0.499940  0.750320  0.336075  1
  Rh  Rh18  1  0.000026  0.251240  0.501496  1
  Rh  Rh19  1  0.000026  0.748760  0.501496  1
  Rh  Rh20  1  0.500017  0.248808  0.665080  1
  Rh  Rh21  1  0.500017  0.751192  0.665080  1
  Rh  Rh22  1  0.000074  0.250381  0.830625  1
  Rh  Rh23  1  0.000074  0.749619  0.830625  1
