# generated using pymatgen
data_Nd9Y11Sn11Sb5
_symmetry_space_group_name_H-M   'P 1'
_cell_length_a   8.24176291
_cell_length_b   8.27107202
_cell_length_c   15.64514606
_cell_angle_alpha   89.87093214
_cell_angle_beta   89.06182030
_cell_angle_gamma   89.94729633
_symmetry_Int_Tables_number   1
_chemical_formula_structural   Nd9Y11Sn11Sb5
_chemical_formula_sum   'Nd9 Y11 Sn11 Sb5'
_cell_volume   1066.35558172
_cell_formula_units_Z   1
loop_
 _symmetry_equiv_pos_site_id
 _symmetry_equiv_pos_as_xyz
  1  'x, y, z'
loop_
 _atom_site_type_symbol
 _atom_site_label
 _atom_site_symmetry_multiplicity
 _atom_site_fract_x
 _atom_site_fract_y
 _atom_site_fract_z
 _atom_site_occupancy
  Nd  Nd0  1  0.461266  0.823704  0.896088  1
  Nd  Nd1  1  0.973025  0.677903  0.599513  1
  Nd  Nd2  1  0.527445  0.178721  0.400131  1
  Nd  Nd3  1  0.038666  0.329411  0.104737  1
  Nd  Nd4  1  0.545739  0.173279  0.107459  1
  Nd  Nd5  1  0.033661  0.323740  0.399290  1
  Nd  Nd6  1  0.466347  0.822648  0.599714  1
  Nd  Nd7  1  0.953116  0.671408  0.893785  1
  Nd  Nd8  1  0.615560  0.337104  0.882107  1
  Y  Y9  1  0.126763  0.160107  0.621009  1
  Y  Y10  1  0.372958  0.661609  0.378417  1
  Y  Y11  1  0.883024  0.840103  0.121574  1
  Y  Y12  1  0.380472  0.659360  0.120427  1
  Y  Y13  1  0.875278  0.839959  0.378212  1
  Y  Y14  1  0.625280  0.338794  0.621206  1
  Y  Y15  1  0.119954  0.160005  0.879284  1
  Y  Y16  1  0.289535  0.498465  0.746330  1
  Y  Y17  1  0.790644  0.999449  0.748478  1
  Y  Y18  1  0.709650  0.502063  0.250903  1
  Y  Y19  1  0.210637  0.999832  0.252370  1
  Sn  Sn20  1  0.287812  0.462251  0.543278  1
  Sn  Sn21  1  0.212421  0.963358  0.455994  1
  Sn  Sn22  1  0.720418  0.533431  0.047584  1
  Sn  Sn23  1  0.655968  0.641398  0.747644  1
  Sn  Sn24  1  0.157486  0.858145  0.749816  1
  Sn  Sn25  1  0.342730  0.359596  0.250732  1
  Sn  Sn26  1  0.844235  0.142285  0.251645  1
  Sn  Sn27  1  0.423490  0.124205  0.749356  1
  Sn  Sn28  1  0.924694  0.370804  0.749138  1
  Sn  Sn29  1  0.576142  0.871940  0.249843  1
  Sn  Sn30  1  0.075839  0.627933  0.249942  1
  Sb  Sb31  1  0.225346  0.975902  0.047161  1
  Sb  Sb32  1  0.713279  0.536764  0.456293  1
  Sb  Sb33  1  0.787070  0.035399  0.543639  1
  Sb  Sb34  1  0.270739  0.476481  0.953033  1
  Sb  Sb35  1  0.783313  0.022445  0.953861  1
