# generated using pymatgen
data_Ca11TbPd12
_symmetry_space_group_name_H-M   'P 1'
_cell_length_a   5.74753512
_cell_length_b   4.49507500
_cell_length_c   22.04192800
_cell_angle_alpha   90.00000000
_cell_angle_beta   96.34323013
_cell_angle_gamma   90.00000000
_symmetry_Int_Tables_number   1
_chemical_formula_structural   Ca11TbPd12
_chemical_formula_sum   'Ca11 Tb1 Pd12'
_cell_volume   565.98012249
_cell_formula_units_Z   1
loop_
 _symmetry_equiv_pos_site_id
 _symmetry_equiv_pos_as_xyz
  1  'x, y, z'
loop_
 _atom_site_type_symbol
 _atom_site_label
 _atom_site_symmetry_multiplicity
 _atom_site_fract_x
 _atom_site_fract_y
 _atom_site_fract_z
 _atom_site_occupancy
  Ca  Ca0  1  0.185741  0.750000  0.107094  1
  Ca  Ca1  1  0.506130  0.250001  0.226236  1
  Ca  Ca2  1  0.024106  0.750000  0.272446  1
  Ca  Ca3  1  0.810411  0.250001  0.393497  1
  Ca  Ca4  1  0.332041  0.750000  0.439244  1
  Ca  Ca5  1  0.666080  0.250001  0.560284  1
  Ca  Ca6  1  0.189141  0.750000  0.606085  1
  Ca  Ca7  1  0.972300  0.250001  0.727052  1
  Ca  Ca8  1  0.495903  0.750000  0.773819  1
  Ca  Ca9  1  0.823769  0.250001  0.894442  1
  Ca  Ca10  1  0.333662  0.750000  0.940191  1
  Tb  Tb11  1  0.668492  0.250001  0.060718  1
  Pd  Pd12  1  0.154109  0.250001  0.016579  1
  Pd  Pd13  1  0.697206  0.750000  0.147278  1
  Pd  Pd14  1  0.982631  0.250001  0.176662  1
  Pd  Pd15  1  0.550220  0.750000  0.320677  1
  Pd  Pd16  1  0.283448  0.250001  0.344586  1
  Pd  Pd17  1  0.853355  0.750000  0.487644  1
  Pd  Pd18  1  0.145372  0.250001  0.512100  1
  Pd  Pd19  1  0.714656  0.750000  0.654345  1
  Pd  Pd20  1  0.447804  0.250001  0.679004  1
  Pd  Pd21  1  0.013095  0.750000  0.820347  1
  Pd  Pd22  1  0.303450  0.250001  0.846023  1
  Pd  Pd23  1  0.846880  0.750000  0.993648  1
