# generated using pymatgen
data_IrOs3O8
_symmetry_space_group_name_H-M   'P 1'
_cell_length_a   4.54765336
_cell_length_b   5.53657749
_cell_length_c   5.53770934
_cell_angle_alpha   109.10063487
_cell_angle_beta   89.88463399
_cell_angle_gamma   90.11173233
_symmetry_Int_Tables_number   1
_chemical_formula_structural   IrOs3O8
_chemical_formula_sum   'Ir1 Os3 O8'
_cell_volume   131.75413991
_cell_formula_units_Z   1
loop_
 _symmetry_equiv_pos_site_id
 _symmetry_equiv_pos_as_xyz
  1  'x, y, z'
loop_
 _atom_site_type_symbol
 _atom_site_label
 _atom_site_symmetry_multiplicity
 _atom_site_fract_x
 _atom_site_fract_y
 _atom_site_fract_z
 _atom_site_occupancy
  Ir  Ir0  1  0.499987  0.249993  0.750014  1
  Os  Os1  1  0.500008  0.750011  0.249993  1
  Os  Os2  1  0.000009  0.249994  0.250008  1
  Os  Os3  1  0.999993  0.750002  0.749984  1
  O  O4  1  0.191152  0.902618  0.097323  1
  O  O5  1  0.308805  0.404230  0.100553  1
  O  O6  1  0.808881  0.597385  0.402634  1
  O  O7  1  0.691228  0.095767  0.399488  1
  O  O8  1  0.308720  0.899421  0.595627  1
  O  O9  1  0.183754  0.404617  0.595171  1
  O  O10  1  0.691249  0.600585  0.904343  1
  O  O11  1  0.816214  0.095372  0.904860  1
