# generated using pymatgen
data_Ho7Sn23IrOs5
_symmetry_space_group_name_H-M   'P 1'
_cell_length_a   9.85167726
_cell_length_b   9.85167799
_cell_length_c   10.10378358
_cell_angle_alpha   89.97785487
_cell_angle_beta   90.02214705
_cell_angle_gamma   120.01241792
_symmetry_Int_Tables_number   1
_chemical_formula_structural   Ho7Sn23IrOs5
_chemical_formula_sum   'Ho7 Sn23 Ir1 Os5'
_cell_volume   849.14264081
_cell_formula_units_Z   1
loop_
 _symmetry_equiv_pos_site_id
 _symmetry_equiv_pos_as_xyz
  1  'x, y, z'
loop_
 _atom_site_type_symbol
 _atom_site_label
 _atom_site_symmetry_multiplicity
 _atom_site_fract_x
 _atom_site_fract_y
 _atom_site_fract_z
 _atom_site_occupancy
  Ho  Ho0  1  0.004904  0.995096  0.994196  1
  Ho  Ho1  1  0.514308  0.485692  0.698147  1
  Ho  Ho2  1  0.513968  0.028729  0.698036  1
  Ho  Ho3  1  0.971271  0.486032  0.698036  1
  Ho  Ho4  1  0.029757  0.516089  0.303177  1
  Ho  Ho5  1  0.483911  0.970243  0.303177  1
  Ho  Ho6  1  0.484705  0.515295  0.302356  1
  Sn  Sn7  1  0.665245  0.334755  0.174713  1
  Sn  Sn8  1  0.666718  0.333282  0.869719  1
  Sn  Sn9  1  0.333381  0.666619  0.130774  1
  Sn  Sn10  1  0.350006  0.349716  0.999918  1
  Sn  Sn11  1  0.999223  0.648301  0.999882  1
  Sn  Sn12  1  0.648954  0.997480  0.000830  1
  Sn  Sn13  1  0.650284  0.649994  0.999918  1
  Sn  Sn14  1  0.333119  0.666881  0.825077  1
  Sn  Sn15  1  0.440751  0.221084  0.462313  1
  Sn  Sn16  1  0.220094  0.779906  0.538349  1
  Sn  Sn17  1  0.219874  0.440758  0.537785  1
  Sn  Sn18  1  0.559242  0.780126  0.537785  1
  Sn  Sn19  1  0.117617  0.882383  0.275758  1
  Sn  Sn20  1  0.778916  0.559249  0.462313  1
  Sn  Sn21  1  0.778691  0.221309  0.464059  1
  Sn  Sn22  1  0.351699  0.000777  0.999882  1
  Sn  Sn23  1  0.117185  0.234155  0.277950  1
  Sn  Sn24  1  0.765845  0.882815  0.277950  1
  Sn  Sn25  1  0.235045  0.117644  0.721018  1
  Sn  Sn26  1  0.882356  0.764955  0.721018  1
  Sn  Sn27  1  0.882681  0.117319  0.724620  1
  Sn  Sn28  1  0.999383  0.000617  0.499232  1
  Sn  Sn29  1  0.002520  0.351046  0.000830  1
  Ir  Ir30  1  0.828313  0.171687  0.202197  1
  Os  Os31  1  0.169280  0.830720  0.799669  1
  Os  Os32  1  0.170435  0.340244  0.798186  1
  Os  Os33  1  0.659756  0.829565  0.798186  1
  Os  Os34  1  0.340628  0.170063  0.201469  1
  Os  Os35  1  0.829937  0.659372  0.201469  1
