# generated using pymatgen
data_Tb7YV4O20
_symmetry_space_group_name_H-M   'P 1'
_cell_length_a   3.75089900
_cell_length_b   10.41363612
_cell_length_c   11.30951913
_cell_angle_alpha   89.98276662
_cell_angle_beta   90.00000000
_cell_angle_gamma   90.00000000
_symmetry_Int_Tables_number   1
_chemical_formula_structural   Tb7YV4O20
_chemical_formula_sum   'Tb7 Y1 V4 O20'
_cell_volume   441.75542138
_cell_formula_units_Z   1
loop_
 _symmetry_equiv_pos_site_id
 _symmetry_equiv_pos_as_xyz
  1  'x, y, z'
loop_
 _atom_site_type_symbol
 _atom_site_label
 _atom_site_symmetry_multiplicity
 _atom_site_fract_x
 _atom_site_fract_y
 _atom_site_fract_z
 _atom_site_occupancy
  Tb  Tb0  1  0.250000  0.637198  0.555154  1
  Tb  Tb1  1  0.750000  0.863121  0.054760  1
  Tb  Tb2  1  0.750000  0.362813  0.445168  1
  Tb  Tb3  1  0.750000  0.379745  0.773733  1
  Tb  Tb4  1  0.750000  0.880371  0.726516  1
  Tb  Tb5  1  0.250000  0.619773  0.226538  1
  Tb  Tb6  1  0.250000  0.119893  0.273331  1
  Y  Y7  1  0.250000  0.137295  0.945226  1
  V  V8  1  0.250000  0.169670  0.617893  1
  V  V9  1  0.250000  0.669851  0.882231  1
  V  V10  1  0.750000  0.830031  0.382080  1
  V  V11  1  0.750000  0.330222  0.117995  1
  O  O12  1  0.250000  0.225805  0.457430  1
  O  O13  1  0.250000  0.726254  0.042536  1
  O  O14  1  0.750000  0.774105  0.542582  1
  O  O15  1  0.750000  0.273406  0.957676  1
  O  O16  1  0.250000  0.494625  0.394849  1
  O  O17  1  0.250000  0.995081  0.104731  1
  O  O18  1  0.750000  0.505266  0.605518  1
  O  O19  1  0.750000  0.005816  0.894363  1
  O  O20  1  0.250000  0.267909  0.115807  1
  O  O21  1  0.250000  0.767284  0.384481  1
  O  O22  1  0.750000  0.732677  0.884507  1
  O  O23  1  0.750000  0.232470  0.615672  1
  O  O24  1  0.250000  0.006960  0.652654  1
  O  O25  1  0.250000  0.507244  0.846745  1
  O  O26  1  0.750000  0.992574  0.346238  1
  O  O27  1  0.750000  0.492939  0.153143  1
  O  O28  1  0.250000  0.256131  0.768517  1
  O  O29  1  0.250000  0.756985  0.731996  1
  O  O30  1  0.750000  0.743226  0.231732  1
  O  O31  1  0.750000  0.243259  0.268199  1
