# generated using pymatgen
data_Er11TmCo3Tc
_symmetry_space_group_name_H-M   'P 1'
_cell_length_a   6.21499526
_cell_length_b   7.03967788
_cell_length_c   9.12471725
_cell_angle_alpha   90.00967229
_cell_angle_beta   89.97508232
_cell_angle_gamma   90.03084466
_symmetry_Int_Tables_number   1
_chemical_formula_structural   Er11TmCo3Tc
_chemical_formula_sum   'Er11 Tm1 Co3 Tc1'
_cell_volume   399.22055543
_cell_formula_units_Z   1
loop_
 _symmetry_equiv_pos_site_id
 _symmetry_equiv_pos_as_xyz
  1  'x, y, z'
loop_
 _atom_site_type_symbol
 _atom_site_label
 _atom_site_symmetry_multiplicity
 _atom_site_fract_x
 _atom_site_fract_y
 _atom_site_fract_z
 _atom_site_occupancy
  Er  Er0  1  0.176257  0.180969  0.435619  1
  Er  Er1  1  0.676804  0.322836  0.568251  1
  Er  Er2  1  0.829606  0.825514  0.936167  1
  Er  Er3  1  0.676663  0.322961  0.931961  1
  Er  Er4  1  0.829769  0.825389  0.564177  1
  Er  Er5  1  0.326243  0.673321  0.434074  1
  Er  Er6  1  0.176503  0.181353  0.064214  1
  Er  Er7  1  0.858171  0.535968  0.249618  1
  Er  Er8  1  0.622683  0.044148  0.249889  1
  Er  Er9  1  0.140545  0.457373  0.750215  1
  Er  Er10  1  0.363585  0.954205  0.750203  1
  Tm  Tm11  1  0.326681  0.673577  0.065829  1
  Co  Co12  1  0.457137  0.386668  0.249343  1
  Co  Co13  1  0.960583  0.114082  0.749885  1
  Co  Co14  1  0.543881  0.611531  0.750909  1
  Tc  Tc15  1  0.034885  0.890106  0.249644  1
