# generated using pymatgen
data_Nd2YPa(Ga3Ir)6
_symmetry_space_group_name_H-M   'P 1'
_cell_length_a   7.64392444
_cell_length_b   7.63941501
_cell_length_c   9.49547600
_cell_angle_alpha   90.00000000
_cell_angle_beta   90.00000000
_cell_angle_gamma   119.80487261
_symmetry_Int_Tables_number   1
_chemical_formula_structural   Nd2YPa(Ga3Ir)6
_chemical_formula_sum   'Nd2 Y1 Pa1 Ga18 Ir6'
_cell_volume   481.14328796
_cell_formula_units_Z   1
loop_
 _symmetry_equiv_pos_site_id
 _symmetry_equiv_pos_as_xyz
  1  'x, y, z'
loop_
 _atom_site_type_symbol
 _atom_site_label
 _atom_site_symmetry_multiplicity
 _atom_site_fract_x
 _atom_site_fract_y
 _atom_site_fract_z
 _atom_site_occupancy
  Nd  Nd0  1  0.003505  0.330925  0.750000  1
  Nd  Nd1  1  0.330851  0.003020  0.750000  1
  Y  Y2  1  0.670700  0.996314  0.250000  1
  Pa  Pa3  1  0.998396  0.670117  0.250000  1
  Ga  Ga4  1  0.131187  0.130100  0.250000  1
  Ga  Ga5  1  0.869906  0.871190  0.750000  1
  Ga  Ga6  1  0.998699  0.331041  0.081946  1
  Ga  Ga7  1  0.998650  0.665312  0.920628  1
  Ga  Ga8  1  0.998650  0.665312  0.579372  1
  Ga  Ga9  1  0.338911  0.002600  0.417870  1
  Ga  Ga10  1  0.998699  0.331041  0.418054  1
  Ga  Ga11  1  0.665561  0.999558  0.576853  1
  Ga  Ga12  1  0.665561  0.999558  0.923147  1
  Ga  Ga13  1  0.338911  0.002600  0.082130  1
  Ga  Ga14  1  0.333158  0.333119  0.563116  1
  Ga  Ga15  1  0.663991  0.667348  0.433626  1
  Ga  Ga16  1  0.663991  0.667348  0.066374  1
  Ga  Ga17  1  0.333158  0.333119  0.936884  1
  Ga  Ga18  1  0.339005  0.545230  0.250000  1
  Ga  Ga19  1  0.660743  0.455031  0.750000  1
  Ga  Ga20  1  0.545740  0.341660  0.250000  1
  Ga  Ga21  1  0.455082  0.662123  0.750000  1
  Ir  Ir22  1  0.673711  0.331871  0.003471  1
  Ir  Ir23  1  0.326215  0.670936  0.003621  1
  Ir  Ir24  1  0.326215  0.670936  0.496379  1
  Ir  Ir25  1  0.673711  0.331871  0.496529  1
  Ir  Ir26  1  0.998544  0.995361  0.004507  1
  Ir  Ir27  1  0.998544  0.995361  0.495493  1
