# generated using pymatgen
data_MgSiP3(Ru2Rh)2
_symmetry_space_group_name_H-M   'P 1'
_cell_length_a   7.02840801
_cell_length_b   7.02840750
_cell_length_c   3.58261300
_cell_angle_alpha   90.00000000
_cell_angle_beta   90.00000000
_cell_angle_gamma   119.38305619
_symmetry_Int_Tables_number   1
_chemical_formula_structural   MgSiP3(Ru2Rh)2
_chemical_formula_sum   'Mg1 Si1 P3 Ru4 Rh2'
_cell_volume   154.20941528
_cell_formula_units_Z   1
loop_
 _symmetry_equiv_pos_site_id
 _symmetry_equiv_pos_as_xyz
  1  'x, y, z'
loop_
 _atom_site_type_symbol
 _atom_site_label
 _atom_site_symmetry_multiplicity
 _atom_site_fract_x
 _atom_site_fract_y
 _atom_site_fract_z
 _atom_site_occupancy
  Mg  Mg0  1  0.999612  0.000388  0.000000  1
  Si  Si1  1  0.331363  0.668637  0.000000  1
  P  P2  1  0.807409  0.192591  0.500000  1
  P  P3  1  0.381466  0.187751  0.500000  1
  P  P4  1  0.812249  0.618534  0.500000  1
  Ru  Ru5  1  0.191262  0.808738  0.500000  1
  Ru  Ru6  1  0.539232  0.075885  0.000000  1
  Ru  Ru7  1  0.924115  0.460768  0.000000  1
  Ru  Ru8  1  0.537700  0.462300  0.000000  1
  Rh  Rh9  1  0.190028  0.381105  0.500000  1
  Rh  Rh10  1  0.618895  0.809972  0.500000  1
