# generated using pymatgen
data_KBaBi3SbAu4
_symmetry_space_group_name_H-M   'P 1'
_cell_length_a   4.89869600
_cell_length_b   5.08728477
_cell_length_c   11.64762342
_cell_angle_alpha   87.92886440
_cell_angle_beta   90.00000000
_cell_angle_gamma   90.00000000
_symmetry_Int_Tables_number   1
_chemical_formula_structural   KBaBi3SbAu4
_chemical_formula_sum   'K1 Ba1 Bi3 Sb1 Au4'
_cell_volume   290.08151409
_cell_formula_units_Z   1
loop_
 _symmetry_equiv_pos_site_id
 _symmetry_equiv_pos_as_xyz
  1  'x, y, z'
loop_
 _atom_site_type_symbol
 _atom_site_label
 _atom_site_symmetry_multiplicity
 _atom_site_fract_x
 _atom_site_fract_y
 _atom_site_fract_z
 _atom_site_occupancy
  K  K0  1  0.750000  0.274329  0.239380  1
  Ba  Ba1  1  0.250000  0.738538  0.761175  1
  Bi  Bi2  1  0.750000  0.751846  0.503750  1
  Bi  Bi3  1  0.250000  0.244455  0.500211  1
  Bi  Bi4  1  0.250000  0.810126  0.119416  1
  Sb  Sb5  1  0.750000  0.186249  0.883460  1
  Au  Au6  1  0.750000  0.680728  0.990146  1
  Au  Au7  1  0.750000  0.246122  0.648861  1
  Au  Au8  1  0.250000  0.750346  0.361408  1
  Au  Au9  1  0.250000  0.317259  0.992194  1
