# generated using pymatgen
data_TbCuAgPt3
_symmetry_space_group_name_H-M   'P 1'
_cell_length_a   5.18750341
_cell_length_b   5.18750378
_cell_length_c   5.18750330
_cell_angle_alpha   62.85406647
_cell_angle_beta   62.85405983
_cell_angle_gamma   62.85406376
_symmetry_Int_Tables_number   1
_chemical_formula_structural   TbCuAgPt3
_chemical_formula_sum   'Tb1 Cu1 Ag1 Pt3'
_cell_volume   104.97124515
_cell_formula_units_Z   1
loop_
 _symmetry_equiv_pos_site_id
 _symmetry_equiv_pos_as_xyz
  1  'x, y, z'
loop_
 _atom_site_type_symbol
 _atom_site_label
 _atom_site_symmetry_multiplicity
 _atom_site_fract_x
 _atom_site_fract_y
 _atom_site_fract_z
 _atom_site_occupancy
  Tb  Tb0  1  0.001621  0.001621  0.001621  1
  Cu  Cu1  1  0.624108  0.624108  0.624108  1
  Ag  Ag2  1  0.250888  0.250888  0.250888  1
  Pt  Pt3  1  0.623690  0.623690  0.126002  1
  Pt  Pt4  1  0.623690  0.126002  0.623690  1
  Pt  Pt5  1  0.126002  0.623690  0.623690  1
