# generated using pymatgen
data_Ti7NbP4
_symmetry_space_group_name_H-M   'P 1'
_cell_length_a   3.43924000
_cell_length_b   6.48874706
_cell_length_c   8.02747428
_cell_angle_alpha   90.13113024
_cell_angle_beta   90.00000000
_cell_angle_gamma   90.00000000
_symmetry_Int_Tables_number   1
_chemical_formula_structural   Ti7NbP4
_chemical_formula_sum   'Ti7 Nb1 P4'
_cell_volume   179.14352424
_cell_formula_units_Z   1
loop_
 _symmetry_equiv_pos_site_id
 _symmetry_equiv_pos_as_xyz
  1  'x, y, z'
loop_
 _atom_site_type_symbol
 _atom_site_label
 _atom_site_symmetry_multiplicity
 _atom_site_fract_x
 _atom_site_fract_y
 _atom_site_fract_z
 _atom_site_occupancy
  Ti  Ti0  1  0.750000  0.462164  0.829142  1
  Ti  Ti1  1  0.750000  0.960709  0.669476  1
  Ti  Ti2  1  0.250000  0.038998  0.328618  1
  Ti  Ti3  1  0.250000  0.637855  0.561949  1
  Ti  Ti4  1  0.750000  0.360508  0.437890  1
  Ti  Ti5  1  0.750000  0.859248  0.061028  1
  Ti  Ti6  1  0.250000  0.140122  0.937757  1
  Nb  Nb7  1  0.250000  0.539803  0.172182  1
  P  P8  1  0.250000  0.755645  0.857636  1
  P  P9  1  0.750000  0.240802  0.140019  1
  P  P10  1  0.750000  0.750257  0.363984  1
  P  P11  1  0.250000  0.253887  0.640321  1
