# generated using pymatgen
data_Ho3Co2Sn3Pd
_symmetry_space_group_name_H-M   'P 1'
_cell_length_a   7.48011000
_cell_length_b   7.48011062
_cell_length_c   3.75842400
_cell_angle_alpha   90.00000000
_cell_angle_beta   90.00000000
_cell_angle_gamma   119.99999725
_symmetry_Int_Tables_number   1
_chemical_formula_structural   Ho3Co2Sn3Pd
_chemical_formula_sum   'Ho3 Co2 Sn3 Pd1'
_cell_volume   182.11781095
_cell_formula_units_Z   1
loop_
 _symmetry_equiv_pos_site_id
 _symmetry_equiv_pos_as_xyz
  1  'x, y, z'
loop_
 _atom_site_type_symbol
 _atom_site_label
 _atom_site_symmetry_multiplicity
 _atom_site_fract_x
 _atom_site_fract_y
 _atom_site_fract_z
 _atom_site_occupancy
  Ho  Ho0  1  0.413244  0.398002  0.500000  1
  Ho  Ho1  1  0.601998  0.015241  0.500000  1
  Ho  Ho2  1  0.984759  0.586756  0.500000  1
  Co  Co3  1  0.666667  0.333333  0.000000  1
  Co  Co4  1  0.000000  0.000000  0.500000  1
  Sn  Sn5  1  0.745638  0.743209  0.000000  1
  Sn  Sn6  1  0.256791  0.002428  0.000000  1
  Sn  Sn7  1  0.997572  0.254362  0.000000  1
  Pd  Pd8  1  0.333333  0.666667  0.000000  1
