# generated using pymatgen
data_Gd4Hg2PdPt3
_symmetry_space_group_name_H-M   'P 1'
_cell_length_a   7.80844100
_cell_length_b   7.80846655
_cell_length_c   3.76053900
_cell_angle_alpha   90.00000000
_cell_angle_beta   90.00000000
_cell_angle_gamma   89.93817297
_symmetry_Int_Tables_number   1
_chemical_formula_structural   Gd4Hg2PdPt3
_chemical_formula_sum   'Gd4 Hg2 Pd1 Pt3'
_cell_volume   229.28726361
_cell_formula_units_Z   1
loop_
 _symmetry_equiv_pos_site_id
 _symmetry_equiv_pos_as_xyz
  1  'x, y, z'
loop_
 _atom_site_type_symbol
 _atom_site_label
 _atom_site_symmetry_multiplicity
 _atom_site_fract_x
 _atom_site_fract_y
 _atom_site_fract_z
 _atom_site_occupancy
  Gd  Gd0  1  0.322669  0.830963  0.500000  1
  Gd  Gd1  1  0.832298  0.668153  0.500000  1
  Gd  Gd2  1  0.172632  0.326676  0.500000  1
  Gd  Gd3  1  0.669700  0.176466  0.500000  1
  Hg  Hg4  1  0.996264  0.999546  0.000000  1
  Hg  Hg5  1  0.500451  0.504156  0.000000  1
  Pd  Pd6  1  0.630712  0.869278  0.000000  1
  Pt  Pt7  1  0.374873  0.125016  0.000000  1
  Pt  Pt8  1  0.871369  0.370978  0.000000  1
  Pt  Pt9  1  0.129032  0.628766  0.000000  1
