# generated using pymatgen
data_Mn7CrTc4
_symmetry_space_group_name_H-M   'P 1'
_cell_length_a   4.66155559
_cell_length_b   4.67512300
_cell_length_c   7.68141900
_cell_angle_alpha   90.00000000
_cell_angle_beta   90.00000000
_cell_angle_gamma   120.09632038
_symmetry_Int_Tables_number   1
_chemical_formula_structural   Mn7CrTc4
_chemical_formula_sum   'Mn7 Cr1 Tc4'
_cell_volume   144.83504423
_cell_formula_units_Z   1
loop_
 _symmetry_equiv_pos_site_id
 _symmetry_equiv_pos_as_xyz
  1  'x, y, z'
loop_
 _atom_site_type_symbol
 _atom_site_label
 _atom_site_symmetry_multiplicity
 _atom_site_fract_x
 _atom_site_fract_y
 _atom_site_fract_z
 _atom_site_occupancy
  Mn  Mn0  1  0.345917  0.172958  0.250000  1
  Mn  Mn1  1  0.825955  0.173199  0.250000  1
  Mn  Mn2  1  0.170678  0.343816  0.750000  1
  Mn  Mn3  1  0.170678  0.826861  0.750000  1
  Mn  Mn4  1  0.825955  0.652757  0.250000  1
  Mn  Mn5  1  0.003368  0.001684  0.496706  1
  Mn  Mn6  1  0.003368  0.001684  0.003294  1
  Cr  Cr7  1  0.655131  0.827566  0.750000  1
  Tc  Tc8  1  0.333587  0.666794  0.432213  1
  Tc  Tc9  1  0.665887  0.332943  0.934323  1
  Tc  Tc10  1  0.665887  0.332943  0.565677  1
  Tc  Tc11  1  0.333587  0.666794  0.067787  1
