# generated using pymatgen
data_PrEr7(Sc3Sn4)4
_symmetry_space_group_name_H-M   'P 1'
_cell_length_a   7.65928201
_cell_length_b   7.93536501
_cell_length_c   14.79393600
_cell_angle_alpha   89.99797831
_cell_angle_beta   89.99717235
_cell_angle_gamma   90.00202159
_symmetry_Int_Tables_number   1
_chemical_formula_structural   PrEr7(Sc3Sn4)4
_chemical_formula_sum   'Pr1 Er7 Sc12 Sn16'
_cell_volume   899.16356990
_cell_formula_units_Z   1
loop_
 _symmetry_equiv_pos_site_id
 _symmetry_equiv_pos_as_xyz
  1  'x, y, z'
loop_
 _atom_site_type_symbol
 _atom_site_label
 _atom_site_symmetry_multiplicity
 _atom_site_fract_x
 _atom_site_fract_y
 _atom_site_fract_z
 _atom_site_occupancy
  Pr  Pr0  1  0.505904  0.675810  0.593068  1
  Er  Er1  1  0.991133  0.178481  0.093699  1
  Er  Er2  1  0.008503  0.822460  0.908940  1
  Er  Er3  1  0.511064  0.678161  0.905860  1
  Er  Er4  1  0.009381  0.823685  0.593519  1
  Er  Er5  1  0.490191  0.322205  0.093779  1
  Er  Er6  1  0.988538  0.176672  0.404053  1
  Er  Er7  1  0.491585  0.321328  0.404814  1
  Sc  Sc8  1  0.171776  0.494719  0.750856  1
  Sc  Sc9  1  0.829369  0.504022  0.249063  1
  Sc  Sc10  1  0.328833  0.995878  0.249519  1
  Sc  Sc11  1  0.671385  0.003842  0.750756  1
  Sc  Sc12  1  0.342052  0.160238  0.626927  1
  Sc  Sc13  1  0.659176  0.841113  0.372613  1
  Sc  Sc14  1  0.158719  0.661876  0.371208  1
  Sc  Sc15  1  0.657739  0.838881  0.126961  1
  Sc  Sc16  1  0.841573  0.338228  0.628353  1
  Sc  Sc17  1  0.341700  0.161037  0.874682  1
  Sc  Sc18  1  0.843751  0.339633  0.873562  1
  Sc  Sc19  1  0.157971  0.659938  0.127502  1
  Sn  Sn20  1  0.034310  0.123465  0.750788  1
  Sn  Sn21  1  0.965906  0.877205  0.248766  1
  Sn  Sn22  1  0.467447  0.623542  0.250329  1
  Sn  Sn23  1  0.534483  0.373128  0.751188  1
  Sn  Sn24  1  0.309048  0.851417  0.753339  1
  Sn  Sn25  1  0.686229  0.151530  0.249157  1
  Sn  Sn26  1  0.187357  0.348416  0.249478  1
  Sn  Sn27  1  0.816603  0.651832  0.752024  1
  Sn  Sn28  1  0.177119  0.453112  0.540521  1
  Sn  Sn29  1  0.820750  0.540606  0.455374  1
  Sn  Sn30  1  0.311964  0.960203  0.456296  1
  Sn  Sn31  1  0.814243  0.542398  0.042624  1
  Sn  Sn32  1  0.687179  0.046511  0.541236  1
  Sn  Sn33  1  0.187182  0.458601  0.958055  1
  Sn  Sn34  1  0.685264  0.043366  0.958095  1
  Sn  Sn35  1  0.314573  0.956462  0.042991  1
