# generated using pymatgen
data_Nd3Ni3Sb5Pd3
_symmetry_space_group_name_H-M   'P 1'
_cell_length_a   4.37661400
_cell_length_b   10.03677439
_cell_length_c   13.26696289
_cell_angle_alpha   89.91660891
_cell_angle_beta   90.00000000
_cell_angle_gamma   90.00000000
_symmetry_Int_Tables_number   1
_chemical_formula_structural   Nd3Ni3Sb5Pd3
_chemical_formula_sum   'Nd6 Ni6 Sb10 Pd6'
_cell_volume   582.77841976
_cell_formula_units_Z   2
loop_
 _symmetry_equiv_pos_site_id
 _symmetry_equiv_pos_as_xyz
  1  'x, y, z'
loop_
 _atom_site_type_symbol
 _atom_site_label
 _atom_site_symmetry_multiplicity
 _atom_site_fract_x
 _atom_site_fract_y
 _atom_site_fract_z
 _atom_site_occupancy
  Nd  Nd0  1  0.000000  0.241105  0.001315  1
  Nd  Nd1  1  0.500000  0.758895  0.498685  1
  Nd  Nd2  1  0.000000  0.248522  0.323575  1
  Nd  Nd3  1  0.500000  0.751478  0.176425  1
  Nd  Nd4  1  0.000000  0.242810  0.674169  1
  Nd  Nd5  1  0.500000  0.757190  0.825831  1
  Ni  Ni6  1  0.000000  0.994086  0.156100  1
  Ni  Ni7  1  0.500000  0.005914  0.343900  1
  Ni  Ni8  1  0.000000  0.989709  0.848893  1
  Ni  Ni9  1  0.500000  0.010291  0.651107  1
  Ni  Ni10  1  0.000000  0.619196  0.320068  1
  Ni  Ni11  1  0.500000  0.380804  0.179932  1
  Sb  Sb12  1  0.000000  0.508966  0.142663  1
  Sb  Sb13  1  0.500000  0.491034  0.357337  1
  Sb  Sb14  1  0.000000  0.522145  0.874861  1
  Sb  Sb15  1  0.500000  0.477855  0.625139  1
  Sb  Sb16  1  0.000000  0.871249  0.328072  1
  Sb  Sb17  1  0.500000  0.128751  0.171928  1
  Sb  Sb18  1  0.000000  0.879142  0.671604  1
  Sb  Sb19  1  0.500000  0.120858  0.828396  1
  Sb  Sb20  1  0.000000  0.829459  0.002654  1
  Sb  Sb21  1  0.500000  0.170541  0.497346  1
  Pd  Pd22  1  0.500000  0.986914  0.002078  1
  Pd  Pd23  1  0.000000  0.013086  0.497922  1
  Pd  Pd24  1  0.000000  0.615246  0.679874  1
  Pd  Pd25  1  0.500000  0.384754  0.820126  1
  Pd  Pd26  1  0.500000  0.517371  0.007326  1
  Pd  Pd27  1  0.000000  0.482629  0.492674  1
