# generated using pymatgen
data_Tb2PrSm(Mo2O7)2
_symmetry_space_group_name_H-M   'P 1'
_cell_length_a   7.41517090
_cell_length_b   7.53066546
_cell_length_c   7.41517167
_cell_angle_alpha   60.08635698
_cell_angle_beta   59.51837129
_cell_angle_gamma   60.08634982
_symmetry_Int_Tables_number   1
_chemical_formula_structural   Tb2PrSm(Mo2O7)2
_chemical_formula_sum   'Tb2 Pr1 Sm1 Mo4 O14'
_cell_volume   292.08988607
_cell_formula_units_Z   1
loop_
 _symmetry_equiv_pos_site_id
 _symmetry_equiv_pos_as_xyz
  1  'x, y, z'
loop_
 _atom_site_type_symbol
 _atom_site_label
 _atom_site_symmetry_multiplicity
 _atom_site_fract_x
 _atom_site_fract_y
 _atom_site_fract_z
 _atom_site_occupancy
  Tb  Tb0  1  0.625000  0.125000  0.125000  1
  Tb  Tb1  1  0.125000  0.125000  0.625000  1
  Pr  Pr2  1  0.125000  0.625000  0.125000  1
  Sm  Sm3  1  0.125000  0.125000  0.125000  1
  Mo  Mo4  1  0.625000  0.625000  0.625000  1
  Mo  Mo5  1  0.125000  0.625000  0.625000  1
  Mo  Mo6  1  0.625000  0.625000  0.125000  1
  Mo  Mo7  1  0.625000  0.125000  0.625000  1
  O  O8  1  0.997243  0.004344  0.997243  1
  O  O9  1  0.252757  0.245656  0.252757  1
  O  O10  1  0.288764  0.286968  0.707124  1
  O  O11  1  0.546738  0.533766  0.961234  1
  O  O12  1  0.715657  0.287102  0.715657  1
  O  O13  1  0.707124  0.286968  0.288764  1
  O  O14  1  0.288766  0.716234  0.703262  1
  O  O15  1  0.289128  0.717189  0.289128  1
  O  O16  1  0.703262  0.716234  0.288766  1
  O  O17  1  0.961234  0.533766  0.546738  1
  O  O18  1  0.542876  0.963032  0.961236  1
  O  O19  1  0.961236  0.963032  0.542876  1
  O  O20  1  0.960872  0.532811  0.960872  1
  O  O21  1  0.534343  0.962898  0.534343  1
