# generated using pymatgen
data_DyYTiSi3Ir4
_symmetry_space_group_name_H-M   'P 1'
_cell_length_a   4.07071700
_cell_length_b   4.07010900
_cell_length_c   10.42733900
_cell_angle_alpha   90.00000000
_cell_angle_beta   90.00000000
_cell_angle_gamma   90.00000000
_symmetry_Int_Tables_number   1
_chemical_formula_structural   DyYTiSi3Ir4
_chemical_formula_sum   'Dy1 Y1 Ti1 Si3 Ir4'
_cell_volume   172.76288345
_cell_formula_units_Z   1
loop_
 _symmetry_equiv_pos_site_id
 _symmetry_equiv_pos_as_xyz
  1  'x, y, z'
loop_
 _atom_site_type_symbol
 _atom_site_label
 _atom_site_symmetry_multiplicity
 _atom_site_fract_x
 _atom_site_fract_y
 _atom_site_fract_z
 _atom_site_occupancy
  Dy  Dy0  1  0.500000  0.000000  0.758637  1
  Y  Y1  1  0.000000  0.500000  0.241282  1
  Ti  Ti2  1  0.000000  0.000000  0.500101  1
  Si  Si3  1  0.500000  0.500000  0.499987  1
  Si  Si4  1  0.000000  0.500000  0.873508  1
  Si  Si5  1  0.500000  0.000000  0.126523  1
  Ir  Ir6  1  0.000000  0.000000  0.999761  1
  Ir  Ir7  1  0.500000  0.500000  0.999809  1
  Ir  Ir8  1  0.000000  0.500000  0.643627  1
  Ir  Ir9  1  0.500000  0.000000  0.356765  1
