# generated using pymatgen
data_YbHo7SiPd24
_symmetry_space_group_name_H-M   'P 1'
_cell_length_a   8.30997300
_cell_length_b   8.30997300
_cell_length_c   8.30997300
_cell_angle_alpha   89.99936568
_cell_angle_beta   90.00063432
_cell_angle_gamma   90.00063433
_symmetry_Int_Tables_number   1
_chemical_formula_structural   YbHo7SiPd24
_chemical_formula_sum   'Yb1 Ho7 Si1 Pd24'
_cell_volume   573.85059747
_cell_formula_units_Z   1
loop_
 _symmetry_equiv_pos_site_id
 _symmetry_equiv_pos_as_xyz
  1  'x, y, z'
loop_
 _atom_site_type_symbol
 _atom_site_label
 _atom_site_symmetry_multiplicity
 _atom_site_fract_x
 _atom_site_fract_y
 _atom_site_fract_z
 _atom_site_occupancy
  Yb  Yb0  1  0.746938  0.253062  0.253062  1
  Ho  Ho1  1  0.253397  0.253392  0.253392  1
  Ho  Ho2  1  0.746631  0.746554  0.746554  1
  Ho  Ho3  1  0.746608  0.746603  0.253392  1
  Ho  Ho4  1  0.746608  0.253392  0.746603  1
  Ho  Ho5  1  0.253446  0.253369  0.746554  1
  Ho  Ho6  1  0.253446  0.746554  0.253369  1
  Ho  Ho7  1  0.253378  0.746622  0.746622  1
  Si  Si8  1  0.999711  0.000289  0.000289  1
  Pd  Pd9  1  0.256972  0.500046  0.999891  1
  Pd  Pd10  1  0.743013  0.500076  0.999867  1
  Pd  Pd11  1  0.000133  0.256987  0.500076  1
  Pd  Pd12  1  0.499924  0.256987  0.999867  1
  Pd  Pd13  1  0.000109  0.743028  0.500046  1
  Pd  Pd14  1  0.499954  0.743028  0.999891  1
  Pd  Pd15  1  0.499924  0.999867  0.256987  1
  Pd  Pd16  1  0.256972  0.999891  0.500046  1
  Pd  Pd17  1  0.499954  0.999891  0.743028  1
  Pd  Pd18  1  0.743013  0.999867  0.500076  1
  Pd  Pd19  1  0.000133  0.500076  0.256987  1
  Pd  Pd20  1  0.000109  0.500046  0.743028  1
  Pd  Pd21  1  0.251836  0.500081  0.500081  1
  Pd  Pd22  1  0.748258  0.500028  0.500028  1
  Pd  Pd23  1  0.499972  0.251742  0.500028  1
  Pd  Pd24  1  0.499919  0.748164  0.500081  1
  Pd  Pd25  1  0.499972  0.500028  0.251742  1
  Pd  Pd26  1  0.499919  0.500081  0.748164  1
  Pd  Pd27  1  0.279972  0.999995  0.999995  1
  Pd  Pd28  1  0.720123  0.000179  0.000179  1
  Pd  Pd29  1  0.999821  0.279877  0.000179  1
  Pd  Pd30  1  0.000005  0.720028  0.999995  1
  Pd  Pd31  1  0.999821  0.000179  0.279877  1
  Pd  Pd32  1  0.000005  0.999995  0.720028  1
