# generated using pymatgen
data_YbIClO3
_symmetry_space_group_name_H-M   'P 1'
_cell_length_a   8.89529289
_cell_length_b   8.89529382
_cell_length_c   7.34645400
_cell_angle_alpha   90.00000000
_cell_angle_beta   90.00000000
_cell_angle_gamma   129.63540516
_symmetry_Int_Tables_number   1
_chemical_formula_structural   YbIClO3
_chemical_formula_sum   'Yb4 I4 Cl4 O12'
_cell_volume   447.66822461
_cell_formula_units_Z   4
loop_
 _symmetry_equiv_pos_site_id
 _symmetry_equiv_pos_as_xyz
  1  'x, y, z'
loop_
 _atom_site_type_symbol
 _atom_site_label
 _atom_site_symmetry_multiplicity
 _atom_site_fract_x
 _atom_site_fract_y
 _atom_site_fract_z
 _atom_site_occupancy
  Yb  Yb0  1  0.344980  0.155020  0.750000  1
  Yb  Yb1  1  0.155020  0.344980  0.250000  1
  Yb  Yb2  1  0.655020  0.844980  0.250000  1
  Yb  Yb3  1  0.844980  0.655020  0.750000  1
  I  I4  1  0.602043  0.397957  0.281012  1
  I  I5  1  0.397957  0.602043  0.718988  1
  I  I6  1  0.897957  0.102043  0.781012  1
  I  I7  1  0.102043  0.897957  0.218988  1
  Cl  Cl8  1  0.210347  0.789653  0.662825  1
  Cl  Cl9  1  0.789653  0.210347  0.337175  1
  Cl  Cl10  1  0.289653  0.710347  0.162825  1
  Cl  Cl11  1  0.710347  0.289653  0.837175  1
  O  O12  1  0.411809  0.214391  0.439358  1
  O  O13  1  0.214391  0.411809  0.560642  1
  O  O14  1  0.714392  0.911809  0.939358  1
  O  O15  1  0.911809  0.714391  0.060642  1
  O  O16  1  0.588191  0.785609  0.560642  1
  O  O17  1  0.785609  0.588191  0.439358  1
  O  O18  1  0.285609  0.088191  0.060642  1
  O  O19  1  0.088191  0.285609  0.939358  1
  O  O20  1  0.489624  0.510376  0.221736  1
  O  O21  1  0.510376  0.489624  0.778264  1
  O  O22  1  0.010376  0.989624  0.721736  1
  O  O23  1  0.989624  0.010376  0.278264  1
