# generated using pymatgen
data_Sr8MgV16(NiO8)7
_symmetry_space_group_name_H-M   'P 1'
_cell_length_a   14.96743222
_cell_length_b   6.90218988
_cell_length_c   11.43864843
_cell_angle_alpha   80.32331659
_cell_angle_beta   89.99346500
_cell_angle_gamma   90.01652712
_symmetry_Int_Tables_number   1
_chemical_formula_structural   Sr8MgV16(NiO8)7
_chemical_formula_sum   'Sr8 Mg1 V16 Ni7 O56'
_cell_volume   1164.89115868
_cell_formula_units_Z   1
loop_
 _symmetry_equiv_pos_site_id
 _symmetry_equiv_pos_as_xyz
  1  'x, y, z'
loop_
 _atom_site_type_symbol
 _atom_site_label
 _atom_site_symmetry_multiplicity
 _atom_site_fract_x
 _atom_site_fract_y
 _atom_site_fract_z
 _atom_site_occupancy
  Sr  Sr0  1  0.005031  0.917045  0.744832  1
  Sr  Sr1  1  0.994510  0.083148  0.255101  1
  Sr  Sr2  1  0.505419  0.082908  0.754838  1
  Sr  Sr3  1  0.495597  0.917016  0.244967  1
  Sr  Sr4  1  0.375908  0.658033  0.978746  1
  Sr  Sr5  1  0.624194  0.342317  0.021239  1
  Sr  Sr6  1  0.875795  0.342332  0.521366  1
  Sr  Sr7  1  0.123922  0.657005  0.479326  1
  Mg  Mg8  1  0.254022  0.997028  0.249469  1
  V  V9  1  0.362243  0.871623  0.521568  1
  V  V10  1  0.638491  0.128189  0.478701  1
  V  V11  1  0.861561  0.128301  0.978662  1
  V  V12  1  0.137689  0.872466  0.020349  1
  V  V13  1  0.012154  0.409768  0.821485  1
  V  V14  1  0.987715  0.590278  0.178428  1
  V  V15  1  0.512255  0.589920  0.678924  1
  V  V16  1  0.487780  0.409622  0.321655  1
  V  V17  1  0.862439  0.844487  0.518779  1
  V  V18  1  0.136983  0.155316  0.481718  1
  V  V19  1  0.362932  0.155969  0.980537  1
  V  V20  1  0.637573  0.844473  0.018666  1
  V  V21  1  0.202198  0.484098  0.801526  1
  V  V22  1  0.797736  0.515940  0.198523  1
  V  V23  1  0.702207  0.515886  0.698519  1
  V  V24  1  0.297780  0.483831  0.301892  1
  Ni  Ni25  1  0.323806  0.362334  0.577569  1
  Ni  Ni26  1  0.676116  0.637603  0.422586  1
  Ni  Ni27  1  0.823849  0.637728  0.922427  1
  Ni  Ni28  1  0.176132  0.363322  0.077385  1
  Ni  Ni29  1  0.246114  0.998505  0.749771  1
  Ni  Ni30  1  0.753980  0.001072  0.250062  1
  Ni  Ni31  1  0.746162  0.001204  0.749918  1
  O  O32  1  0.291385  0.674381  0.549668  1
  O  O33  1  0.709017  0.325746  0.450190  1
  O  O34  1  0.791037  0.325750  0.950183  1
  O  O35  1  0.208938  0.675977  0.049860  1
  O  O36  1  0.480852  0.716266  0.787481  1
  O  O37  1  0.518978  0.283742  0.212794  1
  O  O38  1  0.980839  0.283568  0.712848  1
  O  O39  1  0.019129  0.716782  0.286897  1
  O  O40  1  0.143267  0.970625  0.871003  1
  O  O41  1  0.856294  0.029435  0.127983  1
  O  O42  1  0.643765  0.029374  0.627993  1
  O  O43  1  0.357698  0.969602  0.372347  1
  O  O44  1  0.102327  0.568942  0.717044  1
  O  O45  1  0.897678  0.431045  0.282869  1
  O  O46  1  0.602323  0.430842  0.782982  1
  O  O47  1  0.397553  0.569682  0.217425  1
  O  O48  1  0.783855  0.648669  0.538452  1
  O  O49  1  0.216055  0.350213  0.462096  1
  O  O50  1  0.283998  0.351372  0.961784  1
  O  O51  1  0.716107  0.648621  0.038420  1
  O  O52  1  0.852550  0.991539  0.628399  1
  O  O53  1  0.146706  0.008689  0.372111  1
  O  O54  1  0.352766  0.008756  0.871150  1
  O  O55  1  0.647509  0.991552  0.128320  1
  O  O56  1  0.246290  0.309940  0.723751  1
  O  O57  1  0.753726  0.690100  0.276383  1
  O  O58  1  0.746249  0.690106  0.776319  1
  O  O59  1  0.253645  0.311006  0.223929  1
  O  O60  1  0.438426  0.405311  0.668543  1
  O  O61  1  0.561624  0.594381  0.331656  1
  O  O62  1  0.938400  0.594604  0.831504  1
  O  O63  1  0.061496  0.405433  0.168482  1
  O  O64  1  0.472116  0.780139  0.550102  1
  O  O65  1  0.528558  0.219883  0.450547  1
  O  O66  1  0.971557  0.219824  0.950424  1
  O  O67  1  0.027931  0.779773  0.049012  1
  O  O68  1  0.966579  0.741395  0.538099  1
  O  O69  1  0.033036  0.259531  0.462447  1
  O  O70  1  0.466968  0.259509  0.961180  1
  O  O71  1  0.533432  0.741329  0.038076  1
  O  O72  1  0.118435  0.399011  0.917239  1
  O  O73  1  0.881405  0.601340  0.082763  1
  O  O74  1  0.618502  0.601245  0.582891  1
  O  O75  1  0.381573  0.397518  0.417350  1
  O  O76  1  0.144171  0.998769  0.617469  1
  O  O77  1  0.855554  0.000949  0.382855  1
  O  O78  1  0.644428  0.000945  0.882753  1
  O  O79  1  0.356406  0.999736  0.116355  1
  O  O80  1  0.263893  0.692332  0.795719  1
  O  O81  1  0.736168  0.307534  0.204354  1
  O  O82  1  0.763795  0.307579  0.704311  1
  O  O83  1  0.235337  0.690246  0.297299  1
  O  O84  1  0.840142  0.950935  0.885765  1
  O  O85  1  0.159054  0.049687  0.112629  1
  O  O86  1  0.340409  0.049091  0.614252  1
  O  O87  1  0.659778  0.950879  0.385705  1
