# generated using pymatgen
data_Tb3Be2Ir5
_symmetry_space_group_name_H-M   'P 1'
_cell_length_a   9.87529700
_cell_length_b   9.87529700
_cell_length_c   3.39653000
_cell_angle_alpha   90.00000000
_cell_angle_beta   90.00000000
_cell_angle_gamma   90.00000000
_symmetry_Int_Tables_number   1
_chemical_formula_structural   Tb3Be2Ir5
_chemical_formula_sum   'Tb6 Be4 Ir10'
_cell_volume   331.23466928
_cell_formula_units_Z   2
loop_
 _symmetry_equiv_pos_site_id
 _symmetry_equiv_pos_as_xyz
  1  'x, y, z'
loop_
 _atom_site_type_symbol
 _atom_site_label
 _atom_site_symmetry_multiplicity
 _atom_site_fract_x
 _atom_site_fract_y
 _atom_site_fract_z
 _atom_site_occupancy
  Tb  Tb0  1  0.175532  0.675532  0.000000  1
  Tb  Tb1  1  0.324468  0.175532  0.000000  1
  Tb  Tb2  1  0.824468  0.324468  0.000000  1
  Tb  Tb3  1  0.500000  0.500000  0.000000  1
  Tb  Tb4  1  0.675532  0.824468  0.000000  1
  Tb  Tb5  1  0.000000  0.000000  0.000000  1
  Be  Be6  1  0.379726  0.879726  0.000000  1
  Be  Be7  1  0.120274  0.379726  0.000000  1
  Be  Be8  1  0.879726  0.620274  0.000000  1
  Be  Be9  1  0.620274  0.120274  0.000000  1
  Ir  Ir10  1  0.224124  0.929727  0.500000  1
  Ir  Ir11  1  0.929727  0.775876  0.500000  1
  Ir  Ir12  1  0.429727  0.724124  0.500000  1
  Ir  Ir13  1  0.570273  0.275876  0.500000  1
  Ir  Ir14  1  0.724124  0.570273  0.500000  1
  Ir  Ir15  1  0.275876  0.429727  0.500000  1
  Ir  Ir16  1  0.070273  0.224124  0.500000  1
  Ir  Ir17  1  0.000000  0.500000  0.500000  1
  Ir  Ir18  1  0.500000  0.000000  0.500000  1
  Ir  Ir19  1  0.775876  0.070273  0.500000  1
