# generated using pymatgen
data_Nd8DyHo11Pb16
_symmetry_space_group_name_H-M   'P 1'
_cell_length_a   8.27816970
_cell_length_b   8.36553772
_cell_length_c   15.79433875
_cell_angle_alpha   90.00325495
_cell_angle_beta   90.09856060
_cell_angle_gamma   90.06285198
_symmetry_Int_Tables_number   1
_chemical_formula_structural   Nd8DyHo11Pb16
_chemical_formula_sum   'Nd8 Dy1 Ho11 Pb16'
_cell_volume   1093.77685914
_cell_formula_units_Z   1
loop_
 _symmetry_equiv_pos_site_id
 _symmetry_equiv_pos_as_xyz
  1  'x, y, z'
loop_
 _atom_site_type_symbol
 _atom_site_label
 _atom_site_symmetry_multiplicity
 _atom_site_fract_x
 _atom_site_fract_y
 _atom_site_fract_z
 _atom_site_occupancy
  Nd  Nd0  1  0.472751  0.678404  0.598258  1
  Nd  Nd1  1  0.974833  0.821800  0.902967  1
  Nd  Nd2  1  0.525847  0.322136  0.097662  1
  Nd  Nd3  1  0.027138  0.176986  0.401194  1
  Nd  Nd4  1  0.525852  0.322362  0.401577  1
  Nd  Nd5  1  0.025485  0.177793  0.097790  1
  Nd  Nd6  1  0.474932  0.678467  0.902632  1
  Nd  Nd7  1  0.973637  0.822156  0.598096  1
  Dy  Dy8  1  0.130787  0.340786  0.621223  1
  Ho  Ho9  1  0.632146  0.159038  0.622499  1
  Ho  Ho10  1  0.132318  0.341520  0.878024  1
  Ho  Ho11  1  0.367367  0.841574  0.122161  1
  Ho  Ho12  1  0.867946  0.658131  0.377755  1
  Ho  Ho13  1  0.368816  0.841550  0.376944  1
  Ho  Ho14  1  0.867632  0.658468  0.122258  1
  Ho  Ho15  1  0.632375  0.158365  0.878585  1
  Ho  Ho16  1  0.798303  0.494682  0.750145  1
  Ho  Ho17  1  0.298663  0.005313  0.750149  1
  Ho  Ho18  1  0.201763  0.505276  0.249389  1
  Ho  Ho19  1  0.701877  0.995200  0.250128  1
  Pb  Pb20  1  0.708342  0.960648  0.456730  1
  Pb  Pb21  1  0.207584  0.539604  0.043209  1
  Pb  Pb22  1  0.292114  0.040055  0.957041  1
  Pb  Pb23  1  0.789223  0.461794  0.543316  1
  Pb  Pb24  1  0.293079  0.037824  0.543034  1
  Pb  Pb25  1  0.792534  0.460592  0.956808  1
  Pb  Pb26  1  0.707627  0.959795  0.043698  1
  Pb  Pb27  1  0.208061  0.540043  0.455586  1
  Pb  Pb28  1  0.436178  0.370913  0.750832  1
  Pb  Pb29  1  0.936068  0.128016  0.750732  1
  Pb  Pb30  1  0.563931  0.629177  0.249552  1
  Pb  Pb31  1  0.063567  0.870714  0.249883  1
  Pb  Pb32  1  0.663245  0.850038  0.750519  1
  Pb  Pb33  1  0.162748  0.650605  0.750551  1
  Pb  Pb34  1  0.337440  0.150265  0.249413  1
  Pb  Pb35  1  0.837787  0.349910  0.249662  1
