# generated using pymatgen
data_PrNd7(Si3Au)4
_symmetry_space_group_name_H-M   'P 1'
_cell_length_a   8.29661187
_cell_length_b   8.29662799
_cell_length_c   8.68877900
_cell_angle_alpha   90.00000000
_cell_angle_beta   90.00000000
_cell_angle_gamma   120.01100599
_symmetry_Int_Tables_number   1
_chemical_formula_structural   PrNd7(Si3Au)4
_chemical_formula_sum   'Pr1 Nd7 Si12 Au4'
_cell_volume   517.89724159
_cell_formula_units_Z   1
loop_
 _symmetry_equiv_pos_site_id
 _symmetry_equiv_pos_as_xyz
  1  'x, y, z'
loop_
 _atom_site_type_symbol
 _atom_site_label
 _atom_site_symmetry_multiplicity
 _atom_site_fract_x
 _atom_site_fract_y
 _atom_site_fract_z
 _atom_site_occupancy
  Pr  Pr0  1  0.499218  0.500781  0.750000  1
  Nd  Nd1  1  0.500761  0.499239  0.250000  1
  Nd  Nd2  1  0.001466  0.500745  0.750000  1
  Nd  Nd3  1  0.998479  0.499243  0.250000  1
  Nd  Nd4  1  0.499255  0.998534  0.750000  1
  Nd  Nd5  1  0.500757  0.001521  0.250000  1
  Nd  Nd6  1  0.000004  0.999996  0.750000  1
  Nd  Nd7  1  0.000001  0.999999  0.250000  1
  Si  Si8  1  0.836107  0.163893  0.999254  1
  Si  Si9  1  0.163903  0.836097  0.000681  1
  Si  Si10  1  0.327786  0.163781  0.999784  1
  Si  Si11  1  0.163903  0.836097  0.499319  1
  Si  Si12  1  0.672218  0.836219  0.001242  1
  Si  Si13  1  0.836107  0.163893  0.500746  1
  Si  Si14  1  0.836219  0.672213  0.999784  1
  Si  Si15  1  0.672218  0.836219  0.498758  1
  Si  Si16  1  0.163781  0.327782  0.001242  1
  Si  Si17  1  0.327786  0.163781  0.500216  1
  Si  Si18  1  0.163781  0.327782  0.498758  1
  Si  Si19  1  0.836219  0.672213  0.500216  1
  Au  Au20  1  0.666888  0.333112  0.998454  1
  Au  Au21  1  0.333127  0.666873  0.003315  1
  Au  Au22  1  0.333127  0.666873  0.496685  1
  Au  Au23  1  0.666888  0.333112  0.501546  1
