# generated using pymatgen
data_LiIn2FeRh4
_symmetry_space_group_name_H-M   'P 1'
_cell_length_a   4.42357000
_cell_length_b   4.42357000
_cell_length_c   6.26088600
_cell_angle_alpha   90.00000000
_cell_angle_beta   90.00000000
_cell_angle_gamma   90.00000000
_symmetry_Int_Tables_number   1
_chemical_formula_structural   LiIn2FeRh4
_chemical_formula_sum   'Li1 In2 Fe1 Rh4'
_cell_volume   122.51283909
_cell_formula_units_Z   1
loop_
 _symmetry_equiv_pos_site_id
 _symmetry_equiv_pos_as_xyz
  1  'x, y, z'
loop_
 _atom_site_type_symbol
 _atom_site_label
 _atom_site_symmetry_multiplicity
 _atom_site_fract_x
 _atom_site_fract_y
 _atom_site_fract_z
 _atom_site_occupancy
  Li  Li0  1  0.000000  0.000000  0.499999  1
  In  In1  1  0.000000  0.000000  0.000000  1
  In  In2  1  0.499998  0.499998  0.499999  1
  Fe  Fe3  1  0.499998  0.499998  0.000000  1
  Rh  Rh4  1  0.499998  0.000000  0.243768  1
  Rh  Rh5  1  0.000000  0.499998  0.243768  1
  Rh  Rh6  1  0.499998  0.000000  0.756233  1
  Rh  Rh7  1  0.000000  0.499998  0.756233  1
