# generated using pymatgen
data_Tb(Eu4Pt3)2
_symmetry_space_group_name_H-M   'P 1'
_cell_length_a   7.87133322
_cell_length_b   7.87133325
_cell_length_c   7.87133275
_cell_angle_alpha   70.58761076
_cell_angle_beta   70.58761102
_cell_angle_gamma   70.58760390
_symmetry_Int_Tables_number   1
_chemical_formula_structural   Tb(Eu4Pt3)2
_chemical_formula_sum   'Tb1 Eu8 Pt6'
_cell_volume   420.10303838
_cell_formula_units_Z   1
loop_
 _symmetry_equiv_pos_site_id
 _symmetry_equiv_pos_as_xyz
  1  'x, y, z'
loop_
 _atom_site_type_symbol
 _atom_site_label
 _atom_site_symmetry_multiplicity
 _atom_site_fract_x
 _atom_site_fract_y
 _atom_site_fract_z
 _atom_site_occupancy
  Tb  Tb0  1  0.000000  0.000000  0.000000  1
  Eu  Eu1  1  0.151732  0.398196  0.671680  1
  Eu  Eu2  1  0.671680  0.151732  0.398196  1
  Eu  Eu3  1  0.398195  0.671680  0.151733  1
  Eu  Eu4  1  0.848267  0.601804  0.328320  1
  Eu  Eu5  1  0.328319  0.848268  0.601804  1
  Eu  Eu6  1  0.601804  0.328320  0.848267  1
  Eu  Eu7  1  0.199337  0.199337  0.199338  1
  Eu  Eu8  1  0.800662  0.800662  0.800662  1
  Pt  Pt9  1  0.396055  0.043072  0.845128  1
  Pt  Pt10  1  0.845128  0.396055  0.043073  1
  Pt  Pt11  1  0.043073  0.845128  0.396055  1
  Pt  Pt12  1  0.603945  0.956928  0.154872  1
  Pt  Pt13  1  0.154872  0.603946  0.956927  1
  Pt  Pt14  1  0.956927  0.154872  0.603945  1
