# generated using pymatgen
data_Th8Sc11Si16W
_symmetry_space_group_name_H-M   'P 1'
_cell_length_a   7.36634003
_cell_length_b   7.36652019
_cell_length_c   13.73498000
_cell_angle_alpha   89.89293766
_cell_angle_beta   89.92671517
_cell_angle_gamma   89.98269733
_symmetry_Int_Tables_number   1
_chemical_formula_structural   Th8Sc11Si16W
_chemical_formula_sum   'Th8 Sc11 Si16 W1'
_cell_volume   745.31702836
_cell_formula_units_Z   1
loop_
 _symmetry_equiv_pos_site_id
 _symmetry_equiv_pos_as_xyz
  1  'x, y, z'
loop_
 _atom_site_type_symbol
 _atom_site_label
 _atom_site_symmetry_multiplicity
 _atom_site_fract_x
 _atom_site_fract_y
 _atom_site_fract_z
 _atom_site_occupancy
  Th  Th0  1  0.001804  0.341014  0.219237  1
  Th  Th1  1  0.001964  0.661499  0.713349  1
  Th  Th2  1  0.157757  0.497557  0.465519  1
  Th  Th3  1  0.497309  0.844901  0.037207  1
  Th  Th4  1  0.839294  0.500937  0.965311  1
  Th  Th5  1  0.502819  0.157208  0.531344  1
  Th  Th6  1  0.341670  0.001171  0.783949  1
  Th  Th7  1  0.659521  0.997546  0.285153  1
  Sc  Sc8  1  0.169358  0.170010  0.002469  1
  Sc  Sc9  1  0.835447  0.833200  0.497218  1
  Sc  Sc10  1  0.325537  0.674028  0.252627  1
  Sc  Sc11  1  0.670167  0.333075  0.750321  1
  Sc  Sc12  1  0.842255  0.001397  0.876392  1
  Sc  Sc13  1  0.500134  0.660765  0.623167  1
  Sc  Sc14  1  0.343333  0.499103  0.873634  1
  Sc  Sc15  1  0.495564  0.339823  0.128932  1
  Sc  Sc16  1  0.658745  0.501570  0.373751  1
  Sc  Sc17  1  0.997043  0.159333  0.622235  1
  Sc  Sc18  1  0.999334  0.840035  0.124417  1
  Si  Si19  1  0.286233  0.041283  0.193654  1
  Si  Si20  1  0.709175  0.956652  0.685218  1
  Si  Si21  1  0.443694  0.793190  0.432610  1
  Si  Si22  1  0.207256  0.545071  0.065192  1
  Si  Si23  1  0.542737  0.207937  0.935871  1
  Si  Si24  1  0.790800  0.458514  0.565454  1
  Si  Si25  1  0.045178  0.292636  0.814360  1
  Si  Si26  1  0.965368  0.718325  0.317381  1
  Si  Si27  1  0.366214  0.278360  0.322885  1
  Si  Si28  1  0.631933  0.707539  0.816622  1
  Si  Si29  1  0.204306  0.873127  0.558123  1
  Si  Si30  1  0.131706  0.794862  0.932969  1
  Si  Si31  1  0.794576  0.131775  0.068905  1
  Si  Si32  1  0.882809  0.195437  0.426830  1
  Si  Si33  1  0.294727  0.368631  0.680771  1
  Si  Si34  1  0.704154  0.628319  0.181817  1
  W  W35  1  0.160080  0.994171  0.375106  1
