# generated using pymatgen
data_Ba10Ga4Si13Bi
_symmetry_space_group_name_H-M   'P 1'
_cell_length_a   6.74063282
_cell_length_b   6.74063198
_cell_length_c   18.45209200
_cell_angle_alpha   81.68182329
_cell_angle_beta   81.68182433
_cell_angle_gamma   100.44501007
_symmetry_Int_Tables_number   1
_chemical_formula_structural   Ba10Ga4Si13Bi
_chemical_formula_sum   'Ba10 Ga4 Si13 Bi1'
_cell_volume   803.14487591
_cell_formula_units_Z   1
loop_
 _symmetry_equiv_pos_site_id
 _symmetry_equiv_pos_as_xyz
  1  'x, y, z'
loop_
 _atom_site_type_symbol
 _atom_site_label
 _atom_site_symmetry_multiplicity
 _atom_site_fract_x
 _atom_site_fract_y
 _atom_site_fract_z
 _atom_site_occupancy
  Ba  Ba0  1  0.745946  0.254621  0.002776  1
  Ba  Ba1  1  0.115982  0.566732  0.784773  1
  Ba  Ba2  1  0.290664  0.709800  0.498941  1
  Ba  Ba3  1  0.764097  0.764097  0.636710  1
  Ba  Ba4  1  0.242350  0.242350  0.355062  1
  Ba  Ba5  1  0.566732  0.115982  0.784773  1
  Ba  Ba6  1  0.254621  0.745946  0.002776  1
  Ba  Ba7  1  0.709800  0.290664  0.498941  1
  Ba  Ba8  1  0.426378  0.883935  0.212761  1
  Ba  Ba9  1  0.883935  0.426378  0.212761  1
  Ga  Ga10  1  0.219019  0.219019  0.072361  1
  Ga  Ga11  1  0.941222  0.941222  0.263099  1
  Ga  Ga12  1  0.051072  0.051072  0.736153  1
  Ga  Ga13  1  0.796777  0.796777  0.940387  1
  Si  Si14  1  0.348162  0.348162  0.642259  1
  Si  Si15  1  0.273026  0.273026  0.934916  1
  Si  Si16  1  0.933114  0.933114  0.131674  1
  Si  Si17  1  0.651712  0.651712  0.357089  1
  Si  Si18  1  0.424682  0.424682  0.148106  1
  Si  Si19  1  0.065082  0.065082  0.868758  1
  Si  Si20  1  0.817443  0.817443  0.448072  1
  Si  Si21  1  0.332501  0.977672  0.640397  1
  Si  Si22  1  0.667643  0.022551  0.358744  1
  Si  Si23  1  0.184030  0.184030  0.550299  1
  Si  Si24  1  0.977672  0.332501  0.640397  1
  Si  Si25  1  0.022551  0.667643  0.358744  1
  Si  Si26  1  0.702828  0.702828  0.073986  1
  Bi  Bi27  1  0.590962  0.590962  0.844283  1
