# generated using pymatgen
data_Tb2Nd4Cd23Sn
_symmetry_space_group_name_H-M   'P 1'
_cell_length_a   10.08713338
_cell_length_b   10.01212117
_cell_length_c   10.01212100
_cell_angle_alpha   60.51787173
_cell_angle_beta   59.75184964
_cell_angle_gamma   59.75185320
_symmetry_Int_Tables_number   1
_chemical_formula_structural   Tb2Nd4Cd23Sn
_chemical_formula_sum   'Tb2 Nd4 Cd23 Sn1'
_cell_volume   715.02914169
_cell_formula_units_Z   1
loop_
 _symmetry_equiv_pos_site_id
 _symmetry_equiv_pos_as_xyz
  1  'x, y, z'
loop_
 _atom_site_type_symbol
 _atom_site_label
 _atom_site_symmetry_multiplicity
 _atom_site_fract_x
 _atom_site_fract_y
 _atom_site_fract_z
 _atom_site_occupancy
  Tb  Tb0  1  0.778137  0.780067  0.219933  1
  Tb  Tb1  1  0.221863  0.780067  0.219933  1
  Nd  Nd2  1  0.774228  0.226811  0.224734  1
  Nd  Nd3  1  0.218085  0.219316  0.780684  1
  Nd  Nd4  1  0.781915  0.219316  0.780684  1
  Nd  Nd5  1  0.225772  0.775266  0.773189  1
  Cd  Cd6  1  0.845970  0.844495  0.463565  1
  Cd  Cd7  1  0.837597  0.484105  0.840702  1
  Cd  Cd8  1  0.473435  0.839007  0.842108  1
  Cd  Cd9  1  0.845452  0.839007  0.842108  1
  Cd  Cd10  1  0.162403  0.159298  0.515895  1
  Cd  Cd11  1  0.154030  0.536435  0.155505  1
  Cd  Cd12  1  0.526565  0.157892  0.160993  1
  Cd  Cd13  1  0.154548  0.157892  0.160993  1
  Cd  Cd14  1  0.619265  0.631940  0.129529  1
  Cd  Cd15  1  0.625565  0.117182  0.631687  1
  Cd  Cd16  1  0.124776  0.625702  0.619984  1
  Cd  Cd17  1  0.629538  0.625702  0.619984  1
  Cd  Cd18  1  0.374435  0.368313  0.882818  1
  Cd  Cd19  1  0.380735  0.870471  0.368060  1
  Cd  Cd20  1  0.875224  0.380016  0.374298  1
  Cd  Cd21  1  0.370462  0.380016  0.374298  1
  Cd  Cd22  1  0.000511  0.998428  0.499947  1
  Cd  Cd23  1  0.501114  0.998428  0.499947  1
  Cd  Cd24  1  0.000000  0.500323  0.499677  1
  Cd  Cd25  1  0.498886  0.500053  0.001572  1
  Cd  Cd26  1  0.999489  0.500053  0.001572  1
  Cd  Cd27  1  0.500000  0.999428  0.000572  1
  Cd  Cd28  1  0.500000  0.491680  0.508320  1
  Sn  Sn29  1  0.000000  0.993291  0.006709  1
