# generated using pymatgen
data_Ca2Ni7SnB2
_symmetry_space_group_name_H-M   'P 1'
_cell_length_a   5.20093400
_cell_length_b   5.20093403
_cell_length_c   6.93400000
_cell_angle_alpha   90.00000000
_cell_angle_beta   90.00000000
_cell_angle_gamma   119.99999982
_symmetry_Int_Tables_number   1
_chemical_formula_structural   Ca2Ni7SnB2
_chemical_formula_sum   'Ca2 Ni7 Sn1 B2'
_cell_volume   162.43408163
_cell_formula_units_Z   1
loop_
 _symmetry_equiv_pos_site_id
 _symmetry_equiv_pos_as_xyz
  1  'x, y, z'
loop_
 _atom_site_type_symbol
 _atom_site_label
 _atom_site_symmetry_multiplicity
 _atom_site_fract_x
 _atom_site_fract_y
 _atom_site_fract_z
 _atom_site_occupancy
  Ca  Ca0  1  0.000000  0.000000  0.500000  1
  Ca  Ca1  1  0.000000  0.000000  0.000000  1
  Ni  Ni2  1  0.501633  0.498367  0.806919  1
  Ni  Ni3  1  0.996734  0.498367  0.806919  1
  Ni  Ni4  1  0.666667  0.333333  0.500000  1
  Ni  Ni5  1  0.501633  0.003266  0.806919  1
  Ni  Ni6  1  0.996734  0.498367  0.193081  1
  Ni  Ni7  1  0.501633  0.498367  0.193081  1
  Ni  Ni8  1  0.501633  0.003266  0.193081  1
  Sn  Sn9  1  0.333333  0.666667  0.500000  1
  B  B10  1  0.666667  0.333333  0.000000  1
  B  B11  1  0.333333  0.666667  0.000000  1
