# generated using pymatgen
data_TlCr(S2O7)2
_symmetry_space_group_name_H-M   'P 1'
_cell_length_a   5.05235187
_cell_length_b   7.45481556
_cell_length_c   9.46109800
_cell_angle_alpha   108.49535867
_cell_angle_beta   82.63144321
_cell_angle_gamma   101.19028979
_symmetry_Int_Tables_number   1
_chemical_formula_structural   TlCr(S2O7)2
_chemical_formula_sum   'Tl1 Cr1 S4 O14'
_cell_volume   330.66288291
_cell_formula_units_Z   1
loop_
 _symmetry_equiv_pos_site_id
 _symmetry_equiv_pos_as_xyz
  1  'x, y, z'
loop_
 _atom_site_type_symbol
 _atom_site_label
 _atom_site_symmetry_multiplicity
 _atom_site_fract_x
 _atom_site_fract_y
 _atom_site_fract_z
 _atom_site_occupancy
  Tl  Tl0  1  0.500000  0.000000  0.000000  1
  Cr  Cr1  1  0.500000  0.500000  0.500000  1
  S  S2  1  0.001204  0.693318  0.714311  1
  S  S3  1  0.998796  0.306682  0.285689  1
  S  S4  1  0.682816  0.307347  0.721471  1
  S  S5  1  0.317184  0.692653  0.278529  1
  O  O6  1  0.832424  0.661725  0.589488  1
  O  O7  1  0.167576  0.338275  0.410512  1
  O  O8  1  0.475436  0.361319  0.650592  1
  O  O9  1  0.524564  0.638681  0.349408  1
  O  O10  1  0.287152  0.682660  0.656427  1
  O  O11  1  0.712848  0.317340  0.343573  1
  O  O12  1  0.986475  0.870559  0.831924  1
  O  O13  1  0.013525  0.129441  0.168076  1
  O  O14  1  0.576844  0.279366  0.862463  1
  O  O15  1  0.423156  0.720634  0.137537  1
  O  O16  1  0.899277  0.528543  0.789854  1
  O  O17  1  0.100723  0.471457  0.210146  1
  O  O18  1  0.848758  0.180170  0.621360  1
  O  O19  1  0.151242  0.819830  0.378640  1
