# generated using pymatgen
data_HoTh(FeBr)2
_symmetry_space_group_name_H-M   'P 1'
_cell_length_a   3.97599700
_cell_length_b   3.97599640
_cell_length_c   11.55649700
_cell_angle_alpha   90.00000000
_cell_angle_beta   90.00000000
_cell_angle_gamma   119.99999670
_symmetry_Int_Tables_number   1
_chemical_formula_structural   HoTh(FeBr)2
_chemical_formula_sum   'Ho1 Th1 Fe2 Br2'
_cell_volume   158.21544872
_cell_formula_units_Z   1
loop_
 _symmetry_equiv_pos_site_id
 _symmetry_equiv_pos_as_xyz
  1  'x, y, z'
loop_
 _atom_site_type_symbol
 _atom_site_label
 _atom_site_symmetry_multiplicity
 _atom_site_fract_x
 _atom_site_fract_y
 _atom_site_fract_z
 _atom_site_occupancy
  Ho  Ho0  1  0.000000  0.000000  0.832717  1
  Th  Th1  1  0.000000  0.000000  0.157268  1
  Fe  Fe2  1  0.666667  0.333334  0.005241  1
  Fe  Fe3  1  0.333334  0.666668  0.992585  1
  Br  Br4  1  0.333334  0.666668  0.342639  1
  Br  Br5  1  0.666667  0.333334  0.669550  1
