# generated using pymatgen
data_Dy4InPd
_symmetry_space_group_name_H-M   'P 1'
_cell_length_a   9.73372241
_cell_length_b   9.73372154
_cell_length_c   9.73372200
_cell_angle_alpha   59.99999845
_cell_angle_beta   60.00000140
_cell_angle_gamma   59.99999602
_symmetry_Int_Tables_number   1
_chemical_formula_structural   Dy4InPd
_chemical_formula_sum   'Dy16 In4 Pd4'
_cell_volume   652.11141405
_cell_formula_units_Z   4
loop_
 _symmetry_equiv_pos_site_id
 _symmetry_equiv_pos_as_xyz
  1  'x, y, z'
loop_
 _atom_site_type_symbol
 _atom_site_label
 _atom_site_symmetry_multiplicity
 _atom_site_fract_x
 _atom_site_fract_y
 _atom_site_fract_z
 _atom_site_occupancy
  Dy  Dy0  1  0.602519  0.602519  0.602519  1
  Dy  Dy1  1  0.602519  0.602519  0.192444  1
  Dy  Dy2  1  0.602519  0.192444  0.602519  1
  Dy  Dy3  1  0.192444  0.602519  0.602519  1
  Dy  Dy4  1  0.060262  0.439738  0.439738  1
  Dy  Dy5  1  0.439738  0.060262  0.060262  1
  Dy  Dy6  1  0.439738  0.060262  0.439738  1
  Dy  Dy7  1  0.060262  0.439738  0.060262  1
  Dy  Dy8  1  0.439738  0.439738  0.060262  1
  Dy  Dy9  1  0.060262  0.060262  0.439738  1
  Dy  Dy10  1  0.186155  0.813845  0.813845  1
  Dy  Dy11  1  0.813845  0.186155  0.186155  1
  Dy  Dy12  1  0.813845  0.186155  0.813845  1
  Dy  Dy13  1  0.186155  0.813845  0.186155  1
  Dy  Dy14  1  0.813845  0.813845  0.186155  1
  Dy  Dy15  1  0.186155  0.186155  0.813845  1
  In  In16  1  0.833192  0.833192  0.833192  1
  In  In17  1  0.833192  0.833192  0.500424  1
  In  In18  1  0.833192  0.500424  0.833192  1
  In  In19  1  0.500424  0.833192  0.833192  1
  Pd  Pd20  1  0.394150  0.394150  0.394150  1
  Pd  Pd21  1  0.394150  0.394150  0.817550  1
  Pd  Pd22  1  0.394150  0.817550  0.394150  1
  Pd  Pd23  1  0.817550  0.394150  0.394150  1
