# generated using pymatgen
data_DyY2Rh9
_symmetry_space_group_name_H-M   'P 1'
_cell_length_a   5.27368500
_cell_length_b   5.27368546
_cell_length_c   17.58561800
_cell_angle_alpha   90.00000000
_cell_angle_beta   90.00000000
_cell_angle_gamma   119.99999085
_symmetry_Int_Tables_number   1
_chemical_formula_structural   DyY2Rh9
_chemical_formula_sum   'Dy2 Y4 Rh18'
_cell_volume   423.56173223
_cell_formula_units_Z   2
loop_
 _symmetry_equiv_pos_site_id
 _symmetry_equiv_pos_as_xyz
  1  'x, y, z'
loop_
 _atom_site_type_symbol
 _atom_site_label
 _atom_site_symmetry_multiplicity
 _atom_site_fract_x
 _atom_site_fract_y
 _atom_site_fract_z
 _atom_site_occupancy
  Dy  Dy0  1  0.333333  0.666667  0.957892  1
  Dy  Dy1  1  0.666667  0.333333  0.042108  1
  Y  Y2  1  0.666667  0.333333  0.457923  1
  Y  Y3  1  0.333333  0.666667  0.542077  1
  Y  Y4  1  0.333333  0.666667  0.750063  1
  Y  Y5  1  0.666667  0.333333  0.249937  1
  Rh  Rh6  1  0.167442  0.832558  0.374048  1
  Rh  Rh7  1  0.167442  0.334884  0.374048  1
  Rh  Rh8  1  0.665116  0.832558  0.374048  1
  Rh  Rh9  1  0.832558  0.167442  0.625952  1
  Rh  Rh10  1  0.832558  0.665116  0.625952  1
  Rh  Rh11  1  0.334884  0.167442  0.625952  1
  Rh  Rh12  1  0.832445  0.167555  0.874320  1
  Rh  Rh13  1  0.832445  0.664890  0.874320  1
  Rh  Rh14  1  0.335110  0.167555  0.874320  1
  Rh  Rh15  1  0.167555  0.832445  0.125680  1
  Rh  Rh16  1  0.167555  0.335110  0.125680  1
  Rh  Rh17  1  0.664890  0.832445  0.125680  1
  Rh  Rh18  1  0.333333  0.666667  0.250062  1
  Rh  Rh19  1  0.666667  0.333333  0.749938  1
  Rh  Rh20  1  0.000000  0.000000  0.250035  1
  Rh  Rh21  1  0.000000  0.000000  0.749965  1
  Rh  Rh22  1  0.000000  0.000000  0.500000  1
  Rh  Rh23  1  0.000000  0.000000  0.000000  1
