# generated using pymatgen
data_Tb8TmLuSn8
_symmetry_space_group_name_H-M   'P 1'
_cell_length_a   8.01956500
_cell_length_b   8.17663400
_cell_length_c   15.48363800
_cell_angle_alpha   90.00000000
_cell_angle_beta   90.00000000
_cell_angle_gamma   90.00000000
_symmetry_Int_Tables_number   1
_chemical_formula_structural   Tb8TmLuSn8
_chemical_formula_sum   'Tb16 Tm2 Lu2 Sn16'
_cell_volume   1015.30933538
_cell_formula_units_Z   2
loop_
 _symmetry_equiv_pos_site_id
 _symmetry_equiv_pos_as_xyz
  1  'x, y, z'
loop_
 _atom_site_type_symbol
 _atom_site_label
 _atom_site_symmetry_multiplicity
 _atom_site_fract_x
 _atom_site_fract_y
 _atom_site_fract_z
 _atom_site_occupancy
  Tb  Tb0  1  0.367294  0.836512  0.878146  1
  Tb  Tb1  1  0.867294  0.663488  0.621854  1
  Tb  Tb2  1  0.632639  0.163469  0.378055  1
  Tb  Tb3  1  0.132639  0.336531  0.121945  1
  Tb  Tb4  1  0.632639  0.163469  0.121945  1
  Tb  Tb5  1  0.132639  0.336531  0.378055  1
  Tb  Tb6  1  0.367294  0.836512  0.621854  1
  Tb  Tb7  1  0.867294  0.663488  0.878146  1
  Tb  Tb8  1  0.520077  0.320136  0.902567  1
  Tb  Tb9  1  0.020077  0.179864  0.597433  1
  Tb  Tb10  1  0.479934  0.679871  0.402536  1
  Tb  Tb11  1  0.979934  0.820129  0.097464  1
  Tb  Tb12  1  0.479934  0.679871  0.097464  1
  Tb  Tb13  1  0.979934  0.820129  0.402536  1
  Tb  Tb14  1  0.520077  0.320136  0.597433  1
  Tb  Tb15  1  0.020077  0.179864  0.902567  1
  Tm  Tm16  1  0.198291  0.502493  0.750000  1
  Tm  Tm17  1  0.698291  0.997507  0.750000  1
  Lu  Lu18  1  0.801588  0.497506  0.250000  1
  Lu  Lu19  1  0.301588  0.002494  0.250000  1
  Sn  Sn20  1  0.292704  0.034914  0.042852  1
  Sn  Sn21  1  0.792704  0.465086  0.457148  1
  Sn  Sn22  1  0.707287  0.965022  0.542651  1
  Sn  Sn23  1  0.207287  0.534978  0.957349  1
  Sn  Sn24  1  0.707287  0.965022  0.957349  1
  Sn  Sn25  1  0.207287  0.534978  0.542651  1
  Sn  Sn26  1  0.292704  0.034914  0.457148  1
  Sn  Sn27  1  0.792704  0.465086  0.042852  1
  Sn  Sn28  1  0.564168  0.618335  0.750000  1
  Sn  Sn29  1  0.064168  0.881665  0.750000  1
  Sn  Sn30  1  0.436167  0.381716  0.250000  1
  Sn  Sn31  1  0.936167  0.118284  0.250000  1
  Sn  Sn32  1  0.328623  0.147834  0.750000  1
  Sn  Sn33  1  0.828623  0.352166  0.750000  1
  Sn  Sn34  1  0.671293  0.851750  0.250000  1
  Sn  Sn35  1  0.171293  0.648250  0.250000  1
