# generated using pymatgen
data_Tm8In4Ga7Au
_symmetry_space_group_name_H-M   'P 1'
_cell_length_a   7.23040495
_cell_length_b   7.23040495
_cell_length_c   8.61623914
_cell_angle_alpha   90.00254699
_cell_angle_beta   90.00254699
_cell_angle_gamma   90.05792612
_symmetry_Int_Tables_number   1
_chemical_formula_structural   Tm8In4Ga7Au
_chemical_formula_sum   'Tm8 In4 Ga7 Au1'
_cell_volume   450.44603007
_cell_formula_units_Z   1
loop_
 _symmetry_equiv_pos_site_id
 _symmetry_equiv_pos_as_xyz
  1  'x, y, z'
loop_
 _atom_site_type_symbol
 _atom_site_label
 _atom_site_symmetry_multiplicity
 _atom_site_fract_x
 _atom_site_fract_y
 _atom_site_fract_z
 _atom_site_occupancy
  Tm  Tm0  1  0.828168  0.171856  0.498174  1
  Tm  Tm1  1  0.171856  0.828168  0.498174  1
  Tm  Tm2  1  0.330609  0.330609  0.002155  1
  Tm  Tm3  1  0.670958  0.670958  0.999832  1
  Tm  Tm4  1  0.671130  0.671130  0.500091  1
  Tm  Tm5  1  0.329870  0.329870  0.498635  1
  Tm  Tm6  1  0.170629  0.826052  0.001984  1
  Tm  Tm7  1  0.826052  0.170629  0.001984  1
  In  In8  1  0.503685  0.000336  0.250894  1
  In  In9  1  0.998785  0.500749  0.748362  1
  In  In10  1  0.500749  0.998785  0.748362  1
  In  In11  1  0.000336  0.503685  0.250894  1
  Ga  Ga12  1  0.627826  0.376871  0.250443  1
  Ga  Ga13  1  0.376871  0.627826  0.250443  1
  Ga  Ga14  1  0.125875  0.125875  0.751320  1
  Ga  Ga15  1  0.874616  0.874616  0.749877  1
  Ga  Ga16  1  0.372534  0.624039  0.749709  1
  Ga  Ga17  1  0.624039  0.372534  0.749709  1
  Ga  Ga18  1  0.869147  0.869147  0.250144  1
  Au  Au19  1  0.126266  0.126266  0.248811  1
