# generated using pymatgen
data_Y4HfAl3Ir4
_symmetry_space_group_name_H-M   'P 1'
_cell_length_a   4.37269000
_cell_length_b   6.94060151
_cell_length_c   7.96203298
_cell_angle_alpha   89.08459530
_cell_angle_beta   90.00000000
_cell_angle_gamma   90.00000000
_symmetry_Int_Tables_number   1
_chemical_formula_structural   Y4HfAl3Ir4
_chemical_formula_sum   'Y4 Hf1 Al3 Ir4'
_cell_volume   241.60968608
_cell_formula_units_Z   1
loop_
 _symmetry_equiv_pos_site_id
 _symmetry_equiv_pos_as_xyz
  1  'x, y, z'
loop_
 _atom_site_type_symbol
 _atom_site_label
 _atom_site_symmetry_multiplicity
 _atom_site_fract_x
 _atom_site_fract_y
 _atom_site_fract_z
 _atom_site_occupancy
  Y  Y0  1  0.250000  0.963507  0.313358  1
  Y  Y1  1  0.250000  0.479948  0.174889  1
  Y  Y2  1  0.750000  0.015095  0.685099  1
  Y  Y3  1  0.750000  0.535379  0.829920  1
  Hf  Hf4  1  0.250000  0.363035  0.567363  1
  Al  Al5  1  0.250000  0.856088  0.933367  1
  Al  Al6  1  0.750000  0.642771  0.435982  1
  Al  Al7  1  0.750000  0.143488  0.059992  1
  Ir  Ir8  1  0.250000  0.228372  0.885981  1
  Ir  Ir9  1  0.250000  0.731542  0.617028  1
  Ir  Ir10  1  0.750000  0.776386  0.115000  1
  Ir  Ir11  1  0.750000  0.264387  0.382021  1
