# generated using pymatgen
data_Mg2SiNiIr2
_symmetry_space_group_name_H-M   'P 1'
_cell_length_a   4.86254746
_cell_length_b   4.76011225
_cell_length_c   4.86254746
_cell_angle_alpha   64.86189090
_cell_angle_beta   68.39134239
_cell_angle_gamma   64.86190357
_symmetry_Int_Tables_number   1
_chemical_formula_structural   Mg2SiNiIr2
_chemical_formula_sum   'Mg2 Si1 Ni1 Ir2'
_cell_volume   89.78484818
_cell_formula_units_Z   1
loop_
 _symmetry_equiv_pos_site_id
 _symmetry_equiv_pos_as_xyz
  1  'x, y, z'
loop_
 _atom_site_type_symbol
 _atom_site_label
 _atom_site_symmetry_multiplicity
 _atom_site_fract_x
 _atom_site_fract_y
 _atom_site_fract_z
 _atom_site_occupancy
  Mg  Mg0  1  0.122927  0.128889  0.122927  1
  Mg  Mg1  1  0.877073  0.871111  0.877073  1
  Si  Si2  1  0.500000  0.500000  0.500000  1
  Ni  Ni3  1  0.500000  0.000000  0.500000  1
  Ir  Ir4  1  0.500000  0.500000  0.000000  1
  Ir  Ir5  1  0.000000  0.500000  0.500000  1
