# generated using pymatgen
data_Ti12Be7Cu5N4
_symmetry_space_group_name_H-M   'P 1'
_cell_length_a   7.76917569
_cell_length_b   7.74566743
_cell_length_c   7.76917500
_cell_angle_alpha   59.89955868
_cell_angle_beta   60.00000719
_cell_angle_gamma   59.89954887
_symmetry_Int_Tables_number   1
_chemical_formula_structural   Ti12Be7Cu5N4
_chemical_formula_sum   'Ti12 Be7 Cu5 N4'
_cell_volume   330.09023911
_cell_formula_units_Z   1
loop_
 _symmetry_equiv_pos_site_id
 _symmetry_equiv_pos_as_xyz
  1  'x, y, z'
loop_
 _atom_site_type_symbol
 _atom_site_label
 _atom_site_symmetry_multiplicity
 _atom_site_fract_x
 _atom_site_fract_y
 _atom_site_fract_z
 _atom_site_occupancy
  Ti  Ti0  1  0.939488  0.561498  0.559526  1
  Ti  Ti1  1  0.690945  0.308661  0.690945  1
  Ti  Ti2  1  0.939488  0.561498  0.939488  1
  Ti  Ti3  1  0.558307  0.941805  0.941580  1
  Ti  Ti4  1  0.309417  0.686756  0.309417  1
  Ti  Ti5  1  0.558307  0.941805  0.558307  1
  Ti  Ti6  1  0.694410  0.686756  0.309417  1
  Ti  Ti7  1  0.941580  0.941805  0.558307  1
  Ti  Ti8  1  0.309449  0.308661  0.690945  1
  Ti  Ti9  1  0.690945  0.308661  0.309449  1
  Ti  Ti10  1  0.559526  0.561498  0.939488  1
  Ti  Ti11  1  0.309417  0.686756  0.694410  1
  Be  Be12  1  0.227787  0.922232  0.924991  1
  Be  Be13  1  0.325651  0.326085  0.325651  1
  Be  Be14  1  0.325651  0.326085  0.022613  1
  Be  Be15  1  0.922992  0.231024  0.922992  1
  Be  Be16  1  0.924991  0.922232  0.924991  1
  Be  Be17  1  0.022613  0.326085  0.325651  1
  Be  Be18  1  0.924991  0.922232  0.227787  1
  Cu  Cu19  1  0.328846  0.013461  0.328846  1
  Cu  Cu20  1  0.125455  0.623636  0.125455  1
  Cu  Cu21  1  0.118020  0.130511  0.633449  1
  Cu  Cu22  1  0.633449  0.130511  0.118020  1
  Cu  Cu23  1  0.118020  0.130511  0.118020  1
  N  N24  1  0.625299  0.124102  0.625299  1
  N  N25  1  0.624919  0.625046  0.125116  1
  N  N26  1  0.125116  0.625046  0.624919  1
  N  N27  1  0.624919  0.625046  0.624919  1
