# generated using pymatgen
data_YLu2Hf(Al3Ir)6
_symmetry_space_group_name_H-M   'P 1'
_cell_length_a   7.51956409
_cell_length_b   7.51551933
_cell_length_c   9.37465400
_cell_angle_alpha   90.00000000
_cell_angle_beta   90.00000000
_cell_angle_gamma   119.59701454
_symmetry_Int_Tables_number   1
_chemical_formula_structural   YLu2Hf(Al3Ir)6
_chemical_formula_sum   'Y1 Lu2 Hf1 Al18 Ir6'
_cell_volume   460.66669713
_cell_formula_units_Z   1
loop_
 _symmetry_equiv_pos_site_id
 _symmetry_equiv_pos_as_xyz
  1  'x, y, z'
loop_
 _atom_site_type_symbol
 _atom_site_label
 _atom_site_symmetry_multiplicity
 _atom_site_fract_x
 _atom_site_fract_y
 _atom_site_fract_z
 _atom_site_occupancy
  Y  Y0  1  0.005813  0.327387  0.750000  1
  Lu  Lu1  1  0.671845  0.995961  0.250000  1
  Lu  Lu2  1  0.328552  0.006305  0.750000  1
  Hf  Hf3  1  0.997512  0.672995  0.250000  1
  Al  Al4  1  0.126023  0.123646  0.250000  1
  Al  Al5  1  0.871064  0.869399  0.750000  1
  Al  Al6  1  0.999615  0.337399  0.080241  1
  Al  Al7  1  0.999672  0.665561  0.928151  1
  Al  Al8  1  0.999672  0.665561  0.571849  1
  Al  Al9  1  0.333314  0.998283  0.420493  1
  Al  Al10  1  0.999615  0.337399  0.419759  1
  Al  Al11  1  0.663625  0.998173  0.574597  1
  Al  Al12  1  0.663625  0.998173  0.925403  1
  Al  Al13  1  0.333314  0.998283  0.079507  1
  Al  Al14  1  0.333883  0.333254  0.551853  1
  Al  Al15  1  0.668937  0.667271  0.441794  1
  Al  Al16  1  0.668937  0.667271  0.058206  1
  Al  Al17  1  0.333883  0.333254  0.948147  1
  Al  Al18  1  0.336881  0.550243  0.250000  1
  Al  Al19  1  0.659562  0.451108  0.750000  1
  Al  Al20  1  0.555057  0.343725  0.250000  1
  Al  Al21  1  0.451112  0.660709  0.750000  1
  Ir  Ir22  1  0.672393  0.327866  0.001181  1
  Ir  Ir23  1  0.327676  0.672892  0.001981  1
  Ir  Ir24  1  0.327676  0.672892  0.498019  1
  Ir  Ir25  1  0.672393  0.327866  0.498819  1
  Ir  Ir26  1  0.999176  0.998563  0.001489  1
  Ir  Ir27  1  0.999176  0.998563  0.498511  1
