# generated using pymatgen
data_Pr8Tm2Ga5Pb
_symmetry_space_group_name_H-M   'P 1'
_cell_length_a   7.93839800
_cell_length_b   7.93839800
_cell_length_c   14.79385300
_cell_angle_alpha   90.00000000
_cell_angle_beta   90.00000000
_cell_angle_gamma   90.00000000
_symmetry_Int_Tables_number   1
_chemical_formula_structural   Pr8Tm2Ga5Pb
_chemical_formula_sum   'Pr16 Tm4 Ga10 Pb2'
_cell_volume   932.28143689
_cell_formula_units_Z   2
loop_
 _symmetry_equiv_pos_site_id
 _symmetry_equiv_pos_as_xyz
  1  'x, y, z'
loop_
 _atom_site_type_symbol
 _atom_site_label
 _atom_site_symmetry_multiplicity
 _atom_site_fract_x
 _atom_site_fract_y
 _atom_site_fract_z
 _atom_site_occupancy
  Pr  Pr0  1  0.822119  0.839547  0.610551  1
  Pr  Pr1  1  0.182918  0.839161  0.102165  1
  Pr  Pr2  1  0.160453  0.822119  0.389449  1
  Pr  Pr3  1  0.839547  0.177881  0.389449  1
  Pr  Pr4  1  0.677881  0.660453  0.389449  1
  Pr  Pr5  1  0.660453  0.322119  0.610551  1
  Pr  Pr6  1  0.339547  0.677881  0.610551  1
  Pr  Pr7  1  0.660839  0.682918  0.102165  1
  Pr  Pr8  1  0.682918  0.339161  0.897835  1
  Pr  Pr9  1  0.839161  0.817082  0.897835  1
  Pr  Pr10  1  0.322119  0.339547  0.389449  1
  Pr  Pr11  1  0.177881  0.160453  0.610551  1
  Pr  Pr12  1  0.817082  0.160839  0.102165  1
  Pr  Pr13  1  0.317082  0.660839  0.897835  1
  Pr  Pr14  1  0.339161  0.317082  0.102165  1
  Pr  Pr15  1  0.160839  0.182918  0.897835  1
  Tm  Tm16  1  0.000000  0.500000  0.739664  1
  Tm  Tm17  1  0.000000  0.500000  0.218056  1
  Tm  Tm18  1  0.500000  0.000000  0.260336  1
  Tm  Tm19  1  0.500000  0.000000  0.781944  1
  Ga  Ga20  1  0.623404  0.375308  0.247533  1
  Ga  Ga21  1  0.123404  0.875308  0.752467  1
  Ga  Ga22  1  0.375308  0.376596  0.752467  1
  Ga  Ga23  1  0.376596  0.624692  0.247533  1
  Ga  Ga24  1  0.875308  0.876596  0.247533  1
  Ga  Ga25  1  0.624692  0.623404  0.752467  1
  Ga  Ga26  1  0.876596  0.124692  0.752467  1
  Ga  Ga27  1  0.500000  0.000000  0.990344  1
  Ga  Ga28  1  0.124692  0.123404  0.247533  1
  Ga  Ga29  1  0.000000  0.500000  0.009656  1
  Pb  Pb30  1  0.000000  0.500000  0.511300  1
  Pb  Pb31  1  0.500000  0.000000  0.488700  1
