# generated using pymatgen
data_Y2Ho8SnSb5
_symmetry_space_group_name_H-M   'P 1'
_cell_length_a   8.91045400
_cell_length_b   8.90254408
_cell_length_c   6.36196400
_cell_angle_alpha   90.00000000
_cell_angle_beta   90.00000000
_cell_angle_gamma   120.02940318
_symmetry_Int_Tables_number   1
_chemical_formula_structural   Y2Ho8SnSb5
_chemical_formula_sum   'Y2 Ho8 Sn1 Sb5'
_cell_volume   436.92515848
_cell_formula_units_Z   1
loop_
 _symmetry_equiv_pos_site_id
 _symmetry_equiv_pos_as_xyz
  1  'x, y, z'
loop_
 _atom_site_type_symbol
 _atom_site_label
 _atom_site_symmetry_multiplicity
 _atom_site_fract_x
 _atom_site_fract_y
 _atom_site_fract_z
 _atom_site_occupancy
  Y  Y0  1  0.753873  0.754471  0.250000  1
  Y  Y1  1  0.999401  0.245529  0.250000  1
  Ho  Ho2  1  0.333722  0.667711  0.000394  1
  Ho  Ho3  1  0.666012  0.332289  0.499606  1
  Ho  Ho4  1  0.666012  0.332289  0.000394  1
  Ho  Ho5  1  0.333722  0.667711  0.499606  1
  Ho  Ho6  1  0.756252  0.000000  0.750000  1
  Ho  Ho7  1  0.002393  0.758288  0.750000  1
  Ho  Ho8  1  0.244105  0.241712  0.750000  1
  Ho  Ho9  1  0.243123  0.000000  0.250000  1
  Sn  Sn10  1  0.394492  0.000000  0.750000  1
  Sb  Sb11  1  0.390029  0.390101  0.250000  1
  Sb  Sb12  1  0.999928  0.609899  0.250000  1
  Sb  Sb13  1  0.000409  0.391712  0.750000  1
  Sb  Sb14  1  0.608696  0.608288  0.750000  1
  Sb  Sb15  1  0.607828  0.000000  0.250000  1
