# generated using pymatgen
data_TbPrFe6(CoB4)2
_symmetry_space_group_name_H-M   'P 1'
_cell_length_a   7.02558155
_cell_length_b   7.03139954
_cell_length_c   3.80230500
_cell_angle_alpha   90.00000000
_cell_angle_beta   90.00000000
_cell_angle_gamma   89.75137397
_symmetry_Int_Tables_number   1
_chemical_formula_structural   TbPrFe6(CoB4)2
_chemical_formula_sum   'Tb1 Pr1 Fe6 Co2 B8'
_cell_volume   187.83084705
_cell_formula_units_Z   1
loop_
 _symmetry_equiv_pos_site_id
 _symmetry_equiv_pos_as_xyz
  1  'x, y, z'
loop_
 _atom_site_type_symbol
 _atom_site_label
 _atom_site_symmetry_multiplicity
 _atom_site_fract_x
 _atom_site_fract_y
 _atom_site_fract_z
 _atom_site_occupancy
  Tb  Tb0  1  0.000000  0.000000  0.999429  1
  Pr  Pr1  1  0.500000  0.500000  0.499866  1
  Fe  Fe2  1  0.869432  0.385755  0.105769  1
  Fe  Fe3  1  0.130568  0.614245  0.105769  1
  Fe  Fe4  1  0.887659  0.634849  0.605661  1
  Fe  Fe5  1  0.112341  0.365151  0.605661  1
  Fe  Fe6  1  0.634192  0.112190  0.393886  1
  Fe  Fe7  1  0.365808  0.887810  0.393886  1
  Co  Co8  1  0.614475  0.865692  0.893131  1
  Co  Co9  1  0.385525  0.134308  0.893131  1
  B  B10  1  0.330846  0.800191  0.896628  1
  B  B11  1  0.669154  0.199809  0.896628  1
  B  B12  1  0.291702  0.161030  0.395115  1
  B  B13  1  0.708298  0.838970  0.395115  1
  B  B14  1  0.163054  0.706918  0.605151  1
  B  B15  1  0.836946  0.293082  0.605151  1
  B  B16  1  0.194565  0.333203  0.105011  1
  B  B17  1  0.805435  0.666797  0.105011  1
