# generated using pymatgen
data_TbLu3ScBi3
_symmetry_space_group_name_H-M   'P 1'
_cell_length_a   8.04048800
_cell_length_b   9.31848300
_cell_length_c   11.79071700
_cell_angle_alpha   90.00000000
_cell_angle_beta   90.00000000
_cell_angle_gamma   90.00000000
_symmetry_Int_Tables_number   1
_chemical_formula_structural   TbLu3ScBi3
_chemical_formula_sum   'Tb4 Lu12 Sc4 Bi12'
_cell_volume   883.42124855
_cell_formula_units_Z   4
loop_
 _symmetry_equiv_pos_site_id
 _symmetry_equiv_pos_as_xyz
  1  'x, y, z'
loop_
 _atom_site_type_symbol
 _atom_site_label
 _atom_site_symmetry_multiplicity
 _atom_site_fract_x
 _atom_site_fract_y
 _atom_site_fract_z
 _atom_site_occupancy
  Tb  Tb0  1  0.316419  0.250000  0.218493  1
  Tb  Tb1  1  0.816419  0.250000  0.281507  1
  Tb  Tb2  1  0.683581  0.750000  0.781507  1
  Tb  Tb3  1  0.183581  0.750000  0.718493  1
  Lu  Lu4  1  0.352767  0.750000  0.218723  1
  Lu  Lu5  1  0.852767  0.750000  0.281277  1
  Lu  Lu6  1  0.647233  0.250000  0.781277  1
  Lu  Lu7  1  0.147233  0.250000  0.718723  1
  Lu  Lu8  1  0.693653  0.567229  0.060442  1
  Lu  Lu9  1  0.193653  0.932771  0.439558  1
  Lu  Lu10  1  0.306347  0.067229  0.939558  1
  Lu  Lu11  1  0.806347  0.432771  0.560442  1
  Lu  Lu12  1  0.306347  0.432771  0.939558  1
  Lu  Lu13  1  0.806347  0.067229  0.560442  1
  Lu  Lu14  1  0.693653  0.932771  0.060442  1
  Lu  Lu15  1  0.193653  0.567229  0.439558  1
  Sc  Sc16  1  0.479258  0.250000  0.488605  1
  Sc  Sc17  1  0.979258  0.250000  0.011395  1
  Sc  Sc18  1  0.520742  0.750000  0.511395  1
  Sc  Sc19  1  0.020742  0.750000  0.988605  1
  Bi  Bi20  1  0.398120  0.750000  0.960350  1
  Bi  Bi21  1  0.898120  0.750000  0.539650  1
  Bi  Bi22  1  0.601880  0.250000  0.039650  1
  Bi  Bi23  1  0.101880  0.250000  0.460350  1
  Bi  Bi24  1  0.565947  0.994426  0.330575  1
  Bi  Bi25  1  0.065947  0.505574  0.169425  1
  Bi  Bi26  1  0.434053  0.494426  0.669425  1
  Bi  Bi27  1  0.934053  0.005574  0.830575  1
  Bi  Bi28  1  0.434053  0.005574  0.669425  1
  Bi  Bi29  1  0.934053  0.494426  0.830575  1
  Bi  Bi30  1  0.565947  0.505574  0.330575  1
  Bi  Bi31  1  0.065947  0.994426  0.169425  1
