# generated using pymatgen
data_Er2Tm6Sc12Si15Pt
_symmetry_space_group_name_H-M   'P 1'
_cell_length_a   7.06873660
_cell_length_b   7.33506060
_cell_length_c   13.96134681
_cell_angle_alpha   89.96670221
_cell_angle_beta   89.76415876
_cell_angle_gamma   90.19294372
_symmetry_Int_Tables_number   1
_chemical_formula_structural   Er2Tm6Sc12Si15Pt
_chemical_formula_sum   'Er2 Tm6 Sc12 Si15 Pt1'
_cell_volume   723.88004064
_cell_formula_units_Z   1
loop_
 _symmetry_equiv_pos_site_id
 _symmetry_equiv_pos_as_xyz
  1  'x, y, z'
loop_
 _atom_site_type_symbol
 _atom_site_label
 _atom_site_symmetry_multiplicity
 _atom_site_fract_x
 _atom_site_fract_y
 _atom_site_fract_z
 _atom_site_occupancy
  Er  Er0  1  0.012711  0.176368  0.097031  1
  Er  Er1  1  0.987494  0.823492  0.903353  1
  Tm  Tm2  1  0.487106  0.677264  0.903117  1
  Tm  Tm3  1  0.988895  0.822106  0.596914  1
  Tm  Tm4  1  0.512204  0.323226  0.096561  1
  Tm  Tm5  1  0.012435  0.178408  0.402343  1
  Tm  Tm6  1  0.508120  0.325498  0.403485  1
  Tm  Tm7  1  0.485654  0.671790  0.597571  1
  Sc  Sc8  1  0.162913  0.502763  0.747073  1
  Sc  Sc9  1  0.837667  0.497482  0.251180  1
  Sc  Sc10  1  0.338296  0.001999  0.250131  1
  Sc  Sc11  1  0.662854  0.995302  0.749961  1
  Sc  Sc12  1  0.332896  0.182636  0.622846  1
  Sc  Sc13  1  0.668656  0.823139  0.374294  1
  Sc  Sc14  1  0.170393  0.669950  0.376196  1
  Sc  Sc15  1  0.670177  0.824001  0.125671  1
  Sc  Sc16  1  0.832508  0.326203  0.624234  1
  Sc  Sc17  1  0.328847  0.176206  0.875615  1
  Sc  Sc18  1  0.830272  0.322869  0.875574  1
  Sc  Sc19  1  0.170052  0.676838  0.125056  1
  Si  Si20  1  0.033646  0.114288  0.750560  1
  Si  Si21  1  0.968488  0.886092  0.250019  1
  Si  Si22  1  0.467373  0.613542  0.248814  1
  Si  Si23  1  0.535853  0.386076  0.752483  1
  Si  Si24  1  0.285108  0.873446  0.750644  1
  Si  Si25  1  0.713726  0.130133  0.249584  1
  Si  Si26  1  0.215962  0.369731  0.247992  1
  Si  Si27  1  0.784505  0.628585  0.752549  1
  Si  Si28  1  0.836610  0.535649  0.460036  1
  Si  Si29  1  0.341996  0.964880  0.460255  1
  Si  Si30  1  0.842232  0.535145  0.038888  1
  Si  Si31  1  0.657919  0.033999  0.538631  1
  Si  Si32  1  0.157045  0.465183  0.961235  1
  Si  Si33  1  0.657959  0.034250  0.961506  1
  Si  Si34  1  0.342610  0.964907  0.038914  1
  Pt  Pt35  1  0.158820  0.466553  0.539683  1
