# generated using pymatgen
data_Tm3Lu2Bi2Rh
_symmetry_space_group_name_H-M   'P 1'
_cell_length_a   7.94157900
_cell_length_b   8.97588100
_cell_length_c   12.41012900
_cell_angle_alpha   90.00000000
_cell_angle_beta   90.00000000
_cell_angle_gamma   90.00000000
_symmetry_Int_Tables_number   1
_chemical_formula_structural   Tm3Lu2Bi2Rh
_chemical_formula_sum   'Tm12 Lu8 Bi8 Rh4'
_cell_volume   884.62710604
_cell_formula_units_Z   4
loop_
 _symmetry_equiv_pos_site_id
 _symmetry_equiv_pos_as_xyz
  1  'x, y, z'
loop_
 _atom_site_type_symbol
 _atom_site_label
 _atom_site_symmetry_multiplicity
 _atom_site_fract_x
 _atom_site_fract_y
 _atom_site_fract_z
 _atom_site_occupancy
  Tm  Tm0  1  0.837708  0.750000  0.793116  1
  Tm  Tm1  1  0.162292  0.250000  0.206884  1
  Tm  Tm2  1  0.337708  0.250000  0.706884  1
  Tm  Tm3  1  0.662292  0.750000  0.293116  1
  Tm  Tm4  1  0.674983  0.044435  0.566066  1
  Tm  Tm5  1  0.325017  0.955565  0.433934  1
  Tm  Tm6  1  0.174983  0.955565  0.933934  1
  Tm  Tm7  1  0.325017  0.544435  0.433934  1
  Tm  Tm8  1  0.825017  0.044435  0.066066  1
  Tm  Tm9  1  0.674983  0.455565  0.566066  1
  Tm  Tm10  1  0.825017  0.455565  0.066066  1
  Tm  Tm11  1  0.174983  0.544435  0.933934  1
  Lu  Lu12  1  0.381064  0.750000  0.689028  1
  Lu  Lu13  1  0.618936  0.250000  0.310972  1
  Lu  Lu14  1  0.881064  0.250000  0.810972  1
  Lu  Lu15  1  0.118936  0.750000  0.189028  1
  Lu  Lu16  1  0.945673  0.750000  0.500967  1
  Lu  Lu17  1  0.054327  0.250000  0.499033  1
  Lu  Lu18  1  0.445673  0.250000  0.999033  1
  Lu  Lu19  1  0.554327  0.750000  0.000967  1
  Bi  Bi20  1  0.567118  0.489679  0.827984  1
  Bi  Bi21  1  0.432882  0.510321  0.172016  1
  Bi  Bi22  1  0.067118  0.510321  0.672016  1
  Bi  Bi23  1  0.432882  0.989679  0.172016  1
  Bi  Bi24  1  0.932882  0.489679  0.327984  1
  Bi  Bi25  1  0.567118  0.010321  0.827984  1
  Bi  Bi26  1  0.932882  0.010321  0.327984  1
  Bi  Bi27  1  0.067118  0.989679  0.672016  1
  Rh  Rh28  1  0.575723  0.750000  0.508766  1
  Rh  Rh29  1  0.424277  0.250000  0.491234  1
  Rh  Rh30  1  0.075723  0.250000  0.991234  1
  Rh  Rh31  1  0.924277  0.750000  0.008766  1
