# generated using pymatgen
data_Rb8Li4TbHo3As8
_symmetry_space_group_name_H-M   'P 1'
_cell_length_a   10.61088860
_cell_length_b   10.61088941
_cell_length_c   6.84285509
_cell_angle_alpha   89.98619886
_cell_angle_beta   90.01380313
_cell_angle_gamma   99.46201833
_symmetry_Int_Tables_number   1
_chemical_formula_structural   Rb8Li4TbHo3As8
_chemical_formula_sum   'Rb8 Li4 Tb1 Ho3 As8'
_cell_volume   759.96157987
_cell_formula_units_Z   1
loop_
 _symmetry_equiv_pos_site_id
 _symmetry_equiv_pos_as_xyz
  1  'x, y, z'
loop_
 _atom_site_type_symbol
 _atom_site_label
 _atom_site_symmetry_multiplicity
 _atom_site_fract_x
 _atom_site_fract_y
 _atom_site_fract_z
 _atom_site_occupancy
  Rb  Rb0  1  0.567772  0.931920  0.749912  1
  Rb  Rb1  1  0.931920  0.567772  0.250088  1
  Rb  Rb2  1  0.431919  0.068172  0.250140  1
  Rb  Rb3  1  0.068172  0.431919  0.749860  1
  Rb  Rb4  1  0.677737  0.322208  0.786526  1
  Rb  Rb5  1  0.822197  0.178074  0.286644  1
  Rb  Rb6  1  0.322208  0.677737  0.213474  1
  Rb  Rb7  1  0.178074  0.822197  0.713356  1
  Li  Li8  1  0.617552  0.617552  0.000000  1
  Li  Li9  1  0.881971  0.881971  0.500000  1
  Li  Li10  1  0.381955  0.381955  0.000000  1
  Li  Li11  1  0.118205  0.118205  0.500000  1
  Tb  Tb12  1  0.867791  0.867791  0.000000  1
  Ho  Ho13  1  0.631415  0.631415  0.500000  1
  Ho  Ho14  1  0.132365  0.132365  0.000000  1
  Ho  Ho15  1  0.368149  0.368149  0.500000  1
  As  As16  1  0.342889  0.157305  0.750014  1
  As  As17  1  0.157305  0.342889  0.249986  1
  As  As18  1  0.655625  0.842981  0.252103  1
  As  As19  1  0.842981  0.655625  0.747897  1
  As  As20  1  0.910748  0.091292  0.764112  1
  As  As21  1  0.589712  0.410047  0.265190  1
  As  As22  1  0.091292  0.910748  0.235888  1
  As  As23  1  0.410047  0.589712  0.734810  1
