# generated using pymatgen
data_DyY(BeB14)2
_symmetry_space_group_name_H-M   'P 1'
_cell_length_a   7.20724695
_cell_length_b   7.20724733
_cell_length_c   7.20724709
_cell_angle_alpha   132.75733438
_cell_angle_beta   110.32825522
_cell_angle_gamma   88.49336537
_symmetry_Int_Tables_number   1
_chemical_formula_structural   DyY(BeB14)2
_chemical_formula_sum   'Dy1 Y1 Be2 B28'
_cell_volume   245.53122307
_cell_formula_units_Z   1
loop_
 _symmetry_equiv_pos_site_id
 _symmetry_equiv_pos_as_xyz
  1  'x, y, z'
loop_
 _atom_site_type_symbol
 _atom_site_label
 _atom_site_symmetry_multiplicity
 _atom_site_fract_x
 _atom_site_fract_y
 _atom_site_fract_z
 _atom_site_occupancy
  Dy  Dy0  1  0.392145  0.750000  0.642145  1
  Y  Y1  1  0.607608  0.250000  0.357608  1
  Be  Be2  1  0.999999  0.000031  0.500030  1
  Be  Be3  1  0.999999  0.499969  0.999968  1
  B  B4  1  0.631657  0.666276  0.965382  1
  B  B5  1  0.368288  0.333719  0.034569  1
  B  B6  1  0.200850  0.166281  0.034569  1
  B  B7  1  0.799106  0.833724  0.965382  1
  B  B8  1  0.790896  0.155828  0.635067  1
  B  B9  1  0.209187  0.844129  0.365058  1
  B  B10  1  0.020928  0.655871  0.365058  1
  B  B11  1  0.979240  0.344172  0.635067  1
  B  B12  1  0.924990  0.092354  0.832637  1
  B  B13  1  0.075081  0.907681  0.167400  1
  B  B14  1  0.759718  0.592319  0.167400  1
  B  B15  1  0.240284  0.407646  0.832637  1
  B  B16  1  0.398201  0.395992  0.676520  1
  B  B17  1  0.601730  0.278094  0.997569  1
  B  B18  1  0.219474  0.895838  0.997569  1
  B  B19  1  0.780528  0.778319  0.676520  1
  B  B20  1  0.601730  0.604162  0.323636  1
  B  B21  1  0.398201  0.721681  0.002210  1
  B  B22  1  0.780528  0.104008  0.002210  1
  B  B23  1  0.219474  0.221906  0.323636  1
  B  B24  1  0.032941  0.827987  0.698598  1
  B  B25  1  0.967142  0.665700  0.795083  1
  B  B26  1  0.629383  0.327942  0.795083  1
  B  B27  1  0.370612  0.165658  0.698598  1
  B  B28  1  0.967142  0.172058  0.301442  1
  B  B29  1  0.032941  0.334342  0.204954  1
  B  B30  1  0.370612  0.672013  0.204954  1
  B  B31  1  0.629383  0.834300  0.301442  1
