# generated using pymatgen
data_Ca4Sn4PdAu3
_symmetry_space_group_name_H-M   'P 1'
_cell_length_a   4.73565000
_cell_length_b   7.45898501
_cell_length_c   8.24565764
_cell_angle_alpha   89.84870387
_cell_angle_beta   90.00000000
_cell_angle_gamma   90.00000000
_symmetry_Int_Tables_number   1
_chemical_formula_structural   Ca4Sn4PdAu3
_chemical_formula_sum   'Ca4 Sn4 Pd1 Au3'
_cell_volume   291.26152343
_cell_formula_units_Z   1
loop_
 _symmetry_equiv_pos_site_id
 _symmetry_equiv_pos_as_xyz
  1  'x, y, z'
loop_
 _atom_site_type_symbol
 _atom_site_label
 _atom_site_symmetry_multiplicity
 _atom_site_fract_x
 _atom_site_fract_y
 _atom_site_fract_z
 _atom_site_occupancy
  Ca  Ca0  1  0.750000  0.489961  0.799361  1
  Ca  Ca1  1  0.250000  0.504611  0.202694  1
  Ca  Ca2  1  0.250000  0.011671  0.299621  1
  Ca  Ca3  1  0.750000  0.990345  0.701311  1
  Sn  Sn4  1  0.750000  0.309787  0.424754  1
  Sn  Sn5  1  0.250000  0.678143  0.582978  1
  Sn  Sn6  1  0.750000  0.812731  0.083379  1
  Sn  Sn7  1  0.250000  0.191322  0.907105  1
  Pd  Pd8  1  0.250000  0.300449  0.589905  1
  Au  Au9  1  0.750000  0.208948  0.092933  1
  Au  Au10  1  0.750000  0.712197  0.408314  1
  Au  Au11  1  0.250000  0.789836  0.907645  1
