# generated using pymatgen
data_LuP4N7
_symmetry_space_group_name_H-M   'P 1'
_cell_length_a   4.93790817
_cell_length_b   7.42434473
_cell_length_c   8.46671596
_cell_angle_alpha   74.59979913
_cell_angle_beta   106.39105858
_cell_angle_gamma   96.66990055
_symmetry_Int_Tables_number   1
_chemical_formula_structural   LuP4N7
_chemical_formula_sum   'Lu2 P8 N14'
_cell_volume   286.80381138
_cell_formula_units_Z   2
loop_
 _symmetry_equiv_pos_site_id
 _symmetry_equiv_pos_as_xyz
  1  'x, y, z'
loop_
 _atom_site_type_symbol
 _atom_site_label
 _atom_site_symmetry_multiplicity
 _atom_site_fract_x
 _atom_site_fract_y
 _atom_site_fract_z
 _atom_site_occupancy
  Lu  Lu0  1  0.343911  0.788413  0.211624  1
  Lu  Lu1  1  0.656090  0.211587  0.788377  1
  P  P2  1  0.315195  0.273539  0.075411  1
  P  P3  1  0.865767  0.122560  0.234096  1
  P  P4  1  0.734997  0.490533  0.252817  1
  P  P5  1  0.016557  0.247076  0.566393  1
  P  P6  1  0.983443  0.752924  0.433606  1
  P  P7  1  0.265004  0.509467  0.747182  1
  P  P8  1  0.134233  0.877440  0.765904  1
  P  P9  1  0.684803  0.726461  0.924589  1
  N  N10  1  0.600576  0.180997  0.065119  1
  N  N11  1  0.883821  0.648528  0.117784  1
  N  N12  1  0.141326  0.094611  0.173272  1
  N  N13  1  0.410829  0.441098  0.171186  1
  N  N14  1  0.921906  0.294095  0.340162  1
  N  N15  1  0.772397  0.933222  0.357288  1
  N  N16  1  0.725364  0.587104  0.401208  1
  N  N17  1  0.274637  0.412895  0.598792  1
  N  N18  1  0.227603  0.066778  0.642711  1
  N  N19  1  0.078094  0.705905  0.659838  1
  N  N20  1  0.589171  0.558902  0.828814  1
  N  N21  1  0.858672  0.905389  0.826729  1
  N  N22  1  0.116179  0.351473  0.882215  1
  N  N23  1  0.399424  0.819003  0.934881  1
