# generated using pymatgen
data_LaY6Th(CdIr)2
_symmetry_space_group_name_H-M   'P 1'
_cell_length_a   9.77008342
_cell_length_b   9.77008308
_cell_length_c   9.77094100
_cell_angle_alpha   59.99709857
_cell_angle_beta   59.99709974
_cell_angle_gamma   59.98015109
_symmetry_Int_Tables_number   1
_chemical_formula_structural   LaY6Th(CdIr)2
_chemical_formula_sum   'La2 Y12 Th2 Cd4 Ir4'
_cell_volume   659.37684739
_cell_formula_units_Z   2
loop_
 _symmetry_equiv_pos_site_id
 _symmetry_equiv_pos_as_xyz
  1  'x, y, z'
loop_
 _atom_site_type_symbol
 _atom_site_label
 _atom_site_symmetry_multiplicity
 _atom_site_fract_x
 _atom_site_fract_y
 _atom_site_fract_z
 _atom_site_occupancy
  La  La0  1  0.350660  0.350660  0.350339  1
  La  La1  1  0.350660  0.350660  0.948340  1
  Y  Y2  1  0.812200  0.187610  0.188048  1
  Y  Y3  1  0.187610  0.812200  0.812142  1
  Y  Y4  1  0.187610  0.812200  0.188048  1
  Y  Y5  1  0.812200  0.187610  0.812142  1
  Y  Y6  1  0.188168  0.188168  0.811832  1
  Y  Y7  1  0.812396  0.812396  0.187604  1
  Y  Y8  1  0.935404  0.564209  0.564384  1
  Y  Y9  1  0.564209  0.935404  0.936004  1
  Y  Y10  1  0.564209  0.935404  0.564384  1
  Y  Y11  1  0.935404  0.564209  0.936004  1
  Y  Y12  1  0.564213  0.564213  0.935787  1
  Y  Y13  1  0.935765  0.935765  0.564235  1
  Th  Th14  1  0.349587  0.952548  0.348932  1
  Th  Th15  1  0.952548  0.349587  0.348932  1
  Cd  Cd16  1  0.583036  0.583036  0.581715  1
  Cd  Cd17  1  0.583036  0.583036  0.252213  1
  Cd  Cd18  1  0.583306  0.252349  0.582172  1
  Cd  Cd19  1  0.252349  0.583306  0.582172  1
  Ir  Ir20  1  0.141189  0.141189  0.146184  1
  Ir  Ir21  1  0.141189  0.141189  0.571438  1
  Ir  Ir22  1  0.138694  0.574357  0.143474  1
  Ir  Ir23  1  0.574357  0.138694  0.143474  1
