# generated using pymatgen
data_La4AgHg2Rh3
_symmetry_space_group_name_H-M   'P 1'
_cell_length_a   7.84357800
_cell_length_b   7.84357790
_cell_length_c   3.95385600
_cell_angle_alpha   90.00000000
_cell_angle_beta   90.00000000
_cell_angle_gamma   89.36158366
_symmetry_Int_Tables_number   1
_chemical_formula_structural   La4AgHg2Rh3
_chemical_formula_sum   'La4 Ag1 Hg2 Rh3'
_cell_volume   243.23290228
_cell_formula_units_Z   1
loop_
 _symmetry_equiv_pos_site_id
 _symmetry_equiv_pos_as_xyz
  1  'x, y, z'
loop_
 _atom_site_type_symbol
 _atom_site_label
 _atom_site_symmetry_multiplicity
 _atom_site_fract_x
 _atom_site_fract_y
 _atom_site_fract_z
 _atom_site_occupancy
  La  La0  1  0.678220  0.178220  0.500000  1
  La  La1  1  0.351526  0.851526  0.500000  1
  La  La2  1  0.165690  0.304266  0.500000  1
  La  La3  1  0.804266  0.665690  0.500000  1
  Ag  Ag4  1  0.129206  0.629206  0.000000  1
  Hg  Hg5  1  0.997896  0.992828  0.000000  1
  Hg  Hg6  1  0.492828  0.497896  0.000000  1
  Rh  Rh7  1  0.874068  0.374068  0.000000  1
  Rh  Rh8  1  0.638041  0.868260  0.000000  1
  Rh  Rh9  1  0.368260  0.138041  0.000000  1
