# generated using pymatgen
data_Sm3Nb(Co4P3)2
_symmetry_space_group_name_H-M   'P 1'
_cell_length_a   3.74325300
_cell_length_b   10.69801200
_cell_length_c   12.43209700
_cell_angle_alpha   90.00000000
_cell_angle_beta   90.00000000
_cell_angle_gamma   90.00000000
_symmetry_Int_Tables_number   1
_chemical_formula_structural   Sm3Nb(Co4P3)2
_chemical_formula_sum   'Sm6 Nb2 Co16 P12'
_cell_volume   497.84786846
_cell_formula_units_Z   2
loop_
 _symmetry_equiv_pos_site_id
 _symmetry_equiv_pos_as_xyz
  1  'x, y, z'
loop_
 _atom_site_type_symbol
 _atom_site_label
 _atom_site_symmetry_multiplicity
 _atom_site_fract_x
 _atom_site_fract_y
 _atom_site_fract_z
 _atom_site_occupancy
  Sm  Sm0  1  0.000000  0.500000  0.525098  1
  Sm  Sm1  1  0.500000  0.000000  0.474902  1
  Sm  Sm2  1  0.500000  0.819512  0.205475  1
  Sm  Sm3  1  0.500000  0.180488  0.205475  1
  Sm  Sm4  1  0.000000  0.680488  0.794525  1
  Sm  Sm5  1  0.000000  0.319512  0.794525  1
  Nb  Nb6  1  0.500000  0.500000  0.154837  1
  Nb  Nb7  1  0.000000  0.000000  0.845163  1
  Co  Co8  1  0.500000  0.500000  0.702475  1
  Co  Co9  1  0.000000  0.000000  0.297525  1
  Co  Co10  1  0.000000  0.500000  0.985838  1
  Co  Co11  1  0.500000  0.000000  0.014162  1
  Co  Co12  1  0.500000  0.332426  0.991919  1
  Co  Co13  1  0.500000  0.667574  0.991919  1
  Co  Co14  1  0.000000  0.167574  0.008081  1
  Co  Co15  1  0.000000  0.832426  0.008081  1
  Co  Co16  1  0.500000  0.295363  0.431927  1
  Co  Co17  1  0.500000  0.704637  0.431927  1
  Co  Co18  1  0.000000  0.204637  0.568073  1
  Co  Co19  1  0.000000  0.795363  0.568073  1
  Co  Co20  1  0.500000  0.878832  0.705754  1
  Co  Co21  1  0.500000  0.121168  0.705754  1
  Co  Co22  1  0.000000  0.621168  0.294246  1
  Co  Co23  1  0.000000  0.378832  0.294246  1
  P  P24  1  0.500000  0.500000  0.883871  1
  P  P25  1  0.000000  0.000000  0.116129  1
  P  P26  1  0.500000  0.500000  0.351858  1
  P  P27  1  0.000000  0.000000  0.648142  1
  P  P28  1  0.500000  0.308361  0.614519  1
  P  P29  1  0.500000  0.691639  0.614519  1
  P  P30  1  0.000000  0.191639  0.385481  1
  P  P31  1  0.000000  0.808361  0.385481  1
  P  P32  1  0.500000  0.842680  0.895460  1
  P  P33  1  0.500000  0.157320  0.895460  1
  P  P34  1  0.000000  0.657320  0.104540  1
  P  P35  1  0.000000  0.342680  0.104540  1
