# generated using pymatgen
data_Fe2Sb12OsAu
_symmetry_space_group_name_H-M   'P 1'
_cell_length_a   8.07783641
_cell_length_b   8.11633414
_cell_length_c   8.10927445
_cell_angle_alpha   109.63459968
_cell_angle_beta   109.33110573
_cell_angle_gamma   109.50430362
_symmetry_Int_Tables_number   1
_chemical_formula_structural   Fe2Sb12OsAu
_chemical_formula_sum   'Fe2 Sb12 Os1 Au1'
_cell_volume   408.98784871
_cell_formula_units_Z   1
loop_
 _symmetry_equiv_pos_site_id
 _symmetry_equiv_pos_as_xyz
  1  'x, y, z'
loop_
 _atom_site_type_symbol
 _atom_site_label
 _atom_site_symmetry_multiplicity
 _atom_site_fract_x
 _atom_site_fract_y
 _atom_site_fract_z
 _atom_site_occupancy
  Fe  Fe0  1  0.000000  0.000000  0.500000  1
  Fe  Fe1  1  0.000000  0.500000  0.000000  1
  Sb  Sb2  1  0.670969  0.861482  0.502275  1
  Sb  Sb3  1  0.861631  0.501973  0.671478  1
  Sb  Sb4  1  0.501979  0.660171  0.858018  1
  Sb  Sb5  1  0.675892  0.164575  0.828131  1
  Sb  Sb6  1  0.846824  0.172738  0.335927  1
  Sb  Sb7  1  0.153176  0.827262  0.664073  1
  Sb  Sb8  1  0.167450  0.328208  0.838350  1
  Sb  Sb9  1  0.138369  0.498027  0.328522  1
  Sb  Sb10  1  0.329031  0.138518  0.497725  1
  Sb  Sb11  1  0.498021  0.339829  0.141982  1
  Sb  Sb12  1  0.324108  0.835425  0.171869  1
  Sb  Sb13  1  0.832550  0.671792  0.161650  1
  Os  Os14  1  0.500000  0.000000  0.000000  1
  Au  Au15  1  0.500000  0.500000  0.500000  1
