# generated using pymatgen
data_HoTm3Co5(Ni3B2)3
_symmetry_space_group_name_H-M   'P 1'
_cell_length_a   4.94363522
_cell_length_b   4.94363443
_cell_length_c   13.02241000
_cell_angle_alpha   90.00000000
_cell_angle_beta   90.00000000
_cell_angle_gamma   119.74902522
_symmetry_Int_Tables_number   1
_chemical_formula_structural   HoTm3Co5(Ni3B2)3
_chemical_formula_sum   'Ho1 Tm3 Co5 Ni9 B6'
_cell_volume   276.31695979
_cell_formula_units_Z   1
loop_
 _symmetry_equiv_pos_site_id
 _symmetry_equiv_pos_as_xyz
  1  'x, y, z'
loop_
 _atom_site_type_symbol
 _atom_site_label
 _atom_site_symmetry_multiplicity
 _atom_site_fract_x
 _atom_site_fract_y
 _atom_site_fract_z
 _atom_site_occupancy
  Ho  Ho0  1  0.000000  0.000000  0.001019  1
  Tm  Tm1  1  0.000000  0.000000  0.498520  1
  Tm  Tm2  1  0.000000  0.000000  0.738111  1
  Tm  Tm3  1  0.000000  0.000000  0.262908  1
  Co  Co4  1  0.500000  0.000000  0.615944  1
  Co  Co5  1  0.000000  0.500000  0.615944  1
  Co  Co6  1  0.500000  0.500000  0.382764  1
  Co  Co7  1  0.500000  0.000000  0.383375  1
  Co  Co8  1  0.000000  0.500000  0.383375  1
  Ni  Ni9  1  0.666651  0.333349  0.000268  1
  Ni  Ni10  1  0.333349  0.666651  0.000268  1
  Ni  Ni11  1  0.500000  0.500000  0.843642  1
  Ni  Ni12  1  0.500000  0.000000  0.844086  1
  Ni  Ni13  1  0.000000  0.500000  0.844086  1
  Ni  Ni14  1  0.500000  0.500000  0.156894  1
  Ni  Ni15  1  0.500000  0.000000  0.156603  1
  Ni  Ni16  1  0.000000  0.500000  0.156603  1
  Ni  Ni17  1  0.500000  0.500000  0.616862  1
  B  B18  1  0.668711  0.331289  0.498540  1
  B  B19  1  0.331289  0.668711  0.498540  1
  B  B20  1  0.670287  0.329713  0.731267  1
  B  B21  1  0.329713  0.670287  0.731267  1
  B  B22  1  0.332842  0.667158  0.269557  1
  B  B23  1  0.667158  0.332842  0.269557  1
