# generated using pymatgen
data_DySc7TiNb11Si16
_symmetry_space_group_name_H-M   'P 1'
_cell_length_a   6.95118416
_cell_length_b   6.95012174
_cell_length_c   12.77344080
_cell_angle_alpha   90.02079620
_cell_angle_beta   89.86532743
_cell_angle_gamma   89.98293545
_symmetry_Int_Tables_number   1
_chemical_formula_structural   DySc7TiNb11Si16
_chemical_formula_sum   'Dy1 Sc7 Ti1 Nb11 Si16'
_cell_volume   617.10328498
_cell_formula_units_Z   1
loop_
 _symmetry_equiv_pos_site_id
 _symmetry_equiv_pos_as_xyz
  1  'x, y, z'
loop_
 _atom_site_type_symbol
 _atom_site_label
 _atom_site_symmetry_multiplicity
 _atom_site_fract_x
 _atom_site_fract_y
 _atom_site_fract_z
 _atom_site_occupancy
  Dy  Dy0  1  0.340578  0.004905  0.468133  1
  Sc  Sc1  1  0.000776  0.656556  0.032185  1
  Sc  Sc2  1  0.999145  0.344659  0.533202  1
  Sc  Sc3  1  0.656131  0.999713  0.967800  1
  Sc  Sc4  1  0.157231  0.500904  0.782802  1
  Sc  Sc5  1  0.841617  0.500136  0.280636  1
  Sc  Sc6  1  0.501177  0.156649  0.217053  1
  Sc  Sc7  1  0.500412  0.842854  0.718049  1
  Ti  Ti8  1  0.650213  0.493362  0.877398  1
  Nb  Nb9  1  0.349810  0.505388  0.375561  1
  Nb  Nb10  1  0.849462  0.993334  0.373054  1
  Nb  Nb11  1  0.006042  0.150265  0.125124  1
  Nb  Nb12  1  0.994913  0.848522  0.628343  1
  Nb  Nb13  1  0.508932  0.349286  0.625327  1
  Nb  Nb14  1  0.149400  0.005181  0.874191  1
  Nb  Nb15  1  0.673467  0.671429  0.500568  1
  Nb  Nb16  1  0.827687  0.172454  0.751308  1
  Nb  Nb17  1  0.170710  0.827426  0.248569  1
  Nb  Nb18  1  0.327322  0.326749  0.999661  1
  Nb  Nb19  1  0.495007  0.649153  0.121867  1
  Si  Si20  1  0.044238  0.697512  0.436253  1
  Si  Si21  1  0.952048  0.302242  0.935382  1
  Si  Si22  1  0.706039  0.046507  0.565120  1
  Si  Si23  1  0.199078  0.455305  0.185104  1
  Si  Si24  1  0.798816  0.546408  0.688589  1
  Si  Si25  1  0.454559  0.201991  0.814973  1
  Si  Si26  1  0.548328  0.797015  0.311349  1
  Si  Si27  1  0.300252  0.953414  0.063157  1
  Si  Si28  1  0.794394  0.861137  0.177305  1
  Si  Si29  1  0.294298  0.634493  0.572814  1
  Si  Si30  1  0.704467  0.360128  0.070414  1
  Si  Si31  1  0.643059  0.298390  0.429071  1
  Si  Si32  1  0.363314  0.703901  0.927646  1
  Si  Si33  1  0.133862  0.209398  0.317943  1
  Si  Si34  1  0.204386  0.140493  0.681353  1
  Si  Si35  1  0.858831  0.792735  0.822693  1
