# generated using pymatgen
data_Dy5Y4Tm11Pt16
_symmetry_space_group_name_H-M   'P 1'
_cell_length_a   7.44380806
_cell_length_b   7.51718957
_cell_length_c   14.63146006
_cell_angle_alpha   89.96431451
_cell_angle_beta   90.00009668
_cell_angle_gamma   90.00668954
_symmetry_Int_Tables_number   1
_chemical_formula_structural   Dy5Y4Tm11Pt16
_chemical_formula_sum   'Dy5 Y4 Tm11 Pt16'
_cell_volume   818.72536977
_cell_formula_units_Z   1
loop_
 _symmetry_equiv_pos_site_id
 _symmetry_equiv_pos_as_xyz
  1  'x, y, z'
loop_
 _atom_site_type_symbol
 _atom_site_label
 _atom_site_symmetry_multiplicity
 _atom_site_fract_x
 _atom_site_fract_y
 _atom_site_fract_z
 _atom_site_occupancy
  Dy  Dy0  1  0.656252  0.832192  0.877991  1
  Dy  Dy1  1  0.998593  0.820492  0.406837  1
  Dy  Dy2  1  0.498168  0.679111  0.093814  1
  Dy  Dy3  1  0.501433  0.320609  0.592810  1
  Dy  Dy4  1  0.001880  0.180327  0.907003  1
  Y  Y5  1  0.001108  0.179158  0.592870  1
  Y  Y6  1  0.500917  0.320858  0.907002  1
  Y  Y7  1  0.498686  0.679207  0.406920  1
  Y  Y8  1  0.998884  0.820567  0.093146  1
  Tm  Tm9  1  0.681037  0.989874  0.250103  1
  Tm  Tm10  1  0.181006  0.510133  0.250103  1
  Tm  Tm11  1  0.819276  0.489439  0.749512  1
  Tm  Tm12  1  0.318640  0.010666  0.749598  1
  Tm  Tm13  1  0.656032  0.832431  0.622356  1
  Tm  Tm14  1  0.156225  0.667514  0.877358  1
  Tm  Tm15  1  0.843980  0.332537  0.377470  1
  Tm  Tm16  1  0.343737  0.167747  0.122713  1
  Tm  Tm17  1  0.343802  0.167537  0.377503  1
  Tm  Tm18  1  0.844170  0.332627  0.122967  1
  Tm  Tm19  1  0.156183  0.667499  0.622218  1
  Pt  Pt20  1  0.816584  0.641588  0.250230  1
  Pt  Pt21  1  0.316389  0.858505  0.249977  1
  Pt  Pt22  1  0.683709  0.142526  0.748954  1
  Pt  Pt23  1  0.182921  0.358072  0.749973  1
  Pt  Pt24  1  0.546267  0.384008  0.250065  1
  Pt  Pt25  1  0.046404  0.116048  0.250237  1
  Pt  Pt26  1  0.955020  0.884697  0.749090  1
  Pt  Pt27  1  0.452960  0.614408  0.748969  1
  Pt  Pt28  1  0.817770  0.534050  0.542044  1
  Pt  Pt29  1  0.315571  0.966749  0.958444  1
  Pt  Pt30  1  0.682221  0.034019  0.457853  1
  Pt  Pt31  1  0.182665  0.466116  0.042197  1
  Pt  Pt32  1  0.181931  0.466093  0.457818  1
  Pt  Pt33  1  0.681706  0.035175  0.043510  1
  Pt  Pt34  1  0.318137  0.966133  0.542044  1
  Pt  Pt35  1  0.819735  0.531286  0.958305  1
