# generated using pymatgen
data_Sc22Tc3Ag2Os3
_symmetry_space_group_name_H-M   'P 1'
_cell_length_a   9.56485723
_cell_length_b   9.64040298
_cell_length_c   9.64040241
_cell_angle_alpha   59.28951823
_cell_angle_beta   60.11929420
_cell_angle_gamma   60.11929493
_symmetry_Int_Tables_number   1
_chemical_formula_structural   Sc22Tc3Ag2Os3
_chemical_formula_sum   'Sc22 Tc3 Ag2 Os3'
_cell_volume   626.23888053
_cell_formula_units_Z   1
loop_
 _symmetry_equiv_pos_site_id
 _symmetry_equiv_pos_as_xyz
  1  'x, y, z'
loop_
 _atom_site_type_symbol
 _atom_site_label
 _atom_site_symmetry_multiplicity
 _atom_site_fract_x
 _atom_site_fract_y
 _atom_site_fract_z
 _atom_site_occupancy
  Sc  Sc0  1  0.857714  0.835855  0.835855  1
  Sc  Sc1  1  0.526277  0.163861  0.163861  1
  Sc  Sc2  1  0.161674  0.143790  0.528483  1
  Sc  Sc3  1  0.161674  0.528483  0.143790  1
  Sc  Sc4  1  0.838326  0.856210  0.471517  1
  Sc  Sc5  1  0.838326  0.471517  0.856210  1
  Sc  Sc6  1  0.473723  0.836139  0.836139  1
  Sc  Sc7  1  0.142286  0.164145  0.164145  1
  Sc  Sc8  1  0.194557  0.805403  0.193986  1
  Sc  Sc9  1  0.198823  0.802144  0.802144  1
  Sc  Sc10  1  0.801177  0.197856  0.197856  1
  Sc  Sc11  1  0.805443  0.806014  0.194597  1
  Sc  Sc12  1  0.194557  0.193986  0.805403  1
  Sc  Sc13  1  0.805443  0.194597  0.806014  1
  Sc  Sc14  1  0.391616  0.380426  0.380426  1
  Sc  Sc15  1  0.152533  0.619607  0.619607  1
  Sc  Sc16  1  0.620176  0.154427  0.608302  1
  Sc  Sc17  1  0.620176  0.608302  0.154427  1
  Sc  Sc18  1  0.379824  0.845573  0.391698  1
  Sc  Sc19  1  0.379824  0.391698  0.845573  1
  Sc  Sc20  1  0.847467  0.380393  0.380393  1
  Sc  Sc21  1  0.608384  0.619574  0.619574  1
  Tc  Tc22  1  0.500000  0.500000  0.000000  1
  Tc  Tc23  1  0.500000  0.000000  0.500000  1
  Tc  Tc24  1  0.000000  0.000000  0.000000  1
  Ag  Ag25  1  0.000000  0.500000  0.500000  1
  Ag  Ag26  1  0.500000  0.000000  0.000000  1
  Os  Os27  1  0.000000  0.000000  0.500000  1
  Os  Os28  1  0.000000  0.500000  0.000000  1
  Os  Os29  1  0.500000  0.500000  0.500000  1
