# generated using pymatgen
data_Tm5Al2AuC4
_symmetry_space_group_name_H-M   'P 1'
_cell_length_a   10.72902400
_cell_length_b   10.72902400
_cell_length_c   3.44757600
_cell_angle_alpha   90.00000000
_cell_angle_beta   90.00000000
_cell_angle_gamma   90.00000000
_symmetry_Int_Tables_number   1
_chemical_formula_structural   Tm5Al2AuC4
_chemical_formula_sum   'Tm10 Al4 Au2 C8'
_cell_volume   396.85721679
_cell_formula_units_Z   2
loop_
 _symmetry_equiv_pos_site_id
 _symmetry_equiv_pos_as_xyz
  1  'x, y, z'
loop_
 _atom_site_type_symbol
 _atom_site_label
 _atom_site_symmetry_multiplicity
 _atom_site_fract_x
 _atom_site_fract_y
 _atom_site_fract_z
 _atom_site_occupancy
  Tm  Tm0  1  0.548921  0.729583  0.500000  1
  Tm  Tm1  1  0.451079  0.270417  0.500000  1
  Tm  Tm2  1  0.048921  0.770417  0.500000  1
  Tm  Tm3  1  0.951079  0.229583  0.500000  1
  Tm  Tm4  1  0.270417  0.548921  0.500000  1
  Tm  Tm5  1  0.729583  0.451079  0.500000  1
  Tm  Tm6  1  0.229583  0.048921  0.500000  1
  Tm  Tm7  1  0.770417  0.951079  0.500000  1
  Tm  Tm8  1  0.500000  0.000000  0.000000  1
  Tm  Tm9  1  0.000000  0.500000  0.000000  1
  Al  Al10  1  0.703393  0.203393  0.000000  1
  Al  Al11  1  0.296607  0.796607  0.000000  1
  Al  Al12  1  0.203393  0.296607  0.000000  1
  Al  Al13  1  0.796607  0.703393  0.000000  1
  Au  Au14  1  0.500000  0.500000  0.000000  1
  Au  Au15  1  0.000000  0.000000  0.000000  1
  C  C16  1  0.629545  0.129545  0.500000  1
  C  C17  1  0.370455  0.870455  0.500000  1
  C  C18  1  0.129545  0.370455  0.500000  1
  C  C19  1  0.870455  0.629545  0.500000  1
  C  C20  1  0.161357  0.661357  0.000000  1
  C  C21  1  0.838643  0.338643  0.000000  1
  C  C22  1  0.661357  0.838643  0.000000  1
  C  C23  1  0.338643  0.161357  0.000000  1
