# generated using pymatgen
data_Ba2AuO3
_symmetry_space_group_name_H-M   'P 1'
_cell_length_a   7.26375929
_cell_length_b   7.26376372
_cell_length_c   11.69410400
_cell_angle_alpha   90.00000000
_cell_angle_beta   90.00000000
_cell_angle_gamma   131.00841689
_symmetry_Int_Tables_number   1
_chemical_formula_structural   Ba2AuO3
_chemical_formula_sum   'Ba8 Au4 O12'
_cell_volume   465.60163810
_cell_formula_units_Z   4
loop_
 _symmetry_equiv_pos_site_id
 _symmetry_equiv_pos_as_xyz
  1  'x, y, z'
loop_
 _atom_site_type_symbol
 _atom_site_label
 _atom_site_symmetry_multiplicity
 _atom_site_fract_x
 _atom_site_fract_y
 _atom_site_fract_z
 _atom_site_occupancy
  Ba  Ba0  1  0.213075  0.923669  0.750000  1
  Ba  Ba1  1  0.644289  0.355711  0.500000  1
  Ba  Ba2  1  0.786925  0.076331  0.250000  1
  Ba  Ba3  1  0.923669  0.213075  0.750000  1
  Ba  Ba4  1  0.076331  0.786925  0.250000  1
  Ba  Ba5  1  0.355711  0.644289  0.000000  1
  Ba  Ba6  1  0.355711  0.644289  0.500000  1
  Ba  Ba7  1  0.644289  0.355711  0.000000  1
  Au  Au8  1  0.385777  0.385778  0.250000  1
  Au  Au9  1  0.614223  0.614222  0.750000  1
  Au  Au10  1  0.000000  0.000000  0.000000  1
  Au  Au11  1  0.000000  0.000000  0.500000  1
  O  O12  1  0.241692  0.555890  0.250000  1
  O  O13  1  0.156804  0.843196  0.500000  1
  O  O14  1  0.555890  0.241693  0.250000  1
  O  O15  1  0.737692  0.737692  0.390837  1
  O  O16  1  0.156804  0.843196  0.000000  1
  O  O17  1  0.843196  0.156804  0.000000  1
  O  O18  1  0.444110  0.758307  0.750000  1
  O  O19  1  0.758308  0.444110  0.750000  1
  O  O20  1  0.737692  0.737692  0.109163  1
  O  O21  1  0.843196  0.156804  0.500000  1
  O  O22  1  0.262308  0.262308  0.609163  1
  O  O23  1  0.262308  0.262308  0.890837  1
