# generated using pymatgen
data_La4Zn2P5
_symmetry_space_group_name_H-M   'P 1'
_cell_length_a   4.20910100
_cell_length_b   4.20910091
_cell_length_c   17.36188200
_cell_angle_alpha   90.00000000
_cell_angle_beta   90.00000000
_cell_angle_gamma   120.00000857
_symmetry_Int_Tables_number   1
_chemical_formula_structural   La4Zn2P5
_chemical_formula_sum   'La4 Zn2 P5'
_cell_volume   266.38273842
_cell_formula_units_Z   1
loop_
 _symmetry_equiv_pos_site_id
 _symmetry_equiv_pos_as_xyz
  1  'x, y, z'
loop_
 _atom_site_type_symbol
 _atom_site_label
 _atom_site_symmetry_multiplicity
 _atom_site_fract_x
 _atom_site_fract_y
 _atom_site_fract_z
 _atom_site_occupancy
  La  La0  1  0.666667  0.333333  0.899199  1
  La  La1  1  0.333333  0.666667  0.100801  1
  La  La2  1  0.000000  0.000000  0.700019  1
  La  La3  1  0.000000  0.000000  0.299981  1
  Zn  Zn4  1  0.666667  0.333333  0.445982  1
  Zn  Zn5  1  0.333333  0.666667  0.554018  1
  P  P6  1  0.666667  0.333333  0.589749  1
  P  P7  1  0.333333  0.666667  0.410251  1
  P  P8  1  0.666667  0.333333  0.204062  1
  P  P9  1  0.333333  0.666667  0.795938  1
  P  P10  1  0.000000  0.000000  0.000000  1
