# generated using pymatgen
data_Lu3Ga2Ag3Ge
_symmetry_space_group_name_H-M   'P 1'
_cell_length_a   7.15771400
_cell_length_b   7.15771436
_cell_length_c   4.08740800
_cell_angle_alpha   90.00000000
_cell_angle_beta   90.00000000
_cell_angle_gamma   120.00000756
_symmetry_Int_Tables_number   1
_chemical_formula_structural   Lu3Ga2Ag3Ge
_chemical_formula_sum   'Lu3 Ga2 Ag3 Ge1'
_cell_volume   181.35406474
_cell_formula_units_Z   1
loop_
 _symmetry_equiv_pos_site_id
 _symmetry_equiv_pos_as_xyz
  1  'x, y, z'
loop_
 _atom_site_type_symbol
 _atom_site_label
 _atom_site_symmetry_multiplicity
 _atom_site_fract_x
 _atom_site_fract_y
 _atom_site_fract_z
 _atom_site_occupancy
  Lu  Lu0  1  0.583916  0.002209  0.000000  1
  Lu  Lu1  1  0.997791  0.581706  0.000000  1
  Lu  Lu2  1  0.418294  0.416084  0.000000  1
  Ga  Ga3  1  0.333333  0.666667  0.500000  1
  Ga  Ga4  1  0.000000  0.000000  0.000000  1
  Ag  Ag5  1  0.250004  0.998074  0.500000  1
  Ag  Ag6  1  0.001926  0.251930  0.500000  1
  Ag  Ag7  1  0.748070  0.749996  0.500000  1
  Ge  Ge8  1  0.666667  0.333333  0.500000  1
