# generated using pymatgen
data_Pr6Ho10Cd4TcPt3
_symmetry_space_group_name_H-M   'P 1'
_cell_length_a   9.81907243
_cell_length_b   9.81907202
_cell_length_c   9.81907126
_cell_angle_alpha   59.53465925
_cell_angle_beta   59.53466022
_cell_angle_gamma   59.53465712
_symmetry_Int_Tables_number   1
_chemical_formula_structural   Pr6Ho10Cd4TcPt3
_chemical_formula_sum   'Pr6 Ho10 Cd4 Tc1 Pt3'
_cell_volume   662.33334940
_cell_formula_units_Z   1
loop_
 _symmetry_equiv_pos_site_id
 _symmetry_equiv_pos_as_xyz
  1  'x, y, z'
loop_
 _atom_site_type_symbol
 _atom_site_label
 _atom_site_symmetry_multiplicity
 _atom_site_fract_x
 _atom_site_fract_y
 _atom_site_fract_z
 _atom_site_occupancy
  Pr  Pr0  1  0.937848  0.561549  0.561549  1
  Pr  Pr1  1  0.553598  0.940792  0.940792  1
  Pr  Pr2  1  0.561549  0.937848  0.561549  1
  Pr  Pr3  1  0.940792  0.553598  0.940792  1
  Pr  Pr4  1  0.561549  0.561549  0.937848  1
  Pr  Pr5  1  0.940792  0.940792  0.553598  1
  Ho  Ho6  1  0.351100  0.351100  0.351100  1
  Ho  Ho7  1  0.348004  0.348004  0.955746  1
  Ho  Ho8  1  0.348004  0.955746  0.348004  1
  Ho  Ho9  1  0.955746  0.348004  0.348004  1
  Ho  Ho10  1  0.817602  0.185428  0.185428  1
  Ho  Ho11  1  0.185315  0.811362  0.811362  1
  Ho  Ho12  1  0.185428  0.817602  0.185428  1
  Ho  Ho13  1  0.811362  0.185315  0.811362  1
  Ho  Ho14  1  0.185428  0.185428  0.817602  1
  Ho  Ho15  1  0.811362  0.811362  0.185315  1
  Cd  Cd16  1  0.578902  0.578902  0.578902  1
  Cd  Cd17  1  0.579102  0.579102  0.261212  1
  Cd  Cd18  1  0.579102  0.261212  0.579102  1
  Cd  Cd19  1  0.261212  0.579102  0.579102  1
  Tc  Tc20  1  0.142936  0.142936  0.142936  1
  Pt  Pt21  1  0.144290  0.144290  0.574686  1
  Pt  Pt22  1  0.144290  0.574686  0.144290  1
  Pt  Pt23  1  0.574686  0.144290  0.144290  1
