# generated using pymatgen
data_SrNdScPtO6
_symmetry_space_group_name_H-M   'P 1'
_cell_length_a   5.76269583
_cell_length_b   5.65902934
_cell_length_c   9.83330725
_cell_angle_alpha   54.54311407
_cell_angle_beta   89.96144062
_cell_angle_gamma   89.93660329
_symmetry_Int_Tables_number   1
_chemical_formula_structural   SrNdScPtO6
_chemical_formula_sum   'Sr2 Nd2 Sc2 Pt2 O12'
_cell_volume   261.20767742
_cell_formula_units_Z   2
loop_
 _symmetry_equiv_pos_site_id
 _symmetry_equiv_pos_as_xyz
  1  'x, y, z'
loop_
 _atom_site_type_symbol
 _atom_site_label
 _atom_site_symmetry_multiplicity
 _atom_site_fract_x
 _atom_site_fract_y
 _atom_site_fract_z
 _atom_site_occupancy
  Sr  Sr0  1  0.958571  0.240359  0.248770  1
  Sr  Sr1  1  0.041429  0.759641  0.751230  1
  Nd  Nd2  1  0.450231  0.763820  0.249930  1
  Nd  Nd3  1  0.549769  0.236180  0.750070  1
  Sc  Sc4  1  0.000000  0.000000  0.000000  1
  Sc  Sc5  1  0.500000  0.000000  0.500000  1
  Pt  Pt6  1  0.000000  0.500000  0.500000  1
  Pt  Pt7  1  0.500000  0.500000  0.000000  1
  O  O8  1  0.701044  0.161033  0.046128  1
  O  O9  1  0.298956  0.838967  0.953872  1
  O  O10  1  0.221027  0.824082  0.451471  1
  O  O11  1  0.778973  0.175918  0.548529  1
  O  O12  1  0.035496  0.667891  0.253050  1
  O  O13  1  0.964504  0.332109  0.746950  1
  O  O14  1  0.515101  0.351315  0.246149  1
  O  O15  1  0.484899  0.648685  0.753851  1
  O  O16  1  0.225450  0.234140  0.046945  1
  O  O17  1  0.774550  0.765860  0.953055  1
  O  O18  1  0.707493  0.745072  0.453067  1
  O  O19  1  0.292507  0.254928  0.546933  1
