# generated using pymatgen
data_Pr4AgRh
_symmetry_space_group_name_H-M   'P 1'
_cell_length_a   9.96567326
_cell_length_b   9.96567331
_cell_length_c   9.96567300
_cell_angle_alpha   59.99999770
_cell_angle_beta   59.99999756
_cell_angle_gamma   59.99999852
_symmetry_Int_Tables_number   1
_chemical_formula_structural   Pr4AgRh
_chemical_formula_sum   'Pr16 Ag4 Rh4'
_cell_volume   699.84989990
_cell_formula_units_Z   4
loop_
 _symmetry_equiv_pos_site_id
 _symmetry_equiv_pos_as_xyz
  1  'x, y, z'
loop_
 _atom_site_type_symbol
 _atom_site_label
 _atom_site_symmetry_multiplicity
 _atom_site_fract_x
 _atom_site_fract_y
 _atom_site_fract_z
 _atom_site_occupancy
  Pr  Pr0  1  0.351658  0.351658  0.351658  1
  Pr  Pr1  1  0.351658  0.351658  0.945025  1
  Pr  Pr2  1  0.351658  0.945025  0.351658  1
  Pr  Pr3  1  0.945025  0.351658  0.351658  1
  Pr  Pr4  1  0.810775  0.189225  0.189225  1
  Pr  Pr5  1  0.189225  0.810776  0.810775  1
  Pr  Pr6  1  0.189225  0.810775  0.189224  1
  Pr  Pr7  1  0.810775  0.189225  0.810775  1
  Pr  Pr8  1  0.189225  0.189225  0.810775  1
  Pr  Pr9  1  0.810776  0.810776  0.189224  1
  Pr  Pr10  1  0.936564  0.563436  0.563436  1
  Pr  Pr11  1  0.563436  0.936564  0.936564  1
  Pr  Pr12  1  0.563436  0.936564  0.563436  1
  Pr  Pr13  1  0.936564  0.563436  0.936564  1
  Pr  Pr14  1  0.563436  0.563436  0.936564  1
  Pr  Pr15  1  0.936564  0.936564  0.563436  1
  Ag  Ag16  1  0.580832  0.580832  0.580832  1
  Ag  Ag17  1  0.580832  0.580832  0.257503  1
  Ag  Ag18  1  0.580832  0.257503  0.580832  1
  Ag  Ag19  1  0.257503  0.580832  0.580832  1
  Rh  Rh20  1  0.142620  0.142620  0.142620  1
  Rh  Rh21  1  0.142620  0.142620  0.572142  1
  Rh  Rh22  1  0.142620  0.572142  0.142620  1
  Rh  Rh23  1  0.572142  0.142620  0.142620  1
