# generated using pymatgen
data_LiZr3P2Ir3
_symmetry_space_group_name_H-M   'P 1'
_cell_length_a   6.37740200
_cell_length_b   6.37740101
_cell_length_c   3.98969800
_cell_angle_alpha   90.00000000
_cell_angle_beta   90.00000000
_cell_angle_gamma   120.00000513
_symmetry_Int_Tables_number   1
_chemical_formula_structural   LiZr3P2Ir3
_chemical_formula_sum   'Li1 Zr3 P2 Ir3'
_cell_volume   140.52647491
_cell_formula_units_Z   1
loop_
 _symmetry_equiv_pos_site_id
 _symmetry_equiv_pos_as_xyz
  1  'x, y, z'
loop_
 _atom_site_type_symbol
 _atom_site_label
 _atom_site_symmetry_multiplicity
 _atom_site_fract_x
 _atom_site_fract_y
 _atom_site_fract_z
 _atom_site_occupancy
  Li  Li0  1  0.000000  0.000000  0.500000  1
  Zr  Zr1  1  0.000000  0.417483  0.500000  1
  Zr  Zr2  1  0.582517  0.582517  0.500000  1
  Zr  Zr3  1  0.417483  0.000000  0.500000  1
  P  P4  1  0.666667  0.333333  0.000000  1
  P  P5  1  0.333333  0.666667  0.000000  1
  Ir  Ir6  1  0.000000  0.753566  0.000000  1
  Ir  Ir7  1  0.246434  0.246434  0.000000  1
  Ir  Ir8  1  0.753566  0.000000  0.000000  1
