# generated using pymatgen
data_PaNiF7
_symmetry_space_group_name_H-M   'P 1'
_cell_length_a   5.71949800
_cell_length_b   9.04604142
_cell_length_c   11.82231012
_cell_angle_alpha   61.04589703
_cell_angle_beta   90.00000000
_cell_angle_gamma   90.00000000
_symmetry_Int_Tables_number   1
_chemical_formula_structural   PaNiF7
_chemical_formula_sum   'Pa4 Ni4 F28'
_cell_volume   535.21804741
_cell_formula_units_Z   4
loop_
 _symmetry_equiv_pos_site_id
 _symmetry_equiv_pos_as_xyz
  1  'x, y, z'
loop_
 _atom_site_type_symbol
 _atom_site_label
 _atom_site_symmetry_multiplicity
 _atom_site_fract_x
 _atom_site_fract_y
 _atom_site_fract_z
 _atom_site_occupancy
  Pa  Pa0  1  0.250288  0.797911  0.264845  1
  Pa  Pa1  1  0.749712  0.202089  0.735155  1
  Pa  Pa2  1  0.750288  0.202089  0.235155  1
  Pa  Pa3  1  0.249712  0.797911  0.764845  1
  Ni  Ni4  1  0.754226  0.730392  0.037835  1
  Ni  Ni5  1  0.245774  0.269608  0.962165  1
  Ni  Ni6  1  0.254226  0.269608  0.462165  1
  Ni  Ni7  1  0.745774  0.730392  0.537835  1
  F  F8  1  0.968380  0.712627  0.411481  1
  F  F9  1  0.031620  0.287373  0.588519  1
  F  F10  1  0.468380  0.287373  0.088519  1
  F  F11  1  0.531620  0.712627  0.911481  1
  F  F12  1  0.498933  0.735953  0.154632  1
  F  F13  1  0.501067  0.264047  0.845368  1
  F  F14  1  0.998933  0.264047  0.345368  1
  F  F15  1  0.001067  0.735953  0.654632  1
  F  F16  1  0.973441  0.743012  0.167741  1
  F  F17  1  0.026559  0.256988  0.832259  1
  F  F18  1  0.473441  0.256988  0.332259  1
  F  F19  1  0.526559  0.743012  0.667741  1
  F  F20  1  0.765427  0.477399  0.140747  1
  F  F21  1  0.234573  0.522601  0.859253  1
  F  F22  1  0.265427  0.522601  0.359253  1
  F  F23  1  0.734573  0.477399  0.640747  1
  F  F24  1  0.957488  0.270926  0.062498  1
  F  F25  1  0.042512  0.729074  0.937502  1
  F  F26  1  0.457488  0.729074  0.437502  1
  F  F27  1  0.542512  0.270926  0.562498  1
  F  F28  1  0.741359  0.983476  0.433407  1
  F  F29  1  0.258641  0.016524  0.566593  1
  F  F30  1  0.241359  0.016524  0.066593  1
  F  F31  1  0.758641  0.983476  0.933407  1
  F  F32  1  0.599372  0.982024  0.224852  1
  F  F33  1  0.400628  0.017976  0.775148  1
  F  F34  1  0.099372  0.017976  0.275148  1
  F  F35  1  0.900628  0.982024  0.724852  1
