# generated using pymatgen
data_TbHo15Cd4TcPd3
_symmetry_space_group_name_H-M   'P 1'
_cell_length_a   9.70429977
_cell_length_b   9.70429925
_cell_length_c   9.70330116
_cell_angle_alpha   59.35294700
_cell_angle_beta   59.35294884
_cell_angle_gamma   59.33211002
_symmetry_Int_Tables_number   1
_chemical_formula_structural   TbHo15Cd4TcPd3
_chemical_formula_sum   'Tb1 Ho15 Cd4 Tc1 Pd3'
_cell_volume   636.52972795
_cell_formula_units_Z   1
loop_
 _symmetry_equiv_pos_site_id
 _symmetry_equiv_pos_as_xyz
  1  'x, y, z'
loop_
 _atom_site_type_symbol
 _atom_site_label
 _atom_site_symmetry_multiplicity
 _atom_site_fract_x
 _atom_site_fract_y
 _atom_site_fract_z
 _atom_site_occupancy
  Tb  Tb0  1  0.937076  0.937076  0.557093  1
  Ho  Ho1  1  0.352988  0.352988  0.352947  1
  Ho  Ho2  1  0.350757  0.350757  0.946163  1
  Ho  Ho3  1  0.350960  0.946123  0.350602  1
  Ho  Ho4  1  0.946123  0.350960  0.350602  1
  Ho  Ho5  1  0.816897  0.188014  0.187637  1
  Ho  Ho6  1  0.188606  0.809966  0.810143  1
  Ho  Ho7  1  0.188014  0.816897  0.187637  1
  Ho  Ho8  1  0.809966  0.188606  0.810143  1
  Ho  Ho9  1  0.187854  0.187854  0.816999  1
  Ho  Ho10  1  0.810039  0.810039  0.188420  1
  Ho  Ho11  1  0.934430  0.565611  0.565886  1
  Ho  Ho12  1  0.556763  0.937151  0.937363  1
  Ho  Ho13  1  0.565611  0.934430  0.565886  1
  Ho  Ho14  1  0.937151  0.556763  0.937363  1
  Ho  Ho15  1  0.565863  0.565863  0.934489  1
  Cd  Cd16  1  0.580031  0.580031  0.579981  1
  Cd  Cd17  1  0.581106  0.581106  0.253855  1
  Cd  Cd18  1  0.580839  0.254123  0.581095  1
  Cd  Cd19  1  0.254123  0.580839  0.581095  1
  Tc  Tc20  1  0.144628  0.144628  0.144432  1
  Pd  Pd21  1  0.145144  0.145144  0.569972  1
  Pd  Pd22  1  0.145119  0.569915  0.145099  1
  Pd  Pd23  1  0.569915  0.145119  0.145099  1
