# generated using pymatgen
data_Ho4RuI4
_symmetry_space_group_name_H-M   'P 1'
_cell_length_a   11.08284185
_cell_length_b   11.08284323
_cell_length_c   6.18629944
_cell_angle_alpha   89.20346870
_cell_angle_beta   89.20346600
_cell_angle_gamma   88.56791503
_symmetry_Int_Tables_number   1
_chemical_formula_structural   Ho4RuI4
_chemical_formula_sum   'Ho8 Ru2 I8'
_cell_volume   759.47886380
_cell_formula_units_Z   2
loop_
 _symmetry_equiv_pos_site_id
 _symmetry_equiv_pos_as_xyz
  1  'x, y, z'
loop_
 _atom_site_type_symbol
 _atom_site_label
 _atom_site_symmetry_multiplicity
 _atom_site_fract_x
 _atom_site_fract_y
 _atom_site_fract_z
 _atom_site_occupancy
  Ho  Ho0  1  0.202002  0.916130  0.996426  1
  Ho  Ho1  1  0.797998  0.083870  0.003574  1
  Ho  Ho2  1  0.083870  0.797998  0.503574  1
  Ho  Ho3  1  0.916130  0.202002  0.496426  1
  Ho  Ho4  1  0.800019  0.921237  0.507890  1
  Ho  Ho5  1  0.199981  0.078763  0.492110  1
  Ho  Ho6  1  0.078763  0.199981  0.992110  1
  Ho  Ho7  1  0.921237  0.800019  0.007890  1
  Ru  Ru8  1  0.000043  0.999957  0.250000  1
  Ru  Ru9  1  0.999957  0.000043  0.750000  1
  I  I10  1  0.363259  0.841286  0.504211  1
  I  I11  1  0.636741  0.158714  0.495789  1
  I  I12  1  0.158714  0.636741  0.995789  1
  I  I13  1  0.841286  0.363259  0.004211  1
  I  I14  1  0.358978  0.149990  0.003071  1
  I  I15  1  0.641022  0.850010  0.996929  1
  I  I16  1  0.850010  0.641022  0.496929  1
  I  I17  1  0.149990  0.358978  0.503071  1
