# generated using pymatgen
data_NaFe(CoP4)3
_symmetry_space_group_name_H-M   'P 1'
_cell_length_a   6.77011247
_cell_length_b   6.77011146
_cell_length_c   6.77011200
_cell_angle_alpha   109.54962332
_cell_angle_beta   109.54962927
_cell_angle_gamma   109.54961353
_symmetry_Int_Tables_number   1
_chemical_formula_structural   NaFe(CoP4)3
_chemical_formula_sum   'Na1 Fe1 Co3 P12'
_cell_volume   238.17632470
_cell_formula_units_Z   1
loop_
 _symmetry_equiv_pos_site_id
 _symmetry_equiv_pos_as_xyz
  1  'x, y, z'
loop_
 _atom_site_type_symbol
 _atom_site_label
 _atom_site_symmetry_multiplicity
 _atom_site_fract_x
 _atom_site_fract_y
 _atom_site_fract_z
 _atom_site_occupancy
  Na  Na0  1  0.000000  0.000000  0.000000  1
  Fe  Fe1  1  0.500000  0.500000  0.500000  1
  Co  Co2  1  0.500000  0.000000  0.000000  1
  Co  Co3  1  0.000000  0.000000  0.500000  1
  Co  Co4  1  0.000000  0.500000  0.000000  1
  P  P5  1  0.501968  0.850198  0.647703  1
  P  P6  1  0.203720  0.853032  0.351390  1
  P  P7  1  0.796280  0.146968  0.648610  1
  P  P8  1  0.149802  0.352297  0.498032  1
  P  P9  1  0.352297  0.498032  0.149802  1
  P  P10  1  0.498032  0.149802  0.352297  1
  P  P11  1  0.146968  0.648610  0.796280  1
  P  P12  1  0.351390  0.203720  0.853032  1
  P  P13  1  0.850198  0.647703  0.501968  1
  P  P14  1  0.648610  0.796280  0.146968  1
  P  P15  1  0.853032  0.351390  0.203720  1
  P  P16  1  0.647703  0.501968  0.850198  1
