# generated using pymatgen
data_Tb3Ce(BRu)16
_symmetry_space_group_name_H-M   'P 1'
_cell_length_a   9.23646981
_cell_length_b   7.50757965
_cell_length_c   7.50758003
_cell_angle_alpha   90.01054662
_cell_angle_beta   113.97478148
_cell_angle_gamma   113.97481369
_symmetry_Int_Tables_number   1
_chemical_formula_structural   Tb3Ce(BRu)16
_chemical_formula_sum   'Tb3 Ce1 B16 Ru16'
_cell_volume   426.04319891
_cell_formula_units_Z   1
loop_
 _symmetry_equiv_pos_site_id
 _symmetry_equiv_pos_as_xyz
  1  'x, y, z'
loop_
 _atom_site_type_symbol
 _atom_site_label
 _atom_site_symmetry_multiplicity
 _atom_site_fract_x
 _atom_site_fract_y
 _atom_site_fract_z
 _atom_site_occupancy
  Tb  Tb0  1  0.249999  0.624998  0.374999  1
  Tb  Tb1  1  0.750000  0.375000  0.625000  1
  Tb  Tb2  1  0.249999  0.124999  0.874999  1
  Ce  Ce3  1  0.750000  0.875000  0.125000  1
  B  B4  1  0.915573  0.291190  0.066986  1
  B  B5  1  0.411540  0.565142  0.124693  1
  B  B6  1  0.088460  0.213153  0.153603  1
  B  B7  1  0.585406  0.151023  0.210949  1
  B  B8  1  0.413852  0.065569  0.289871  1
  B  B9  1  0.915574  0.624384  0.348587  1
  B  B10  1  0.584427  0.651412  0.375617  1
  B  B11  1  0.088460  0.875308  0.434858  1
  B  B12  1  0.914594  0.125543  0.565617  1
  B  B13  1  0.413852  0.348283  0.623980  1
  B  B14  1  0.086148  0.376019  0.651718  1
  B  B15  1  0.584426  0.933013  0.708809  1
  B  B16  1  0.411540  0.846397  0.786847  1
  B  B17  1  0.914594  0.789051  0.848978  1
  B  B18  1  0.585406  0.434383  0.874456  1
  B  B19  1  0.086148  0.710128  0.934431  1
  Ru  Ru20  1  0.872191  0.551007  0.037628  1
  Ru  Ru21  1  0.373736  0.834050  0.051483  1
  Ru  Ru22  1  0.126265  0.948517  0.165951  1
  Ru  Ru23  1  0.627155  0.463975  0.178792  1
  Ru  Ru24  1  0.374010  0.334099  0.321373  1
  Ru  Ru25  1  0.872191  0.321184  0.334563  1
  Ru  Ru26  1  0.627809  0.962371  0.448993  1
  Ru  Ru27  1  0.126264  0.177747  0.460313  1
  Ru  Ru28  1  0.872845  0.821210  0.536024  1
  Ru  Ru29  1  0.374009  0.039911  0.552634  1
  Ru  Ru30  1  0.125991  0.678626  0.665902  1
  Ru  Ru31  1  0.627809  0.665437  0.678814  1
  Ru  Ru32  1  0.373735  0.539687  0.822252  1
  Ru  Ru33  1  0.872845  0.051636  0.836821  1
  Ru  Ru34  1  0.627155  0.163180  0.948364  1
  Ru  Ru35  1  0.125990  0.447364  0.960089  1
