# generated using pymatgen
data_Th4B20RuPt
_symmetry_space_group_name_H-M   'P 1'
_cell_length_a   4.21072600
_cell_length_b   5.74826832
_cell_length_c   11.47181473
_cell_angle_alpha   89.39286131
_cell_angle_beta   90.00000000
_cell_angle_gamma   90.00000000
_symmetry_Int_Tables_number   1
_chemical_formula_structural   Th4B20RuPt
_chemical_formula_sum   'Th4 B20 Ru1 Pt1'
_cell_volume   277.65260705
_cell_formula_units_Z   1
loop_
 _symmetry_equiv_pos_site_id
 _symmetry_equiv_pos_as_xyz
  1  'x, y, z'
loop_
 _atom_site_type_symbol
 _atom_site_label
 _atom_site_symmetry_multiplicity
 _atom_site_fract_x
 _atom_site_fract_y
 _atom_site_fract_z
 _atom_site_occupancy
  Th  Th0  1  0.500000  0.286867  0.867729  1
  Th  Th1  1  0.500000  0.713133  0.132271  1
  Th  Th2  1  0.500000  0.801785  0.638785  1
  Th  Th3  1  0.500000  0.198215  0.361215  1
  B  B4  1  0.000000  0.114670  0.543998  1
  B  B5  1  0.000000  0.885330  0.456002  1
  B  B6  1  0.000000  0.618704  0.957264  1
  B  B7  1  0.000000  0.381296  0.042736  1
  B  B8  1  0.000000  0.134065  0.697705  1
  B  B9  1  0.000000  0.865935  0.302295  1
  B  B10  1  0.301085  0.219790  0.118062  1
  B  B11  1  0.301085  0.780210  0.881938  1
  B  B12  1  0.696577  0.720423  0.378716  1
  B  B13  1  0.696577  0.279577  0.621284  1
  B  B14  1  0.698915  0.780210  0.881938  1
  B  B15  1  0.698915  0.219790  0.118062  1
  B  B16  1  0.303423  0.279577  0.621284  1
  B  B17  1  0.303423  0.720423  0.378716  1
  B  B18  1  0.000000  0.057118  0.192319  1
  B  B19  1  0.000000  0.942882  0.807681  1
  B  B20  1  0.000000  0.557610  0.305103  1
  B  B21  1  0.000000  0.442390  0.694897  1
  B  B22  1  0.000000  0.365153  0.197364  1
  B  B23  1  0.000000  0.634847  0.802636  1
  Ru  Ru24  1  0.000000  0.000000  0.000000  1
  Pt  Pt25  1  0.000000  0.500000  0.500000  1
