# generated using pymatgen
data_Ba4Ca6Al3GaSb12
_symmetry_space_group_name_H-M   'P 1'
_cell_length_a   4.70704400
_cell_length_b   12.59257430
_cell_length_c   14.27227135
_cell_angle_alpha   89.97477560
_cell_angle_beta   90.00000000
_cell_angle_gamma   90.00000000
_symmetry_Int_Tables_number   1
_chemical_formula_structural   Ba4Ca6Al3GaSb12
_chemical_formula_sum   'Ba4 Ca6 Al3 Ga1 Sb12'
_cell_volume   845.97169426
_cell_formula_units_Z   1
loop_
 _symmetry_equiv_pos_site_id
 _symmetry_equiv_pos_as_xyz
  1  'x, y, z'
loop_
 _atom_site_type_symbol
 _atom_site_label
 _atom_site_symmetry_multiplicity
 _atom_site_fract_x
 _atom_site_fract_y
 _atom_site_fract_z
 _atom_site_occupancy
  Ba  Ba0  1  0.500000  0.675853  0.475208  1
  Ba  Ba1  1  0.500000  0.324398  0.524812  1
  Ba  Ba2  1  0.500000  0.824060  0.975140  1
  Ba  Ba3  1  0.500000  0.175896  0.026457  1
  Ca  Ca4  1  0.500000  0.999490  0.500307  1
  Ca  Ca5  1  0.500000  0.499967  0.999818  1
  Ca  Ca6  1  0.500000  0.911380  0.246588  1
  Ca  Ca7  1  0.500000  0.088322  0.753506  1
  Ca  Ca8  1  0.500000  0.411772  0.253347  1
  Ca  Ca9  1  0.500000  0.588259  0.746632  1
  Al  Al10  1  0.000000  0.318920  0.712953  1
  Al  Al11  1  0.000000  0.681215  0.287026  1
  Al  Al12  1  0.000000  0.818857  0.787050  1
  Ga  Ga13  1  0.000000  0.181708  0.212216  1
  Sb  Sb14  1  0.000000  0.984171  0.102202  1
  Sb  Sb15  1  0.000000  0.014131  0.896974  1
  Sb  Sb16  1  0.000000  0.485901  0.396672  1
  Sb  Sb17  1  0.000000  0.514234  0.603101  1
  Sb  Sb18  1  0.500000  0.160160  0.314673  1
  Sb  Sb19  1  0.500000  0.838971  0.686233  1
  Sb  Sb20  1  0.500000  0.660871  0.186354  1
  Sb  Sb21  1  0.500000  0.338945  0.813800  1
  Sb  Sb22  1  0.000000  0.366002  0.106548  1
  Sb  Sb23  1  0.000000  0.636304  0.892497  1
  Sb  Sb24  1  0.000000  0.863625  0.392708  1
  Sb  Sb25  1  0.000000  0.136588  0.607180  1
