# generated using pymatgen
data_LiYb2Lu2FeC8
_symmetry_space_group_name_H-M   'P 1'
_cell_length_a   6.57420489
_cell_length_b   6.66760508
_cell_length_c   6.66760459
_cell_angle_alpha   134.82621665
_cell_angle_beta   110.80319369
_cell_angle_gamma   86.79398869
_symmetry_Int_Tables_number   1
_chemical_formula_structural   LiYb2Lu2FeC8
_chemical_formula_sum   'Li1 Yb2 Lu2 Fe1 C8'
_cell_volume   185.25624610
_cell_formula_units_Z   1
loop_
 _symmetry_equiv_pos_site_id
 _symmetry_equiv_pos_as_xyz
  1  'x, y, z'
loop_
 _atom_site_type_symbol
 _atom_site_label
 _atom_site_symmetry_multiplicity
 _atom_site_fract_x
 _atom_site_fract_y
 _atom_site_fract_z
 _atom_site_occupancy
  Li  Li0  1  0.000000  0.245685  0.245685  1
  Yb  Yb1  1  0.512756  0.861382  0.667669  1
  Yb  Yb2  1  0.487244  0.154912  0.348625  1
  Lu  Lu3  1  0.198682  0.356734  0.838648  1
  Lu  Lu4  1  0.801318  0.639965  0.158052  1
  Fe  Fe5  1  0.000000  0.741541  0.741541  1
  C  C6  1  0.806162  0.143297  0.681027  1
  C  C7  1  0.193838  0.874864  0.337134  1
  C  C8  1  0.473430  0.625980  0.856451  1
  C  C9  1  0.526570  0.383021  0.152550  1
  C  C10  1  0.914830  0.017893  0.758377  1
  C  C11  1  0.085170  0.843547  0.103063  1
  C  C12  1  0.269045  0.637306  0.742918  1
  C  C13  1  0.730955  0.473872  0.368260  1
