# generated using pymatgen
data_VH3F8
_symmetry_space_group_name_H-M   'P 1'
_cell_length_a   5.58710353
_cell_length_b   5.19487106
_cell_length_c   7.42465475
_cell_angle_alpha   95.32934214
_cell_angle_beta   69.46993578
_cell_angle_gamma   64.93839538
_symmetry_Int_Tables_number   1
_chemical_formula_structural   VH3F8
_chemical_formula_sum   'V1 H3 F8'
_cell_volume   175.24914425
_cell_formula_units_Z   1
loop_
 _symmetry_equiv_pos_site_id
 _symmetry_equiv_pos_as_xyz
  1  'x, y, z'
loop_
 _atom_site_type_symbol
 _atom_site_label
 _atom_site_symmetry_multiplicity
 _atom_site_fract_x
 _atom_site_fract_y
 _atom_site_fract_z
 _atom_site_occupancy
  V  V0  1  0.000236  0.423086  0.663613  1
  H  H1  1  0.812735  0.211110  0.428140  1
  H  H2  1  0.449887  0.016793  0.979815  1
  H  H3  1  0.035362  0.219030  0.164628  1
  F  F4  1  0.902540  0.628288  0.498308  1
  F  F5  1  0.324740  0.137397  0.462148  1
  F  F6  1  0.298740  0.220739  0.064982  1
  F  F7  1  0.178105  0.588296  0.735650  1
  F  F8  1  0.005675  0.187167  0.821058  1
  F  F9  1  0.637525  0.704653  0.867357  1
  F  F10  1  0.789940  0.218972  0.573910  1
  F  F11  1  0.853743  0.205429  0.241150  1
