# generated using pymatgen
data_Ca9Yb11(GeBi2)4
_symmetry_space_group_name_H-M   'P 1'
_cell_length_a   8.11475305
_cell_length_b   9.56674000
_cell_length_c   12.90944663
_cell_angle_alpha   90.00000000
_cell_angle_beta   90.05789431
_cell_angle_gamma   90.00000000
_symmetry_Int_Tables_number   1
_chemical_formula_structural   Ca9Yb11(GeBi2)4
_chemical_formula_sum   'Ca9 Yb11 Ge4 Bi8'
_cell_volume   1002.18219670
_cell_formula_units_Z   1
loop_
 _symmetry_equiv_pos_site_id
 _symmetry_equiv_pos_as_xyz
  1  'x, y, z'
loop_
 _atom_site_type_symbol
 _atom_site_label
 _atom_site_symmetry_multiplicity
 _atom_site_fract_x
 _atom_site_fract_y
 _atom_site_fract_z
 _atom_site_occupancy
  Ca  Ca0  1  0.829847  0.250000  0.783736  1
  Ca  Ca1  1  0.054421  0.750000  0.499535  1
  Ca  Ca2  1  0.355700  0.250000  0.696265  1
  Ca  Ca3  1  0.554067  0.250000  0.999876  1
  Ca  Ca4  1  0.856493  0.750000  0.804316  1
  Ca  Ca5  1  0.330429  0.750000  0.715669  1
  Ca  Ca6  1  0.670175  0.250000  0.283414  1
  Ca  Ca7  1  0.446212  0.750000  0.001737  1
  Ca  Ca8  1  0.946059  0.250000  0.498255  1
  Yb  Yb9  1  0.828790  0.527719  0.075803  1
  Yb  Yb10  1  0.171325  0.026917  0.926536  1
  Yb  Yb11  1  0.328938  0.472480  0.424123  1
  Yb  Yb12  1  0.671316  0.527176  0.573737  1
  Yb  Yb13  1  0.143190  0.250000  0.196077  1
  Yb  Yb14  1  0.169895  0.750000  0.214983  1
  Yb  Yb15  1  0.171325  0.473083  0.926536  1
  Yb  Yb16  1  0.828790  0.972281  0.075803  1
  Yb  Yb17  1  0.671316  0.972824  0.573737  1
  Yb  Yb18  1  0.328938  0.027520  0.424123  1
  Yb  Yb19  1  0.642553  0.750000  0.303869  1
  Ge  Ge20  1  0.443073  0.750000  0.489993  1
  Ge  Ge21  1  0.557977  0.250000  0.508090  1
  Ge  Ge22  1  0.058584  0.750000  0.993961  1
  Ge  Ge23  1  0.942947  0.250000  0.009839  1
  Bi  Bi24  1  0.058349  0.007490  0.668833  1
  Bi  Bi25  1  0.941280  0.991617  0.330917  1
  Bi  Bi26  1  0.058349  0.492510  0.668833  1
  Bi  Bi27  1  0.558489  0.992045  0.831549  1
  Bi  Bi28  1  0.440703  0.007862  0.168693  1
  Bi  Bi29  1  0.440703  0.492138  0.168693  1
  Bi  Bi30  1  0.558489  0.507955  0.831549  1
  Bi  Bi31  1  0.941280  0.508383  0.330917  1
