# generated using pymatgen
data_Tb4Sc16Bi7Sb5
_symmetry_space_group_name_H-M   'P 1'
_cell_length_a   7.80949342
_cell_length_b   8.98122439
_cell_length_c   11.49349314
_cell_angle_alpha   90.02517461
_cell_angle_beta   89.93463478
_cell_angle_gamma   89.97764795
_symmetry_Int_Tables_number   1
_chemical_formula_structural   Tb4Sc16Bi7Sb5
_chemical_formula_sum   'Tb4 Sc16 Bi7 Sb5'
_cell_volume   806.13929985
_cell_formula_units_Z   1
loop_
 _symmetry_equiv_pos_site_id
 _symmetry_equiv_pos_as_xyz
  1  'x, y, z'
loop_
 _atom_site_type_symbol
 _atom_site_label
 _atom_site_symmetry_multiplicity
 _atom_site_fract_x
 _atom_site_fract_y
 _atom_site_fract_z
 _atom_site_occupancy
  Tb  Tb0  1  0.320520  0.247276  0.219132  1
  Tb  Tb1  1  0.816296  0.246406  0.282271  1
  Tb  Tb2  1  0.680931  0.750088  0.781560  1
  Tb  Tb3  1  0.181196  0.749912  0.718079  1
  Sc  Sc4  1  0.352060  0.753467  0.218992  1
  Sc  Sc5  1  0.845274  0.753011  0.282687  1
  Sc  Sc6  1  0.651229  0.249959  0.782118  1
  Sc  Sc7  1  0.151526  0.249921  0.717743  1
  Sc  Sc8  1  0.688414  0.565396  0.061621  1
  Sc  Sc9  1  0.191027  0.935807  0.437788  1
  Sc  Sc10  1  0.311874  0.064876  0.938593  1
  Sc  Sc11  1  0.811329  0.434655  0.561273  1
  Sc  Sc12  1  0.311886  0.434627  0.938625  1
  Sc  Sc13  1  0.810260  0.064254  0.559638  1
  Sc  Sc14  1  0.686694  0.935453  0.063967  1
  Sc  Sc15  1  0.188879  0.565230  0.438395  1
  Sc  Sc16  1  0.479177  0.247334  0.487151  1
  Sc  Sc17  1  0.978714  0.249842  0.011828  1
  Sc  Sc18  1  0.522221  0.752831  0.509421  1
  Sc  Sc19  1  0.021232  0.750194  0.988684  1
  Bi  Bi20  1  0.064021  0.510516  0.171721  1
  Bi  Bi21  1  0.436465  0.489361  0.670263  1
  Bi  Bi22  1  0.935898  0.010663  0.828822  1
  Bi  Bi23  1  0.436058  0.010677  0.671389  1
  Bi  Bi24  1  0.935989  0.489290  0.828829  1
  Bi  Bi25  1  0.563985  0.510435  0.328879  1
  Bi  Bi26  1  0.063967  0.989209  0.170904  1
  Sb  Sb27  1  0.402487  0.750107  0.968109  1
  Sb  Sb28  1  0.903209  0.750027  0.531981  1
  Sb  Sb29  1  0.597432  0.249883  0.031883  1
  Sb  Sb30  1  0.096969  0.249888  0.467768  1
  Sb  Sb31  1  0.562783  0.989402  0.329882  1
