# generated using pymatgen
data_Tb7DyLu2(SiB4)4
_symmetry_space_group_name_H-M   'P 1'
_cell_length_a   7.22641800
_cell_length_b   7.22641100
_cell_length_c   8.07228700
_cell_angle_alpha   89.99966315
_cell_angle_beta   90.00042701
_cell_angle_gamma   90.00122101
_symmetry_Int_Tables_number   1
_chemical_formula_structural   Tb7DyLu2(SiB4)4
_chemical_formula_sum   'Tb7 Dy1 Lu2 Si4 B16'
_cell_volume   421.54343638
_cell_formula_units_Z   1
loop_
 _symmetry_equiv_pos_site_id
 _symmetry_equiv_pos_as_xyz
  1  'x, y, z'
loop_
 _atom_site_type_symbol
 _atom_site_label
 _atom_site_symmetry_multiplicity
 _atom_site_fract_x
 _atom_site_fract_y
 _atom_site_fract_z
 _atom_site_occupancy
  Tb  Tb0  1  0.680166  0.180168  0.226064  1
  Tb  Tb1  1  0.319854  0.819925  0.773929  1
  Tb  Tb2  1  0.319838  0.819836  0.226066  1
  Tb  Tb3  1  0.819774  0.680219  0.225940  1
  Tb  Tb4  1  0.819763  0.680231  0.774099  1
  Tb  Tb5  1  0.680080  0.180144  0.773931  1
  Tb  Tb6  1  0.180283  0.319725  0.774169  1
  Dy  Dy7  1  0.180240  0.319765  0.224867  1
  Lu  Lu8  1  0.000083  0.000163  0.499880  1
  Lu  Lu9  1  0.499845  0.499900  0.499845  1
  Si  Si10  1  0.115946  0.615565  0.499724  1
  Si  Si11  1  0.884435  0.384055  0.499722  1
  Si  Si12  1  0.383990  0.116003  0.499681  1
  Si  Si13  1  0.615692  0.884306  0.499930  1
  B  B14  1  0.172483  0.039277  0.000131  1
  B  B15  1  0.827662  0.960969  0.000087  1
  B  B16  1  0.961116  0.172553  0.000187  1
  B  B17  1  0.327450  0.538887  0.000186  1
  B  B18  1  0.039105  0.827599  0.000107  1
  B  B19  1  0.672399  0.460895  0.000109  1
  B  B20  1  0.539031  0.672338  0.000085  1
  B  B21  1  0.460722  0.327515  0.000129  1
  B  B22  1  0.089937  0.589761  0.000265  1
  B  B23  1  0.910240  0.410064  0.000266  1
  B  B24  1  0.409961  0.090038  0.000047  1
  B  B25  1  0.590007  0.909994  0.000048  1
  B  B26  1  0.000179  0.000326  0.162798  1
  B  B27  1  0.000067  0.000025  0.837456  1
  B  B28  1  0.499974  0.499928  0.837455  1
  B  B29  1  0.499678  0.499826  0.162798  1
