# generated using pymatgen
data_ThNb6PbS12
_symmetry_space_group_name_H-M   'P 1'
_cell_length_a   5.84185400
_cell_length_b   5.84185403
_cell_length_c   14.58856900
_cell_angle_alpha   90.00000000
_cell_angle_beta   90.00000000
_cell_angle_gamma   119.99999985
_symmetry_Int_Tables_number   1
_chemical_formula_structural   ThNb6PbS12
_chemical_formula_sum   'Th1 Nb6 Pb1 S12'
_cell_volume   431.16621747
_cell_formula_units_Z   1
loop_
 _symmetry_equiv_pos_site_id
 _symmetry_equiv_pos_as_xyz
  1  'x, y, z'
loop_
 _atom_site_type_symbol
 _atom_site_label
 _atom_site_symmetry_multiplicity
 _atom_site_fract_x
 _atom_site_fract_y
 _atom_site_fract_z
 _atom_site_occupancy
  Th  Th0  1  0.000000  0.000000  0.000000  1
  Nb  Nb1  1  0.000000  0.000000  0.755647  1
  Nb  Nb2  1  0.000000  0.000000  0.244353  1
  Nb  Nb3  1  0.333333  0.666667  0.244345  1
  Nb  Nb4  1  0.666667  0.333333  0.755655  1
  Nb  Nb5  1  0.666667  0.333333  0.244345  1
  Nb  Nb6  1  0.333333  0.666667  0.755655  1
  Pb  Pb7  1  0.000000  0.000000  0.500000  1
  S  S8  1  0.336417  0.000000  0.135553  1
  S  S9  1  0.000000  0.336417  0.135553  1
  S  S10  1  0.663583  0.663583  0.135553  1
  S  S11  1  0.338341  0.338341  0.647860  1
  S  S12  1  0.661659  0.661659  0.352140  1
  S  S13  1  0.661659  0.000000  0.647860  1
  S  S14  1  0.000000  0.661659  0.647860  1
  S  S15  1  0.000000  0.663583  0.864447  1
  S  S16  1  0.336417  0.336417  0.864447  1
  S  S17  1  0.000000  0.338341  0.352140  1
  S  S18  1  0.338341  0.000000  0.352140  1
  S  S19  1  0.663583  0.000000  0.864447  1
