# generated using pymatgen
data_Tb6ZnSi12Pt7
_symmetry_space_group_name_H-M   'P 1'
_cell_length_a   4.22669100
_cell_length_b   8.48226849
_cell_length_c   13.06115300
_cell_angle_alpha   80.43009578
_cell_angle_beta   90.00000000
_cell_angle_gamma   90.00000000
_symmetry_Int_Tables_number   1
_chemical_formula_structural   Tb6ZnSi12Pt7
_chemical_formula_sum   'Tb6 Zn1 Si12 Pt7'
_cell_volume   461.75087056
_cell_formula_units_Z   1
loop_
 _symmetry_equiv_pos_site_id
 _symmetry_equiv_pos_as_xyz
  1  'x, y, z'
loop_
 _atom_site_type_symbol
 _atom_site_label
 _atom_site_symmetry_multiplicity
 _atom_site_fract_x
 _atom_site_fract_y
 _atom_site_fract_z
 _atom_site_occupancy
  Tb  Tb0  1  0.250000  0.766709  0.438262  1
  Tb  Tb1  1  0.250000  0.576269  0.186504  1
  Tb  Tb2  1  0.750000  0.233994  0.560369  1
  Tb  Tb3  1  0.750000  0.421998  0.804070  1
  Tb  Tb4  1  0.750000  0.925199  0.812414  1
  Tb  Tb5  1  0.250000  0.079726  0.185937  1
  Zn  Zn6  1  0.750000  0.347507  0.108766  1
  Si  Si7  1  0.750000  0.589253  0.568190  1
  Si  Si8  1  0.750000  0.128179  0.002455  1
  Si  Si9  1  0.750000  0.874289  0.571921  1
  Si  Si10  1  0.250000  0.696411  0.716043  1
  Si  Si11  1  0.750000  0.302643  0.292362  1
  Si  Si12  1  0.750000  0.806517  0.275354  1
  Si  Si13  1  0.250000  0.874134  0.996232  1
  Si  Si14  1  0.250000  0.193904  0.723112  1
  Si  Si15  1  0.250000  0.377642  0.999807  1
  Si  Si16  1  0.250000  0.121874  0.430885  1
  Si  Si17  1  0.750000  0.621226  0.996661  1
  Si  Si18  1  0.250000  0.412959  0.431624  1
  Pt  Pt19  1  0.250000  0.969739  0.623904  1
  Pt  Pt20  1  0.750000  0.848904  0.088947  1
  Pt  Pt21  1  0.750000  0.029143  0.374935  1
  Pt  Pt22  1  0.250000  0.647424  0.902808  1
  Pt  Pt23  1  0.250000  0.151442  0.910306  1
  Pt  Pt24  1  0.750000  0.534224  0.375099  1
  Pt  Pt25  1  0.250000  0.468692  0.623031  1
