# generated using pymatgen
data_Nd4Cu2PdPt
_symmetry_space_group_name_H-M   'P 1'
_cell_length_a   4.54051400
_cell_length_b   5.74947221
_cell_length_c   7.43846939
_cell_angle_alpha   90.13169335
_cell_angle_beta   90.00000000
_cell_angle_gamma   90.00000000
_symmetry_Int_Tables_number   1
_chemical_formula_structural   Nd4Cu2PdPt
_chemical_formula_sum   'Nd4 Cu2 Pd1 Pt1'
_cell_volume   194.18488894
_cell_formula_units_Z   1
loop_
 _symmetry_equiv_pos_site_id
 _symmetry_equiv_pos_as_xyz
  1  'x, y, z'
loop_
 _atom_site_type_symbol
 _atom_site_label
 _atom_site_symmetry_multiplicity
 _atom_site_fract_x
 _atom_site_fract_y
 _atom_site_fract_z
 _atom_site_occupancy
  Nd  Nd0  1  0.250000  0.369232  0.680881  1
  Nd  Nd1  1  0.750000  0.636229  0.321397  1
  Nd  Nd2  1  0.750000  0.865714  0.813641  1
  Nd  Nd3  1  0.250000  0.129559  0.184182  1
  Cu  Cu4  1  0.750000  0.132437  0.461347  1
  Cu  Cu5  1  0.750000  0.370125  0.963254  1
  Pd  Pd6  1  0.250000  0.625852  0.037824  1
  Pt  Pt7  1  0.250000  0.870854  0.537474  1
