# generated using pymatgen
data_ZnGa2(Ni10B3)2
_symmetry_space_group_name_H-M   'P 1'
_cell_length_a   7.41156785
_cell_length_b   7.41156794
_cell_length_c   7.41156800
_cell_angle_alpha   59.99999975
_cell_angle_beta   59.99999934
_cell_angle_gamma   60.00000254
_symmetry_Int_Tables_number   1
_chemical_formula_structural   ZnGa2(Ni10B3)2
_chemical_formula_sum   'Zn1 Ga2 Ni20 B6'
_cell_volume   287.88251509
_cell_formula_units_Z   1
loop_
 _symmetry_equiv_pos_site_id
 _symmetry_equiv_pos_as_xyz
  1  'x, y, z'
loop_
 _atom_site_type_symbol
 _atom_site_label
 _atom_site_symmetry_multiplicity
 _atom_site_fract_x
 _atom_site_fract_y
 _atom_site_fract_z
 _atom_site_occupancy
  Zn  Zn0  1  0.000000  0.000000  0.000000  1
  Ga  Ga1  1  0.750000  0.750000  0.750000  1
  Ga  Ga2  1  0.250000  0.250000  0.250000  1
  Ni  Ni3  1  0.617232  0.617232  0.148303  1
  Ni  Ni4  1  0.617232  0.148303  0.617232  1
  Ni  Ni5  1  0.148303  0.617232  0.617232  1
  Ni  Ni6  1  0.617232  0.617232  0.617232  1
  Ni  Ni7  1  0.382768  0.382768  0.851697  1
  Ni  Ni8  1  0.382768  0.851697  0.382768  1
  Ni  Ni9  1  0.851697  0.382768  0.382768  1
  Ni  Ni10  1  0.382768  0.382768  0.382768  1
  Ni  Ni11  1  0.000000  0.000000  0.338028  1
  Ni  Ni12  1  0.661972  0.000000  0.338028  1
  Ni  Ni13  1  0.000000  0.661972  0.338028  1
  Ni  Ni14  1  0.661972  0.338028  0.000000  1
  Ni  Ni15  1  0.000000  0.338028  0.000000  1
  Ni  Ni16  1  0.000000  0.338028  0.661972  1
  Ni  Ni17  1  0.338028  0.661972  0.000000  1
  Ni  Ni18  1  0.338028  0.000000  0.661972  1
  Ni  Ni19  1  0.338028  0.000000  0.000000  1
  Ni  Ni20  1  0.000000  0.000000  0.661972  1
  Ni  Ni21  1  0.000000  0.661972  0.000000  1
  Ni  Ni22  1  0.661972  0.000000  0.000000  1
  B  B23  1  0.726223  0.726223  0.273777  1
  B  B24  1  0.273777  0.726223  0.273777  1
  B  B25  1  0.726223  0.273777  0.273777  1
  B  B26  1  0.273777  0.273777  0.726223  1
  B  B27  1  0.726223  0.273777  0.726223  1
  B  B28  1  0.273777  0.726223  0.726223  1
