# generated using pymatgen
data_Zr2Sc3Bi2Sb
_symmetry_space_group_name_H-M   'P 1'
_cell_length_a   7.66196100
_cell_length_b   8.97027700
_cell_length_c   11.22261600
_cell_angle_alpha   90.00000000
_cell_angle_beta   90.00000000
_cell_angle_gamma   90.00000000
_symmetry_Int_Tables_number   1
_chemical_formula_structural   Zr2Sc3Bi2Sb
_chemical_formula_sum   'Zr8 Sc12 Bi8 Sb4'
_cell_volume   771.32941607
_cell_formula_units_Z   4
loop_
 _symmetry_equiv_pos_site_id
 _symmetry_equiv_pos_as_xyz
  1  'x, y, z'
loop_
 _atom_site_type_symbol
 _atom_site_label
 _atom_site_symmetry_multiplicity
 _atom_site_fract_x
 _atom_site_fract_y
 _atom_site_fract_z
 _atom_site_occupancy
  Zr  Zr0  1  0.178618  0.433846  0.440682  1
  Zr  Zr1  1  0.678618  0.566154  0.059318  1
  Zr  Zr2  1  0.821382  0.933846  0.559318  1
  Zr  Zr3  1  0.321382  0.066154  0.940682  1
  Zr  Zr4  1  0.821382  0.566154  0.559318  1
  Zr  Zr5  1  0.321382  0.433846  0.940682  1
  Zr  Zr6  1  0.178618  0.066154  0.440682  1
  Zr  Zr7  1  0.678618  0.933846  0.059318  1
  Sc  Sc8  1  0.485259  0.750000  0.505279  1
  Sc  Sc9  1  0.985259  0.250000  0.994721  1
  Sc  Sc10  1  0.514741  0.250000  0.494721  1
  Sc  Sc11  1  0.014741  0.750000  0.005279  1
  Sc  Sc12  1  0.334418  0.750000  0.220352  1
  Sc  Sc13  1  0.834418  0.250000  0.279648  1
  Sc  Sc14  1  0.665582  0.250000  0.779648  1
  Sc  Sc15  1  0.165582  0.750000  0.720352  1
  Sc  Sc16  1  0.158081  0.250000  0.711075  1
  Sc  Sc17  1  0.658081  0.750000  0.788925  1
  Sc  Sc18  1  0.841919  0.750000  0.288925  1
  Sc  Sc19  1  0.341919  0.250000  0.211075  1
  Bi  Bi20  1  0.067004  0.008480  0.173377  1
  Bi  Bi21  1  0.567004  0.991520  0.326623  1
  Bi  Bi22  1  0.932996  0.508480  0.826623  1
  Bi  Bi23  1  0.432996  0.491520  0.673377  1
  Bi  Bi24  1  0.932996  0.991520  0.826623  1
  Bi  Bi25  1  0.432996  0.008480  0.673377  1
  Bi  Bi26  1  0.067004  0.491520  0.173377  1
  Bi  Bi27  1  0.567004  0.508480  0.326623  1
  Sb  Sb28  1  0.110941  0.750000  0.467003  1
  Sb  Sb29  1  0.610941  0.250000  0.032997  1
  Sb  Sb30  1  0.889059  0.250000  0.532997  1
  Sb  Sb31  1  0.389059  0.750000  0.967003  1
