# generated using pymatgen
data_Zr10NiGeBi6
_symmetry_space_group_name_H-M   'P 1'
_cell_length_a   5.91622800
_cell_length_b   8.86601406
_cell_length_c   8.86601600
_cell_angle_alpha   119.99999232
_cell_angle_beta   90.00000000
_cell_angle_gamma   90.00000000
_symmetry_Int_Tables_number   1
_chemical_formula_structural   Zr10NiGeBi6
_chemical_formula_sum   'Zr10 Ni1 Ge1 Bi6'
_cell_volume   402.74716700
_cell_formula_units_Z   1
loop_
 _symmetry_equiv_pos_site_id
 _symmetry_equiv_pos_as_xyz
  1  'x, y, z'
loop_
 _atom_site_type_symbol
 _atom_site_label
 _atom_site_symmetry_multiplicity
 _atom_site_fract_x
 _atom_site_fract_y
 _atom_site_fract_z
 _atom_site_occupancy
  Zr  Zr0  1  0.741987  0.742870  0.742870  1
  Zr  Zr1  1  0.258013  0.257130  0.257130  1
  Zr  Zr2  1  0.741987  0.000000  0.257130  1
  Zr  Zr3  1  0.258013  0.000000  0.742870  1
  Zr  Zr4  1  0.741987  0.257130  0.000000  1
  Zr  Zr5  1  0.258013  0.742870  0.000000  1
  Zr  Zr6  1  0.000000  0.666667  0.333333  1
  Zr  Zr7  1  0.000000  0.333333  0.666667  1
  Zr  Zr8  1  0.500000  0.333333  0.666667  1
  Zr  Zr9  1  0.500000  0.666667  0.333333  1
  Ni  Ni10  1  0.500000  0.000000  0.000000  1
  Ge  Ge11  1  0.000000  0.000000  0.000000  1
  Bi  Bi12  1  0.750699  0.390318  0.390318  1
  Bi  Bi13  1  0.249301  0.609682  0.609682  1
  Bi  Bi14  1  0.750699  0.000000  0.609682  1
  Bi  Bi15  1  0.249301  0.000000  0.390318  1
  Bi  Bi16  1  0.750699  0.609682  0.000000  1
  Bi  Bi17  1  0.249301  0.390318  0.000000  1
