# generated using pymatgen
data_LaTh7(Nb3Si4)4
_symmetry_space_group_name_H-M   'P 1'
_cell_length_a   7.04964184
_cell_length_b   7.27545396
_cell_length_c   13.61503678
_cell_angle_alpha   89.93866906
_cell_angle_beta   89.93210453
_cell_angle_gamma   89.97570622
_symmetry_Int_Tables_number   1
_chemical_formula_structural   LaTh7(Nb3Si4)4
_chemical_formula_sum   'La1 Th7 Nb12 Si16'
_cell_volume   698.30536125
_cell_formula_units_Z   1
loop_
 _symmetry_equiv_pos_site_id
 _symmetry_equiv_pos_as_xyz
  1  'x, y, z'
loop_
 _atom_site_type_symbol
 _atom_site_label
 _atom_site_symmetry_multiplicity
 _atom_site_fract_x
 _atom_site_fract_y
 _atom_site_fract_z
 _atom_site_occupancy
  La  La0  1  0.002038  0.831449  0.594886  1
  Th  Th1  1  0.501851  0.669397  0.595864  1
  Th  Th2  1  0.001232  0.830164  0.904011  1
  Th  Th3  1  0.499902  0.330030  0.095828  1
  Th  Th4  1  0.998528  0.169344  0.404575  1
  Th  Th5  1  0.498717  0.330909  0.404463  1
  Th  Th6  1  0.999695  0.169751  0.095935  1
  Th  Th7  1  0.501271  0.670234  0.903815  1
  Nb  Nb8  1  0.661571  0.174450  0.625235  1
  Nb  Nb9  1  0.163458  0.326703  0.875475  1
  Nb  Nb10  1  0.336525  0.827856  0.124817  1
  Nb  Nb11  1  0.834011  0.671134  0.374448  1
  Nb  Nb12  1  0.336777  0.827252  0.374568  1
  Nb  Nb13  1  0.836504  0.672231  0.124867  1
  Nb  Nb14  1  0.664462  0.172583  0.875478  1
  Nb  Nb15  1  0.164730  0.327765  0.625036  1
  Nb  Nb16  1  0.836173  0.490179  0.751050  1
  Nb  Nb17  1  0.337798  0.009012  0.750323  1
  Nb  Nb18  1  0.162834  0.507553  0.249780  1
  Nb  Nb19  1  0.662647  0.992170  0.249967  1
  Si  Si20  1  0.657233  0.957421  0.455614  1
  Si  Si21  1  0.159795  0.542992  0.043918  1
  Si  Si22  1  0.340611  0.042912  0.956165  1
  Si  Si23  1  0.841283  0.457231  0.544188  1
  Si  Si24  1  0.342063  0.043038  0.543936  1
  Si  Si25  1  0.840546  0.457196  0.956260  1
  Si  Si26  1  0.659834  0.957079  0.043905  1
  Si  Si27  1  0.158509  0.542379  0.455287  1
  Si  Si28  1  0.459567  0.368269  0.750518  1
  Si  Si29  1  0.959905  0.132189  0.749742  1
  Si  Si30  1  0.540014  0.631685  0.249755  1
  Si  Si31  1  0.040049  0.867900  0.250427  1
  Si  Si32  1  0.699825  0.888158  0.749565  1
  Si  Si33  1  0.198912  0.611843  0.749893  1
  Si  Si34  1  0.300328  0.113128  0.250253  1
  Si  Si35  1  0.800803  0.386409  0.250152  1
