# generated using pymatgen
data_TbTm(NiIr)2
_symmetry_space_group_name_H-M   'P 1'
_cell_length_a   5.37755368
_cell_length_b   5.19594027
_cell_length_c   5.19593994
_cell_angle_alpha   58.15686158
_cell_angle_beta   58.83686073
_cell_angle_gamma   58.83687028
_symmetry_Int_Tables_number   1
_chemical_formula_structural   TbTm(NiIr)2
_chemical_formula_sum   'Tb1 Tm1 Ni2 Ir2'
_cell_volume   99.38773085
_cell_formula_units_Z   1
loop_
 _symmetry_equiv_pos_site_id
 _symmetry_equiv_pos_as_xyz
  1  'x, y, z'
loop_
 _atom_site_type_symbol
 _atom_site_label
 _atom_site_symmetry_multiplicity
 _atom_site_fract_x
 _atom_site_fract_y
 _atom_site_fract_z
 _atom_site_occupancy
  Tb  Tb0  1  0.002344  0.997656  0.997656  1
  Tm  Tm1  1  0.747435  0.752565  0.752565  1
  Ni  Ni2  1  0.375247  0.874445  0.375059  1
  Ni  Ni3  1  0.375247  0.375059  0.874445  1
  Ir  Ir4  1  0.375378  0.375137  0.375137  1
  Ir  Ir5  1  0.874347  0.375137  0.375137  1
