# generated using pymatgen
data_TbDy3Er(ReO6)2
_symmetry_space_group_name_H-M   'P 1'
_cell_length_a   6.84212656
_cell_length_b   6.84212639
_cell_length_c   7.54472006
_cell_angle_alpha   73.73549440
_cell_angle_beta   73.73549189
_cell_angle_gamma   49.03535739
_symmetry_Int_Tables_number   1
_chemical_formula_structural   TbDy3Er(ReO6)2
_chemical_formula_sum   'Tb1 Dy3 Er1 Re2 O12'
_cell_volume   253.75835898
_cell_formula_units_Z   1
loop_
 _symmetry_equiv_pos_site_id
 _symmetry_equiv_pos_as_xyz
  1  'x, y, z'
loop_
 _atom_site_type_symbol
 _atom_site_label
 _atom_site_symmetry_multiplicity
 _atom_site_fract_x
 _atom_site_fract_y
 _atom_site_fract_z
 _atom_site_occupancy
  Tb  Tb0  1  0.696723  0.696723  0.641549  1
  Dy  Dy1  1  0.303167  0.303167  0.358465  1
  Dy  Dy2  1  0.685113  0.685113  0.176411  1
  Dy  Dy3  1  0.314894  0.314894  0.823614  1
  Er  Er4  1  0.000043  0.000043  0.499928  1
  Re  Re5  1  0.786078  0.213852  0.000081  1
  Re  Re6  1  0.213852  0.786078  0.000081  1
  O  O7  1  0.001540  0.001540  0.206835  1
  O  O8  1  0.998440  0.998440  0.793125  1
  O  O9  1  0.582054  0.087201  0.085176  1
  O  O10  1  0.417607  0.913048  0.915228  1
  O  O11  1  0.913048  0.417607  0.915228  1
  O  O12  1  0.087201  0.582054  0.085176  1
  O  O13  1  0.498962  0.498962  0.177216  1
  O  O14  1  0.500748  0.500748  0.823139  1
  O  O15  1  0.403298  0.902176  0.426835  1
  O  O16  1  0.595998  0.099056  0.572539  1
  O  O17  1  0.099056  0.595998  0.572539  1
  O  O18  1  0.902176  0.403298  0.426835  1
