# generated using pymatgen
data_Ho4IrPd2Au
_symmetry_space_group_name_H-M   'P 1'
_cell_length_a   4.59110900
_cell_length_b   5.62109518
_cell_length_c   7.01165700
_cell_angle_alpha   90.23722219
_cell_angle_beta   90.00000000
_cell_angle_gamma   90.00000000
_symmetry_Int_Tables_number   1
_chemical_formula_structural   Ho4IrPd2Au
_chemical_formula_sum   'Ho4 Ir1 Pd2 Au1'
_cell_volume   180.94870663
_cell_formula_units_Z   1
loop_
 _symmetry_equiv_pos_site_id
 _symmetry_equiv_pos_as_xyz
  1  'x, y, z'
loop_
 _atom_site_type_symbol
 _atom_site_label
 _atom_site_symmetry_multiplicity
 _atom_site_fract_x
 _atom_site_fract_y
 _atom_site_fract_z
 _atom_site_occupancy
  Ho  Ho0  1  0.000000  0.109750  0.697070  1
  Ho  Ho1  1  0.000000  0.897868  0.168309  1
  Ho  Ho2  1  0.500000  0.387731  0.310670  1
  Ho  Ho3  1  0.500000  0.610096  0.823558  1
  Ir  Ir4  1  0.500000  0.093944  0.957683  1
  Pd  Pd5  1  0.000000  0.595544  0.538640  1
  Pd  Pd6  1  0.000000  0.408076  0.045082  1
  Au  Au7  1  0.500000  0.896991  0.458989  1
