# generated using pymatgen
data_Y2Tm18Cd6TcRu
_symmetry_space_group_name_H-M   'P 1'
_cell_length_a   9.44966928
_cell_length_b   9.43236637
_cell_length_c   9.80259000
_cell_angle_alpha   90.00000000
_cell_angle_beta   90.00000000
_cell_angle_gamma   119.93945100
_symmetry_Int_Tables_number   1
_chemical_formula_structural   Y2Tm18Cd6TcRu
_chemical_formula_sum   'Y2 Tm18 Cd6 Tc1 Ru1'
_cell_volume   757.13512430
_cell_formula_units_Z   1
loop_
 _symmetry_equiv_pos_site_id
 _symmetry_equiv_pos_as_xyz
  1  'x, y, z'
loop_
 _atom_site_type_symbol
 _atom_site_label
 _atom_site_symmetry_multiplicity
 _atom_site_fract_x
 _atom_site_fract_y
 _atom_site_fract_z
 _atom_site_occupancy
  Y  Y0  1  0.921047  0.460524  0.250000  1
  Y  Y1  1  0.081637  0.540819  0.750000  1
  Tm  Tm2  1  0.999957  0.999978  0.500167  1
  Tm  Tm3  1  0.999957  0.999978  0.999833  1
  Tm  Tm4  1  0.212073  0.791796  0.442315  1
  Tm  Tm5  1  0.212073  0.420276  0.442315  1
  Tm  Tm6  1  0.579562  0.789781  0.442600  1
  Tm  Tm7  1  0.787791  0.208342  0.558330  1
  Tm  Tm8  1  0.787791  0.579447  0.558330  1
  Tm  Tm9  1  0.420742  0.210370  0.558079  1
  Tm  Tm10  1  0.787791  0.208342  0.941670  1
  Tm  Tm11  1  0.787791  0.579447  0.941670  1
  Tm  Tm12  1  0.420742  0.210370  0.941921  1
  Tm  Tm13  1  0.212073  0.791796  0.057685  1
  Tm  Tm14  1  0.212073  0.420276  0.057685  1
  Tm  Tm15  1  0.579562  0.789781  0.057400  1
  Tm  Tm16  1  0.537980  0.461433  0.250000  1
  Tm  Tm17  1  0.537980  0.076547  0.250000  1
  Tm  Tm18  1  0.460585  0.540073  0.750000  1
  Tm  Tm19  1  0.460585  0.920512  0.750000  1
  Cd  Cd20  1  0.884879  0.112464  0.250000  1
  Cd  Cd21  1  0.884879  0.772416  0.250000  1
  Cd  Cd22  1  0.229003  0.114502  0.250000  1
  Cd  Cd23  1  0.114887  0.887769  0.750000  1
  Cd  Cd24  1  0.114887  0.227118  0.750000  1
  Cd  Cd25  1  0.771525  0.885762  0.750000  1
  Tc  Tc26  1  0.334165  0.667083  0.250000  1
  Ru  Ru27  1  0.665985  0.332992  0.750000  1
