# generated using pymatgen
data_Nb6Ga(CoNi)3
_symmetry_space_group_name_H-M   'P 1'
_cell_length_a   4.93475025
_cell_length_b   4.93475011
_cell_length_c   9.18027221
_cell_angle_alpha   74.40894424
_cell_angle_beta   74.40894410
_cell_angle_gamma   59.99998556
_symmetry_Int_Tables_number   1
_chemical_formula_structural   Nb6Ga(CoNi)3
_chemical_formula_sum   'Nb6 Ga1 Co3 Ni3'
_cell_volume   184.04531343
_cell_formula_units_Z   1
loop_
 _symmetry_equiv_pos_site_id
 _symmetry_equiv_pos_as_xyz
  1  'x, y, z'
loop_
 _atom_site_type_symbol
 _atom_site_label
 _atom_site_symmetry_multiplicity
 _atom_site_fract_x
 _atom_site_fract_y
 _atom_site_fract_z
 _atom_site_occupancy
  Nb  Nb0  1  0.167830  0.167830  0.496508  1
  Nb  Nb1  1  0.829187  0.829187  0.512441  1
  Nb  Nb2  1  0.347811  0.347811  0.956569  1
  Nb  Nb3  1  0.656591  0.656591  0.030226  1
  Nb  Nb4  1  0.449783  0.449783  0.650650  1
  Nb  Nb5  1  0.549381  0.549381  0.351858  1
  Ga  Ga6  1  0.999975  0.999975  0.000075  1
  Co  Co7  1  0.411929  0.909698  0.768675  1
  Co  Co8  1  0.909698  0.909698  0.768675  1
  Co  Co9  1  0.909698  0.411929  0.768675  1
  Ni  Ni10  1  0.585767  0.091175  0.231882  1
  Ni  Ni11  1  0.091175  0.091175  0.231882  1
  Ni  Ni12  1  0.091175  0.585767  0.231882  1
