# generated using pymatgen
data_Ti24Si7S
_symmetry_space_group_name_H-M   'P 1'
_cell_length_a   10.10367956
_cell_length_b   10.11932344
_cell_length_c   5.06239724
_cell_angle_alpha   90.09765784
_cell_angle_beta   90.08519898
_cell_angle_gamma   90.06766013
_symmetry_Int_Tables_number   1
_chemical_formula_structural   Ti24Si7S
_chemical_formula_sum   'Ti24 Si7 S1'
_cell_volume   517.58996410
_cell_formula_units_Z   1
loop_
 _symmetry_equiv_pos_site_id
 _symmetry_equiv_pos_as_xyz
  1  'x, y, z'
loop_
 _atom_site_type_symbol
 _atom_site_label
 _atom_site_symmetry_multiplicity
 _atom_site_fract_x
 _atom_site_fract_y
 _atom_site_fract_z
 _atom_site_occupancy
  Ti  Ti0  1  0.216723  0.680689  0.996038  1
  Ti  Ti1  1  0.783645  0.324188  0.993740  1
  Ti  Ti2  1  0.181877  0.283163  0.496472  1
  Ti  Ti3  1  0.815399  0.714521  0.493064  1
  Ti  Ti4  1  0.282750  0.816071  0.502209  1
  Ti  Ti5  1  0.715868  0.180480  0.505389  1
  Ti  Ti6  1  0.319473  0.216915  0.006233  1
  Ti  Ti7  1  0.683709  0.781013  0.003702  1
  Ti  Ti8  1  0.642061  0.528441  0.721749  1
  Ti  Ti9  1  0.358230  0.471719  0.717075  1
  Ti  Ti10  1  0.027756  0.857340  0.217570  1
  Ti  Ti11  1  0.970126  0.142832  0.218447  1
  Ti  Ti12  1  0.857999  0.971455  0.783303  1
  Ti  Ti13  1  0.140300  0.027795  0.781932  1
  Ti  Ti14  1  0.477232  0.639579  0.280917  1
  Ti  Ti15  1  0.533295  0.362770  0.280982  1
  Ti  Ti16  1  0.105617  0.579820  0.467862  1
  Ti  Ti17  1  0.888333  0.420037  0.471506  1
  Ti  Ti18  1  0.082461  0.394508  0.967465  1
  Ti  Ti19  1  0.914799  0.605215  0.965767  1
  Ti  Ti20  1  0.393149  0.918968  0.031751  1
  Ti  Ti21  1  0.607813  0.081594  0.028596  1
  Ti  Ti22  1  0.419484  0.107740  0.530368  1
  Ti  Ti23  1  0.581484  0.893425  0.535306  1
  Si  Si24  1  0.296449  0.458293  0.211979  1
  Si  Si25  1  0.039905  0.792819  0.711890  1
  Si  Si26  1  0.956969  0.206591  0.712821  1
  Si  Si27  1  0.794575  0.956927  0.288900  1
  Si  Si28  1  0.204563  0.041872  0.288305  1
  Si  Si29  1  0.458280  0.705037  0.787747  1
  Si  Si30  1  0.541885  0.295124  0.787299  1
  S  S31  1  0.707792  0.543057  0.213617  1
