# generated using pymatgen
data_Dy9HoInBi5
_symmetry_space_group_name_H-M   'P 1'
_cell_length_a   9.14655115
_cell_length_b   9.15861215
_cell_length_c   6.44855502
_cell_angle_alpha   90.00368989
_cell_angle_beta   89.99055286
_cell_angle_gamma   120.04077112
_symmetry_Int_Tables_number   1
_chemical_formula_structural   Dy9HoInBi5
_chemical_formula_sum   'Dy9 Ho1 In1 Bi5'
_cell_volume   467.62906907
_cell_formula_units_Z   1
loop_
 _symmetry_equiv_pos_site_id
 _symmetry_equiv_pos_as_xyz
  1  'x, y, z'
loop_
 _atom_site_type_symbol
 _atom_site_label
 _atom_site_symmetry_multiplicity
 _atom_site_fract_x
 _atom_site_fract_y
 _atom_site_fract_z
 _atom_site_occupancy
  Dy  Dy0  1  0.671818  0.334399  0.000763  1
  Dy  Dy1  1  0.328173  0.662583  0.000732  1
  Dy  Dy2  1  0.328240  0.662624  0.499294  1
  Dy  Dy3  1  0.759495  0.758284  0.749981  1
  Dy  Dy4  1  0.240476  0.998763  0.749973  1
  Dy  Dy5  1  0.999966  0.239985  0.749949  1
  Dy  Dy6  1  0.234648  0.242531  0.250036  1
  Dy  Dy7  1  0.765339  0.007904  0.250020  1
  Dy  Dy8  1  0.999978  0.755410  0.250028  1
  Ho  Ho9  1  0.671920  0.334411  0.499191  1
  In  In10  1  0.999807  0.394308  0.250145  1
  Bi  Bi11  1  0.392075  0.389527  0.749875  1
  Bi  Bi12  1  0.608099  0.997793  0.749886  1
  Bi  Bi13  1  0.999826  0.608697  0.749859  1
  Bi  Bi14  1  0.609986  0.611223  0.250127  1
  Bi  Bi15  1  0.390154  0.001557  0.250140  1
