# generated using pymatgen
data_Ho4TcPt3F28
_symmetry_space_group_name_H-M   'P 1'
_cell_length_a   5.54257941
_cell_length_b   8.85623866
_cell_length_c   11.96012546
_cell_angle_alpha   62.54443485
_cell_angle_beta   89.96025946
_cell_angle_gamma   89.96390588
_symmetry_Int_Tables_number   1
_chemical_formula_structural   Ho4TcPt3F28
_chemical_formula_sum   'Ho4 Tc1 Pt3 F28'
_cell_volume   520.95586342
_cell_formula_units_Z   1
loop_
 _symmetry_equiv_pos_site_id
 _symmetry_equiv_pos_as_xyz
  1  'x, y, z'
loop_
 _atom_site_type_symbol
 _atom_site_label
 _atom_site_symmetry_multiplicity
 _atom_site_fract_x
 _atom_site_fract_y
 _atom_site_fract_z
 _atom_site_occupancy
  Ho  Ho0  1  0.761138  0.815057  0.763687  1
  Ho  Ho1  1  0.259705  0.186506  0.734241  1
  Ho  Ho2  1  0.239658  0.186000  0.235969  1
  Ho  Ho3  1  0.739497  0.814279  0.264172  1
  Tc  Tc4  1  0.757560  0.273517  0.956570  1
  Pt  Pt5  1  0.259366  0.728000  0.542951  1
  Pt  Pt6  1  0.240905  0.727832  0.042930  1
  Pt  Pt7  1  0.740795  0.272631  0.456648  1
  F  F8  1  0.437458  0.702667  0.915518  1
  F  F9  1  0.935740  0.297179  0.584636  1
  F  F10  1  0.553675  0.292808  0.082763  1
  F  F11  1  0.063282  0.702957  0.415624  1
  F  F12  1  0.439298  0.278446  0.542381  1
  F  F13  1  0.940158  0.722481  0.956410  1
  F  F14  1  0.560260  0.722216  0.456771  1
  F  F15  1  0.054343  0.277033  0.046301  1
  F  F16  1  0.773788  0.522469  0.858816  1
  F  F17  1  0.274526  0.478414  0.641656  1
  F  F18  1  0.224606  0.478386  0.142169  1
  F  F19  1  0.725658  0.522259  0.357814  1
  F  F20  1  0.755883  0.025414  0.053433  1
  F  F21  1  0.255314  0.977514  0.449523  1
  F  F22  1  0.245682  0.977366  0.948915  1
  F  F23  1  0.745495  0.023084  0.550347  1
  F  F24  1  0.966426  0.725256  0.636779  1
  F  F25  1  0.472703  0.271289  0.860155  1
  F  F26  1  0.034410  0.274792  0.363619  1
  F  F27  1  0.533542  0.725537  0.136489  1
  F  F28  1  0.050942  0.746504  0.175388  1
  F  F29  1  0.552118  0.254320  0.323777  1
  F  F30  1  0.955814  0.253004  0.827329  1
  F  F31  1  0.450159  0.746010  0.675452  1
  F  F32  1  0.416469  0.969906  0.233176  1
  F  F33  1  0.916980  0.028753  0.268569  1
  F  F34  1  0.583091  0.029862  0.766844  1
  F  F35  1  0.083555  0.970250  0.732180  1
