# generated using pymatgen
data_Y11Th(CoNi)2
_symmetry_space_group_name_H-M   'P 1'
_cell_length_a   6.36382573
_cell_length_b   6.91676645
_cell_length_c   9.62709500
_cell_angle_alpha   90.00000000
_cell_angle_beta   90.00000000
_cell_angle_gamma   91.21552438
_symmetry_Int_Tables_number   1
_chemical_formula_structural   Y11Th(CoNi)2
_chemical_formula_sum   'Y11 Th1 Co2 Ni2'
_cell_volume   423.66141022
_cell_formula_units_Z   1
loop_
 _symmetry_equiv_pos_site_id
 _symmetry_equiv_pos_as_xyz
  1  'x, y, z'
loop_
 _atom_site_type_symbol
 _atom_site_label
 _atom_site_symmetry_multiplicity
 _atom_site_fract_x
 _atom_site_fract_y
 _atom_site_fract_z
 _atom_site_occupancy
  Y  Y0  1  0.323185  0.674213  0.069024  1
  Y  Y1  1  0.177168  0.175237  0.429254  1
  Y  Y2  1  0.676788  0.323089  0.566018  1
  Y  Y3  1  0.824719  0.825568  0.932958  1
  Y  Y4  1  0.676788  0.323089  0.933982  1
  Y  Y5  1  0.824719  0.825568  0.567042  1
  Y  Y6  1  0.323185  0.674213  0.430976  1
  Y  Y7  1  0.177168  0.175237  0.070746  1
  Y  Y8  1  0.639605  0.043987  0.250000  1
  Y  Y9  1  0.143157  0.462866  0.750000  1
  Y  Y10  1  0.356866  0.961812  0.750000  1
  Th  Th11  1  0.848287  0.553121  0.250000  1
  Co  Co12  1  0.035356  0.869419  0.250000  1
  Co  Co13  1  0.470320  0.392738  0.250000  1
  Ni  Ni14  1  0.946647  0.111404  0.750000  1
  Ni  Ni15  1  0.556042  0.608439  0.750000  1
