# generated using pymatgen
data_La3BTeO9
_symmetry_space_group_name_H-M   'P 1'
_cell_length_a   8.99215704
_cell_length_b   8.99199170
_cell_length_c   5.71919800
_cell_angle_alpha   89.99964356
_cell_angle_beta   89.99966527
_cell_angle_gamma   120.00037218
_symmetry_Int_Tables_number   1
_chemical_formula_structural   La3BTeO9
_chemical_formula_sum   'La6 B2 Te2 O18'
_cell_volume   400.48284287
_cell_formula_units_Z   2
loop_
 _symmetry_equiv_pos_site_id
 _symmetry_equiv_pos_as_xyz
  1  'x, y, z'
loop_
 _atom_site_type_symbol
 _atom_site_label
 _atom_site_symmetry_multiplicity
 _atom_site_fract_x
 _atom_site_fract_y
 _atom_site_fract_z
 _atom_site_occupancy
  La  La0  1  0.720614  0.646950  0.215063  1
  La  La1  1  0.926407  0.279368  0.215076  1
  La  La2  1  0.353018  0.073679  0.215007  1
  La  La3  1  0.073644  0.720661  0.715086  1
  La  La4  1  0.279343  0.352993  0.715084  1
  La  La5  1  0.647039  0.926382  0.715115  1
  B  B6  1  0.999998  0.999983  0.386145  1
  B  B7  1  0.999986  0.999983  0.886159  1
  Te  Te8  1  0.333336  0.666681  0.254254  1
  Te  Te9  1  0.666671  0.333342  0.754243  1
  O  O10  1  0.217929  0.465241  0.055855  1
  O  O11  1  0.534751  0.752679  0.055837  1
  O  O12  1  0.247295  0.782078  0.055850  1
  O  O13  1  0.044228  0.872908  0.378861  1
  O  O14  1  0.127082  0.171300  0.378837  1
  O  O15  1  0.828687  0.955770  0.378857  1
  O  O16  1  0.135098  0.531058  0.464624  1
  O  O17  1  0.468922  0.604008  0.464601  1
  O  O18  1  0.395985  0.864929  0.464594  1
  O  O19  1  0.752698  0.217922  0.555858  1
  O  O20  1  0.465234  0.247345  0.555851  1
  O  O21  1  0.782104  0.534803  0.555887  1
  O  O22  1  0.171300  0.044211  0.878828  1
  O  O23  1  0.955773  0.127079  0.878850  1
  O  O24  1  0.872902  0.828678  0.878886  1
  O  O25  1  0.864888  0.468919  0.964646  1
  O  O26  1  0.604001  0.135095  0.964605  1
  O  O27  1  0.531063  0.395960  0.964643  1
