# generated using pymatgen
data_Nd3Er5(CdIr)2
_symmetry_space_group_name_H-M   'P 1'
_cell_length_a   9.69119879
_cell_length_b   9.69119932
_cell_length_c   9.69119800
_cell_angle_alpha   59.99999769
_cell_angle_beta   59.99999588
_cell_angle_gamma   59.99999906
_symmetry_Int_Tables_number   1
_chemical_formula_structural   Nd3Er5(CdIr)2
_chemical_formula_sum   'Nd6 Er10 Cd4 Ir4'
_cell_volume   643.60213027
_cell_formula_units_Z   2
loop_
 _symmetry_equiv_pos_site_id
 _symmetry_equiv_pos_as_xyz
  1  'x, y, z'
loop_
 _atom_site_type_symbol
 _atom_site_label
 _atom_site_symmetry_multiplicity
 _atom_site_fract_x
 _atom_site_fract_y
 _atom_site_fract_z
 _atom_site_occupancy
  Nd  Nd0  1  0.940970  0.559030  0.559030  1
  Nd  Nd1  1  0.559030  0.940970  0.940970  1
  Nd  Nd2  1  0.559030  0.940970  0.559030  1
  Nd  Nd3  1  0.940970  0.559030  0.940970  1
  Nd  Nd4  1  0.559030  0.559030  0.940970  1
  Nd  Nd5  1  0.940970  0.940970  0.559030  1
  Er  Er6  1  0.347010  0.347010  0.347010  1
  Er  Er7  1  0.347010  0.347010  0.958970  1
  Er  Er8  1  0.347010  0.958970  0.347010  1
  Er  Er9  1  0.958970  0.347010  0.347010  1
  Er  Er10  1  0.812409  0.187591  0.187591  1
  Er  Er11  1  0.187591  0.812409  0.812409  1
  Er  Er12  1  0.187591  0.812409  0.187591  1
  Er  Er13  1  0.812409  0.187591  0.812409  1
  Er  Er14  1  0.187591  0.187591  0.812409  1
  Er  Er15  1  0.812409  0.812409  0.187591  1
  Cd  Cd16  1  0.579395  0.579395  0.579395  1
  Cd  Cd17  1  0.579395  0.579395  0.261815  1
  Cd  Cd18  1  0.579395  0.261815  0.579395  1
  Cd  Cd19  1  0.261815  0.579395  0.579395  1
  Ir  Ir20  1  0.141154  0.141154  0.141154  1
  Ir  Ir21  1  0.141154  0.141154  0.576537  1
  Ir  Ir22  1  0.141154  0.576537  0.141154  1
  Ir  Ir23  1  0.576537  0.141154  0.141154  1
