# generated using pymatgen
data_Ca10SiBi4As
_symmetry_space_group_name_H-M   'P 1'
_cell_length_a   8.20190408
_cell_length_b   9.55358300
_cell_length_c   12.78246441
_cell_angle_alpha   90.00000000
_cell_angle_beta   88.75172434
_cell_angle_gamma   90.00000000
_symmetry_Int_Tables_number   1
_chemical_formula_structural   Ca10SiBi4As
_chemical_formula_sum   'Ca20 Si2 Bi8 As2'
_cell_volume   1001.36516990
_cell_formula_units_Z   2
loop_
 _symmetry_equiv_pos_site_id
 _symmetry_equiv_pos_as_xyz
  1  'x, y, z'
loop_
 _atom_site_type_symbol
 _atom_site_label
 _atom_site_symmetry_multiplicity
 _atom_site_fract_x
 _atom_site_fract_y
 _atom_site_fract_z
 _atom_site_occupancy
  Ca  Ca0  1  0.046990  0.750000  0.503008  1
  Ca  Ca1  1  0.953010  0.250000  0.496992  1
  Ca  Ca2  1  0.556089  0.250000  0.000349  1
  Ca  Ca3  1  0.443911  0.750000  0.999651  1
  Ca  Ca4  1  0.864496  0.750000  0.798394  1
  Ca  Ca5  1  0.135504  0.250000  0.201606  1
  Ca  Ca6  1  0.363495  0.250000  0.697940  1
  Ca  Ca7  1  0.636505  0.750000  0.302060  1
  Ca  Ca8  1  0.683377  0.536254  0.573266  1
  Ca  Ca9  1  0.316623  0.463746  0.426734  1
  Ca  Ca10  1  0.175723  0.468564  0.927361  1
  Ca  Ca11  1  0.316623  0.036254  0.426734  1
  Ca  Ca12  1  0.824277  0.531436  0.072639  1
  Ca  Ca13  1  0.683377  0.963746  0.573266  1
  Ca  Ca14  1  0.824277  0.968564  0.072639  1
  Ca  Ca15  1  0.175723  0.031436  0.927361  1
  Ca  Ca16  1  0.329481  0.750000  0.717440  1
  Ca  Ca17  1  0.670519  0.250000  0.282560  1
  Ca  Ca18  1  0.838585  0.250000  0.787331  1
  Ca  Ca19  1  0.161415  0.750000  0.212669  1
  Si  Si20  1  0.064873  0.750000  0.987586  1
  Si  Si21  1  0.935127  0.250000  0.012414  1
  Bi  Bi22  1  0.560617  0.507419  0.828220  1
  Bi  Bi23  1  0.439383  0.492581  0.171780  1
  Bi  Bi24  1  0.068315  0.486995  0.667846  1
  Bi  Bi25  1  0.439383  0.007419  0.171780  1
  Bi  Bi26  1  0.931685  0.513005  0.332154  1
  Bi  Bi27  1  0.560617  0.992581  0.828220  1
  Bi  Bi28  1  0.931685  0.986995  0.332154  1
  Bi  Bi29  1  0.068315  0.013005  0.667846  1
  As  As30  1  0.571969  0.250000  0.511585  1
  As  As31  1  0.428031  0.750000  0.488415  1
