# generated using pymatgen
data_ErLu3Fe4(Co4P3)4
_symmetry_space_group_name_H-M   'P 1'
_cell_length_a   3.63350200
_cell_length_b   10.21435365
_cell_length_c   11.71643075
_cell_angle_alpha   90.04087100
_cell_angle_beta   90.00000000
_cell_angle_gamma   90.00000000
_symmetry_Int_Tables_number   1
_chemical_formula_structural   ErLu3Fe4(Co4P3)4
_chemical_formula_sum   'Er1 Lu3 Fe4 Co16 P12'
_cell_volume   434.84202864
_cell_formula_units_Z   1
loop_
 _symmetry_equiv_pos_site_id
 _symmetry_equiv_pos_as_xyz
  1  'x, y, z'
loop_
 _atom_site_type_symbol
 _atom_site_label
 _atom_site_symmetry_multiplicity
 _atom_site_fract_x
 _atom_site_fract_y
 _atom_site_fract_z
 _atom_site_occupancy
  Er  Er0  1  0.250000  0.580728  0.703440  1
  Lu  Lu1  1  0.250000  0.919249  0.203334  1
  Lu  Lu2  1  0.750000  0.419433  0.296711  1
  Lu  Lu3  1  0.750000  0.080642  0.796595  1
  Fe  Fe4  1  0.250000  0.710590  0.987796  1
  Fe  Fe5  1  0.250000  0.789478  0.487698  1
  Fe  Fe6  1  0.750000  0.289347  0.012242  1
  Fe  Fe7  1  0.750000  0.210499  0.512120  1
  Co  Co8  1  0.250000  0.406396  0.486015  1
  Co  Co9  1  0.250000  0.093414  0.986166  1
  Co  Co10  1  0.750000  0.593368  0.512709  1
  Co  Co11  1  0.750000  0.906548  0.013845  1
  Co  Co12  1  0.250000  0.222059  0.176563  1
  Co  Co13  1  0.250000  0.277700  0.676456  1
  Co  Co14  1  0.750000  0.778563  0.823745  1
  Co  Co15  1  0.750000  0.722053  0.323399  1
  Co  Co16  1  0.250000  0.882471  0.698776  1
  Co  Co17  1  0.250000  0.617995  0.198877  1
  Co  Co18  1  0.750000  0.117969  0.301194  1
  Co  Co19  1  0.750000  0.381194  0.801602  1
  Co  Co20  1  0.250000  0.465663  0.933134  1
  Co  Co21  1  0.250000  0.034101  0.432643  1
  Co  Co22  1  0.750000  0.534092  0.067611  1
  Co  Co23  1  0.750000  0.966247  0.567274  1
  P  P24  1  0.250000  0.419570  0.114446  1
  P  P25  1  0.250000  0.080350  0.614407  1
  P  P26  1  0.750000  0.580382  0.886560  1
  P  P27  1  0.750000  0.919593  0.385575  1
  P  P28  1  0.250000  0.267420  0.867812  1
  P  P29  1  0.250000  0.232631  0.367780  1
  P  P30  1  0.750000  0.732648  0.132181  1
  P  P31  1  0.750000  0.768528  0.631759  1
  P  P32  1  0.250000  0.601098  0.391528  1
  P  P33  1  0.250000  0.898864  0.891376  1
  P  P34  1  0.750000  0.398014  0.608086  1
  P  P35  1  0.750000  0.101102  0.108545  1
