# generated using pymatgen
data_Pr4Ga18(CoPd)3
_symmetry_space_group_name_H-M   'P 1'
_cell_length_a   7.62741156
_cell_length_b   7.62741209
_cell_length_c   9.71264437
_cell_angle_alpha   89.81751290
_cell_angle_beta   89.81747902
_cell_angle_gamma   119.66641224
_symmetry_Int_Tables_number   1
_chemical_formula_structural   Pr4Ga18(CoPd)3
_chemical_formula_sum   'Pr4 Ga18 Co3 Pd3'
_cell_volume   490.98005819
_cell_formula_units_Z   1
loop_
 _symmetry_equiv_pos_site_id
 _symmetry_equiv_pos_as_xyz
  1  'x, y, z'
loop_
 _atom_site_type_symbol
 _atom_site_label
 _atom_site_symmetry_multiplicity
 _atom_site_fract_x
 _atom_site_fract_y
 _atom_site_fract_z
 _atom_site_occupancy
  Pr  Pr0  1  0.502480  0.830966  0.250598  1
  Pr  Pr1  1  0.496580  0.168321  0.750646  1
  Pr  Pr2  1  0.169034  0.497520  0.749401  1
  Pr  Pr3  1  0.831679  0.503419  0.249354  1
  Ga  Ga4  1  0.161282  0.955504  0.240738  1
  Ga  Ga5  1  0.838034  0.044641  0.744321  1
  Ga  Ga6  1  0.044496  0.838718  0.759262  1
  Ga  Ga7  1  0.955360  0.161966  0.255679  1
  Ga  Ga8  1  0.627913  0.628403  0.758328  1
  Ga  Ga9  1  0.371597  0.372087  0.241673  1
  Ga  Ga10  1  0.156235  0.162746  0.560962  1
  Ga  Ga11  1  0.831969  0.826170  0.055532  1
  Ga  Ga12  1  0.837254  0.843765  0.439038  1
  Ga  Ga13  1  0.173830  0.168031  0.944468  1
  Ga  Ga14  1  0.513343  0.843131  0.575791  1
  Ga  Ga15  1  0.489910  0.166094  0.071320  1
  Ga  Ga16  1  0.156869  0.486658  0.424209  1
  Ga  Ga17  1  0.833906  0.510090  0.928680  1
  Ga  Ga18  1  0.508594  0.166098  0.424644  1
  Ga  Ga19  1  0.490925  0.825622  0.929080  1
  Ga  Ga20  1  0.833902  0.491406  0.575356  1
  Ga  Ga21  1  0.174378  0.509075  0.070920  1
  Co  Co22  1  0.499139  0.500860  0.000000  1
  Co  Co23  1  0.831466  0.168534  0.500000  1
  Co  Co24  1  0.168963  0.831037  0.000000  1
  Pd  Pd25  1  0.500704  0.499296  0.500000  1
  Pd  Pd26  1  0.170882  0.829118  0.500000  1
  Pd  Pd27  1  0.829278  0.170722  0.999999  1
