# generated using pymatgen
data_Dy5Co2P12Ru17
_symmetry_space_group_name_H-M   'P 1'
_cell_length_a   12.45542827
_cell_length_b   12.50216829
_cell_length_c   3.93550700
_cell_angle_alpha   90.00000000
_cell_angle_beta   90.00000000
_cell_angle_gamma   120.12420960
_symmetry_Int_Tables_number   1
_chemical_formula_structural   Dy5Co2P12Ru17
_chemical_formula_sum   'Dy5 Co2 P12 Ru17'
_cell_volume   530.06654375
_cell_formula_units_Z   1
loop_
 _symmetry_equiv_pos_site_id
 _symmetry_equiv_pos_as_xyz
  1  'x, y, z'
loop_
 _atom_site_type_symbol
 _atom_site_label
 _atom_site_symmetry_multiplicity
 _atom_site_fract_x
 _atom_site_fract_y
 _atom_site_fract_z
 _atom_site_occupancy
  Dy  Dy0  1  0.667290  0.332883  0.000000  1
  Dy  Dy1  1  0.332710  0.665594  0.000000  1
  Dy  Dy2  1  0.182080  0.182840  0.500000  1
  Dy  Dy3  1  0.817920  0.000760  0.500000  1
  Dy  Dy4  1  0.000000  0.815680  0.500000  1
  Co  Co5  1  0.000000  0.280669  0.500000  1
  Co  Co6  1  0.000000  0.002294  0.000000  1
  P  P7  1  0.370852  0.371738  0.000000  1
  P  P8  1  0.629148  0.000886  0.000000  1
  P  P9  1  0.000000  0.626852  0.000000  1
  P  P10  1  0.836487  0.308846  0.500000  1
  P  P11  1  0.692551  0.523184  0.500000  1
  P  P12  1  0.478139  0.170175  0.500000  1
  P  P13  1  0.307449  0.830632  0.500000  1
  P  P14  1  0.521861  0.692035  0.500000  1
  P  P15  1  0.163513  0.472359  0.500000  1
  P  P16  1  0.823619  0.823365  0.000000  1
  P  P17  1  0.176381  0.999746  0.000000  1
  P  P18  1  0.000000  0.178781  0.000000  1
  Ru  Ru19  1  0.554160  0.556429  0.000000  1
  Ru  Ru20  1  0.445840  0.002269  0.000000  1
  Ru  Ru21  1  0.000000  0.442185  0.000000  1
  Ru  Ru22  1  0.821705  0.193754  0.000000  1
  Ru  Ru23  1  0.808172  0.624380  0.000000  1
  Ru  Ru24  1  0.374910  0.184046  0.000000  1
  Ru  Ru25  1  0.191828  0.816208  0.000000  1
  Ru  Ru26  1  0.625090  0.809136  0.000000  1
  Ru  Ru27  1  0.178295  0.372049  0.000000  1
  Ru  Ru28  1  0.638953  0.127816  0.500000  1
  Ru  Ru29  1  0.874328  0.508508  0.500000  1
  Ru  Ru30  1  0.490180  0.365332  0.500000  1
  Ru  Ru31  1  0.125672  0.634180  0.500000  1
  Ru  Ru32  1  0.509820  0.875152  0.500000  1
  Ru  Ru33  1  0.361047  0.488863  0.500000  1
  Ru  Ru34  1  0.720047  0.720211  0.500000  1
  Ru  Ru35  1  0.279953  0.000164  0.500000  1
