# generated using pymatgen
data_Pu4TcW3C8
_symmetry_space_group_name_H-M   'P 1'
_cell_length_a   3.29321500
_cell_length_b   5.68303108
_cell_length_c   10.90329000
_cell_angle_alpha   90.09814948
_cell_angle_beta   90.00000000
_cell_angle_gamma   90.00000000
_symmetry_Int_Tables_number   1
_chemical_formula_structural   Pu4TcW3C8
_chemical_formula_sum   'Pu4 Tc1 W3 C8'
_cell_volume   204.05960542
_cell_formula_units_Z   1
loop_
 _symmetry_equiv_pos_site_id
 _symmetry_equiv_pos_as_xyz
  1  'x, y, z'
loop_
 _atom_site_type_symbol
 _atom_site_label
 _atom_site_symmetry_multiplicity
 _atom_site_fract_x
 _atom_site_fract_y
 _atom_site_fract_z
 _atom_site_occupancy
  Pu  Pu0  1  0.250000  0.085431  0.861649  1
  Pu  Pu1  1  0.250000  0.585481  0.639971  1
  Pu  Pu2  1  0.750000  0.917861  0.139785  1
  Pu  Pu3  1  0.750000  0.414876  0.358372  1
  Tc  Tc4  1  0.250000  0.412770  0.105833  1
  W  W5  1  0.250000  0.913939  0.392567  1
  W  W6  1  0.750000  0.585760  0.895782  1
  W  W7  1  0.750000  0.086558  0.606784  1
  C  C8  1  0.250000  0.162708  0.245532  1
  C  C9  1  0.250000  0.660816  0.252267  1
  C  C10  1  0.750000  0.835724  0.754865  1
  C  C11  1  0.750000  0.338118  0.746191  1
  C  C12  1  0.250000  0.734113  0.988676  1
  C  C13  1  0.250000  0.236201  0.510843  1
  C  C14  1  0.750000  0.265639  0.012456  1
  C  C15  1  0.750000  0.764005  0.488428  1
