# generated using pymatgen
data_Pr16Cd2TcHg2Pd3
_symmetry_space_group_name_H-M   'P 1'
_cell_length_a   10.12052767
_cell_length_b   10.12052847
_cell_length_c   10.13999710
_cell_angle_alpha   59.31570167
_cell_angle_beta   59.31570002
_cell_angle_gamma   59.36550310
_symmetry_Int_Tables_number   1
_chemical_formula_structural   Pr16Cd2TcHg2Pd3
_chemical_formula_sum   'Pr16 Cd2 Tc1 Hg2 Pd3'
_cell_volume   723.23049102
_cell_formula_units_Z   1
loop_
 _symmetry_equiv_pos_site_id
 _symmetry_equiv_pos_as_xyz
  1  'x, y, z'
loop_
 _atom_site_type_symbol
 _atom_site_label
 _atom_site_symmetry_multiplicity
 _atom_site_fract_x
 _atom_site_fract_y
 _atom_site_fract_z
 _atom_site_occupancy
  Pr  Pr0  1  0.353746  0.353746  0.353016  1
  Pr  Pr1  1  0.347937  0.347937  0.951630  1
  Pr  Pr2  1  0.348634  0.949825  0.348284  1
  Pr  Pr3  1  0.949825  0.348634  0.348284  1
  Pr  Pr4  1  0.816796  0.188053  0.189044  1
  Pr  Pr5  1  0.189800  0.805907  0.806029  1
  Pr  Pr6  1  0.188053  0.816796  0.189044  1
  Pr  Pr7  1  0.805907  0.189800  0.806029  1
  Pr  Pr8  1  0.188121  0.188121  0.817100  1
  Pr  Pr9  1  0.804702  0.804702  0.191157  1
  Pr  Pr10  1  0.934615  0.564623  0.565093  1
  Pr  Pr11  1  0.555101  0.937795  0.938960  1
  Pr  Pr12  1  0.564623  0.934615  0.565093  1
  Pr  Pr13  1  0.937795  0.555101  0.938960  1
  Pr  Pr14  1  0.564429  0.564429  0.935953  1
  Pr  Pr15  1  0.937910  0.937910  0.555867  1
  Cd  Cd16  1  0.579432  0.258875  0.580357  1
  Cd  Cd17  1  0.258875  0.579432  0.580357  1
  Tc  Tc18  1  0.142637  0.142637  0.142713  1
  Hg  Hg19  1  0.582752  0.582752  0.584753  1
  Hg  Hg20  1  0.583293  0.583293  0.247392  1
  Pd  Pd21  1  0.146454  0.146454  0.572032  1
  Pd  Pd22  1  0.146304  0.572261  0.146426  1
  Pd  Pd23  1  0.572261  0.146304  0.146426  1
