# generated using pymatgen
data_Tb5(In2Cu)2
_symmetry_space_group_name_H-M   'P 1'
_cell_length_a   3.68745700
_cell_length_b   8.05840800
_cell_length_c   18.01354300
_cell_angle_alpha   90.00000000
_cell_angle_beta   90.00000000
_cell_angle_gamma   90.00000000
_symmetry_Int_Tables_number   1
_chemical_formula_structural   Tb5(In2Cu)2
_chemical_formula_sum   'Tb10 In8 Cu4'
_cell_volume   535.27302448
_cell_formula_units_Z   2
loop_
 _symmetry_equiv_pos_site_id
 _symmetry_equiv_pos_as_xyz
  1  'x, y, z'
loop_
 _atom_site_type_symbol
 _atom_site_label
 _atom_site_symmetry_multiplicity
 _atom_site_fract_x
 _atom_site_fract_y
 _atom_site_fract_z
 _atom_site_occupancy
  Tb  Tb0  1  0.000000  0.118718  0.416628  1
  Tb  Tb1  1  0.000000  0.881282  0.583372  1
  Tb  Tb2  1  0.000000  0.381282  0.916628  1
  Tb  Tb3  1  0.000000  0.618718  0.083372  1
  Tb  Tb4  1  0.000000  0.240655  0.219248  1
  Tb  Tb5  1  0.000000  0.759345  0.780752  1
  Tb  Tb6  1  0.000000  0.259345  0.719248  1
  Tb  Tb7  1  0.000000  0.740655  0.280752  1
  Tb  Tb8  1  0.000000  0.000000  0.000000  1
  Tb  Tb9  1  0.000000  0.500000  0.500000  1
  In  In10  1  0.500000  0.423296  0.349494  1
  In  In11  1  0.500000  0.576704  0.650506  1
  In  In12  1  0.500000  0.076704  0.849494  1
  In  In13  1  0.500000  0.923296  0.150506  1
  In  In14  1  0.500000  0.293086  0.069096  1
  In  In15  1  0.500000  0.706914  0.930904  1
  In  In16  1  0.500000  0.206914  0.569096  1
  In  In17  1  0.500000  0.793086  0.430904  1
  Cu  Cu18  1  0.500000  0.026308  0.301882  1
  Cu  Cu19  1  0.500000  0.973692  0.698118  1
  Cu  Cu20  1  0.500000  0.473692  0.801882  1
  Cu  Cu21  1  0.500000  0.526308  0.198118  1
