# generated using pymatgen
data_BiCl30
_symmetry_space_group_name_H-M   'P 1'
_cell_length_a   13.92149421
_cell_length_b   13.92149384
_cell_length_c   16.39849197
_cell_angle_alpha   83.63529319
_cell_angle_beta   83.63529510
_cell_angle_gamma   124.25573241
_symmetry_Int_Tables_number   1
_chemical_formula_structural   BiCl30
_chemical_formula_sum   'Bi1 Cl30'
_cell_volume   2551.93329950
_cell_formula_units_Z   1
loop_
 _symmetry_equiv_pos_site_id
 _symmetry_equiv_pos_as_xyz
  1  'x, y, z'
loop_
 _atom_site_type_symbol
 _atom_site_label
 _atom_site_symmetry_multiplicity
 _atom_site_fract_x
 _atom_site_fract_y
 _atom_site_fract_z
 _atom_site_occupancy
  Bi  Bi0  1  0.000000  0.000000  0.000000  1
  Cl  Cl1  1  0.941945  0.941945  0.162584  1
  Cl  Cl2  1  0.058055  0.058055  0.837416  1
  Cl  Cl3  1  0.063170  0.205925  0.005713  1
  Cl  Cl4  1  0.936830  0.794075  0.994287  1
  Cl  Cl5  1  0.205925  0.063170  0.005713  1
  Cl  Cl6  1  0.794075  0.936830  0.994287  1
  Cl  Cl7  1  0.204090  0.744046  0.062147  1
  Cl  Cl8  1  0.795910  0.255954  0.937853  1
  Cl  Cl9  1  0.702061  0.076873  0.261880  1
  Cl  Cl10  1  0.255954  0.795910  0.937853  1
  Cl  Cl11  1  0.297939  0.923127  0.738120  1
  Cl  Cl12  1  0.744046  0.204090  0.062147  1
  Cl  Cl13  1  0.977799  0.198442  0.780802  1
  Cl  Cl14  1  0.923127  0.297939  0.738120  1
  Cl  Cl15  1  0.022201  0.801558  0.219198  1
  Cl  Cl16  1  0.076873  0.702061  0.261880  1
  Cl  Cl17  1  0.801558  0.022201  0.219198  1
  Cl  Cl18  1  0.198442  0.977799  0.780802  1
  Cl  Cl19  1  0.465382  0.546142  0.259226  1
  Cl  Cl20  1  0.534618  0.453858  0.740774  1
  Cl  Cl21  1  0.507289  0.206769  0.451807  1
  Cl  Cl22  1  0.453858  0.534618  0.740774  1
  Cl  Cl23  1  0.492711  0.793231  0.548193  1
  Cl  Cl24  1  0.546142  0.465382  0.259226  1
  Cl  Cl25  1  0.239701  0.430042  0.543199  1
  Cl  Cl26  1  0.793231  0.492711  0.548193  1
  Cl  Cl27  1  0.760299  0.569958  0.456801  1
  Cl  Cl28  1  0.206769  0.507289  0.451807  1
  Cl  Cl29  1  0.569958  0.760299  0.456801  1
  Cl  Cl30  1  0.430042  0.239701  0.543199  1
