# generated using pymatgen
data_GdCu4SnTe4
_symmetry_space_group_name_H-M   'P 1'
_cell_length_a   13.23897092
_cell_length_b   13.23896837
_cell_length_c   11.57126840
_cell_angle_alpha   66.51344705
_cell_angle_beta   66.51345357
_cell_angle_gamma   29.98740084
_symmetry_Int_Tables_number   1
_chemical_formula_structural   GdCu4SnTe4
_chemical_formula_sum   'Gd1 Cu4 Sn1 Te4'
_cell_volume   923.36774942
_cell_formula_units_Z   1
loop_
 _symmetry_equiv_pos_site_id
 _symmetry_equiv_pos_as_xyz
  1  'x, y, z'
loop_
 _atom_site_type_symbol
 _atom_site_label
 _atom_site_symmetry_multiplicity
 _atom_site_fract_x
 _atom_site_fract_y
 _atom_site_fract_z
 _atom_site_occupancy
  Gd  Gd0  1  0.500000  0.500000  0.500000  1
  Cu  Cu1  1  0.194125  0.194125  0.145193  1
  Cu  Cu2  1  0.694871  0.694871  0.639890  1
  Cu  Cu3  1  0.805875  0.805875  0.854807  1
  Cu  Cu4  1  0.305129  0.305129  0.360110  1
  Sn  Sn5  1  0.000000  0.000000  0.000000  1
  Te  Te6  1  0.875259  0.875259  0.449878  1
  Te  Te7  1  0.376802  0.376802  0.960651  1
  Te  Te8  1  0.124741  0.124741  0.550122  1
  Te  Te9  1  0.623198  0.623198  0.039349  1
