# generated using pymatgen
data_Eu3PdPt3PbO14
_symmetry_space_group_name_H-M   'P 1'
_cell_length_a   7.38227390
_cell_length_b   7.38227539
_cell_length_c   7.44395353
_cell_angle_alpha   60.27372444
_cell_angle_beta   60.27371764
_cell_angle_gamma   60.00000444
_symmetry_Int_Tables_number   1
_chemical_formula_structural   Eu3PdPt3PbO14
_chemical_formula_sum   'Eu3 Pd1 Pt3 Pb1 O14'
_cell_volume   288.04048529
_cell_formula_units_Z   1
loop_
 _symmetry_equiv_pos_site_id
 _symmetry_equiv_pos_as_xyz
  1  'x, y, z'
loop_
 _atom_site_type_symbol
 _atom_site_label
 _atom_site_symmetry_multiplicity
 _atom_site_fract_x
 _atom_site_fract_y
 _atom_site_fract_z
 _atom_site_occupancy
  Eu  Eu0  1  0.625000  0.125000  0.125000  1
  Eu  Eu1  1  0.125000  0.625000  0.125000  1
  Eu  Eu2  1  0.125000  0.125000  0.125000  1
  Pd  Pd3  1  0.625000  0.625000  0.125000  1
  Pt  Pt4  1  0.125000  0.625000  0.625000  1
  Pt  Pt5  1  0.625000  0.125000  0.625000  1
  Pt  Pt6  1  0.625000  0.625000  0.625000  1
  Pb  Pb7  1  0.125000  0.125000  0.625000  1
  O  O8  1  0.246331  0.246331  0.261006  1
  O  O9  1  0.003669  0.003669  0.988994  1
  O  O10  1  0.709952  0.709952  0.293125  1
  O  O11  1  0.291897  0.291897  0.706580  1
  O  O12  1  0.709627  0.291897  0.706580  1
  O  O13  1  0.286971  0.709952  0.293125  1
  O  O14  1  0.291897  0.709627  0.706580  1
  O  O15  1  0.709952  0.286971  0.293125  1
  O  O16  1  0.540048  0.540048  0.956875  1
  O  O17  1  0.958103  0.958103  0.543420  1
  O  O18  1  0.540373  0.958103  0.543420  1
  O  O19  1  0.963029  0.540048  0.956875  1
  O  O20  1  0.958103  0.540373  0.543420  1
  O  O21  1  0.540048  0.963029  0.956875  1
