# generated using pymatgen
data_Pr16Cd3Hg(PdRu)2
_symmetry_space_group_name_H-M   'P 1'
_cell_length_a   10.04434130
_cell_length_b   10.04434188
_cell_length_c   10.10707942
_cell_angle_alpha   59.76621326
_cell_angle_beta   59.76621241
_cell_angle_gamma   59.72546567
_symmetry_Int_Tables_number   1
_chemical_formula_structural   Pr16Cd3Hg(PdRu)2
_chemical_formula_sum   'Pr16 Cd3 Hg1 Pd2 Ru2'
_cell_volume   716.98010848
_cell_formula_units_Z   1
loop_
 _symmetry_equiv_pos_site_id
 _symmetry_equiv_pos_as_xyz
  1  'x, y, z'
loop_
 _atom_site_type_symbol
 _atom_site_label
 _atom_site_symmetry_multiplicity
 _atom_site_fract_x
 _atom_site_fract_y
 _atom_site_fract_z
 _atom_site_occupancy
  Pr  Pr0  1  0.347972  0.347972  0.356262  1
  Pr  Pr1  1  0.348617  0.348617  0.946489  1
  Pr  Pr2  1  0.344231  0.954869  0.350552  1
  Pr  Pr3  1  0.954869  0.344231  0.350552  1
  Pr  Pr4  1  0.816077  0.189170  0.191230  1
  Pr  Pr5  1  0.189739  0.815463  0.802468  1
  Pr  Pr6  1  0.189170  0.816077  0.191230  1
  Pr  Pr7  1  0.815463  0.189739  0.802468  1
  Pr  Pr8  1  0.188995  0.188995  0.810873  1
  Pr  Pr9  1  0.804932  0.804932  0.194735  1
  Pr  Pr10  1  0.936341  0.558482  0.565479  1
  Pr  Pr11  1  0.558530  0.936589  0.938668  1
  Pr  Pr12  1  0.558482  0.936341  0.565479  1
  Pr  Pr13  1  0.936589  0.558530  0.938668  1
  Pr  Pr14  1  0.562454  0.562454  0.937093  1
  Pr  Pr15  1  0.937561  0.937561  0.562121  1
  Cd  Cd16  1  0.579283  0.579283  0.261196  1
  Cd  Cd17  1  0.580887  0.258891  0.579741  1
  Cd  Cd18  1  0.258891  0.580887  0.579741  1
  Hg  Hg19  1  0.583142  0.583142  0.582896  1
  Pd  Pd20  1  0.146818  0.573059  0.140024  1
  Pd  Pd21  1  0.573059  0.146818  0.140024  1
  Ru  Ru22  1  0.143818  0.143818  0.136876  1
  Ru  Ru23  1  0.144079  0.144079  0.575138  1
