# generated using pymatgen
data_La9Pr11(Si2Rh)4
_symmetry_space_group_name_H-M   'P 1'
_cell_length_a   8.05149112
_cell_length_b   8.90645000
_cell_length_c   12.52836200
_cell_angle_alpha   90.00000000
_cell_angle_beta   89.89657353
_cell_angle_gamma   90.00000000
_symmetry_Int_Tables_number   1
_chemical_formula_structural   La9Pr11(Si2Rh)4
_chemical_formula_sum   'La9 Pr11 Si8 Rh4'
_cell_volume   898.40991938
_cell_formula_units_Z   1
loop_
 _symmetry_equiv_pos_site_id
 _symmetry_equiv_pos_as_xyz
  1  'x, y, z'
loop_
 _atom_site_type_symbol
 _atom_site_label
 _atom_site_symmetry_multiplicity
 _atom_site_fract_x
 _atom_site_fract_y
 _atom_site_fract_z
 _atom_site_occupancy
  La  La0  1  0.681492  0.466638  0.073287  1
  La  La1  1  0.181775  0.532771  0.427149  1
  La  La2  1  0.317385  0.967706  0.927244  1
  La  La3  1  0.818418  0.032769  0.572829  1
  La  La4  1  0.317385  0.532294  0.927244  1
  La  La5  1  0.818418  0.467231  0.572829  1
  La  La6  1  0.681492  0.033362  0.073287  1
  La  La7  1  0.181775  0.967229  0.427149  1
  La  La8  1  0.671526  0.750000  0.781715  1
  Pr  Pr9  1  0.965166  0.750000  0.999404  1
  Pr  Pr10  1  0.464075  0.250000  0.500786  1
  Pr  Pr11  1  0.036310  0.250000  0.001792  1
  Pr  Pr12  1  0.535976  0.750000  0.498190  1
  Pr  Pr13  1  0.346399  0.750000  0.208270  1
  Pr  Pr14  1  0.846443  0.250000  0.291410  1
  Pr  Pr15  1  0.653343  0.250000  0.791426  1
  Pr  Pr16  1  0.154159  0.750000  0.708035  1
  Pr  Pr17  1  0.828196  0.750000  0.280435  1
  Pr  Pr18  1  0.327736  0.250000  0.219739  1
  Pr  Pr19  1  0.172321  0.250000  0.719267  1
  Si  Si20  1  0.557496  0.495519  0.328516  1
  Si  Si21  1  0.057916  0.504645  0.171206  1
  Si  Si22  1  0.441129  0.995812  0.670483  1
  Si  Si23  1  0.943584  0.005738  0.829122  1
  Si  Si24  1  0.441129  0.504188  0.670483  1
  Si  Si25  1  0.943584  0.494262  0.829122  1
  Si  Si26  1  0.557496  0.004481  0.328516  1
  Si  Si27  1  0.057916  0.995355  0.171206  1
  Rh  Rh28  1  0.576529  0.750000  0.018820  1
  Rh  Rh29  1  0.075230  0.250000  0.481075  1
  Rh  Rh30  1  0.424109  0.250000  0.981692  1
  Rh  Rh31  1  0.924097  0.750000  0.518270  1
