# generated using pymatgen
data_Yb3InSnSb3O14
_symmetry_space_group_name_H-M   'P 1'
_cell_length_a   7.41993011
_cell_length_b   7.29953230
_cell_length_c   7.41993000
_cell_angle_alpha   59.45286992
_cell_angle_beta   60.00000049
_cell_angle_gamma   59.45287238
_symmetry_Int_Tables_number   1
_chemical_formula_structural   Yb3InSnSb3O14
_chemical_formula_sum   'Yb3 In1 Sn1 Sb3 O14'
_cell_volume   281.79816815
_cell_formula_units_Z   1
loop_
 _symmetry_equiv_pos_site_id
 _symmetry_equiv_pos_as_xyz
  1  'x, y, z'
loop_
 _atom_site_type_symbol
 _atom_site_label
 _atom_site_symmetry_multiplicity
 _atom_site_fract_x
 _atom_site_fract_y
 _atom_site_fract_z
 _atom_site_occupancy
  Yb  Yb0  1  0.625000  0.625000  0.125000  1
  Yb  Yb1  1  0.125000  0.625000  0.625000  1
  Yb  Yb2  1  0.625000  0.625000  0.625000  1
  In  In3  1  0.625000  0.125000  0.625000  1
  Sn  Sn4  1  0.125000  0.625000  0.125000  1
  Sb  Sb5  1  0.125000  0.125000  0.625000  1
  Sb  Sb6  1  0.625000  0.125000  0.125000  1
  Sb  Sb7  1  0.125000  0.125000  0.125000  1
  O  O8  1  0.739278  0.782166  0.739278  1
  O  O9  1  0.510722  0.467834  0.510722  1
  O  O10  1  0.040872  0.454163  0.040872  1
  O  O11  1  0.800851  0.197086  0.800851  1
  O  O12  1  0.048788  0.052914  0.449149  1
  O  O13  1  0.449149  0.052914  0.048788  1
  O  O14  1  0.040872  0.454163  0.464092  1
  O  O15  1  0.464092  0.454163  0.040872  1
  O  O16  1  0.449149  0.052914  0.449149  1
  O  O17  1  0.209128  0.795837  0.785908  1
  O  O18  1  0.800851  0.197086  0.201212  1
  O  O19  1  0.209128  0.795837  0.209128  1
  O  O20  1  0.785908  0.795837  0.209128  1
  O  O21  1  0.201212  0.197086  0.800851  1
