# generated using pymatgen
data_Na7Pa4GaBr24
_symmetry_space_group_name_H-M   'P 1'
_cell_length_a   7.45690600
_cell_length_b   7.45690721
_cell_length_c   27.88781500
_cell_angle_alpha   90.00000000
_cell_angle_beta   90.00000000
_cell_angle_gamma   119.99998578
_symmetry_Int_Tables_number   1
_chemical_formula_structural   Na7Pa4GaBr24
_chemical_formula_sum   'Na7 Pa4 Ga1 Br24'
_cell_volume   1342.95849280
_cell_formula_units_Z   1
loop_
 _symmetry_equiv_pos_site_id
 _symmetry_equiv_pos_as_xyz
  1  'x, y, z'
loop_
 _atom_site_type_symbol
 _atom_site_label
 _atom_site_symmetry_multiplicity
 _atom_site_fract_x
 _atom_site_fract_y
 _atom_site_fract_z
 _atom_site_occupancy
  Na  Na0  1  0.000000  0.000000  0.249991  1
  Na  Na1  1  0.000000  0.000000  0.750038  1
  Na  Na2  1  0.333333  0.666667  0.000769  1
  Na  Na3  1  0.333333  0.666667  0.499438  1
  Na  Na4  1  0.333333  0.666667  0.249861  1
  Na  Na5  1  0.666667  0.333333  0.749953  1
  Na  Na6  1  0.666667  0.333333  0.999214  1
  Pa  Pa7  1  0.000000  0.000000  0.000003  1
  Pa  Pa8  1  0.000000  0.000000  0.500156  1
  Pa  Pa9  1  0.333333  0.666667  0.749477  1
  Pa  Pa10  1  0.666667  0.333333  0.250586  1
  Ga  Ga11  1  0.666667  0.333333  0.500088  1
  Br  Br12  1  0.354584  0.020241  0.307490  1
  Br  Br13  1  0.334458  0.978994  0.806912  1
  Br  Br14  1  0.997749  0.310783  0.057375  1
  Br  Br15  1  0.008520  0.311307  0.558636  1
  Br  Br16  1  0.979759  0.334342  0.307490  1
  Br  Br17  1  0.021006  0.355463  0.806912  1
  Br  Br18  1  0.355521  0.334773  0.193167  1
  Br  Br19  1  0.333855  0.354579  0.692450  1
  Br  Br20  1  0.303992  0.309736  0.441490  1
  Br  Br21  1  0.310421  0.313199  0.942621  1
  Br  Br22  1  0.690264  0.994256  0.441490  1
  Br  Br23  1  0.313033  0.002251  0.057375  1
  Br  Br24  1  0.302785  0.991480  0.558636  1
  Br  Br25  1  0.689217  0.686967  0.057375  1
  Br  Br26  1  0.688693  0.697215  0.558636  1
  Br  Br27  1  0.665658  0.645416  0.307490  1
  Br  Br28  1  0.644537  0.665542  0.806912  1
  Br  Br29  1  0.979250  0.644479  0.193167  1
  Br  Br30  1  0.020724  0.666145  0.692450  1
  Br  Br31  1  0.005744  0.696008  0.441490  1
  Br  Br32  1  0.002778  0.689579  0.942621  1
  Br  Br33  1  0.686801  0.997222  0.942621  1
  Br  Br34  1  0.665227  0.020750  0.193167  1
  Br  Br35  1  0.645421  0.979276  0.692450  1
