# generated using pymatgen
data_Tb4Sm4Sc12Si15Au
_symmetry_space_group_name_H-M   'P 1'
_cell_length_a   7.17412807
_cell_length_b   7.42372520
_cell_length_c   14.15365707
_cell_angle_alpha   89.93911305
_cell_angle_beta   89.69923208
_cell_angle_gamma   90.21206807
_symmetry_Int_Tables_number   1
_chemical_formula_structural   Tb4Sm4Sc12Si15Au
_chemical_formula_sum   'Tb4 Sm4 Sc12 Si15 Au1'
_cell_volume   753.79016811
_cell_formula_units_Z   1
loop_
 _symmetry_equiv_pos_site_id
 _symmetry_equiv_pos_as_xyz
  1  'x, y, z'
loop_
 _atom_site_type_symbol
 _atom_site_label
 _atom_site_symmetry_multiplicity
 _atom_site_fract_x
 _atom_site_fract_y
 _atom_site_fract_z
 _atom_site_occupancy
  Tb  Tb0  1  0.512195  0.324473  0.097886  1
  Tb  Tb1  1  0.010414  0.174530  0.398579  1
  Tb  Tb2  1  0.510289  0.324517  0.400279  1
  Tb  Tb3  1  0.491054  0.676009  0.599070  1
  Sm  Sm4  1  0.012088  0.173946  0.098208  1
  Sm  Sm5  1  0.987491  0.827233  0.903636  1
  Sm  Sm6  1  0.487490  0.674494  0.904249  1
  Sm  Sm7  1  0.988621  0.829705  0.596568  1
  Sc  Sc8  1  0.162889  0.500282  0.750870  1
  Sc  Sc9  1  0.837425  0.499038  0.251027  1
  Sc  Sc10  1  0.338003  0.999158  0.249386  1
  Sc  Sc11  1  0.664524  0.998197  0.751032  1
  Sc  Sc12  1  0.339551  0.176619  0.625392  1
  Sc  Sc13  1  0.666368  0.823254  0.373544  1
  Sc  Sc14  1  0.169169  0.672165  0.373299  1
  Sc  Sc15  1  0.670461  0.824245  0.125817  1
  Sc  Sc16  1  0.827511  0.325808  0.624336  1
  Sc  Sc17  1  0.329090  0.175565  0.875965  1
  Sc  Sc18  1  0.829759  0.323183  0.876065  1
  Sc  Sc19  1  0.169546  0.675714  0.125523  1
  Si  Si20  1  0.036522  0.123946  0.750154  1
  Si  Si21  1  0.965831  0.880296  0.250327  1
  Si  Si22  1  0.466351  0.616922  0.248593  1
  Si  Si23  1  0.536159  0.382141  0.751805  1
  Si  Si24  1  0.286936  0.878111  0.749901  1
  Si  Si25  1  0.710913  0.125624  0.249795  1
  Si  Si26  1  0.215164  0.373577  0.248869  1
  Si  Si27  1  0.786925  0.623371  0.751452  1
  Si  Si28  1  0.835505  0.536043  0.458330  1
  Si  Si29  1  0.342251  0.962905  0.459692  1
  Si  Si30  1  0.843970  0.535590  0.039875  1
  Si  Si31  1  0.654671  0.037242  0.536857  1
  Si  Si32  1  0.152998  0.463246  0.961883  1
  Si  Si33  1  0.653833  0.037884  0.961839  1
  Si  Si34  1  0.346113  0.964850  0.040331  1
  Au  Au35  1  0.161918  0.460118  0.539565  1
