# generated using pymatgen
data_YbAu2(SO4)4
_symmetry_space_group_name_H-M   'P 1'
_cell_length_a   6.42506076
_cell_length_b   6.42506161
_cell_length_c   8.80563949
_cell_angle_alpha   74.91417305
_cell_angle_beta   74.91416965
_cell_angle_gamma   88.54282077
_symmetry_Int_Tables_number   1
_chemical_formula_structural   YbAu2(SO4)4
_chemical_formula_sum   'Yb1 Au2 S4 O16'
_cell_volume   338.53659091
_cell_formula_units_Z   1
loop_
 _symmetry_equiv_pos_site_id
 _symmetry_equiv_pos_as_xyz
  1  'x, y, z'
loop_
 _atom_site_type_symbol
 _atom_site_label
 _atom_site_symmetry_multiplicity
 _atom_site_fract_x
 _atom_site_fract_y
 _atom_site_fract_z
 _atom_site_occupancy
  Yb  Yb0  1  0.000000  0.000000  0.000000  1
  Au  Au1  1  0.000000  0.000000  0.500000  1
  Au  Au2  1  0.500000  0.500000  0.500000  1
  S  S3  1  0.083946  0.586479  0.745135  1
  S  S4  1  0.586479  0.083946  0.745135  1
  S  S5  1  0.916054  0.413521  0.254865  1
  S  S6  1  0.413521  0.916054  0.254865  1
  O  O7  1  0.329555  0.633096  0.677597  1
  O  O8  1  0.633096  0.329555  0.677597  1
  O  O9  1  0.670445  0.366904  0.322403  1
  O  O10  1  0.366904  0.670445  0.322403  1
  O  O11  1  0.019370  0.707537  0.866243  1
  O  O12  1  0.707537  0.019370  0.866243  1
  O  O13  1  0.980630  0.292463  0.133757  1
  O  O14  1  0.292463  0.980630  0.133757  1
  O  O15  1  0.981971  0.674576  0.601150  1
  O  O16  1  0.674576  0.981971  0.601150  1
  O  O17  1  0.018029  0.325424  0.398850  1
  O  O18  1  0.325424  0.018029  0.398850  1
  O  O19  1  0.030516  0.356512  0.796820  1
  O  O20  1  0.356512  0.030516  0.796820  1
  O  O21  1  0.969484  0.643488  0.203180  1
  O  O22  1  0.643488  0.969484  0.203180  1
