# generated using pymatgen
data_Ho4TmZr(SnIr)6
_symmetry_space_group_name_H-M   'P 1'
_cell_length_a   7.52792824
_cell_length_b   7.46044826
_cell_length_c   7.76578900
_cell_angle_alpha   90.00000000
_cell_angle_beta   90.00000000
_cell_angle_gamma   120.25901147
_symmetry_Int_Tables_number   1
_chemical_formula_structural   Ho4TmZr(SnIr)6
_chemical_formula_sum   'Ho4 Tm1 Zr1 Sn6 Ir6'
_cell_volume   376.71870792
_cell_formula_units_Z   1
loop_
 _symmetry_equiv_pos_site_id
 _symmetry_equiv_pos_as_xyz
  1  'x, y, z'
loop_
 _atom_site_type_symbol
 _atom_site_label
 _atom_site_symmetry_multiplicity
 _atom_site_fract_x
 _atom_site_fract_y
 _atom_site_fract_z
 _atom_site_occupancy
  Ho  Ho0  1  0.408762  0.001521  0.250000  1
  Ho  Ho1  1  0.593620  0.596634  0.250000  1
  Ho  Ho2  1  0.995334  0.402552  0.250000  1
  Ho  Ho3  1  0.005107  0.405993  0.750000  1
  Tm  Tm4  1  0.597264  0.596745  0.750000  1
  Zr  Zr5  1  0.398263  0.998417  0.750000  1
  Sn  Sn6  1  0.262529  0.264283  0.499145  1
  Sn  Sn7  1  0.262529  0.264283  0.000855  1
  Sn  Sn8  1  0.741701  0.000209  0.991873  1
  Sn  Sn9  1  0.997032  0.735092  0.499021  1
  Sn  Sn10  1  0.741701  0.000209  0.508127  1
  Sn  Sn11  1  0.997032  0.735092  0.000979  1
  Ir  Ir12  1  0.657538  0.322527  0.515599  1
  Ir  Ir13  1  0.657538  0.322527  0.984401  1
  Ir  Ir14  1  0.336223  0.677285  0.991576  1
  Ir  Ir15  1  0.336223  0.677285  0.508424  1
  Ir  Ir16  1  0.012642  0.999304  0.750000  1
  Ir  Ir17  1  0.998963  0.000042  0.250000  1
