# generated using pymatgen
data_Ca4Pr3Nd(ReC2)4
_symmetry_space_group_name_H-M   'P 1'
_cell_length_a   5.29012200
_cell_length_b   6.62077459
_cell_length_c   10.54653491
_cell_angle_alpha   89.95203530
_cell_angle_beta   90.00000000
_cell_angle_gamma   90.00000000
_symmetry_Int_Tables_number   1
_chemical_formula_structural   Ca4Pr3Nd(ReC2)4
_chemical_formula_sum   'Ca4 Pr3 Nd1 Re4 C8'
_cell_volume   369.38914782
_cell_formula_units_Z   1
loop_
 _symmetry_equiv_pos_site_id
 _symmetry_equiv_pos_as_xyz
  1  'x, y, z'
loop_
 _atom_site_type_symbol
 _atom_site_label
 _atom_site_symmetry_multiplicity
 _atom_site_fract_x
 _atom_site_fract_y
 _atom_site_fract_z
 _atom_site_occupancy
  Ca  Ca0  1  0.250000  0.463415  0.775488  1
  Ca  Ca1  1  0.750000  0.036316  0.274495  1
  Ca  Ca2  1  0.250000  0.964121  0.725247  1
  Ca  Ca3  1  0.750000  0.536050  0.224664  1
  Pr  Pr4  1  0.250000  0.800688  0.049060  1
  Pr  Pr5  1  0.750000  0.699792  0.549688  1
  Pr  Pr6  1  0.250000  0.300076  0.450624  1
  Nd  Nd7  1  0.750000  0.197084  0.949746  1
  Re  Re8  1  0.250000  0.270907  0.145828  1
  Re  Re9  1  0.750000  0.229292  0.646929  1
  Re  Re10  1  0.250000  0.770745  0.353324  1
  Re  Re11  1  0.750000  0.729276  0.854046  1
  C  C12  1  0.250000  0.696536  0.526800  1
  C  C13  1  0.750000  0.805948  0.027024  1
  C  C14  1  0.250000  0.196645  0.972316  1
  C  C15  1  0.750000  0.303569  0.473406  1
  C  C16  1  0.250000  0.034609  0.256903  1
  C  C17  1  0.750000  0.464846  0.758347  1
  C  C18  1  0.250000  0.534143  0.242640  1
  C  C19  1  0.750000  0.965944  0.743428  1
