# generated using pymatgen
data_TmSc5Mn2(Co4P3)4
_symmetry_space_group_name_H-M   'P 1'
_cell_length_a   3.60545900
_cell_length_b   10.39408500
_cell_length_c   11.98534100
_cell_angle_alpha   90.00000000
_cell_angle_beta   90.00000000
_cell_angle_gamma   90.00000000
_symmetry_Int_Tables_number   1
_chemical_formula_structural   TmSc5Mn2(Co4P3)4
_chemical_formula_sum   'Tm1 Sc5 Mn2 Co16 P12'
_cell_volume   449.15601514
_cell_formula_units_Z   1
loop_
 _symmetry_equiv_pos_site_id
 _symmetry_equiv_pos_as_xyz
  1  'x, y, z'
loop_
 _atom_site_type_symbol
 _atom_site_label
 _atom_site_symmetry_multiplicity
 _atom_site_fract_x
 _atom_site_fract_y
 _atom_site_fract_z
 _atom_site_occupancy
  Tm  Tm0  1  0.500000  0.000000  0.474806  1
  Sc  Sc1  1  0.000000  0.500000  0.524236  1
  Sc  Sc2  1  0.500000  0.818751  0.204760  1
  Sc  Sc3  1  0.500000  0.181249  0.204760  1
  Sc  Sc4  1  0.000000  0.679990  0.794417  1
  Sc  Sc5  1  0.000000  0.320010  0.794417  1
  Mn  Mn6  1  0.500000  0.500000  0.160207  1
  Mn  Mn7  1  0.000000  0.000000  0.841328  1
  Co  Co8  1  0.500000  0.500000  0.702467  1
  Co  Co9  1  0.000000  0.000000  0.295716  1
  Co  Co10  1  0.000000  0.500000  0.986246  1
  Co  Co11  1  0.500000  0.000000  0.013340  1
  Co  Co12  1  0.500000  0.332950  0.992781  1
  Co  Co13  1  0.500000  0.667050  0.992781  1
  Co  Co14  1  0.000000  0.167748  0.007290  1
  Co  Co15  1  0.000000  0.832252  0.007290  1
  Co  Co16  1  0.500000  0.298842  0.431360  1
  Co  Co17  1  0.500000  0.701158  0.431360  1
  Co  Co18  1  0.000000  0.204628  0.569118  1
  Co  Co19  1  0.000000  0.795372  0.569118  1
  Co  Co20  1  0.500000  0.876628  0.708725  1
  Co  Co21  1  0.500000  0.123372  0.708725  1
  Co  Co22  1  0.000000  0.622136  0.291944  1
  Co  Co23  1  0.000000  0.377864  0.291944  1
  P  P24  1  0.500000  0.500000  0.879571  1
  P  P25  1  0.000000  0.000000  0.119300  1
  P  P26  1  0.500000  0.500000  0.350800  1
  P  P27  1  0.000000  0.000000  0.652826  1
  P  P28  1  0.500000  0.315657  0.618244  1
  P  P29  1  0.500000  0.684343  0.618244  1
  P  P30  1  0.000000  0.187098  0.380635  1
  P  P31  1  0.000000  0.812902  0.380635  1
  P  P32  1  0.500000  0.844410  0.890208  1
  P  P33  1  0.500000  0.155590  0.890208  1
  P  P34  1  0.000000  0.654690  0.110098  1
  P  P35  1  0.000000  0.345310  0.110098  1
