# generated using pymatgen
data_DyErAl20(RuRh)2
_symmetry_space_group_name_H-M   'P 1'
_cell_length_a   6.84712977
_cell_length_b   6.84456289
_cell_length_c   9.15187700
_cell_angle_alpha   90.00000000
_cell_angle_beta   90.00000000
_cell_angle_gamma   97.15549947
_symmetry_Int_Tables_number   1
_chemical_formula_structural   DyErAl20(RuRh)2
_chemical_formula_sum   'Dy1 Er1 Al20 Ru2 Rh2'
_cell_volume   425.56785400
_cell_formula_units_Z   1
loop_
 _symmetry_equiv_pos_site_id
 _symmetry_equiv_pos_as_xyz
  1  'x, y, z'
loop_
 _atom_site_type_symbol
 _atom_site_label
 _atom_site_symmetry_multiplicity
 _atom_site_fract_x
 _atom_site_fract_y
 _atom_site_fract_z
 _atom_site_occupancy
  Dy  Dy0  1  0.869270  0.125358  0.750000  1
  Er  Er1  1  0.131563  0.874381  0.250000  1
  Al  Al2  1  0.620885  0.375701  0.549463  1
  Al  Al3  1  0.378768  0.624538  0.450190  1
  Al  Al4  1  0.378768  0.624538  0.049810  1
  Al  Al5  1  0.620885  0.375701  0.950537  1
  Al  Al6  1  0.224660  0.222870  0.498686  1
  Al  Al7  1  0.775475  0.776975  0.500613  1
  Al  Al8  1  0.775475  0.776975  0.999387  1
  Al  Al9  1  0.224660  0.222870  0.001314  1
  Al  Al10  1  0.844807  0.154081  0.101783  1
  Al  Al11  1  0.155627  0.845477  0.898657  1
  Al  Al12  1  0.155627  0.845477  0.601343  1
  Al  Al13  1  0.844807  0.154081  0.398217  1
  Al  Al14  1  0.856512  0.588627  0.750000  1
  Al  Al15  1  0.143828  0.412375  0.250000  1
  Al  Al16  1  0.411607  0.141533  0.750000  1
  Al  Al17  1  0.587452  0.858151  0.250000  1
  Al  Al18  1  0.224303  0.480760  0.750000  1
  Al  Al19  1  0.776147  0.519773  0.250000  1
  Al  Al20  1  0.518073  0.777832  0.750000  1
  Al  Al21  1  0.481365  0.221794  0.250000  1
  Ru  Ru22  1  0.499806  0.999974  0.000429  1
  Ru  Ru23  1  0.499806  0.999974  0.499571  1
  Rh  Rh24  1  0.999912  0.500093  0.499739  1
  Rh  Rh25  1  0.999912  0.500093  0.000261  1
