# generated using pymatgen
data_Sm3NbCoNi7P6
_symmetry_space_group_name_H-M   'P 1'
_cell_length_a   3.82579200
_cell_length_b   10.74182800
_cell_length_c   12.47639300
_cell_angle_alpha   90.00000000
_cell_angle_beta   90.00000000
_cell_angle_gamma   90.00000000
_symmetry_Int_Tables_number   1
_chemical_formula_structural   Sm3NbCoNi7P6
_chemical_formula_sum   'Sm6 Nb2 Co2 Ni14 P12'
_cell_volume   512.72984208
_cell_formula_units_Z   2
loop_
 _symmetry_equiv_pos_site_id
 _symmetry_equiv_pos_as_xyz
  1  'x, y, z'
loop_
 _atom_site_type_symbol
 _atom_site_label
 _atom_site_symmetry_multiplicity
 _atom_site_fract_x
 _atom_site_fract_y
 _atom_site_fract_z
 _atom_site_occupancy
  Sm  Sm0  1  0.000000  0.500000  0.524158  1
  Sm  Sm1  1  0.500000  0.000000  0.475842  1
  Sm  Sm2  1  0.500000  0.819079  0.205403  1
  Sm  Sm3  1  0.500000  0.180921  0.205403  1
  Sm  Sm4  1  0.000000  0.680921  0.794597  1
  Sm  Sm5  1  0.000000  0.319079  0.794597  1
  Nb  Nb6  1  0.500000  0.500000  0.152540  1
  Nb  Nb7  1  0.000000  0.000000  0.847460  1
  Co  Co8  1  0.000000  0.500000  0.985146  1
  Co  Co9  1  0.500000  0.000000  0.014854  1
  Ni  Ni10  1  0.500000  0.500000  0.702524  1
  Ni  Ni11  1  0.000000  0.000000  0.297476  1
  Ni  Ni12  1  0.500000  0.332435  0.988913  1
  Ni  Ni13  1  0.500000  0.667565  0.988913  1
  Ni  Ni14  1  0.000000  0.167565  0.011087  1
  Ni  Ni15  1  0.000000  0.832435  0.011087  1
  Ni  Ni16  1  0.500000  0.300071  0.428220  1
  Ni  Ni17  1  0.500000  0.699929  0.428220  1
  Ni  Ni18  1  0.000000  0.199929  0.571780  1
  Ni  Ni19  1  0.000000  0.800071  0.571780  1
  Ni  Ni20  1  0.500000  0.880256  0.708369  1
  Ni  Ni21  1  0.500000  0.119744  0.708369  1
  Ni  Ni22  1  0.000000  0.619744  0.291631  1
  Ni  Ni23  1  0.000000  0.380256  0.291631  1
  P  P24  1  0.500000  0.500000  0.882866  1
  P  P25  1  0.000000  0.000000  0.117134  1
  P  P26  1  0.500000  0.500000  0.350217  1
  P  P27  1  0.000000  0.000000  0.649783  1
  P  P28  1  0.500000  0.311257  0.613644  1
  P  P29  1  0.500000  0.688743  0.613644  1
  P  P30  1  0.000000  0.188743  0.386356  1
  P  P31  1  0.000000  0.811257  0.386356  1
  P  P32  1  0.500000  0.844999  0.895033  1
  P  P33  1  0.500000  0.155001  0.895033  1
  P  P34  1  0.000000  0.655001  0.104967  1
  P  P35  1  0.000000  0.344999  0.104967  1
