# generated using pymatgen
data_La3EuH10
_symmetry_space_group_name_H-M   'P 1'
_cell_length_a   6.85786420
_cell_length_b   6.85786461
_cell_length_c   6.85786412
_cell_angle_alpha   131.87658804
_cell_angle_beta   132.11745761
_cell_angle_gamma   70.23390725
_symmetry_Int_Tables_number   1
_chemical_formula_structural   La3EuH10
_chemical_formula_sum   'La3 Eu1 H10'
_cell_volume   174.59969478
_cell_formula_units_Z   1
loop_
 _symmetry_equiv_pos_site_id
 _symmetry_equiv_pos_as_xyz
  1  'x, y, z'
loop_
 _atom_site_type_symbol
 _atom_site_label
 _atom_site_symmetry_multiplicity
 _atom_site_fract_x
 _atom_site_fract_y
 _atom_site_fract_z
 _atom_site_occupancy
  La  La0  1  0.741623  0.741623  0.000000  1
  La  La1  1  0.008263  0.508263  0.500000  1
  La  La2  1  0.259415  0.259415  0.000000  1
  Eu  Eu3  1  0.491939  0.991939  0.500000  1
  H  H4  1  0.373150  0.352223  0.474095  1
  H  H5  1  0.878129  0.899054  0.525905  1
  H  H6  1  0.650069  0.123909  0.023134  1
  H  H7  1  0.100776  0.626935  0.976866  1
  H  H8  1  0.373150  0.899054  0.020926  1
  H  H9  1  0.878129  0.352223  0.979074  1
  H  H10  1  0.650069  0.626935  0.526160  1
  H  H11  1  0.100776  0.123909  0.473840  1
  H  H12  1  0.244788  0.744788  0.500000  1
  H  H13  1  0.499725  0.499725  0.000000  1
