# generated using pymatgen
data_Ta2Co6SiMo4
_symmetry_space_group_name_H-M   'P 1'
_cell_length_a   8.93208384
_cell_length_b   8.93208420
_cell_length_c   8.93208437
_cell_angle_alpha   31.31289172
_cell_angle_beta   31.31288978
_cell_angle_gamma   31.31288712
_symmetry_Int_Tables_number   1
_chemical_formula_structural   Ta2Co6SiMo4
_chemical_formula_sum   'Ta2 Co6 Si1 Mo4'
_cell_volume   170.83313580
_cell_formula_units_Z   1
loop_
 _symmetry_equiv_pos_site_id
 _symmetry_equiv_pos_as_xyz
  1  'x, y, z'
loop_
 _atom_site_type_symbol
 _atom_site_label
 _atom_site_symmetry_multiplicity
 _atom_site_fract_x
 _atom_site_fract_y
 _atom_site_fract_z
 _atom_site_occupancy
  Ta  Ta0  1  0.831333  0.831333  0.831333  1
  Ta  Ta1  1  0.651723  0.651723  0.651723  1
  Co  Co2  1  0.092161  0.092161  0.586748  1
  Co  Co3  1  0.409164  0.910383  0.910383  1
  Co  Co4  1  0.586748  0.092161  0.092161  1
  Co  Co5  1  0.910383  0.910383  0.409164  1
  Co  Co6  1  0.910383  0.409164  0.910383  1
  Co  Co7  1  0.092161  0.586748  0.092161  1
  Si  Si8  1  0.999929  0.999929  0.999929  1
  Mo  Mo9  1  0.450503  0.450503  0.450503  1
  Mo  Mo10  1  0.548038  0.548038  0.548038  1
  Mo  Mo11  1  0.169015  0.169015  0.169015  1
  Mo  Mo12  1  0.348459  0.348459  0.348459  1
