# generated using pymatgen
data_Y2ThSn3Ir2Rh
_symmetry_space_group_name_H-M   'P 1'
_cell_length_a   7.62094100
_cell_length_b   7.55070194
_cell_length_c   3.96739400
_cell_angle_alpha   90.00000000
_cell_angle_beta   90.00000000
_cell_angle_gamma   120.30820277
_symmetry_Int_Tables_number   1
_chemical_formula_structural   Y2ThSn3Ir2Rh
_chemical_formula_sum   'Y2 Th1 Sn3 Ir2 Rh1'
_cell_volume   197.09460033
_cell_formula_units_Z   1
loop_
 _symmetry_equiv_pos_site_id
 _symmetry_equiv_pos_as_xyz
  1  'x, y, z'
loop_
 _atom_site_type_symbol
 _atom_site_label
 _atom_site_symmetry_multiplicity
 _atom_site_fract_x
 _atom_site_fract_y
 _atom_site_fract_z
 _atom_site_occupancy
  Y  Y0  1  0.999428  0.407823  0.500000  1
  Y  Y1  1  0.591605  0.592177  0.500000  1
  Th  Th2  1  0.415136  0.000000  0.500000  1
  Sn  Sn3  1  0.756158  0.000000  0.000000  1
  Sn  Sn4  1  0.988531  0.732879  0.000000  1
  Sn  Sn5  1  0.255651  0.267121  0.000000  1
  Ir  Ir6  1  0.333701  0.681086  0.000000  1
  Ir  Ir7  1  0.652615  0.318914  0.000000  1
  Rh  Rh8  1  0.007176  0.000000  0.500000  1
