# generated using pymatgen
data_NaHo5TmSn23Rh6
_symmetry_space_group_name_H-M   'P 1'
_cell_length_a   9.85924108
_cell_length_b   9.85924045
_cell_length_c   10.08776904
_cell_angle_alpha   90.03053610
_cell_angle_beta   89.96946595
_cell_angle_gamma   120.00647836
_symmetry_Int_Tables_number   1
_chemical_formula_structural   NaHo5TmSn23Rh6
_chemical_formula_sum   'Na1 Ho5 Tm1 Sn23 Rh6'
_cell_volume   849.14971805
_cell_formula_units_Z   1
loop_
 _symmetry_equiv_pos_site_id
 _symmetry_equiv_pos_as_xyz
  1  'x, y, z'
loop_
 _atom_site_type_symbol
 _atom_site_label
 _atom_site_symmetry_multiplicity
 _atom_site_fract_x
 _atom_site_fract_y
 _atom_site_fract_z
 _atom_site_occupancy
  Na  Na0  1  0.000031  0.999969  0.999967  1
  Ho  Ho1  1  0.520189  0.040204  0.693287  1
  Ho  Ho2  1  0.959796  0.479811  0.693287  1
  Ho  Ho3  1  0.040285  0.520007  0.306802  1
  Ho  Ho4  1  0.479993  0.959715  0.306802  1
  Ho  Ho5  1  0.479733  0.520267  0.306857  1
  Tm  Tm6  1  0.519471  0.480529  0.693643  1
  Sn  Sn7  1  0.666664  0.333336  0.183586  1
  Sn  Sn8  1  0.666039  0.333961  0.880744  1
  Sn  Sn9  1  0.333350  0.666650  0.118426  1
  Sn  Sn10  1  0.348831  0.348771  0.000025  1
  Sn  Sn11  1  0.999970  0.651235  0.999921  1
  Sn  Sn12  1  0.651207  0.999824  0.999849  1
  Sn  Sn13  1  0.651229  0.651169  0.000025  1
  Sn  Sn14  1  0.333312  0.666688  0.816631  1
  Sn  Sn15  1  0.441027  0.220940  0.459116  1
  Sn  Sn16  1  0.220608  0.779392  0.541180  1
  Sn  Sn17  1  0.220951  0.440921  0.541310  1
  Sn  Sn18  1  0.559079  0.779049  0.541310  1
  Sn  Sn19  1  0.117658  0.882342  0.276080  1
  Sn  Sn20  1  0.779060  0.558973  0.459116  1
  Sn  Sn21  1  0.779407  0.220593  0.458798  1
  Sn  Sn22  1  0.348765  0.000030  0.999921  1
  Sn  Sn23  1  0.117725  0.235406  0.276290  1
  Sn  Sn24  1  0.764594  0.882275  0.276290  1
  Sn  Sn25  1  0.235900  0.118097  0.723559  1
  Sn  Sn26  1  0.881903  0.764100  0.723559  1
  Sn  Sn27  1  0.882451  0.117549  0.724013  1
  Sn  Sn28  1  0.000076  0.999924  0.500101  1
  Sn  Sn29  1  0.000176  0.348793  0.999849  1
  Rh  Rh30  1  0.171446  0.828554  0.797623  1
  Rh  Rh31  1  0.172303  0.343267  0.797553  1
  Rh  Rh32  1  0.656733  0.827697  0.797553  1
  Rh  Rh33  1  0.343162  0.171596  0.202401  1
  Rh  Rh34  1  0.828404  0.656838  0.202401  1
  Rh  Rh35  1  0.828469  0.171531  0.202121  1
