# generated using pymatgen
data_KCr2Ag3Te8
_symmetry_space_group_name_H-M   'P 1'
_cell_length_a   11.72750700
_cell_length_b   11.72750690
_cell_length_c   10.90234251
_cell_angle_alpha   81.56054126
_cell_angle_beta   81.56054139
_cell_angle_gamma   15.26012641
_symmetry_Int_Tables_number   1
_chemical_formula_structural   KCr2Ag3Te8
_chemical_formula_sum   'K1 Cr2 Ag3 Te8'
_cell_volume   390.30646218
_cell_formula_units_Z   1
loop_
 _symmetry_equiv_pos_site_id
 _symmetry_equiv_pos_as_xyz
  1  'x, y, z'
loop_
 _atom_site_type_symbol
 _atom_site_label
 _atom_site_symmetry_multiplicity
 _atom_site_fract_x
 _atom_site_fract_y
 _atom_site_fract_z
 _atom_site_occupancy
  K  K0  1  0.500000  0.500000  0.500000  1
  Cr  Cr1  1  0.295263  0.295263  0.343521  1
  Cr  Cr2  1  0.704737  0.704737  0.656479  1
  Ag  Ag3  1  0.000000  0.000000  0.000000  1
  Ag  Ag4  1  0.350759  0.350759  0.001500  1
  Ag  Ag5  1  0.649241  0.649241  0.998500  1
  Te  Te6  1  0.588711  0.588711  0.754314  1
  Te  Te7  1  0.411289  0.411289  0.245686  1
  Te  Te8  1  0.071181  0.071181  0.179240  1
  Te  Te9  1  0.928819  0.928819  0.820760  1
  Te  Te10  1  0.177889  0.177889  0.458616  1
  Te  Te11  1  0.822111  0.822111  0.541384  1
  Te  Te12  1  0.241879  0.241879  0.840564  1
  Te  Te13  1  0.758121  0.758121  0.159436  1
