# generated using pymatgen
data_Ta6Ti3NbGe6C
_symmetry_space_group_name_H-M   'P 1'
_cell_length_a   7.65654100
_cell_length_b   7.65654161
_cell_length_c   5.23438500
_cell_angle_alpha   90.00000000
_cell_angle_beta   90.00000000
_cell_angle_gamma   119.99999306
_symmetry_Int_Tables_number   1
_chemical_formula_structural   Ta6Ti3NbGe6C
_chemical_formula_sum   'Ta6 Ti3 Nb1 Ge6 C1'
_cell_volume   265.74284743
_cell_formula_units_Z   1
loop_
 _symmetry_equiv_pos_site_id
 _symmetry_equiv_pos_as_xyz
  1  'x, y, z'
loop_
 _atom_site_type_symbol
 _atom_site_label
 _atom_site_symmetry_multiplicity
 _atom_site_fract_x
 _atom_site_fract_y
 _atom_site_fract_z
 _atom_site_occupancy
  Ta  Ta0  1  0.001033  0.765165  0.251751  1
  Ta  Ta1  1  0.234835  0.235868  0.251751  1
  Ta  Ta2  1  0.764132  0.998967  0.251751  1
  Ta  Ta3  1  0.001033  0.235868  0.748249  1
  Ta  Ta4  1  0.764132  0.765165  0.748249  1
  Ta  Ta5  1  0.234835  0.998967  0.748249  1
  Ti  Ti6  1  0.333333  0.666667  0.000000  1
  Ti  Ti7  1  0.666667  0.333333  0.000000  1
  Ti  Ti8  1  0.666667  0.333333  0.500000  1
  Nb  Nb9  1  0.333333  0.666667  0.500000  1
  Ge  Ge10  1  0.996660  0.401514  0.242088  1
  Ge  Ge11  1  0.598486  0.595146  0.242088  1
  Ge  Ge12  1  0.404854  0.003340  0.242088  1
  Ge  Ge13  1  0.996660  0.595146  0.757912  1
  Ge  Ge14  1  0.404854  0.401514  0.757912  1
  Ge  Ge15  1  0.598486  0.003340  0.757912  1
  C  C16  1  0.000000  0.000000  0.500000  1
