# generated using pymatgen
data_TbYb(ZnRh)2
_symmetry_space_group_name_H-M   'P 1'
_cell_length_a   4.10599000
_cell_length_b   6.93630489
_cell_length_c   7.99145467
_cell_angle_alpha   89.38671325
_cell_angle_beta   90.00000000
_cell_angle_gamma   90.00000000
_symmetry_Int_Tables_number   1
_chemical_formula_structural   TbYb(ZnRh)2
_chemical_formula_sum   'Tb2 Yb2 Zn4 Rh4'
_cell_volume   227.58677566
_cell_formula_units_Z   2
loop_
 _symmetry_equiv_pos_site_id
 _symmetry_equiv_pos_as_xyz
  1  'x, y, z'
loop_
 _atom_site_type_symbol
 _atom_site_label
 _atom_site_symmetry_multiplicity
 _atom_site_fract_x
 _atom_site_fract_y
 _atom_site_fract_z
 _atom_site_occupancy
  Tb  Tb0  1  0.250000  0.529605  0.183972  1
  Tb  Tb1  1  0.750000  0.470395  0.816028  1
  Yb  Yb2  1  0.750000  0.971380  0.680876  1
  Yb  Yb3  1  0.250000  0.028620  0.319124  1
  Zn  Zn4  1  0.250000  0.648168  0.563144  1
  Zn  Zn5  1  0.750000  0.351832  0.436856  1
  Zn  Zn6  1  0.750000  0.857922  0.063294  1
  Zn  Zn7  1  0.250000  0.142078  0.936706  1
  Rh  Rh8  1  0.250000  0.765597  0.875974  1
  Rh  Rh9  1  0.750000  0.234403  0.124026  1
  Rh  Rh10  1  0.750000  0.731479  0.373871  1
  Rh  Rh11  1  0.250000  0.268521  0.626129  1
