# generated using pymatgen
data_TbY2Si2(PPd5)4
_symmetry_space_group_name_H-M   'P 1'
_cell_length_a   8.70636378
_cell_length_b   8.68623665
_cell_length_c   8.68623719
_cell_angle_alpha   60.15334983
_cell_angle_beta   59.92332036
_cell_angle_gamma   59.92332135
_symmetry_Int_Tables_number   1
_chemical_formula_structural   TbY2Si2(PPd5)4
_chemical_formula_sum   'Tb1 Y2 Si2 P4 Pd20'
_cell_volume   464.49436662
_cell_formula_units_Z   1
loop_
 _symmetry_equiv_pos_site_id
 _symmetry_equiv_pos_as_xyz
  1  'x, y, z'
loop_
 _atom_site_type_symbol
 _atom_site_label
 _atom_site_symmetry_multiplicity
 _atom_site_fract_x
 _atom_site_fract_y
 _atom_site_fract_z
 _atom_site_occupancy
  Tb  Tb0  1  0.750000  0.750000  0.750000  1
  Y  Y1  1  0.250000  0.250000  0.250000  1
  Y  Y2  1  0.000000  0.000000  0.000000  1
  Si  Si3  1  0.734692  0.265308  0.265308  1
  Si  Si4  1  0.265308  0.734692  0.734692  1
  P  P5  1  0.264054  0.735946  0.264054  1
  P  P6  1  0.735946  0.264054  0.735946  1
  P  P7  1  0.264054  0.264054  0.735946  1
  P  P8  1  0.735946  0.735946  0.264054  1
  Pd  Pd9  1  0.383601  0.385069  0.385069  1
  Pd  Pd10  1  0.616395  0.614926  0.614926  1
  Pd  Pd11  1  0.385069  0.383601  0.846262  1
  Pd  Pd12  1  0.385069  0.846262  0.383601  1
  Pd  Pd13  1  0.614926  0.616395  0.153753  1
  Pd  Pd14  1  0.614926  0.153753  0.616395  1
  Pd  Pd15  1  0.846262  0.385069  0.385069  1
  Pd  Pd16  1  0.153753  0.614926  0.614926  1
  Pd  Pd17  1  0.344179  0.000012  0.000012  1
  Pd  Pd18  1  0.655796  0.000012  0.000012  1
  Pd  Pd19  1  0.000012  0.344179  0.655796  1
  Pd  Pd20  1  0.000012  0.655796  0.344179  1
  Pd  Pd21  1  0.000620  0.346250  0.999402  1
  Pd  Pd22  1  0.653728  0.999402  0.346250  1
  Pd  Pd23  1  0.999402  0.653728  0.000620  1
  Pd  Pd24  1  0.346250  0.000620  0.653728  1
  Pd  Pd25  1  0.000620  0.999402  0.346250  1
  Pd  Pd26  1  0.999402  0.000620  0.653728  1
  Pd  Pd27  1  0.653728  0.346250  0.999402  1
  Pd  Pd28  1  0.346250  0.653728  0.000620  1
