# generated using pymatgen
data_Y2Co9As7Ru3
_symmetry_space_group_name_H-M   'P 1'
_cell_length_a   3.81209200
_cell_length_b   9.38000322
_cell_length_c   9.38000300
_cell_angle_alpha   119.99999477
_cell_angle_beta   90.00000000
_cell_angle_gamma   90.00000000
_symmetry_Int_Tables_number   1
_chemical_formula_structural   Y2Co9As7Ru3
_chemical_formula_sum   'Y2 Co9 As7 Ru3'
_cell_volume   290.46913562
_cell_formula_units_Z   1
loop_
 _symmetry_equiv_pos_site_id
 _symmetry_equiv_pos_as_xyz
  1  'x, y, z'
loop_
 _atom_site_type_symbol
 _atom_site_label
 _atom_site_symmetry_multiplicity
 _atom_site_fract_x
 _atom_site_fract_y
 _atom_site_fract_z
 _atom_site_occupancy
  Y  Y0  1  0.000000  0.666667  0.333333  1
  Y  Y1  1  0.500000  0.333333  0.666667  1
  Co  Co2  1  0.000000  0.569280  0.940549  1
  Co  Co3  1  0.000000  0.371269  0.430720  1
  Co  Co4  1  0.000000  0.059451  0.628731  1
  Co  Co5  1  0.000000  0.875531  0.157854  1
  Co  Co6  1  0.000000  0.282323  0.124469  1
  Co  Co7  1  0.000000  0.842146  0.717677  1
  Co  Co8  1  0.500000  0.946835  0.382635  1
  Co  Co9  1  0.500000  0.435798  0.053165  1
  Co  Co10  1  0.500000  0.617365  0.564202  1
  As  As11  1  0.000000  0.000000  0.000000  1
  As  As12  1  0.500000  0.707855  0.116905  1
  As  As13  1  0.500000  0.409050  0.292145  1
  As  As14  1  0.500000  0.883095  0.590950  1
  As  As15  1  0.000000  0.588017  0.701107  1
  As  As16  1  0.000000  0.113090  0.411983  1
  As  As17  1  0.000000  0.298893  0.886910  1
  Ru  Ru18  1  0.500000  0.781195  0.900482  1
  Ru  Ru19  1  0.500000  0.119286  0.218805  1
  Ru  Ru20  1  0.500000  0.099518  0.880714  1
