# generated using pymatgen
data_Li4B4Ru3Rh
_symmetry_space_group_name_H-M   'P 1'
_cell_length_a   6.80394981
_cell_length_b   5.99576195
_cell_length_c   5.57125365
_cell_angle_alpha   71.95532961
_cell_angle_beta   56.91642100
_cell_angle_gamma   50.77323725
_symmetry_Int_Tables_number   1
_chemical_formula_structural   Li4B4Ru3Rh
_chemical_formula_sum   'Li4 B4 Ru3 Rh1'
_cell_volume   147.29718738
_cell_formula_units_Z   1
loop_
 _symmetry_equiv_pos_site_id
 _symmetry_equiv_pos_as_xyz
  1  'x, y, z'
loop_
 _atom_site_type_symbol
 _atom_site_label
 _atom_site_symmetry_multiplicity
 _atom_site_fract_x
 _atom_site_fract_y
 _atom_site_fract_z
 _atom_site_occupancy
  Li  Li0  1  0.123952  0.625125  0.621164  1
  Li  Li1  1  0.624379  0.623452  0.627753  1
  Li  Li2  1  0.623452  0.624379  0.124416  1
  Li  Li3  1  0.625125  0.123952  0.629759  1
  B  B4  1  0.429744  0.068742  0.432231  1
  B  B5  1  0.171900  0.829752  0.179143  1
  B  B6  1  0.068742  0.429744  0.069282  1
  B  B7  1  0.829752  0.171900  0.819205  1
  Ru  Ru8  1  0.863561  0.863561  0.136439  1
  Ru  Ru9  1  0.136561  0.136561  0.863439  1
  Ru  Ru10  1  0.115569  0.115569  0.384431  1
  Rh  Rh11  1  0.387263  0.387263  0.112737  1
