# generated using pymatgen
data_Dy3YGa4(CuIr)2
_symmetry_space_group_name_H-M   'P 1'
_cell_length_a   4.37966400
_cell_length_b   6.91727107
_cell_length_c   7.57519510
_cell_angle_alpha   89.98251318
_cell_angle_beta   90.00000000
_cell_angle_gamma   90.00000000
_symmetry_Int_Tables_number   1
_chemical_formula_structural   Dy3YGa4(CuIr)2
_chemical_formula_sum   'Dy3 Y1 Ga4 Cu2 Ir2'
_cell_volume   229.49297229
_cell_formula_units_Z   1
loop_
 _symmetry_equiv_pos_site_id
 _symmetry_equiv_pos_as_xyz
  1  'x, y, z'
loop_
 _atom_site_type_symbol
 _atom_site_label
 _atom_site_symmetry_multiplicity
 _atom_site_fract_x
 _atom_site_fract_y
 _atom_site_fract_z
 _atom_site_occupancy
  Dy  Dy0  1  0.250000  0.990899  0.296199  1
  Dy  Dy1  1  0.250000  0.491020  0.203872  1
  Dy  Dy2  1  0.750000  0.022461  0.690135  1
  Y  Y3  1  0.750000  0.521834  0.809105  1
  Ga  Ga4  1  0.250000  0.323199  0.581098  1
  Ga  Ga5  1  0.250000  0.823548  0.918819  1
  Ga  Ga6  1  0.750000  0.675703  0.429930  1
  Ga  Ga7  1  0.750000  0.175509  0.070078  1
  Cu  Cu8  1  0.250000  0.208839  0.901833  1
  Cu  Cu9  1  0.250000  0.709516  0.598147  1
  Ir  Ir10  1  0.750000  0.778969  0.099783  1
  Ir  Ir11  1  0.750000  0.278502  0.401001  1
