# generated using pymatgen
data_Nd3EuNi4(SnH)4
_symmetry_space_group_name_H-M   'P 1'
_cell_length_a   7.26931067
_cell_length_b   8.53624682
_cell_length_c   4.38237311
_cell_angle_alpha   90.01139874
_cell_angle_beta   89.97682573
_cell_angle_gamma   90.24235955
_symmetry_Int_Tables_number   1
_chemical_formula_structural   Nd3EuNi4(SnH)4
_chemical_formula_sum   'Nd3 Eu1 Ni4 Sn4 H4'
_cell_volume   271.93531748
_cell_formula_units_Z   1
loop_
 _symmetry_equiv_pos_site_id
 _symmetry_equiv_pos_as_xyz
  1  'x, y, z'
loop_
 _atom_site_type_symbol
 _atom_site_label
 _atom_site_symmetry_multiplicity
 _atom_site_fract_x
 _atom_site_fract_y
 _atom_site_fract_z
 _atom_site_occupancy
  Nd  Nd0  1  0.012908  0.310899  0.242636  1
  Nd  Nd1  1  0.986235  0.686757  0.742359  1
  Nd  Nd2  1  0.486086  0.816739  0.742474  1
  Eu  Eu3  1  0.513759  0.187944  0.242855  1
  Ni  Ni4  1  0.277554  0.605007  0.244200  1
  Ni  Ni5  1  0.779242  0.890778  0.242196  1
  Ni  Ni6  1  0.217613  0.100437  0.743747  1
  Ni  Ni7  1  0.724446  0.402175  0.742412  1
  Sn  Sn8  1  0.653172  0.568863  0.242314  1
  Sn  Sn9  1  0.153147  0.932452  0.242551  1
  Sn  Sn10  1  0.846267  0.064372  0.741934  1
  Sn  Sn11  1  0.347839  0.434423  0.743282  1
  H  H12  1  0.060264  0.579329  0.242593  1
  H  H13  1  0.562852  0.918911  0.243045  1
  H  H14  1  0.435176  0.082161  0.742771  1
  H  H15  1  0.943443  0.418752  0.743023  1
