# generated using pymatgen
data_Al2Cr3AsRu6
_symmetry_space_group_name_H-M   'P 1'
_cell_length_a   4.25101400
_cell_length_b   6.01088600
_cell_length_c   12.69358400
_cell_angle_alpha   90.00000000
_cell_angle_beta   89.99939655
_cell_angle_gamma   89.99999047
_symmetry_Int_Tables_number   1
_chemical_formula_structural   Al2Cr3AsRu6
_chemical_formula_sum   'Al4 Cr6 As2 Ru12'
_cell_volume   324.35103488
_cell_formula_units_Z   2
loop_
 _symmetry_equiv_pos_site_id
 _symmetry_equiv_pos_as_xyz
  1  'x, y, z'
loop_
 _atom_site_type_symbol
 _atom_site_label
 _atom_site_symmetry_multiplicity
 _atom_site_fract_x
 _atom_site_fract_y
 _atom_site_fract_z
 _atom_site_occupancy
  Al  Al0  1  0.999753  0.499999  0.333369  1
  Al  Al1  1  0.500004  0.000000  0.499930  1
  Al  Al2  1  0.000277  0.500001  0.666737  1
  Al  Al3  1  0.500239  0.999998  0.833301  1
  Cr  Cr4  1  0.000008  0.000004  0.994775  1
  Cr  Cr5  1  0.499774  0.499998  0.172002  1
  Cr  Cr6  1  0.999810  0.999997  0.340116  1
  Cr  Cr7  1  0.500012  0.499998  0.501425  1
  Cr  Cr8  1  0.000169  0.000023  0.665201  1
  Cr  Cr9  1  0.500207  0.499988  0.826414  1
  As  As10  1  0.999994  0.500001  0.999244  1
  As  As11  1  0.499719  0.000000  0.167439  1
  Ru  Ru12  1  0.499991  0.251554  0.002248  1
  Ru  Ru13  1  0.499991  0.748444  0.002248  1
  Ru  Ru14  1  0.999798  0.248363  0.164539  1
  Ru  Ru15  1  0.999800  0.751637  0.164539  1
  Ru  Ru16  1  0.499790  0.248291  0.331877  1
  Ru  Ru17  1  0.499791  0.751708  0.331876  1
  Ru  Ru18  1  0.000008  0.251264  0.500197  1
  Ru  Ru19  1  0.000007  0.748736  0.500196  1
  Ru  Ru20  1  0.500221  0.248845  0.666295  1
  Ru  Ru21  1  0.500224  0.751154  0.666295  1
  Ru  Ru22  1  0.000209  0.251540  0.834869  1
  Ru  Ru23  1  0.000210  0.748459  0.834870  1
