# generated using pymatgen
data_Ho6Si24OsRu7
_symmetry_space_group_name_H-M   'P 1'
_cell_length_a   10.11324613
_cell_length_b   10.11324654
_cell_length_c   8.13553205
_cell_angle_alpha   89.99512994
_cell_angle_beta   89.99512796
_cell_angle_gamma   132.57320541
_symmetry_Int_Tables_number   1
_chemical_formula_structural   Ho6Si24OsRu7
_chemical_formula_sum   'Ho6 Si24 Os1 Ru7'
_cell_volume   612.75786332
_cell_formula_units_Z   1
loop_
 _symmetry_equiv_pos_site_id
 _symmetry_equiv_pos_as_xyz
  1  'x, y, z'
loop_
 _atom_site_type_symbol
 _atom_site_label
 _atom_site_symmetry_multiplicity
 _atom_site_fract_x
 _atom_site_fract_y
 _atom_site_fract_z
 _atom_site_occupancy
  Ho  Ho0  1  0.499944  0.500056  0.500000  1
  Ho  Ho1  1  0.999997  0.000003  0.000000  1
  Ho  Ho2  1  0.502835  0.002906  0.750165  1
  Ho  Ho3  1  0.997094  0.497165  0.249835  1
  Ho  Ho4  1  0.497194  0.997023  0.249784  1
  Ho  Ho5  1  0.002977  0.502806  0.750216  1
  Si  Si6  1  0.795635  0.204365  0.500000  1
  Si  Si7  1  0.295162  0.704838  0.000000  1
  Si  Si8  1  0.204879  0.795121  0.500000  1
  Si  Si9  1  0.704944  0.295056  0.000000  1
  Si  Si10  1  0.332674  0.332778  0.833590  1
  Si  Si11  1  0.667222  0.667326  0.166410  1
  Si  Si12  1  0.166770  0.166604  0.332906  1
  Si  Si13  1  0.833396  0.833230  0.667094  1
  Si  Si14  1  0.122612  0.888351  0.729017  1
  Si  Si15  1  0.111649  0.877388  0.270983  1
  Si  Si16  1  0.611633  0.377510  0.227502  1
  Si  Si17  1  0.622490  0.388367  0.772498  1
  Si  Si18  1  0.877007  0.111074  0.270585  1
  Si  Si19  1  0.888926  0.122993  0.729415  1
  Si  Si20  1  0.388265  0.622803  0.771651  1
  Si  Si21  1  0.377197  0.611735  0.228349  1
  Si  Si22  1  0.344629  0.111113  0.506021  1
  Si  Si23  1  0.888887  0.655371  0.493979  1
  Si  Si24  1  0.387661  0.153812  0.005743  1
  Si  Si25  1  0.846188  0.612339  0.994257  1
  Si  Si26  1  0.653725  0.887612  0.493443  1
  Si  Si27  1  0.112388  0.346275  0.506557  1
  Si  Si28  1  0.612118  0.845893  0.994193  1
  Si  Si29  1  0.154107  0.387882  0.005807  1
  Os  Os30  1  0.669640  0.330360  0.500000  1
  Ru  Ru31  1  0.169674  0.830326  0.000000  1
  Ru  Ru32  1  0.330346  0.669654  0.500000  1
  Ru  Ru33  1  0.830327  0.169673  0.000000  1
  Ru  Ru34  1  0.127331  0.127588  0.627138  1
  Ru  Ru35  1  0.872412  0.872669  0.372862  1
  Ru  Ru36  1  0.373504  0.373441  0.127812  1
  Ru  Ru37  1  0.626559  0.626496  0.872188  1
