# generated using pymatgen
data_Sc3Ta(Co2Sn)4
_symmetry_space_group_name_H-M   'P 1'
_cell_length_a   4.39088300
_cell_length_b   6.21437800
_cell_length_c   8.78249500
_cell_angle_alpha   90.00000000
_cell_angle_beta   90.00000000
_cell_angle_gamma   90.00000000
_symmetry_Int_Tables_number   1
_chemical_formula_structural   Sc3Ta(Co2Sn)4
_chemical_formula_sum   'Sc3 Ta1 Co8 Sn4'
_cell_volume   239.64448705
_cell_formula_units_Z   1
loop_
 _symmetry_equiv_pos_site_id
 _symmetry_equiv_pos_as_xyz
  1  'x, y, z'
loop_
 _atom_site_type_symbol
 _atom_site_label
 _atom_site_symmetry_multiplicity
 _atom_site_fract_x
 _atom_site_fract_y
 _atom_site_fract_z
 _atom_site_occupancy
  Sc  Sc0  1  0.999969  0.000000  0.000433  1
  Sc  Sc1  1  0.999969  0.000000  0.499567  1
  Sc  Sc2  1  0.502740  0.500000  0.750000  1
  Ta  Ta3  1  0.497226  0.500000  0.250000  1
  Co  Co4  1  0.500291  0.742636  0.007840  1
  Co  Co5  1  0.500291  0.742636  0.492160  1
  Co  Co6  1  0.500291  0.257364  0.007840  1
  Co  Co7  1  0.500291  0.257364  0.492160  1
  Co  Co8  1  0.004005  0.246977  0.750000  1
  Co  Co9  1  0.995202  0.266272  0.250000  1
  Co  Co10  1  0.995202  0.733728  0.250000  1
  Co  Co11  1  0.004005  0.753023  0.750000  1
  Sn  Sn12  1  0.503209  0.000000  0.750000  1
  Sn  Sn13  1  0.496372  0.000000  0.250000  1
  Sn  Sn14  1  0.000470  0.500000  0.995436  1
  Sn  Sn15  1  0.000470  0.500000  0.504564  1
