# generated using pymatgen
data_Ho4Al17NiPd6
_symmetry_space_group_name_H-M   'P 1'
_cell_length_a   7.58618168
_cell_length_b   7.58618045
_cell_length_c   9.37790600
_cell_angle_alpha   90.00000000
_cell_angle_beta   90.00000000
_cell_angle_gamma   118.58646147
_symmetry_Int_Tables_number   1
_chemical_formula_structural   Ho4Al17NiPd6
_chemical_formula_sum   'Ho4 Al17 Ni1 Pd6'
_cell_volume   473.90829763
_cell_formula_units_Z   1
loop_
 _symmetry_equiv_pos_site_id
 _symmetry_equiv_pos_as_xyz
  1  'x, y, z'
loop_
 _atom_site_type_symbol
 _atom_site_label
 _atom_site_symmetry_multiplicity
 _atom_site_fract_x
 _atom_site_fract_y
 _atom_site_fract_z
 _atom_site_occupancy
  Ho  Ho0  1  0.989107  0.676316  0.250000  1
  Ho  Ho1  1  0.007345  0.323893  0.750000  1
  Ho  Ho2  1  0.676316  0.989107  0.250000  1
  Ho  Ho3  1  0.323893  0.007345  0.750000  1
  Al  Al4  1  0.863429  0.863429  0.750000  1
  Al  Al5  1  0.005061  0.327091  0.089474  1
  Al  Al6  1  0.999654  0.660728  0.921245  1
  Al  Al7  1  0.999654  0.660728  0.578755  1
  Al  Al8  1  0.327091  0.005061  0.410526  1
  Al  Al9  1  0.005061  0.327091  0.410526  1
  Al  Al10  1  0.660728  0.999654  0.578755  1
  Al  Al11  1  0.660728  0.999654  0.921245  1
  Al  Al12  1  0.327091  0.005061  0.089474  1
  Al  Al13  1  0.329326  0.329326  0.534262  1
  Al  Al14  1  0.666962  0.666963  0.447870  1
  Al  Al15  1  0.666962  0.666963  0.052130  1
  Al  Al16  1  0.329326  0.329326  0.965738  1
  Al  Al17  1  0.340349  0.545793  0.250000  1
  Al  Al18  1  0.654243  0.446618  0.750000  1
  Al  Al19  1  0.545793  0.340349  0.250000  1
  Al  Al20  1  0.446618  0.654243  0.750000  1
  Ni  Ni21  1  0.175690  0.175690  0.250000  1
  Pd  Pd22  1  0.677969  0.327566  0.000489  1
  Pd  Pd23  1  0.327566  0.677969  0.000489  1
  Pd  Pd24  1  0.327566  0.677969  0.499511  1
  Pd  Pd25  1  0.677969  0.327566  0.499511  1
  Pd  Pd26  1  0.994252  0.994252  0.995018  1
  Pd  Pd27  1  0.994252  0.994252  0.504982  1
