# generated using pymatgen
data_Y2Si6Ir
_symmetry_space_group_name_H-M   'P 1'
_cell_length_a   5.58848884
_cell_length_b   5.58849016
_cell_length_c   21.03556300
_cell_angle_alpha   90.00000000
_cell_angle_beta   90.00000000
_cell_angle_gamma   90.88013023
_symmetry_Int_Tables_number   1
_chemical_formula_structural   Y2Si6Ir
_chemical_formula_sum   'Y8 Si24 Ir4'
_cell_volume   656.88867865
_cell_formula_units_Z   4
loop_
 _symmetry_equiv_pos_site_id
 _symmetry_equiv_pos_as_xyz
  1  'x, y, z'
loop_
 _atom_site_type_symbol
 _atom_site_label
 _atom_site_symmetry_multiplicity
 _atom_site_fract_x
 _atom_site_fract_y
 _atom_site_fract_z
 _atom_site_occupancy
  Y  Y0  1  0.373717  0.874192  0.581401  1
  Y  Y1  1  0.125808  0.626283  0.418599  1
  Y  Y2  1  0.625808  0.126283  0.081401  1
  Y  Y3  1  0.873717  0.374192  0.918599  1
  Y  Y4  1  0.626283  0.125808  0.418599  1
  Y  Y5  1  0.874192  0.373717  0.581401  1
  Y  Y6  1  0.374192  0.873717  0.918599  1
  Y  Y7  1  0.126283  0.625808  0.081401  1
  Si  Si8  1  0.652137  0.095242  0.693582  1
  Si  Si9  1  0.904758  0.347863  0.306418  1
  Si  Si10  1  0.404758  0.847863  0.193582  1
  Si  Si11  1  0.152137  0.595242  0.806418  1
  Si  Si12  1  0.347863  0.904758  0.306418  1
  Si  Si13  1  0.095242  0.652137  0.693582  1
  Si  Si14  1  0.595242  0.152137  0.806418  1
  Si  Si15  1  0.847863  0.404758  0.193582  1
  Si  Si16  1  0.375931  0.375931  0.964414  1
  Si  Si17  1  0.624069  0.624069  0.035586  1
  Si  Si18  1  0.124069  0.124069  0.464414  1
  Si  Si19  1  0.875931  0.875931  0.535586  1
  Si  Si20  1  0.374090  0.374090  0.531365  1
  Si  Si21  1  0.625910  0.625910  0.468635  1
  Si  Si22  1  0.125910  0.125910  0.031365  1
  Si  Si23  1  0.874090  0.874090  0.968635  1
  Si  Si24  1  0.154245  0.154245  0.806510  1
  Si  Si25  1  0.845755  0.845755  0.193490  1
  Si  Si26  1  0.345755  0.345755  0.306510  1
  Si  Si27  1  0.654245  0.654245  0.693490  1
  Si  Si28  1  0.093615  0.093615  0.693447  1
  Si  Si29  1  0.906385  0.906385  0.306553  1
  Si  Si30  1  0.406385  0.406385  0.193447  1
  Si  Si31  1  0.593615  0.593615  0.806553  1
  Ir  Ir32  1  0.374328  0.374328  0.643487  1
  Ir  Ir33  1  0.625672  0.625672  0.356513  1
  Ir  Ir34  1  0.125672  0.125672  0.143487  1
  Ir  Ir35  1  0.874328  0.874328  0.856513  1
