# generated using pymatgen
data_Li3Pr5Nd3Si12Au
_symmetry_space_group_name_H-M   'P 1'
_cell_length_a   8.31553000
_cell_length_b   8.31552980
_cell_length_c   8.52229700
_cell_angle_alpha   90.00000000
_cell_angle_beta   90.00000000
_cell_angle_gamma   120.00000078
_symmetry_Int_Tables_number   1
_chemical_formula_structural   Li3Pr5Nd3Si12Au
_chemical_formula_sum   'Li3 Pr5 Nd3 Si12 Au1'
_cell_volume   510.34886431
_cell_formula_units_Z   1
loop_
 _symmetry_equiv_pos_site_id
 _symmetry_equiv_pos_as_xyz
  1  'x, y, z'
loop_
 _atom_site_type_symbol
 _atom_site_label
 _atom_site_symmetry_multiplicity
 _atom_site_fract_x
 _atom_site_fract_y
 _atom_site_fract_z
 _atom_site_occupancy
  Li  Li0  1  0.666667  0.333333  0.503781  1
  Li  Li1  1  0.333333  0.666667  0.492967  1
  Li  Li2  1  0.333333  0.666667  0.005975  1
  Pr  Pr3  1  0.000000  0.000000  0.747652  1
  Pr  Pr4  1  0.000000  0.000000  0.252187  1
  Pr  Pr5  1  0.498918  0.501082  0.747969  1
  Pr  Pr6  1  0.498918  0.997838  0.747969  1
  Pr  Pr7  1  0.002162  0.501082  0.747969  1
  Nd  Nd8  1  0.501122  0.498878  0.251887  1
  Nd  Nd9  1  0.997755  0.498878  0.251887  1
  Nd  Nd10  1  0.501122  0.002245  0.251887  1
  Si  Si11  1  0.836985  0.163015  0.001852  1
  Si  Si12  1  0.836985  0.673969  0.001852  1
  Si  Si13  1  0.326031  0.163015  0.001852  1
  Si  Si14  1  0.833646  0.166354  0.498752  1
  Si  Si15  1  0.833646  0.667293  0.498752  1
  Si  Si16  1  0.332707  0.166354  0.498752  1
  Si  Si17  1  0.165734  0.834266  0.499103  1
  Si  Si18  1  0.668533  0.834266  0.499103  1
  Si  Si19  1  0.165734  0.331467  0.499103  1
  Si  Si20  1  0.166559  0.833441  0.000400  1
  Si  Si21  1  0.666881  0.833441  0.000400  1
  Si  Si22  1  0.166559  0.333119  0.000400  1
  Au  Au23  1  0.666667  0.333333  0.997550  1
