# generated using pymatgen
data_Ce2Al9TcNi2
_symmetry_space_group_name_H-M   'P 1'
_cell_length_a   7.52174272
_cell_length_b   7.52174285
_cell_length_c   9.36942500
_cell_angle_alpha   90.00000000
_cell_angle_beta   90.00000000
_cell_angle_gamma   117.96777148
_symmetry_Int_Tables_number   1
_chemical_formula_structural   Ce2Al9TcNi2
_chemical_formula_sum   'Ce4 Al18 Tc2 Ni4'
_cell_volume   468.18190480
_cell_formula_units_Z   2
loop_
 _symmetry_equiv_pos_site_id
 _symmetry_equiv_pos_as_xyz
  1  'x, y, z'
loop_
 _atom_site_type_symbol
 _atom_site_label
 _atom_site_symmetry_multiplicity
 _atom_site_fract_x
 _atom_site_fract_y
 _atom_site_fract_z
 _atom_site_occupancy
  Ce  Ce0  1  0.996103  0.689778  0.250000  1
  Ce  Ce1  1  0.003897  0.310222  0.750000  1
  Ce  Ce2  1  0.689778  0.996103  0.250000  1
  Ce  Ce3  1  0.310222  0.003897  0.750000  1
  Al  Al4  1  0.002089  0.344584  0.076980  1
  Al  Al5  1  0.997911  0.655416  0.923020  1
  Al  Al6  1  0.997911  0.655416  0.576980  1
  Al  Al7  1  0.344584  0.002089  0.423020  1
  Al  Al8  1  0.002089  0.344584  0.423020  1
  Al  Al9  1  0.655416  0.997911  0.576980  1
  Al  Al10  1  0.655416  0.997911  0.923020  1
  Al  Al11  1  0.344584  0.002089  0.076980  1
  Al  Al12  1  0.335865  0.335865  0.540302  1
  Al  Al13  1  0.664135  0.664135  0.459698  1
  Al  Al14  1  0.664135  0.664135  0.040302  1
  Al  Al15  1  0.335865  0.335865  0.959698  1
  Al  Al16  1  0.146482  0.146482  0.250000  1
  Al  Al17  1  0.853518  0.853518  0.750000  1
  Al  Al18  1  0.349462  0.564379  0.250000  1
  Al  Al19  1  0.650538  0.435621  0.750000  1
  Al  Al20  1  0.564379  0.349462  0.250000  1
  Al  Al21  1  0.435621  0.650538  0.750000  1
  Tc  Tc22  1  0.000000  0.000000  0.000000  1
  Tc  Tc23  1  0.000000  0.000000  0.500000  1
  Ni  Ni24  1  0.670749  0.329251  0.000000  1
  Ni  Ni25  1  0.329251  0.670749  0.000000  1
  Ni  Ni26  1  0.329251  0.670749  0.500000  1
  Ni  Ni27  1  0.670749  0.329251  0.500000  1
