# generated using pymatgen
data_EuCu9Si4
_symmetry_space_group_name_H-M   'P 1'
_cell_length_a   8.17305098
_cell_length_b   8.17305084
_cell_length_c   8.17305086
_cell_angle_alpha   120.51175740
_cell_angle_beta   120.51176189
_cell_angle_gamma   89.11586928
_symmetry_Int_Tables_number   1
_chemical_formula_structural   EuCu9Si4
_chemical_formula_sum   'Eu2 Cu18 Si8'
_cell_volume   383.00911782
_cell_formula_units_Z   2
loop_
 _symmetry_equiv_pos_site_id
 _symmetry_equiv_pos_as_xyz
  1  'x, y, z'
loop_
 _atom_site_type_symbol
 _atom_site_label
 _atom_site_symmetry_multiplicity
 _atom_site_fract_x
 _atom_site_fract_y
 _atom_site_fract_z
 _atom_site_occupancy
  Eu  Eu0  1  0.750000  0.750000  0.000000  1
  Eu  Eu1  1  0.250000  0.250000  0.000000  1
  Cu  Cu2  1  0.066161  0.201977  0.268137  1
  Cu  Cu3  1  0.933839  0.798023  0.731863  1
  Cu  Cu4  1  0.566161  0.298023  0.864183  1
  Cu  Cu5  1  0.433839  0.701977  0.135817  1
  Cu  Cu6  1  0.798023  0.066161  0.864183  1
  Cu  Cu7  1  0.201977  0.933839  0.135817  1
  Cu  Cu8  1  0.701977  0.566161  0.268137  1
  Cu  Cu9  1  0.298023  0.433839  0.731863  1
  Cu  Cu10  1  0.441995  0.941995  0.748463  1
  Cu  Cu11  1  0.193532  0.693532  0.251537  1
  Cu  Cu12  1  0.941995  0.193532  0.500000  1
  Cu  Cu13  1  0.693532  0.441995  0.500000  1
  Cu  Cu14  1  0.558005  0.058005  0.251537  1
  Cu  Cu15  1  0.806468  0.306468  0.748463  1
  Cu  Cu16  1  0.058005  0.806468  0.500000  1
  Cu  Cu17  1  0.306468  0.558005  0.500000  1
  Cu  Cu18  1  0.000000  0.500000  0.500000  1
  Cu  Cu19  1  0.500000  0.000000  0.500000  1
  Si  Si20  1  0.056948  0.556948  0.849984  1
  Si  Si21  1  0.706965  0.206965  0.150016  1
  Si  Si22  1  0.556948  0.706965  0.500000  1
  Si  Si23  1  0.206965  0.056948  0.500000  1
  Si  Si24  1  0.943052  0.443052  0.150016  1
  Si  Si25  1  0.293035  0.793035  0.849984  1
  Si  Si26  1  0.443052  0.293035  0.500000  1
  Si  Si27  1  0.793035  0.943052  0.500000  1
