# generated using pymatgen
data_Pr8AlZn7(Ir3Rh)2
_symmetry_space_group_name_H-M   'P 1'
_cell_length_a   4.06549700
_cell_length_b   7.35405857
_cell_length_c   16.69520141
_cell_angle_alpha   90.14824539
_cell_angle_beta   90.00000000
_cell_angle_gamma   90.00000000
_symmetry_Int_Tables_number   1
_chemical_formula_structural   Pr8AlZn7(Ir3Rh)2
_chemical_formula_sum   'Pr8 Al1 Zn7 Ir6 Rh2'
_cell_volume   499.14984238
_cell_formula_units_Z   1
loop_
 _symmetry_equiv_pos_site_id
 _symmetry_equiv_pos_as_xyz
  1  'x, y, z'
loop_
 _atom_site_type_symbol
 _atom_site_label
 _atom_site_symmetry_multiplicity
 _atom_site_fract_x
 _atom_site_fract_y
 _atom_site_fract_z
 _atom_site_occupancy
  Pr  Pr0  1  0.750000  0.450302  0.217566  1
  Pr  Pr1  1  0.750000  0.953561  0.280018  1
  Pr  Pr2  1  0.750000  0.832103  0.059791  1
  Pr  Pr3  1  0.250000  0.047452  0.716954  1
  Pr  Pr4  1  0.250000  0.167838  0.939432  1
  Pr  Pr5  1  0.250000  0.546187  0.783814  1
  Pr  Pr6  1  0.750000  0.338709  0.439756  1
  Pr  Pr7  1  0.250000  0.666188  0.562770  1
  Al  Al8  1  0.250000  0.997365  0.438809  1
  Zn  Zn9  1  0.750000  0.499925  0.939991  1
  Zn  Zn10  1  0.750000  0.001815  0.562049  1
  Zn  Zn11  1  0.250000  0.626502  0.348809  1
  Zn  Zn12  1  0.750000  0.372727  0.649749  1
  Zn  Zn13  1  0.750000  0.874836  0.849374  1
  Zn  Zn14  1  0.250000  0.497957  0.059823  1
  Zn  Zn15  1  0.250000  0.126313  0.148975  1
  Ir  Ir16  1  0.250000  0.236010  0.562091  1
  Ir  Ir17  1  0.750000  0.257436  0.065933  1
  Ir  Ir18  1  0.250000  0.237097  0.317782  1
  Ir  Ir19  1  0.750000  0.254346  0.813618  1
  Ir  Ir20  1  0.750000  0.753012  0.686813  1
  Ir  Ir21  1  0.750000  0.774965  0.434865  1
  Rh  Rh22  1  0.250000  0.743207  0.935242  1
  Rh  Rh23  1  0.250000  0.744148  0.185980  1
