# generated using pymatgen
data_La(YbRh)2
_symmetry_space_group_name_H-M   'P 1'
_cell_length_a   7.45220044
_cell_length_b   7.45219998
_cell_length_c   7.45220066
_cell_angle_alpha   71.61650497
_cell_angle_beta   71.61650616
_cell_angle_gamma   71.61649897
_symmetry_Int_Tables_number   1
_chemical_formula_structural   La(YbRh)2
_chemical_formula_sum   'La3 Yb6 Rh6'
_cell_volume   361.82598560
_cell_formula_units_Z   3
loop_
 _symmetry_equiv_pos_site_id
 _symmetry_equiv_pos_as_xyz
  1  'x, y, z'
loop_
 _atom_site_type_symbol
 _atom_site_label
 _atom_site_symmetry_multiplicity
 _atom_site_fract_x
 _atom_site_fract_y
 _atom_site_fract_z
 _atom_site_occupancy
  La  La0  1  0.850941  0.607916  0.321220  1
  La  La1  1  0.321220  0.850941  0.607916  1
  La  La2  1  0.607916  0.321220  0.850941  1
  Yb  Yb3  1  0.003198  0.003198  0.003198  1
  Yb  Yb4  1  0.799151  0.799151  0.799151  1
  Yb  Yb5  1  0.197771  0.197771  0.197771  1
  Yb  Yb6  1  0.152335  0.396444  0.674256  1
  Yb  Yb7  1  0.674256  0.152335  0.396444  1
  Yb  Yb8  1  0.396444  0.674256  0.152335  1
  Rh  Rh9  1  0.953400  0.165709  0.586469  1
  Rh  Rh10  1  0.586469  0.953400  0.165709  1
  Rh  Rh11  1  0.165709  0.586469  0.953400  1
  Rh  Rh12  1  0.042974  0.834301  0.413915  1
  Rh  Rh13  1  0.413915  0.042974  0.834301  1
  Rh  Rh14  1  0.834301  0.413915  0.042974  1
