# generated using pymatgen
data_TaSi2MoIr2
_symmetry_space_group_name_H-M   'P 1'
_cell_length_a   3.83088700
_cell_length_b   6.36570800
_cell_length_c   7.24229000
_cell_angle_alpha   90.00000000
_cell_angle_beta   90.00000000
_cell_angle_gamma   90.00000000
_symmetry_Int_Tables_number   1
_chemical_formula_structural   TaSi2MoIr2
_chemical_formula_sum   'Ta2 Si4 Mo2 Ir4'
_cell_volume   176.61271473
_cell_formula_units_Z   2
loop_
 _symmetry_equiv_pos_site_id
 _symmetry_equiv_pos_as_xyz
  1  'x, y, z'
loop_
 _atom_site_type_symbol
 _atom_site_label
 _atom_site_symmetry_multiplicity
 _atom_site_fract_x
 _atom_site_fract_y
 _atom_site_fract_z
 _atom_site_occupancy
  Ta  Ta0  1  0.750000  0.022257  0.670903  1
  Ta  Ta1  1  0.250000  0.477743  0.170903  1
  Si  Si2  1  0.250000  0.238276  0.874204  1
  Si  Si3  1  0.250000  0.728058  0.624756  1
  Si  Si4  1  0.750000  0.771942  0.124756  1
  Si  Si5  1  0.750000  0.261724  0.374204  1
  Mo  Mo6  1  0.750000  0.528686  0.832762  1
  Mo  Mo7  1  0.250000  0.971314  0.332762  1
  Ir  Ir8  1  0.250000  0.855474  0.935268  1
  Ir  Ir9  1  0.250000  0.351292  0.562107  1
  Ir  Ir10  1  0.750000  0.644526  0.435268  1
  Ir  Ir11  1  0.750000  0.148708  0.062107  1
