# generated using pymatgen
data_MnAgF6
_symmetry_space_group_name_H-M   'P 1'
_cell_length_a   5.13134668
_cell_length_b   5.32143557
_cell_length_c   5.72194200
_cell_angle_alpha   94.08181083
_cell_angle_beta   117.19884589
_cell_angle_gamma   118.69592422
_symmetry_Int_Tables_number   1
_chemical_formula_structural   MnAgF6
_chemical_formula_sum   'Mn1 Ag1 F6'
_cell_volume   113.12461974
_cell_formula_units_Z   1
loop_
 _symmetry_equiv_pos_site_id
 _symmetry_equiv_pos_as_xyz
  1  'x, y, z'
loop_
 _atom_site_type_symbol
 _atom_site_label
 _atom_site_symmetry_multiplicity
 _atom_site_fract_x
 _atom_site_fract_y
 _atom_site_fract_z
 _atom_site_occupancy
  Mn  Mn0  1  0.000000  0.500000  0.500000  1
  Ag  Ag1  1  0.000000  0.000000  0.000000  1
  F  F2  1  0.845388  0.695631  0.285123  1
  F  F3  1  0.154612  0.304369  0.714877  1
  F  F4  1  0.457119  0.870922  0.728277  1
  F  F5  1  0.542881  0.129078  0.271723  1
  F  F6  1  0.871916  0.592516  0.734257  1
  F  F7  1  0.128084  0.407484  0.265743  1
