# generated using pymatgen
data_TbY5Al21Si3Os8
_symmetry_space_group_name_H-M   'P 1'
_cell_length_a   8.73236000
_cell_length_b   8.73236095
_cell_length_c   9.66373100
_cell_angle_alpha   90.00086510
_cell_angle_beta   89.99913415
_cell_angle_gamma   119.99700033
_symmetry_Int_Tables_number   1
_chemical_formula_structural   TbY5Al21Si3Os8
_chemical_formula_sum   'Tb1 Y5 Al21 Si3 Os8'
_cell_volume   638.19280116
_cell_formula_units_Z   1
loop_
 _symmetry_equiv_pos_site_id
 _symmetry_equiv_pos_as_xyz
  1  'x, y, z'
loop_
 _atom_site_type_symbol
 _atom_site_label
 _atom_site_symmetry_multiplicity
 _atom_site_fract_x
 _atom_site_fract_y
 _atom_site_fract_z
 _atom_site_occupancy
  Tb  Tb0  1  0.804990  0.195010  0.752931  1
  Y  Y1  1  0.194687  0.389338  0.247414  1
  Y  Y2  1  0.804844  0.609749  0.752929  1
  Y  Y3  1  0.610662  0.805313  0.247414  1
  Y  Y4  1  0.390251  0.195156  0.752929  1
  Y  Y5  1  0.194664  0.805336  0.247416  1
  Al  Al6  1  0.333346  0.666654  0.476959  1
  Al  Al7  1  0.164237  0.328417  0.573749  1
  Al  Al8  1  0.834920  0.669877  0.424101  1
  Al  Al9  1  0.671583  0.835763  0.573749  1
  Al  Al10  1  0.834824  0.669690  0.076415  1
  Al  Al11  1  0.330123  0.165080  0.424101  1
  Al  Al12  1  0.165494  0.330920  0.923140  1
  Al  Al13  1  0.164202  0.835798  0.573738  1
  Al  Al14  1  0.330310  0.165176  0.076415  1
  Al  Al15  1  0.834954  0.165046  0.424098  1
  Al  Al16  1  0.669080  0.834506  0.923140  1
  Al  Al17  1  0.834856  0.165144  0.076427  1
  Al  Al18  1  0.165456  0.834544  0.923153  1
  Al  Al19  1  0.563589  0.127189  0.248792  1
  Al  Al20  1  0.436694  0.873437  0.748770  1
  Al  Al21  1  0.872811  0.436411  0.248792  1
  Al  Al22  1  0.126563  0.563306  0.748770  1
  Al  Al23  1  0.563586  0.436414  0.248791  1
  Al  Al24  1  0.436766  0.563234  0.748770  1
  Al  Al25  1  0.999998  0.000002  0.248905  1
  Al  Al26  1  0.999974  0.000026  0.749660  1
  Si  Si27  1  0.333338  0.666662  0.038563  1
  Si  Si28  1  0.666610  0.333390  0.962596  1
  Si  Si29  1  0.666612  0.333388  0.538652  1
  Os  Os30  1  0.499896  0.999868  0.998833  1
  Os  Os31  1  0.000132  0.500104  0.998833  1
  Os  Os32  1  0.504246  0.008549  0.501284  1
  Os  Os33  1  0.499935  0.500065  0.998852  1
  Os  Os34  1  0.991451  0.495754  0.501284  1
  Os  Os35  1  0.504267  0.495733  0.501268  1
  Os  Os36  1  0.000024  0.999976  0.999050  1
  Os  Os37  1  0.000024  0.999976  0.499311  1
