# generated using pymatgen
data_Tb7ErSe12
_symmetry_space_group_name_H-M   'P 1'
_cell_length_a   7.14509392
_cell_length_b   7.13027530
_cell_length_c   13.00104167
_cell_angle_alpha   100.67134144
_cell_angle_beta   100.70828819
_cell_angle_gamma   108.91817516
_symmetry_Int_Tables_number   1
_chemical_formula_structural   Tb7ErSe12
_chemical_formula_sum   'Tb7 Er1 Se12'
_cell_volume   593.82011654
_cell_formula_units_Z   1
loop_
 _symmetry_equiv_pos_site_id
 _symmetry_equiv_pos_as_xyz
  1  'x, y, z'
loop_
 _atom_site_type_symbol
 _atom_site_label
 _atom_site_symmetry_multiplicity
 _atom_site_fract_x
 _atom_site_fract_y
 _atom_site_fract_z
 _atom_site_occupancy
  Tb  Tb0  1  0.040884  0.790821  0.081675  1
  Tb  Tb1  1  0.621851  0.871843  0.243702  1
  Tb  Tb2  1  0.127227  0.377228  0.254448  1
  Tb  Tb3  1  0.208916  0.958895  0.417811  1
  Tb  Tb4  1  0.791228  0.041289  0.582432  1
  Tb  Tb5  1  0.872653  0.622646  0.745289  1
  Tb  Tb6  1  0.377836  0.127922  0.755762  1
  Er  Er7  1  0.958623  0.208699  0.917452  1
  Se  Se8  1  0.806178  0.049989  0.086636  1
  Se  Se9  1  0.280577  0.536593  0.086712  1
  Se  Se10  1  0.366537  0.116229  0.249997  1
  Se  Se11  1  0.883476  0.633746  0.249911  1
  Se  Se12  1  0.950714  0.194350  0.411615  1
  Se  Se13  1  0.460986  0.717175  0.411582  1
  Se  Se14  1  0.539246  0.283157  0.588363  1
  Se  Se15  1  0.049051  0.805366  0.588330  1
  Se  Se16  1  0.115392  0.365529  0.752005  1
  Se  Se17  1  0.636577  0.886462  0.751946  1
  Se  Se18  1  0.719923  0.457614  0.912137  1
  Se  Se19  1  0.192128  0.954447  0.912193  1
