# generated using pymatgen
data_Tb2Mn2Al20IrRh
_symmetry_space_group_name_H-M   'P 1'
_cell_length_a   6.81809923
_cell_length_b   6.82341976
_cell_length_c   9.10535571
_cell_angle_alpha   90.42871002
_cell_angle_beta   90.36209394
_cell_angle_gamma   96.74244212
_symmetry_Int_Tables_number   1
_chemical_formula_structural   Tb2Mn2Al20IrRh
_chemical_formula_sum   'Tb2 Mn2 Al20 Ir1 Rh1'
_cell_volume   420.65370696
_cell_formula_units_Z   1
loop_
 _symmetry_equiv_pos_site_id
 _symmetry_equiv_pos_as_xyz
  1  'x, y, z'
loop_
 _atom_site_type_symbol
 _atom_site_label
 _atom_site_symmetry_multiplicity
 _atom_site_fract_x
 _atom_site_fract_y
 _atom_site_fract_z
 _atom_site_occupancy
  Tb  Tb0  1  0.872709  0.127001  0.749994  1
  Tb  Tb1  1  0.127291  0.872999  0.250006  1
  Mn  Mn2  1  0.000000  0.500000  0.000000  1
  Mn  Mn3  1  0.500000  0.000000  0.500000  1
  Al  Al4  1  0.619169  0.372231  0.548822  1
  Al  Al5  1  0.380831  0.627769  0.451178  1
  Al  Al6  1  0.372110  0.619297  0.048107  1
  Al  Al7  1  0.627890  0.380703  0.951893  1
  Al  Al8  1  0.229261  0.221883  0.496106  1
  Al  Al9  1  0.770739  0.778117  0.503894  1
  Al  Al10  1  0.779421  0.771277  0.003215  1
  Al  Al11  1  0.220579  0.228723  0.996785  1
  Al  Al12  1  0.848000  0.162695  0.099219  1
  Al  Al13  1  0.152000  0.837305  0.900781  1
  Al  Al14  1  0.162551  0.847339  0.599268  1
  Al  Al15  1  0.837449  0.152661  0.400732  1
  Al  Al16  1  0.860273  0.587125  0.753533  1
  Al  Al17  1  0.139727  0.412875  0.246467  1
  Al  Al18  1  0.411523  0.139530  0.745883  1
  Al  Al19  1  0.588477  0.860470  0.254117  1
  Al  Al20  1  0.220812  0.479799  0.756458  1
  Al  Al21  1  0.779188  0.520201  0.243542  1
  Al  Al22  1  0.520292  0.780589  0.743652  1
  Al  Al23  1  0.479708  0.219411  0.256348  1
  Ir  Ir24  1  0.500000  0.000000  0.000000  1
  Rh  Rh25  1  0.000000  0.500000  0.500000  1
