# generated using pymatgen
data_Sc4Co10P12Ir9Rh
_symmetry_space_group_name_H-M   'P 1'
_cell_length_a   3.75399200
_cell_length_b   10.45779135
_cell_length_c   12.07976539
_cell_angle_alpha   89.97059705
_cell_angle_beta   90.00000000
_cell_angle_gamma   90.00000000
_symmetry_Int_Tables_number   1
_chemical_formula_structural   Sc4Co10P12Ir9Rh
_chemical_formula_sum   'Sc4 Co10 P12 Ir9 Rh1'
_cell_volume   474.23298516
_cell_formula_units_Z   1
loop_
 _symmetry_equiv_pos_site_id
 _symmetry_equiv_pos_as_xyz
  1  'x, y, z'
loop_
 _atom_site_type_symbol
 _atom_site_label
 _atom_site_symmetry_multiplicity
 _atom_site_fract_x
 _atom_site_fract_y
 _atom_site_fract_z
 _atom_site_occupancy
  Sc  Sc0  1  0.250000  0.588202  0.714783  1
  Sc  Sc1  1  0.250000  0.912900  0.213924  1
  Sc  Sc2  1  0.750000  0.422066  0.288909  1
  Sc  Sc3  1  0.750000  0.078445  0.789982  1
  Co  Co4  1  0.750000  0.775402  0.823328  1
  Co  Co5  1  0.750000  0.724131  0.323314  1
  Co  Co6  1  0.250000  0.876914  0.696750  1
  Co  Co7  1  0.250000  0.622330  0.196188  1
  Co  Co8  1  0.750000  0.107781  0.301243  1
  Co  Co9  1  0.750000  0.388779  0.801397  1
  Co  Co10  1  0.250000  0.463724  0.930787  1
  Co  Co11  1  0.250000  0.037495  0.432732  1
  Co  Co12  1  0.750000  0.539744  0.067777  1
  Co  Co13  1  0.750000  0.961776  0.568589  1
  P  P14  1  0.250000  0.432491  0.112123  1
  P  P15  1  0.250000  0.066163  0.613980  1
  P  P16  1  0.750000  0.577192  0.886689  1
  P  P17  1  0.750000  0.921339  0.387519  1
  P  P18  1  0.250000  0.271053  0.868972  1
  P  P19  1  0.250000  0.228906  0.369473  1
  P  P20  1  0.750000  0.728398  0.141424  1
  P  P21  1  0.750000  0.771653  0.641228  1
  P  P22  1  0.250000  0.604017  0.373803  1
  P  P23  1  0.250000  0.896207  0.874506  1
  P  P24  1  0.750000  0.407378  0.622613  1
  P  P25  1  0.750000  0.093545  0.121229  1
  Ir  Ir26  1  0.250000  0.713164  0.983062  1
  Ir  Ir27  1  0.250000  0.786477  0.482957  1
  Ir  Ir28  1  0.750000  0.223526  0.505660  1
  Ir  Ir29  1  0.250000  0.415135  0.472675  1
  Ir  Ir30  1  0.250000  0.085968  0.972663  1
  Ir  Ir31  1  0.750000  0.596890  0.525686  1
  Ir  Ir32  1  0.750000  0.902405  0.026093  1
  Ir  Ir33  1  0.250000  0.227513  0.180945  1
  Ir  Ir34  1  0.250000  0.271819  0.678404  1
  Rh  Rh35  1  0.750000  0.279071  0.008591  1
