# generated using pymatgen
data_La16YbSm3Sn16
_symmetry_space_group_name_H-M   'P 1'
_cell_length_a   8.41683500
_cell_length_b   8.57603781
_cell_length_c   16.32017800
_cell_angle_alpha   90.00000000
_cell_angle_beta   90.00000000
_cell_angle_gamma   89.96278062
_symmetry_Int_Tables_number   1
_chemical_formula_structural   La16YbSm3Sn16
_chemical_formula_sum   'La16 Yb1 Sm3 Sn16'
_cell_volume   1178.04071363
_cell_formula_units_Z   1
loop_
 _symmetry_equiv_pos_site_id
 _symmetry_equiv_pos_as_xyz
  1  'x, y, z'
loop_
 _atom_site_type_symbol
 _atom_site_label
 _atom_site_symmetry_multiplicity
 _atom_site_fract_x
 _atom_site_fract_y
 _atom_site_fract_z
 _atom_site_occupancy
  La  La0  1  0.368242  0.839334  0.880750  1
  La  La1  1  0.869041  0.660219  0.619115  1
  La  La2  1  0.628030  0.159805  0.380741  1
  La  La3  1  0.131481  0.338364  0.118975  1
  La  La4  1  0.628030  0.159805  0.119259  1
  La  La5  1  0.131481  0.338364  0.381025  1
  La  La6  1  0.368242  0.839334  0.619250  1
  La  La7  1  0.869041  0.660219  0.880885  1
  La  La8  1  0.520039  0.318722  0.901320  1
  La  La9  1  0.020204  0.181250  0.598609  1
  La  La10  1  0.480006  0.683149  0.401291  1
  La  La11  1  0.982107  0.818143  0.098418  1
  La  La12  1  0.480006  0.683149  0.098709  1
  La  La13  1  0.982107  0.818143  0.401582  1
  La  La14  1  0.520039  0.318722  0.598680  1
  La  La15  1  0.020204  0.181250  0.901391  1
  Yb  Yb16  1  0.298959  0.003436  0.250000  1
  Sm  Sm17  1  0.200608  0.501070  0.750000  1
  Sm  Sm18  1  0.701055  0.998691  0.750000  1
  Sm  Sm19  1  0.800323  0.499350  0.250000  1
  Sn  Sn20  1  0.289368  0.033845  0.043340  1
  Sn  Sn21  1  0.788848  0.466454  0.454628  1
  Sn  Sn22  1  0.710574  0.966458  0.544718  1
  Sn  Sn23  1  0.210649  0.533231  0.955222  1
  Sn  Sn24  1  0.710574  0.966458  0.955282  1
  Sn  Sn25  1  0.210649  0.533231  0.544778  1
  Sn  Sn26  1  0.289368  0.033845  0.456660  1
  Sn  Sn27  1  0.788848  0.466454  0.045372  1
  Sn  Sn28  1  0.566628  0.615950  0.750000  1
  Sn  Sn29  1  0.066308  0.884273  0.750000  1
  Sn  Sn30  1  0.432279  0.390156  0.250000  1
  Sn  Sn31  1  0.930300  0.113472  0.250000  1
  Sn  Sn32  1  0.323862  0.145845  0.750000  1
  Sn  Sn33  1  0.824063  0.353076  0.750000  1
  Sn  Sn34  1  0.681647  0.855032  0.250000  1
  Sn  Sn35  1  0.176790  0.641697  0.250000  1
