# generated using pymatgen
data_Pu2Th2B3C4
_symmetry_space_group_name_H-M   'P 1'
_cell_length_a   3.63463927
_cell_length_b   3.79414143
_cell_length_c   11.75005994
_cell_angle_alpha   90.78633576
_cell_angle_beta   99.10426206
_cell_angle_gamma   90.03803707
_symmetry_Int_Tables_number   1
_chemical_formula_structural   Pu2Th2B3C4
_chemical_formula_sum   'Pu2 Th2 B3 C4'
_cell_volume   159.98020145
_cell_formula_units_Z   1
loop_
 _symmetry_equiv_pos_site_id
 _symmetry_equiv_pos_as_xyz
  1  'x, y, z'
loop_
 _atom_site_type_symbol
 _atom_site_label
 _atom_site_symmetry_multiplicity
 _atom_site_fract_x
 _atom_site_fract_y
 _atom_site_fract_z
 _atom_site_occupancy
  Pu  Pu0  1  0.419136  0.516928  0.871435  1
  Pu  Pu1  1  0.580864  0.483072  0.128565  1
  Th  Th2  1  0.809311  0.007393  0.649068  1
  Th  Th3  1  0.190689  0.992607  0.350932  1
  B  B4  1  0.000000  0.000000  0.000000  1
  B  B5  1  0.237017  0.502180  0.541193  1
  B  B6  1  0.762983  0.497820  0.458807  1
  C  C7  1  0.921118  0.015477  0.872419  1
  C  C8  1  0.078882  0.984523  0.127581  1
  C  C9  1  0.320196  0.509083  0.675566  1
  C  C10  1  0.679804  0.490917  0.324434  1
