# generated using pymatgen
data_USe4
_symmetry_space_group_name_H-M   'P 1'
_cell_length_a   6.95452353
_cell_length_b   7.23102095
_cell_length_c   8.08081057
_cell_angle_alpha   66.28144241
_cell_angle_beta   69.50618021
_cell_angle_gamma   61.27621518
_symmetry_Int_Tables_number   1
_chemical_formula_structural   USe4
_chemical_formula_sum   'U2 Se8'
_cell_volume   319.98176146
_cell_formula_units_Z   2
loop_
 _symmetry_equiv_pos_site_id
 _symmetry_equiv_pos_as_xyz
  1  'x, y, z'
loop_
 _atom_site_type_symbol
 _atom_site_label
 _atom_site_symmetry_multiplicity
 _atom_site_fract_x
 _atom_site_fract_y
 _atom_site_fract_z
 _atom_site_occupancy
  U  U0  1  0.843162  0.314126  0.999928  1
  U  U1  1  0.156838  0.685874  0.000072  1
  Se  Se2  1  0.936245  0.897423  0.298275  1
  Se  Se3  1  0.063755  0.102577  0.701725  1
  Se  Se4  1  0.746109  0.036954  0.888964  1
  Se  Se5  1  0.253891  0.963046  0.111036  1
  Se  Se6  1  0.839068  0.518916  0.216399  1
  Se  Se7  1  0.160932  0.481084  0.783601  1
  Se  Se8  1  0.431372  0.333649  0.216513  1
  Se  Se9  1  0.568628  0.666351  0.783487  1
