# generated using pymatgen
data_La2Si5PPd21
_symmetry_space_group_name_H-M   'P 1'
_cell_length_a   8.71735482
_cell_length_b   8.71735486
_cell_length_c   8.70775900
_cell_angle_alpha   60.03641053
_cell_angle_beta   60.03641037
_cell_angle_gamma   59.92717950
_symmetry_Int_Tables_number   1
_chemical_formula_structural   La2Si5PPd21
_chemical_formula_sum   'La2 Si5 P1 Pd21'
_cell_volume   467.90727933
_cell_formula_units_Z   1
loop_
 _symmetry_equiv_pos_site_id
 _symmetry_equiv_pos_as_xyz
  1  'x, y, z'
loop_
 _atom_site_type_symbol
 _atom_site_label
 _atom_site_symmetry_multiplicity
 _atom_site_fract_x
 _atom_site_fract_y
 _atom_site_fract_z
 _atom_site_occupancy
  La  La0  1  0.749885  0.749885  0.750115  1
  La  La1  1  0.249885  0.249885  0.250115  1
  Si  Si2  1  0.263048  0.736078  0.263922  1
  Si  Si3  1  0.736078  0.263048  0.263922  1
  Si  Si4  1  0.263424  0.263424  0.736576  1
  Si  Si5  1  0.736078  0.263048  0.736952  1
  Si  Si6  1  0.263048  0.736078  0.736952  1
  P  P7  1  0.736502  0.736502  0.263498  1
  Pd  Pd8  1  0.000820  0.000820  0.999180  1
  Pd  Pd9  1  0.614580  0.614580  0.157983  1
  Pd  Pd10  1  0.614552  0.156922  0.614263  1
  Pd  Pd11  1  0.156922  0.614552  0.614263  1
  Pd  Pd12  1  0.614580  0.614580  0.612858  1
  Pd  Pd13  1  0.385737  0.385737  0.843078  1
  Pd  Pd14  1  0.387142  0.842017  0.385420  1
  Pd  Pd15  1  0.842017  0.387142  0.385420  1
  Pd  Pd16  1  0.385737  0.385737  0.385448  1
  Pd  Pd17  1  0.000395  0.000395  0.344515  1
  Pd  Pd18  1  0.656467  0.998402  0.343533  1
  Pd  Pd19  1  0.998402  0.656467  0.343533  1
  Pd  Pd20  1  0.655485  0.345305  0.999605  1
  Pd  Pd21  1  0.999769  0.344552  0.000231  1
  Pd  Pd22  1  0.999769  0.344552  0.655448  1
  Pd  Pd23  1  0.345305  0.655485  0.999605  1
  Pd  Pd24  1  0.344552  0.999769  0.655448  1
  Pd  Pd25  1  0.344552  0.999769  0.000231  1
  Pd  Pd26  1  0.000395  0.000395  0.654695  1
  Pd  Pd27  1  0.998402  0.656467  0.001598  1
  Pd  Pd28  1  0.656467  0.998402  0.001598  1
