# generated using pymatgen
data_CaDyCo5B4
_symmetry_space_group_name_H-M   'P 1'
_cell_length_a   7.04087140
_cell_length_b   5.89153509
_cell_length_c   5.26941122
_cell_angle_alpha   78.00584696
_cell_angle_beta   54.93438018
_cell_angle_gamma   47.05976327
_symmetry_Int_Tables_number   1
_chemical_formula_structural   CaDyCo5B4
_chemical_formula_sum   'Ca1 Dy1 Co5 B4'
_cell_volume   124.67544481
_cell_formula_units_Z   1
loop_
 _symmetry_equiv_pos_site_id
 _symmetry_equiv_pos_as_xyz
  1  'x, y, z'
loop_
 _atom_site_type_symbol
 _atom_site_label
 _atom_site_symmetry_multiplicity
 _atom_site_fract_x
 _atom_site_fract_y
 _atom_site_fract_z
 _atom_site_occupancy
  Ca  Ca0  1  0.145672  0.145674  0.854327  1
  Dy  Dy1  1  0.857020  0.857022  0.142979  1
  Co  Co2  1  0.500156  0.500157  0.999843  1
  Co  Co3  1  0.249195  0.249196  0.250805  1
  Co  Co4  1  0.000157  0.000157  0.499843  1
  Co  Co5  1  0.499329  0.499331  0.500671  1
  Co  Co6  1  0.749193  0.749196  0.750806  1
  B  B7  1  0.470700  0.788324  0.211677  1
  B  B8  1  0.210213  0.530033  0.469969  1
  B  B9  1  0.788322  0.470702  0.529300  1
  B  B10  1  0.530031  0.210215  0.789786  1
