# generated using pymatgen
data_Tm5Ga3P9Ir10Rh9
_symmetry_space_group_name_H-M   'P 1'
_cell_length_a   12.81979800
_cell_length_b   12.81979723
_cell_length_c   3.93156000
_cell_angle_alpha   90.00000000
_cell_angle_beta   90.00000000
_cell_angle_gamma   119.99999168
_symmetry_Int_Tables_number   1
_chemical_formula_structural   Tm5Ga3P9Ir10Rh9
_chemical_formula_sum   'Tm5 Ga3 P9 Ir10 Rh9'
_cell_volume   559.57449828
_cell_formula_units_Z   1
loop_
 _symmetry_equiv_pos_site_id
 _symmetry_equiv_pos_as_xyz
  1  'x, y, z'
loop_
 _atom_site_type_symbol
 _atom_site_label
 _atom_site_symmetry_multiplicity
 _atom_site_fract_x
 _atom_site_fract_y
 _atom_site_fract_z
 _atom_site_occupancy
  Tm  Tm0  1  0.333333  0.666667  0.500000  1
  Tm  Tm1  1  0.666667  0.333333  0.500000  1
  Tm  Tm2  1  0.180207  0.180207  0.000000  1
  Tm  Tm3  1  0.819793  0.000000  0.000000  1
  Tm  Tm4  1  0.000000  0.819793  0.000000  1
  Ga  Ga5  1  0.359975  0.359975  0.500000  1
  Ga  Ga6  1  0.640025  0.000000  0.500000  1
  Ga  Ga7  1  0.000000  0.640025  0.500000  1
  P  P8  1  0.311909  0.829168  0.000000  1
  P  P9  1  0.170832  0.482742  0.000000  1
  P  P10  1  0.517258  0.688091  0.000000  1
  P  P11  1  0.829168  0.311909  0.000000  1
  P  P12  1  0.482742  0.170832  0.000000  1
  P  P13  1  0.688091  0.517258  0.000000  1
  P  P14  1  0.819664  0.819664  0.500000  1
  P  P15  1  0.180336  0.000000  0.500000  1
  P  P16  1  0.000000  0.180336  0.500000  1
  Ir  Ir17  1  0.135176  0.639982  0.000000  1
  Ir  Ir18  1  0.360018  0.495194  0.000000  1
  Ir  Ir19  1  0.504806  0.864824  0.000000  1
  Ir  Ir20  1  0.639982  0.135176  0.000000  1
  Ir  Ir21  1  0.495194  0.360018  0.000000  1
  Ir  Ir22  1  0.864824  0.504806  0.000000  1
  Ir  Ir23  1  0.719392  0.719392  0.000000  1
  Ir  Ir24  1  0.280608  0.000000  0.000000  1
  Ir  Ir25  1  0.000000  0.280608  0.000000  1
  Ir  Ir26  1  0.000000  0.000000  0.500000  1
  Rh  Rh27  1  0.203220  0.825219  0.500000  1
  Rh  Rh28  1  0.174781  0.378001  0.500000  1
  Rh  Rh29  1  0.621999  0.796780  0.500000  1
  Rh  Rh30  1  0.825219  0.203220  0.500000  1
  Rh  Rh31  1  0.378001  0.174781  0.500000  1
  Rh  Rh32  1  0.796780  0.621999  0.500000  1
  Rh  Rh33  1  0.551733  0.551733  0.500000  1
  Rh  Rh34  1  0.448267  0.000000  0.500000  1
  Rh  Rh35  1  0.000000  0.448267  0.500000  1
