# generated using pymatgen
data_Tb3Sc3Al14(Si5Tc3)2
_symmetry_space_group_name_H-M   'P 1'
_cell_length_a   8.59757300
_cell_length_b   8.59757171
_cell_length_c   9.29768500
_cell_angle_alpha   90.00000000
_cell_angle_beta   90.00000000
_cell_angle_gamma   119.99999344
_symmetry_Int_Tables_number   1
_chemical_formula_structural   Tb3Sc3Al14(Si5Tc3)2
_chemical_formula_sum   'Tb3 Sc3 Al14 Si10 Tc6'
_cell_volume   595.19211275
_cell_formula_units_Z   1
loop_
 _symmetry_equiv_pos_site_id
 _symmetry_equiv_pos_as_xyz
  1  'x, y, z'
loop_
 _atom_site_type_symbol
 _atom_site_label
 _atom_site_symmetry_multiplicity
 _atom_site_fract_x
 _atom_site_fract_y
 _atom_site_fract_z
 _atom_site_occupancy
  Tb  Tb0  1  0.196741  0.803259  0.250000  1
  Tb  Tb1  1  0.196741  0.393482  0.250000  1
  Tb  Tb2  1  0.606518  0.803259  0.250000  1
  Sc  Sc3  1  0.798710  0.201290  0.750000  1
  Sc  Sc4  1  0.798710  0.597420  0.750000  1
  Sc  Sc5  1  0.402580  0.201290  0.750000  1
  Al  Al6  1  0.162611  0.837389  0.911613  1
  Al  Al7  1  0.162611  0.325222  0.911613  1
  Al  Al8  1  0.674778  0.837389  0.911613  1
  Al  Al9  1  0.834967  0.165033  0.076934  1
  Al  Al10  1  0.834967  0.669935  0.076934  1
  Al  Al11  1  0.330065  0.165033  0.076934  1
  Al  Al12  1  0.834967  0.165033  0.423066  1
  Al  Al13  1  0.834967  0.669935  0.423066  1
  Al  Al14  1  0.330065  0.165033  0.423066  1
  Al  Al15  1  0.162611  0.837389  0.588387  1
  Al  Al16  1  0.162611  0.325222  0.588387  1
  Al  Al17  1  0.674778  0.837389  0.588387  1
  Al  Al18  1  0.000000  0.000000  0.250000  1
  Al  Al19  1  0.000000  0.000000  0.750000  1
  Si  Si20  1  0.565867  0.434133  0.250000  1
  Si  Si21  1  0.565867  0.131737  0.250000  1
  Si  Si22  1  0.868263  0.434133  0.250000  1
  Si  Si23  1  0.436521  0.563479  0.750000  1
  Si  Si24  1  0.436521  0.873042  0.750000  1
  Si  Si25  1  0.126958  0.563479  0.750000  1
  Si  Si26  1  0.333333  0.666667  0.464438  1
  Si  Si27  1  0.666667  0.333333  0.550215  1
  Si  Si28  1  0.666667  0.333333  0.949785  1
  Si  Si29  1  0.333333  0.666667  0.035562  1
  Tc  Tc30  1  0.500711  0.499289  0.503577  1
  Tc  Tc31  1  0.500711  0.001421  0.503577  1
  Tc  Tc32  1  0.998579  0.499289  0.503577  1
  Tc  Tc33  1  0.500711  0.499289  0.996423  1
  Tc  Tc34  1  0.500711  0.001421  0.996423  1
  Tc  Tc35  1  0.998579  0.499289  0.996423  1
