# generated using pymatgen
data_Er4Hf3GaIr4
_symmetry_space_group_name_H-M   'P 1'
_cell_length_a   4.40864200
_cell_length_b   7.01473248
_cell_length_c   8.22222597
_cell_angle_alpha   93.32386720
_cell_angle_beta   90.00000000
_cell_angle_gamma   90.00000000
_symmetry_Int_Tables_number   1
_chemical_formula_structural   Er4Hf3GaIr4
_chemical_formula_sum   'Er4 Hf3 Ga1 Ir4'
_cell_volume   253.84823504
_cell_formula_units_Z   1
loop_
 _symmetry_equiv_pos_site_id
 _symmetry_equiv_pos_as_xyz
  1  'x, y, z'
loop_
 _atom_site_type_symbol
 _atom_site_label
 _atom_site_symmetry_multiplicity
 _atom_site_fract_x
 _atom_site_fract_y
 _atom_site_fract_z
 _atom_site_occupancy
  Er  Er0  1  0.250000  0.983628  0.314466  1
  Er  Er1  1  0.250000  0.462313  0.165035  1
  Er  Er2  1  0.750000  0.033799  0.687577  1
  Er  Er3  1  0.750000  0.503992  0.837616  1
  Hf  Hf4  1  0.250000  0.366840  0.571470  1
  Hf  Hf5  1  0.250000  0.859231  0.938121  1
  Hf  Hf6  1  0.750000  0.640712  0.427269  1
  Ga  Ga7  1  0.750000  0.143748  0.072002  1
  Ir  Ir8  1  0.250000  0.228982  0.875237  1
  Ir  Ir9  1  0.250000  0.743935  0.601643  1
  Ir  Ir10  1  0.750000  0.767116  0.113710  1
  Ir  Ir11  1  0.750000  0.265704  0.395854  1
