# generated using pymatgen
data_La11Nd5MgHg3Rh4
_symmetry_space_group_name_H-M   'P 1'
_cell_length_a   10.03974619
_cell_length_b   10.09074733
_cell_length_c   10.09074723
_cell_angle_alpha   59.93062248
_cell_angle_beta   59.83810060
_cell_angle_gamma   59.83810313
_symmetry_Int_Tables_number   1
_chemical_formula_structural   La11Nd5MgHg3Rh4
_chemical_formula_sum   'La11 Nd5 Mg1 Hg3 Rh4'
_cell_volume   720.70939743
_cell_formula_units_Z   1
loop_
 _symmetry_equiv_pos_site_id
 _symmetry_equiv_pos_as_xyz
  1  'x, y, z'
loop_
 _atom_site_type_symbol
 _atom_site_label
 _atom_site_symmetry_multiplicity
 _atom_site_fract_x
 _atom_site_fract_y
 _atom_site_fract_z
 _atom_site_occupancy
  La  La0  1  0.598186  0.596363  0.596363  1
  La  La1  1  0.598639  0.597502  0.206085  1
  La  La2  1  0.598639  0.206085  0.597502  1
  La  La3  1  0.197661  0.600554  0.600554  1
  La  La4  1  0.056618  0.443009  0.443009  1
  La  La5  1  0.438066  0.059895  0.059895  1
  La  La6  1  0.438548  0.061336  0.439315  1
  La  La7  1  0.055555  0.442683  0.057374  1
  La  La8  1  0.438548  0.439315  0.061336  1
  La  La9  1  0.055555  0.057374  0.442683  1
  La  La10  1  0.187443  0.814565  0.814565  1
  Nd  Nd11  1  0.812871  0.186374  0.186374  1
  Nd  Nd12  1  0.811964  0.187741  0.815461  1
  Nd  Nd13  1  0.185897  0.814251  0.186290  1
  Nd  Nd14  1  0.811964  0.815461  0.187741  1
  Nd  Nd15  1  0.185897  0.186290  0.814251  1
  Mg  Mg16  1  0.538438  0.820472  0.820472  1
  Hg  Hg17  1  0.830109  0.837121  0.837121  1
  Hg  Hg18  1  0.831525  0.837316  0.493824  1
  Hg  Hg19  1  0.831525  0.493824  0.837316  1
  Rh  Rh20  1  0.390206  0.391795  0.391795  1
  Rh  Rh21  1  0.390742  0.391774  0.826796  1
  Rh  Rh22  1  0.390742  0.826796  0.391774  1
  Rh  Rh23  1  0.824665  0.392104  0.392104  1
