# generated using pymatgen
data_Nd5(Sn5Rh2)2
_symmetry_space_group_name_H-M   'P 1'
_cell_length_a   14.23689800
_cell_length_b   14.23689800
_cell_length_c   4.62871800
_cell_angle_alpha   90.00000000
_cell_angle_beta   90.00000000
_cell_angle_gamma   90.00000000
_symmetry_Int_Tables_number   1
_chemical_formula_structural   Nd5(Sn5Rh2)2
_chemical_formula_sum   'Nd10 Sn20 Rh8'
_cell_volume   938.19144775
_cell_formula_units_Z   2
loop_
 _symmetry_equiv_pos_site_id
 _symmetry_equiv_pos_as_xyz
  1  'x, y, z'
loop_
 _atom_site_type_symbol
 _atom_site_label
 _atom_site_symmetry_multiplicity
 _atom_site_fract_x
 _atom_site_fract_y
 _atom_site_fract_z
 _atom_site_occupancy
  Nd  Nd0  1  0.500000  0.500000  0.000000  1
  Nd  Nd1  1  0.000000  0.000000  0.000000  1
  Nd  Nd2  1  0.677785  0.177785  0.500000  1
  Nd  Nd3  1  0.322215  0.822215  0.500000  1
  Nd  Nd4  1  0.177785  0.322215  0.500000  1
  Nd  Nd5  1  0.822215  0.677785  0.500000  1
  Nd  Nd6  1  0.888408  0.388408  0.500000  1
  Nd  Nd7  1  0.111592  0.611592  0.500000  1
  Nd  Nd8  1  0.388408  0.111592  0.500000  1
  Nd  Nd9  1  0.611592  0.888408  0.500000  1
  Sn  Sn10  1  0.569354  0.069354  0.000000  1
  Sn  Sn11  1  0.430646  0.930646  0.000000  1
  Sn  Sn12  1  0.069354  0.430646  0.000000  1
  Sn  Sn13  1  0.930646  0.569354  0.000000  1
  Sn  Sn14  1  0.653970  0.697904  0.000000  1
  Sn  Sn15  1  0.346030  0.302096  0.000000  1
  Sn  Sn16  1  0.153970  0.802096  0.000000  1
  Sn  Sn17  1  0.846030  0.197904  0.000000  1
  Sn  Sn18  1  0.302096  0.653970  0.000000  1
  Sn  Sn19  1  0.697904  0.346030  0.000000  1
  Sn  Sn20  1  0.197904  0.153970  0.000000  1
  Sn  Sn21  1  0.802096  0.846030  0.000000  1
  Sn  Sn22  1  0.663250  0.505188  0.500000  1
  Sn  Sn23  1  0.336750  0.494812  0.500000  1
  Sn  Sn24  1  0.163250  0.994812  0.500000  1
  Sn  Sn25  1  0.836750  0.005188  0.500000  1
  Sn  Sn26  1  0.494812  0.663250  0.500000  1
  Sn  Sn27  1  0.505188  0.336750  0.500000  1
  Sn  Sn28  1  0.005188  0.163250  0.500000  1
  Sn  Sn29  1  0.994812  0.836750  0.500000  1
  Rh  Rh30  1  0.746550  0.527774  0.000000  1
  Rh  Rh31  1  0.253450  0.472226  0.000000  1
  Rh  Rh32  1  0.246550  0.972226  0.000000  1
  Rh  Rh33  1  0.753450  0.027774  0.000000  1
  Rh  Rh34  1  0.472226  0.746550  0.000000  1
  Rh  Rh35  1  0.527774  0.253450  0.000000  1
  Rh  Rh36  1  0.027774  0.246550  0.000000  1
  Rh  Rh37  1  0.972226  0.753450  0.000000  1
