# generated using pymatgen
data_Hf6Mn5Si6Os
_symmetry_space_group_name_H-M   'P 1'
_cell_length_a   7.54521423
_cell_length_b   7.54326654
_cell_length_c   7.54326681
_cell_angle_alpha   126.92748678
_cell_angle_beta   126.02603284
_cell_angle_gamma   79.10209020
_symmetry_Int_Tables_number   1
_chemical_formula_structural   Hf6Mn5Si6Os
_chemical_formula_sum   'Hf6 Mn5 Si6 Os1'
_cell_volume   268.45319721
_cell_formula_units_Z   1
loop_
 _symmetry_equiv_pos_site_id
 _symmetry_equiv_pos_as_xyz
  1  'x, y, z'
loop_
 _atom_site_type_symbol
 _atom_site_label
 _atom_site_symmetry_multiplicity
 _atom_site_fract_x
 _atom_site_fract_y
 _atom_site_fract_z
 _atom_site_occupancy
  Hf  Hf0  1  0.547215  0.091304  0.043888  1
  Hf  Hf1  1  0.452785  0.496674  0.544089  1
  Hf  Hf2  1  0.953829  0.496392  0.042512  1
  Hf  Hf3  1  0.046171  0.088683  0.542564  1
  Hf  Hf4  1  0.748941  0.900895  0.649260  1
  Hf  Hf5  1  0.251059  0.900319  0.151954  1
  Mn  Mn6  1  0.125571  0.746923  0.623452  1
  Mn  Mn7  1  0.874429  0.497881  0.621352  1
  Mn  Mn8  1  0.625008  0.748616  0.121343  1
  Mn  Mn9  1  0.374992  0.496335  0.123608  1
  Mn  Mn10  1  0.500000  0.247116  0.747116  1
  Si  Si11  1  0.333602  0.830105  0.497734  1
  Si  Si12  1  0.666398  0.164131  0.496502  1
  Si  Si13  1  0.831573  0.825925  0.993189  1
  Si  Si14  1  0.168427  0.161616  0.994351  1
  Si  Si15  1  0.744840  0.501817  0.244954  1
  Si  Si16  1  0.255160  0.500114  0.756978  1
  Os  Os17  1  0.000000  0.249152  0.249152  1
