# generated using pymatgen
data_Y4Er4Be3Si12Pd
_symmetry_space_group_name_H-M   'P 1'
_cell_length_a   7.93729152
_cell_length_b   7.93729137
_cell_length_c   8.02704802
_cell_angle_alpha   90.00127121
_cell_angle_beta   89.99873674
_cell_angle_gamma   120.07143617
_symmetry_Int_Tables_number   1
_chemical_formula_structural   Y4Er4Be3Si12Pd
_chemical_formula_sum   'Y4 Er4 Be3 Si12 Pd1'
_cell_volume   437.64107368
_cell_formula_units_Z   1
loop_
 _symmetry_equiv_pos_site_id
 _symmetry_equiv_pos_as_xyz
  1  'x, y, z'
loop_
 _atom_site_type_symbol
 _atom_site_label
 _atom_site_symmetry_multiplicity
 _atom_site_fract_x
 _atom_site_fract_y
 _atom_site_fract_z
 _atom_site_occupancy
  Y  Y0  1  0.502355  0.497645  0.247575  1
  Y  Y1  1  0.501054  0.498946  0.752416  1
  Y  Y2  1  0.000077  0.999923  0.248689  1
  Y  Y3  1  0.000080  0.999920  0.751035  1
  Er  Er4  1  0.502250  0.004336  0.247880  1
  Er  Er5  1  0.500905  0.001628  0.752026  1
  Er  Er6  1  0.995664  0.497750  0.247880  1
  Er  Er7  1  0.998372  0.499095  0.752026  1
  Be  Be8  1  0.333051  0.666949  0.002959  1
  Be  Be9  1  0.666903  0.333097  0.997490  1
  Be  Be10  1  0.667008  0.332992  0.502620  1
  Si  Si11  1  0.171489  0.344558  0.000563  1
  Si  Si12  1  0.827796  0.653501  0.999387  1
  Si  Si13  1  0.655442  0.828511  0.000563  1
  Si  Si14  1  0.828280  0.655751  0.500309  1
  Si  Si15  1  0.346499  0.172204  0.999387  1
  Si  Si16  1  0.165616  0.332472  0.499959  1
  Si  Si17  1  0.172927  0.827073  0.000513  1
  Si  Si18  1  0.344249  0.171720  0.500309  1
  Si  Si19  1  0.826221  0.173779  0.999373  1
  Si  Si20  1  0.667528  0.834384  0.499959  1
  Si  Si21  1  0.827483  0.172517  0.500173  1
  Si  Si22  1  0.166100  0.833900  0.499893  1
  Pd  Pd23  1  0.332655  0.667345  0.497017  1
