# generated using pymatgen
data_Hf4MnFeSi4
_symmetry_space_group_name_H-M   'P 1'
_cell_length_a   5.26431361
_cell_length_b   5.26431349
_cell_length_c   9.41819029
_cell_angle_alpha   116.26606924
_cell_angle_beta   116.26606966
_cell_angle_gamma   43.41865972
_symmetry_Int_Tables_number   1
_chemical_formula_structural   Hf4MnFeSi4
_chemical_formula_sum   'Hf4 Mn1 Fe1 Si4'
_cell_volume   157.73733099
_cell_formula_units_Z   1
loop_
 _symmetry_equiv_pos_site_id
 _symmetry_equiv_pos_as_xyz
  1  'x, y, z'
loop_
 _atom_site_type_symbol
 _atom_site_label
 _atom_site_symmetry_multiplicity
 _atom_site_fract_x
 _atom_site_fract_y
 _atom_site_fract_z
 _atom_site_occupancy
  Hf  Hf0  1  0.187427  0.187427  0.102021  1
  Hf  Hf1  1  0.999768  0.999768  0.325974  1
  Hf  Hf2  1  0.002795  0.002795  0.674292  1
  Hf  Hf3  1  0.811691  0.811691  0.897535  1
  Mn  Mn4  1  0.722590  0.722590  0.372493  1
  Fe  Fe5  1  0.275282  0.275282  0.626916  1
  Si  Si6  1  0.486277  0.486277  0.122474  1
  Si  Si7  1  0.354995  0.354995  0.431684  1
  Si  Si8  1  0.646938  0.646938  0.571759  1
  Si  Si9  1  0.512238  0.512238  0.874852  1
