# generated using pymatgen
data_LaYb7(TmIr2)2
_symmetry_space_group_name_H-M   'P 1'
_cell_length_a   6.54701067
_cell_length_b   7.35539047
_cell_length_c   8.58887445
_cell_angle_alpha   96.97716729
_cell_angle_beta   112.72719759
_cell_angle_gamma   90.24240519
_symmetry_Int_Tables_number   1
_chemical_formula_structural   LaYb7(TmIr2)2
_chemical_formula_sum   'La1 Yb7 Tm2 Ir4'
_cell_volume   378.07312204
_cell_formula_units_Z   1
loop_
 _symmetry_equiv_pos_site_id
 _symmetry_equiv_pos_as_xyz
  1  'x, y, z'
loop_
 _atom_site_type_symbol
 _atom_site_label
 _atom_site_symmetry_multiplicity
 _atom_site_fract_x
 _atom_site_fract_y
 _atom_site_fract_z
 _atom_site_occupancy
  La  La0  1  0.978117  0.919041  0.174178  1
  Yb  Yb1  1  0.796748  0.575191  0.823085  1
  Yb  Yb2  1  0.025115  0.079738  0.820158  1
  Yb  Yb3  1  0.196912  0.421099  0.169567  1
  Yb  Yb4  1  0.637768  0.818627  0.434656  1
  Yb  Yb5  1  0.205357  0.678752  0.567533  1
  Yb  Yb6  1  0.365325  0.183331  0.569574  1
  Yb  Yb7  1  0.797341  0.319063  0.435136  1
  Tm  Tm8  1  0.431180  0.747858  0.996863  1
  Tm  Tm9  1  0.561790  0.251239  0.000485  1
  Ir  Ir10  1  0.812522  0.580273  0.209507  1
  Ir  Ir11  1  0.606903  0.927080  0.799333  1
  Ir  Ir12  1  0.190064  0.425676  0.790452  1
  Ir  Ir13  1  0.394860  0.073032  0.209474  1
