# generated using pymatgen
data_Li3Mn(NiAs)4
_symmetry_space_group_name_H-M   'P 1'
_cell_length_a   6.25229107
_cell_length_b   3.83489200
_cell_length_c   6.92895105
_cell_angle_alpha   90.00000000
_cell_angle_beta   90.01518307
_cell_angle_gamma   90.00000000
_symmetry_Int_Tables_number   1
_chemical_formula_structural   Li3Mn(NiAs)4
_chemical_formula_sum   'Li3 Mn1 Ni4 As4'
_cell_volume   166.13449030
_cell_formula_units_Z   1
loop_
 _symmetry_equiv_pos_site_id
 _symmetry_equiv_pos_as_xyz
  1  'x, y, z'
loop_
 _atom_site_type_symbol
 _atom_site_label
 _atom_site_symmetry_multiplicity
 _atom_site_fract_x
 _atom_site_fract_y
 _atom_site_fract_z
 _atom_site_occupancy
  Li  Li0  1  0.022447  0.250000  0.318842  1
  Li  Li1  1  0.516286  0.250000  0.180965  1
  Li  Li2  1  0.980869  0.750000  0.680997  1
  Mn  Mn3  1  0.477458  0.750000  0.823227  1
  Ni  Ni4  1  0.139995  0.250000  0.942680  1
  Ni  Ni5  1  0.647659  0.250000  0.554641  1
  Ni  Ni6  1  0.855744  0.750000  0.054205  1
  Ni  Ni7  1  0.358207  0.750000  0.443794  1
  As  As8  1  0.277072  0.250000  0.628190  1
  As  As9  1  0.762380  0.250000  0.876910  1
  As  As10  1  0.727599  0.750000  0.375608  1
  As  As11  1  0.234282  0.750000  0.119941  1
