# generated using pymatgen
data_Yb3Pr(OsRu3)2
_symmetry_space_group_name_H-M   'P 1'
_cell_length_a   5.31768530
_cell_length_b   5.31768471
_cell_length_c   8.95173946
_cell_angle_alpha   90.12034835
_cell_angle_beta   89.87965267
_cell_angle_gamma   121.58528624
_symmetry_Int_Tables_number   1
_chemical_formula_structural   Yb3Pr(OsRu3)2
_chemical_formula_sum   'Yb3 Pr1 Os2 Ru6'
_cell_volume   215.63555303
_cell_formula_units_Z   1
loop_
 _symmetry_equiv_pos_site_id
 _symmetry_equiv_pos_as_xyz
  1  'x, y, z'
loop_
 _atom_site_type_symbol
 _atom_site_label
 _atom_site_symmetry_multiplicity
 _atom_site_fract_x
 _atom_site_fract_y
 _atom_site_fract_z
 _atom_site_occupancy
  Yb  Yb0  1  0.665177  0.334823  0.569450  1
  Yb  Yb1  1  0.664859  0.335141  0.935983  1
  Yb  Yb2  1  0.330859  0.669141  0.062714  1
  Pr  Pr3  1  0.331109  0.668891  0.432853  1
  Os  Os4  1  0.174864  0.336525  0.753099  1
  Os  Os5  1  0.663475  0.825136  0.753099  1
  Ru  Ru6  1  0.990555  0.009445  0.501592  1
  Ru  Ru7  1  0.988258  0.011742  0.000191  1
  Ru  Ru8  1  0.837118  0.162882  0.244811  1
  Ru  Ru9  1  0.825658  0.648814  0.246972  1
  Ru  Ru10  1  0.351186  0.174342  0.246972  1
  Ru  Ru11  1  0.176882  0.823118  0.752261  1
