# generated using pymatgen
data_Sr3ZnPdO6
_symmetry_space_group_name_H-M   'P 1'
_cell_length_a   6.75881669
_cell_length_b   6.75881638
_cell_length_c   6.75881654
_cell_angle_alpha   91.90130828
_cell_angle_beta   91.90131215
_cell_angle_gamma   91.90132192
_symmetry_Int_Tables_number   1
_chemical_formula_structural   Sr3ZnPdO6
_chemical_formula_sum   'Sr6 Zn2 Pd2 O12'
_cell_volume   308.23203550
_cell_formula_units_Z   2
loop_
 _symmetry_equiv_pos_site_id
 _symmetry_equiv_pos_as_xyz
  1  'x, y, z'
loop_
 _atom_site_type_symbol
 _atom_site_label
 _atom_site_symmetry_multiplicity
 _atom_site_fract_x
 _atom_site_fract_y
 _atom_site_fract_z
 _atom_site_occupancy
  Sr  Sr0  1  0.614400  0.250000  0.885600  1
  Sr  Sr1  1  0.885600  0.614400  0.250000  1
  Sr  Sr2  1  0.750000  0.114400  0.385600  1
  Sr  Sr3  1  0.385600  0.750000  0.114400  1
  Sr  Sr4  1  0.114400  0.385600  0.750000  1
  Sr  Sr5  1  0.250000  0.885600  0.614400  1
  Zn  Zn6  1  0.250000  0.250000  0.250000  1
  Zn  Zn7  1  0.750000  0.750000  0.750000  1
  Pd  Pd8  1  0.000000  0.000000  0.000000  1
  Pd  Pd9  1  0.500000  0.500000  0.500000  1
  O  O10  1  0.592464  0.786232  0.459176  1
  O  O11  1  0.459176  0.592464  0.786232  1
  O  O12  1  0.786232  0.459176  0.592464  1
  O  O13  1  0.907536  0.040824  0.713768  1
  O  O14  1  0.713768  0.907536  0.040824  1
  O  O15  1  0.040824  0.713768  0.907536  1
  O  O16  1  0.407536  0.213768  0.540824  1
  O  O17  1  0.540824  0.407536  0.213768  1
  O  O18  1  0.213768  0.540824  0.407536  1
  O  O19  1  0.092464  0.959176  0.286232  1
  O  O20  1  0.959176  0.286232  0.092464  1
  O  O21  1  0.286232  0.092464  0.959176  1
