# generated using pymatgen
data_Tm20Si12F
_symmetry_space_group_name_H-M   'P 1'
_cell_length_a   14.46840700
_cell_length_b   6.19601492
_cell_length_c   8.29687906
_cell_angle_alpha   89.97550305
_cell_angle_beta   90.00000000
_cell_angle_gamma   90.00000000
_symmetry_Int_Tables_number   1
_chemical_formula_structural   Tm20Si12F
_chemical_formula_sum   'Tm20 Si12 F1'
_cell_volume   743.78581522
_cell_formula_units_Z   1
loop_
 _symmetry_equiv_pos_site_id
 _symmetry_equiv_pos_as_xyz
  1  'x, y, z'
loop_
 _atom_site_type_symbol
 _atom_site_label
 _atom_site_symmetry_multiplicity
 _atom_site_fract_x
 _atom_site_fract_y
 _atom_site_fract_z
 _atom_site_occupancy
  Tm  Tm0  1  0.667459  0.500000  0.500000  1
  Tm  Tm1  1  0.167641  0.500000  0.000000  1
  Tm  Tm2  1  0.832359  0.500000  0.000000  1
  Tm  Tm3  1  0.332541  0.500000  0.500000  1
  Tm  Tm4  1  0.833262  0.000000  0.000000  1
  Tm  Tm5  1  0.333942  0.000000  0.500000  1
  Tm  Tm6  1  0.666058  0.000000  0.500000  1
  Tm  Tm7  1  0.166738  0.000000  0.000000  1
  Tm  Tm8  1  0.500000  0.249425  0.756706  1
  Tm  Tm9  1  0.000000  0.248692  0.252660  1
  Tm  Tm10  1  0.620739  0.249781  0.122320  1
  Tm  Tm11  1  0.122988  0.243550  0.623686  1
  Tm  Tm12  1  0.877012  0.243550  0.623686  1
  Tm  Tm13  1  0.379261  0.249781  0.122320  1
  Tm  Tm14  1  0.000000  0.751308  0.747340  1
  Tm  Tm15  1  0.500000  0.750575  0.243294  1
  Tm  Tm16  1  0.877012  0.756450  0.376314  1
  Tm  Tm17  1  0.379261  0.750219  0.877680  1
  Tm  Tm18  1  0.620739  0.750219  0.877680  1
  Tm  Tm19  1  0.122988  0.756450  0.376314  1
  Si  Si20  1  0.000000  0.250313  0.892641  1
  Si  Si21  1  0.500000  0.250966  0.393991  1
  Si  Si22  1  0.804029  0.247385  0.304646  1
  Si  Si23  1  0.302988  0.248724  0.803847  1
  Si  Si24  1  0.697012  0.248724  0.803847  1
  Si  Si25  1  0.195971  0.247385  0.304646  1
  Si  Si26  1  0.500000  0.749034  0.606009  1
  Si  Si27  1  0.000000  0.749687  0.107359  1
  Si  Si28  1  0.697012  0.751276  0.196153  1
  Si  Si29  1  0.195971  0.752615  0.695354  1
  Si  Si30  1  0.804029  0.752615  0.695354  1
  Si  Si31  1  0.302988  0.751276  0.196153  1
  F  F32  1  0.000000  0.500000  0.500000  1
