# generated using pymatgen
data_Yb2Ag5Pd2
_symmetry_space_group_name_H-M   'P 1'
_cell_length_a   5.35983308
_cell_length_b   5.45896582
_cell_length_c   14.07190900
_cell_angle_alpha   90.00000000
_cell_angle_beta   90.00000000
_cell_angle_gamma   120.29610665
_symmetry_Int_Tables_number   1
_chemical_formula_structural   Yb2Ag5Pd2
_chemical_formula_sum   'Yb4 Ag10 Pd4'
_cell_volume   355.50172104
_cell_formula_units_Z   2
loop_
 _symmetry_equiv_pos_site_id
 _symmetry_equiv_pos_as_xyz
  1  'x, y, z'
loop_
 _atom_site_type_symbol
 _atom_site_label
 _atom_site_symmetry_multiplicity
 _atom_site_fract_x
 _atom_site_fract_y
 _atom_site_fract_z
 _atom_site_occupancy
  Yb  Yb0  1  0.320406  0.319566  0.125534  1
  Yb  Yb1  1  0.679594  0.680434  0.625534  1
  Yb  Yb2  1  0.320406  0.319566  0.374466  1
  Yb  Yb3  1  0.679594  0.680434  0.874466  1
  Ag  Ag4  1  0.326185  0.823949  0.250000  1
  Ag  Ag5  1  0.673815  0.176051  0.750000  1
  Ag  Ag6  1  0.983693  0.657805  0.077941  1
  Ag  Ag7  1  0.016307  0.342195  0.577941  1
  Ag  Ag8  1  0.666460  0.990880  0.422581  1
  Ag  Ag9  1  0.333540  0.009120  0.922581  1
  Ag  Ag10  1  0.016307  0.342195  0.922059  1
  Ag  Ag11  1  0.983693  0.657805  0.422059  1
  Ag  Ag12  1  0.333540  0.009120  0.577419  1
  Ag  Ag13  1  0.666460  0.990880  0.077419  1
  Pd  Pd14  1  0.827818  0.827424  0.250000  1
  Pd  Pd15  1  0.172182  0.172576  0.750000  1
  Pd  Pd16  1  0.824493  0.325847  0.250000  1
  Pd  Pd17  1  0.175507  0.674153  0.750000  1
