# generated using pymatgen
data_ErTh2Cu(Ni6B)2
_symmetry_space_group_name_H-M   'P 1'
_cell_length_a   4.96487534
_cell_length_b   4.98276888
_cell_length_c   11.04735300
_cell_angle_alpha   90.00000000
_cell_angle_beta   90.00000000
_cell_angle_gamma   120.15646865
_symmetry_Int_Tables_number   1
_chemical_formula_structural   ErTh2Cu(Ni6B)2
_chemical_formula_sum   'Er1 Th2 Cu1 Ni12 B2'
_cell_volume   236.30942793
_cell_formula_units_Z   1
loop_
 _symmetry_equiv_pos_site_id
 _symmetry_equiv_pos_as_xyz
  1  'x, y, z'
loop_
 _atom_site_type_symbol
 _atom_site_label
 _atom_site_symmetry_multiplicity
 _atom_site_fract_x
 _atom_site_fract_y
 _atom_site_fract_z
 _atom_site_occupancy
  Er  Er0  1  0.500000  0.000000  0.000000  1
  Th  Th1  1  0.500000  0.000000  0.676247  1
  Th  Th2  1  0.500000  0.000000  0.323753  1
  Cu  Cu3  1  0.500000  0.500000  0.500000  1
  Ni  Ni4  1  0.000000  0.000000  0.500000  1
  Ni  Ni5  1  0.000000  0.500000  0.500000  1
  Ni  Ni6  1  0.838600  0.669118  0.684007  1
  Ni  Ni7  1  0.161400  0.330882  0.684007  1
  Ni  Ni8  1  0.161400  0.330882  0.315993  1
  Ni  Ni9  1  0.838600  0.669118  0.315993  1
  Ni  Ni10  1  0.000000  0.000000  0.870506  1
  Ni  Ni11  1  0.500000  0.500000  0.870030  1
  Ni  Ni12  1  0.000000  0.500000  0.870710  1
  Ni  Ni13  1  0.000000  0.000000  0.129494  1
  Ni  Ni14  1  0.500000  0.500000  0.129970  1
  Ni  Ni15  1  0.000000  0.500000  0.129290  1
  B  B16  1  0.833281  0.666856  0.000000  1
  B  B17  1  0.166719  0.333144  0.000000  1
