# generated using pymatgen
data_Er2U(AlFe)3
_symmetry_space_group_name_H-M   'P 1'
_cell_length_a   6.65035764
_cell_length_b   6.65035803
_cell_length_c   3.91090700
_cell_angle_alpha   90.00000000
_cell_angle_beta   90.00000000
_cell_angle_gamma   117.06165803
_symmetry_Int_Tables_number   1
_chemical_formula_structural   Er2U(AlFe)3
_chemical_formula_sum   'Er2 U1 Al3 Fe3'
_cell_volume   154.03164445
_cell_formula_units_Z   1
loop_
 _symmetry_equiv_pos_site_id
 _symmetry_equiv_pos_as_xyz
  1  'x, y, z'
loop_
 _atom_site_type_symbol
 _atom_site_label
 _atom_site_symmetry_multiplicity
 _atom_site_fract_x
 _atom_site_fract_y
 _atom_site_fract_z
 _atom_site_occupancy
  Er  Er0  1  0.419201  0.012119  0.500000  1
  Er  Er1  1  0.012119  0.419201  0.500000  1
  U  U2  1  0.615826  0.615826  0.500000  1
  Al  Al3  1  0.752935  0.022671  0.000000  1
  Al  Al4  1  0.022671  0.752935  0.000000  1
  Al  Al5  1  0.208169  0.208169  0.000000  1
  Fe  Fe6  1  0.392795  0.629658  0.000000  1
  Fe  Fe7  1  0.629658  0.392795  0.000000  1
  Fe  Fe8  1  0.946629  0.946629  0.500000  1
