# generated using pymatgen
data_Lu6RuRh
_symmetry_space_group_name_H-M   'P 1'
_cell_length_a   7.16927500
_cell_length_b   8.93617000
_cell_length_c   6.20866400
_cell_angle_alpha   90.00000000
_cell_angle_beta   90.00000000
_cell_angle_gamma   90.00000000
_symmetry_Int_Tables_number   1
_chemical_formula_structural   Lu6RuRh
_chemical_formula_sum   'Lu12 Ru2 Rh2'
_cell_volume   397.76339971
_cell_formula_units_Z   2
loop_
 _symmetry_equiv_pos_site_id
 _symmetry_equiv_pos_as_xyz
  1  'x, y, z'
loop_
 _atom_site_type_symbol
 _atom_site_label
 _atom_site_symmetry_multiplicity
 _atom_site_fract_x
 _atom_site_fract_y
 _atom_site_fract_z
 _atom_site_occupancy
  Lu  Lu0  1  0.676577  0.058622  0.332380  1
  Lu  Lu1  1  0.176577  0.441378  0.167620  1
  Lu  Lu2  1  0.322075  0.564610  0.673970  1
  Lu  Lu3  1  0.822075  0.935390  0.826030  1
  Lu  Lu4  1  0.322075  0.935390  0.673970  1
  Lu  Lu5  1  0.822075  0.564610  0.826030  1
  Lu  Lu6  1  0.676577  0.441378  0.332380  1
  Lu  Lu7  1  0.176577  0.058622  0.167620  1
  Lu  Lu8  1  0.537862  0.250000  0.873825  1
  Lu  Lu9  1  0.037862  0.250000  0.626175  1
  Lu  Lu10  1  0.464137  0.750000  0.124006  1
  Lu  Lu11  1  0.964137  0.750000  0.375994  1
  Ru  Ru12  1  0.114698  0.750000  0.966040  1
  Ru  Ru13  1  0.614698  0.750000  0.533960  1
  Rh  Rh14  1  0.886000  0.250000  0.041063  1
  Rh  Rh15  1  0.386000  0.250000  0.458937  1
