# generated using pymatgen
data_Lu4Al6TcPt
_symmetry_space_group_name_H-M   'P 1'
_cell_length_a   5.45567800
_cell_length_b   5.45567786
_cell_length_c   8.77447200
_cell_angle_alpha   90.00000000
_cell_angle_beta   90.00000000
_cell_angle_gamma   120.00001300
_symmetry_Int_Tables_number   1
_chemical_formula_structural   Lu4Al6TcPt
_chemical_formula_sum   'Lu4 Al6 Tc1 Pt1'
_cell_volume   226.17730013
_cell_formula_units_Z   1
loop_
 _symmetry_equiv_pos_site_id
 _symmetry_equiv_pos_as_xyz
  1  'x, y, z'
loop_
 _atom_site_type_symbol
 _atom_site_label
 _atom_site_symmetry_multiplicity
 _atom_site_fract_x
 _atom_site_fract_y
 _atom_site_fract_z
 _atom_site_occupancy
  Lu  Lu0  1  0.666667  0.333333  0.940006  1
  Lu  Lu1  1  0.333333  0.666667  0.059994  1
  Lu  Lu2  1  0.333333  0.666667  0.446592  1
  Lu  Lu3  1  0.666667  0.333333  0.553408  1
  Al  Al4  1  0.330331  0.165165  0.251018  1
  Al  Al5  1  0.834835  0.165165  0.251018  1
  Al  Al6  1  0.834835  0.669669  0.251018  1
  Al  Al7  1  0.165165  0.330331  0.748982  1
  Al  Al8  1  0.165165  0.834835  0.748982  1
  Al  Al9  1  0.669669  0.834835  0.748982  1
  Tc  Tc10  1  0.000000  0.000000  0.000000  1
  Pt  Pt11  1  0.000000  0.000000  0.500000  1
