# generated using pymatgen
data_HfZr3Ir2Ru10C3
_symmetry_space_group_name_H-M   'P 1'
_cell_length_a   4.08869600
_cell_length_b   4.08869600
_cell_length_c   16.13457700
_cell_angle_alpha   90.00000000
_cell_angle_beta   90.00000000
_cell_angle_gamma   90.00000000
_symmetry_Int_Tables_number   1
_chemical_formula_structural   HfZr3Ir2Ru10C3
_chemical_formula_sum   'Hf1 Zr3 Ir2 Ru10 C3'
_cell_volume   269.72874193
_cell_formula_units_Z   1
loop_
 _symmetry_equiv_pos_site_id
 _symmetry_equiv_pos_as_xyz
  1  'x, y, z'
loop_
 _atom_site_type_symbol
 _atom_site_label
 _atom_site_symmetry_multiplicity
 _atom_site_fract_x
 _atom_site_fract_y
 _atom_site_fract_z
 _atom_site_occupancy
  Hf  Hf0  1  0.000000  0.000000  0.627299  1
  Zr  Zr1  1  0.000000  0.000000  0.881564  1
  Zr  Zr2  1  0.000000  0.000000  0.118198  1
  Zr  Zr3  1  0.000000  0.000000  0.373061  1
  Ir  Ir4  1  0.500000  0.000000  0.999909  1
  Ir  Ir5  1  0.000000  0.500000  0.999909  1
  Ru  Ru6  1  0.500000  0.500000  0.881688  1
  Ru  Ru7  1  0.500000  0.500000  0.118183  1
  Ru  Ru8  1  0.500000  0.500000  0.373038  1
  Ru  Ru9  1  0.500000  0.500000  0.626920  1
  Ru  Ru10  1  0.500000  0.000000  0.249011  1
  Ru  Ru11  1  0.500000  0.000000  0.501287  1
  Ru  Ru12  1  0.500000  0.000000  0.749950  1
  Ru  Ru13  1  0.000000  0.500000  0.249011  1
  Ru  Ru14  1  0.000000  0.500000  0.501287  1
  Ru  Ru15  1  0.000000  0.500000  0.749950  1
  C  C16  1  0.500000  0.500000  0.240235  1
  C  C17  1  0.500000  0.500000  0.499834  1
  C  C18  1  0.500000  0.500000  0.759665  1
