# generated using pymatgen
data_Nd4Ir3RhO14
_symmetry_space_group_name_H-M   'P 1'
_cell_length_a   7.40104476
_cell_length_b   7.40104379
_cell_length_c   7.41947643
_cell_angle_alpha   60.08214266
_cell_angle_beta   60.08214759
_cell_angle_gamma   60.00000310
_symmetry_Int_Tables_number   1
_chemical_formula_structural   Nd4Ir3RhO14
_chemical_formula_sum   'Nd4 Ir3 Rh1 O14'
_cell_volume   287.72817608
_cell_formula_units_Z   1
loop_
 _symmetry_equiv_pos_site_id
 _symmetry_equiv_pos_as_xyz
  1  'x, y, z'
loop_
 _atom_site_type_symbol
 _atom_site_label
 _atom_site_symmetry_multiplicity
 _atom_site_fract_x
 _atom_site_fract_y
 _atom_site_fract_z
 _atom_site_occupancy
  Nd  Nd0  1  0.625000  0.125000  0.125000  1
  Nd  Nd1  1  0.125000  0.625000  0.125000  1
  Nd  Nd2  1  0.125000  0.125000  0.625000  1
  Nd  Nd3  1  0.125000  0.125000  0.125000  1
  Ir  Ir4  1  0.125000  0.625000  0.625000  1
  Ir  Ir5  1  0.625000  0.125000  0.625000  1
  Ir  Ir6  1  0.625000  0.625000  0.625000  1
  Rh  Rh7  1  0.625000  0.625000  0.125000  1
  O  O8  1  0.708791  0.708791  0.294504  1
  O  O9  1  0.294754  0.294754  0.702169  1
  O  O10  1  0.708323  0.294754  0.702169  1
  O  O11  1  0.287915  0.708791  0.294504  1
  O  O12  1  0.294754  0.708323  0.702169  1
  O  O13  1  0.708791  0.287915  0.294504  1
  O  O14  1  0.541209  0.541209  0.955496  1
  O  O15  1  0.955246  0.955246  0.547831  1
  O  O16  1  0.541677  0.955246  0.547831  1
  O  O17  1  0.962085  0.541209  0.955496  1
  O  O18  1  0.955246  0.541677  0.547831  1
  O  O19  1  0.541209  0.962085  0.955496  1
  O  O20  1  0.249346  0.249346  0.251963  1
  O  O21  1  0.000654  0.000654  0.998037  1
