# generated using pymatgen
data_Ho20NiBi8Ir3
_symmetry_space_group_name_H-M   'P 1'
_cell_length_a   7.99846506
_cell_length_b   8.97345800
_cell_length_c   12.43433822
_cell_angle_alpha   90.00000000
_cell_angle_beta   89.74890733
_cell_angle_gamma   90.00000000
_symmetry_Int_Tables_number   1
_chemical_formula_structural   Ho20NiBi8Ir3
_chemical_formula_sum   'Ho20 Ni1 Bi8 Ir3'
_cell_volume   892.45225708
_cell_formula_units_Z   1
loop_
 _symmetry_equiv_pos_site_id
 _symmetry_equiv_pos_as_xyz
  1  'x, y, z'
loop_
 _atom_site_type_symbol
 _atom_site_label
 _atom_site_symmetry_multiplicity
 _atom_site_fract_x
 _atom_site_fract_y
 _atom_site_fract_z
 _atom_site_occupancy
  Ho  Ho0  1  0.341512  0.750000  0.703955  1
  Ho  Ho1  1  0.660456  0.250000  0.292106  1
  Ho  Ho2  1  0.841755  0.250000  0.793594  1
  Ho  Ho3  1  0.157670  0.750000  0.205536  1
  Ho  Ho4  1  0.878495  0.750000  0.804544  1
  Ho  Ho5  1  0.120954  0.250000  0.194796  1
  Ho  Ho6  1  0.378424  0.250000  0.693942  1
  Ho  Ho7  1  0.618701  0.750000  0.309217  1
  Ho  Ho8  1  0.676643  0.542206  0.565872  1
  Ho  Ho9  1  0.325651  0.458285  0.435853  1
  Ho  Ho10  1  0.175774  0.456858  0.934319  1
  Ho  Ho11  1  0.325651  0.041715  0.435853  1
  Ho  Ho12  1  0.823827  0.543756  0.065556  1
  Ho  Ho13  1  0.676643  0.957794  0.565872  1
  Ho  Ho14  1  0.823827  0.956244  0.065556  1
  Ho  Ho15  1  0.175774  0.043142  0.934319  1
  Ho  Ho16  1  0.051167  0.750000  0.499127  1
  Ho  Ho17  1  0.946557  0.250000  0.500120  1
  Ho  Ho18  1  0.554398  0.250000  0.001491  1
  Ho  Ho19  1  0.444804  0.750000  0.998688  1
  Ni  Ni20  1  0.429668  0.750000  0.490442  1
  Bi  Bi21  1  0.568508  0.509940  0.826723  1
  Bi  Bi22  1  0.431018  0.490993  0.173815  1
  Bi  Bi23  1  0.070966  0.490313  0.671624  1
  Bi  Bi24  1  0.431018  0.009007  0.173815  1
  Bi  Bi25  1  0.930124  0.510808  0.328085  1
  Bi  Bi26  1  0.568508  0.990060  0.826723  1
  Bi  Bi27  1  0.930124  0.989192  0.328085  1
  Bi  Bi28  1  0.070966  0.009687  0.671624  1
  Ir  Ir29  1  0.071763  0.750000  0.989499  1
  Ir  Ir30  1  0.926993  0.250000  0.010138  1
  Ir  Ir31  1  0.571659  0.250000  0.509111  1
