# generated using pymatgen
data_Zr4PdRh3
_symmetry_space_group_name_H-M   'P 1'
_cell_length_a   4.47178000
_cell_length_b   5.38689100
_cell_length_c   6.23761501
_cell_angle_alpha   89.99512195
_cell_angle_beta   90.00000000
_cell_angle_gamma   90.00000000
_symmetry_Int_Tables_number   1
_chemical_formula_structural   Zr4PdRh3
_chemical_formula_sum   'Zr4 Pd1 Rh3'
_cell_volume   150.25785405
_cell_formula_units_Z   1
loop_
 _symmetry_equiv_pos_site_id
 _symmetry_equiv_pos_as_xyz
  1  'x, y, z'
loop_
 _atom_site_type_symbol
 _atom_site_label
 _atom_site_symmetry_multiplicity
 _atom_site_fract_x
 _atom_site_fract_y
 _atom_site_fract_z
 _atom_site_occupancy
  Zr  Zr0  1  0.750000  0.859047  0.826139  1
  Zr  Zr1  1  0.250000  0.364931  0.680602  1
  Zr  Zr2  1  0.750000  0.641831  0.322829  1
  Zr  Zr3  1  0.250000  0.136414  0.168466  1
  Pd  Pd4  1  0.750000  0.158680  0.454654  1
  Rh  Rh5  1  0.250000  0.838472  0.543148  1
  Rh  Rh6  1  0.250000  0.665349  0.048937  1
  Rh  Rh7  1  0.750000  0.335277  0.955224  1
