# generated using pymatgen
data_Eu7Te8
_symmetry_space_group_name_H-M   'P 1'
_cell_length_a   9.19994402
_cell_length_b   9.20875768
_cell_length_c   9.18044891
_cell_angle_alpha   119.98824074
_cell_angle_beta   89.97544401
_cell_angle_gamma   119.99585302
_symmetry_Int_Tables_number   1
_chemical_formula_structural   Eu7Te8
_chemical_formula_sum   'Eu7 Te8'
_cell_volume   550.21497399
_cell_formula_units_Z   1
loop_
 _symmetry_equiv_pos_site_id
 _symmetry_equiv_pos_as_xyz
  1  'x, y, z'
loop_
 _atom_site_type_symbol
 _atom_site_label
 _atom_site_symmetry_multiplicity
 _atom_site_fract_x
 _atom_site_fract_y
 _atom_site_fract_z
 _atom_site_occupancy
  Eu  Eu0  1  0.250034  0.000007  0.250038  1
  Eu  Eu1  1  0.250029  0.500060  0.250035  1
  Eu  Eu2  1  0.749971  0.999987  0.250024  1
  Eu  Eu3  1  0.250002  0.499998  0.749994  1
  Eu  Eu4  1  0.250027  0.000015  0.749975  1
  Eu  Eu5  1  0.749980  0.000012  0.749981  1
  Eu  Eu6  1  0.749952  0.499911  0.749958  1
  Te  Te7  1  0.999987  0.999998  0.999983  1
  Te  Te8  1  0.500010  0.999986  0.500000  1
  Te  Te9  1  0.000640  0.001335  0.500674  1
  Te  Te10  1  0.000509  0.499981  0.500525  1
  Te  Te11  1  0.499422  0.500002  0.500617  1
  Te  Te12  1  0.000572  0.499994  0.999383  1
  Te  Te13  1  0.499492  0.500017  0.999471  1
  Te  Te14  1  0.499376  0.998700  0.999349  1
