# generated using pymatgen
data_DyNbP7Ru12
_symmetry_space_group_name_H-M   'P 1'
_cell_length_a   9.39484800
_cell_length_b   9.39484747
_cell_length_c   3.90445900
_cell_angle_alpha   90.00000000
_cell_angle_beta   90.00000000
_cell_angle_gamma   119.99999482
_symmetry_Int_Tables_number   1
_chemical_formula_structural   DyNbP7Ru12
_chemical_formula_sum   'Dy1 Nb1 P7 Ru12'
_cell_volume   298.44960794
_cell_formula_units_Z   1
loop_
 _symmetry_equiv_pos_site_id
 _symmetry_equiv_pos_as_xyz
  1  'x, y, z'
loop_
 _atom_site_type_symbol
 _atom_site_label
 _atom_site_symmetry_multiplicity
 _atom_site_fract_x
 _atom_site_fract_y
 _atom_site_fract_z
 _atom_site_occupancy
  Dy  Dy0  1  0.333333  0.666667  0.000000  1
  Nb  Nb1  1  0.666667  0.333333  0.500000  1
  P  P2  1  0.598176  0.718954  0.500000  1
  P  P3  1  0.000000  0.000000  0.000000  1
  P  P4  1  0.281046  0.879222  0.500000  1
  P  P5  1  0.120778  0.401824  0.500000  1
  P  P6  1  0.886357  0.574461  0.000000  1
  P  P7  1  0.425539  0.311896  0.000000  1
  P  P8  1  0.688104  0.113643  0.000000  1
  Ru  Ru9  1  0.558500  0.956804  0.500000  1
  Ru  Ru10  1  0.398304  0.441500  0.500000  1
  Ru  Ru11  1  0.913004  0.124168  0.500000  1
  Ru  Ru12  1  0.211165  0.086996  0.500000  1
  Ru  Ru13  1  0.875832  0.788835  0.500000  1
  Ru  Ru14  1  0.725972  0.888095  0.000000  1
  Ru  Ru15  1  0.111905  0.837876  0.000000  1
  Ru  Ru16  1  0.162124  0.274028  0.000000  1
  Ru  Ru17  1  0.431653  0.078254  0.000000  1
  Ru  Ru18  1  0.921746  0.353400  0.000000  1
  Ru  Ru19  1  0.646600  0.568347  0.000000  1
  Ru  Ru20  1  0.043196  0.601696  0.500000  1
