# generated using pymatgen
data_Y8Zn3Si12Ag
_symmetry_space_group_name_H-M   'P 1'
_cell_length_a   8.16401600
_cell_length_b   8.16401665
_cell_length_c   8.10495900
_cell_angle_alpha   90.00000000
_cell_angle_beta   90.00000000
_cell_angle_gamma   119.99999738
_symmetry_Int_Tables_number   1
_chemical_formula_structural   Y8Zn3Si12Ag
_chemical_formula_sum   'Y8 Zn3 Si12 Ag1'
_cell_volume   467.83121331
_cell_formula_units_Z   1
loop_
 _symmetry_equiv_pos_site_id
 _symmetry_equiv_pos_as_xyz
  1  'x, y, z'
loop_
 _atom_site_type_symbol
 _atom_site_label
 _atom_site_symmetry_multiplicity
 _atom_site_fract_x
 _atom_site_fract_y
 _atom_site_fract_z
 _atom_site_occupancy
  Y  Y0  1  0.501942  0.003885  0.248230  1
  Y  Y1  1  0.501310  0.002619  0.751907  1
  Y  Y2  1  0.996115  0.498058  0.248230  1
  Y  Y3  1  0.997381  0.498690  0.751907  1
  Y  Y4  1  0.501942  0.498058  0.248230  1
  Y  Y5  1  0.501310  0.498690  0.751907  1
  Y  Y6  1  0.000000  0.000000  0.249690  1
  Y  Y7  1  0.000000  0.000000  0.750105  1
  Zn  Zn8  1  0.333333  0.666667  0.005314  1
  Zn  Zn9  1  0.666667  0.333333  0.996078  1
  Zn  Zn10  1  0.666667  0.333333  0.499455  1
  Si  Si11  1  0.166148  0.332297  0.997423  1
  Si  Si12  1  0.832894  0.665789  0.002244  1
  Si  Si13  1  0.667703  0.833852  0.997423  1
  Si  Si14  1  0.833298  0.666594  0.501850  1
  Si  Si15  1  0.334211  0.167106  0.002244  1
  Si  Si16  1  0.163413  0.326826  0.497957  1
  Si  Si17  1  0.166148  0.833852  0.997423  1
  Si  Si18  1  0.333406  0.166702  0.501850  1
  Si  Si19  1  0.832894  0.167106  0.002244  1
  Si  Si20  1  0.673174  0.836587  0.497957  1
  Si  Si21  1  0.833298  0.166702  0.501850  1
  Si  Si22  1  0.163413  0.836587  0.497957  1
  Ag  Ag23  1  0.333333  0.666667  0.500524  1
