# generated using pymatgen
data_EuHf2(GaRh)3
_symmetry_space_group_name_H-M   'P 1'
_cell_length_a   7.17566700
_cell_length_b   7.37304120
_cell_length_c   3.52153200
_cell_angle_alpha   90.00000000
_cell_angle_beta   90.00000000
_cell_angle_gamma   119.11738170
_symmetry_Int_Tables_number   1
_chemical_formula_structural   EuHf2(GaRh)3
_chemical_formula_sum   'Eu1 Hf2 Ga3 Rh3'
_cell_volume   162.76666048
_cell_formula_units_Z   1
loop_
 _symmetry_equiv_pos_site_id
 _symmetry_equiv_pos_as_xyz
  1  'x, y, z'
loop_
 _atom_site_type_symbol
 _atom_site_label
 _atom_site_symmetry_multiplicity
 _atom_site_fract_x
 _atom_site_fract_y
 _atom_site_fract_z
 _atom_site_occupancy
  Eu  Eu0  1  0.400227  0.999976  0.500000  1
  Hf  Hf1  1  0.998443  0.399530  0.500000  1
  Hf  Hf2  1  0.598937  0.600476  0.500000  1
  Ga  Ga3  1  0.742199  0.999991  0.000000  1
  Ga  Ga4  1  0.990413  0.730710  0.000000  1
  Ga  Ga5  1  0.259724  0.269298  0.000000  1
  Rh  Rh6  1  0.330858  0.646522  0.000000  1
  Rh  Rh7  1  0.684327  0.353456  0.000000  1
  Rh  Rh8  1  0.994872  0.000042  0.500000  1
