# generated using pymatgen
data_RbCr(NiSe2)2
_symmetry_space_group_name_H-M   'P 1'
_cell_length_a   9.99114700
_cell_length_b   9.99114673
_cell_length_c   7.55003300
_cell_angle_alpha   90.00000000
_cell_angle_beta   90.00000000
_cell_angle_gamma   148.01279400
_symmetry_Int_Tables_number   1
_chemical_formula_structural   RbCr(NiSe2)2
_chemical_formula_sum   'Rb2 Cr2 Ni4 Se8'
_cell_volume   399.23996574
_cell_formula_units_Z   2
loop_
 _symmetry_equiv_pos_site_id
 _symmetry_equiv_pos_as_xyz
  1  'x, y, z'
loop_
 _atom_site_type_symbol
 _atom_site_label
 _atom_site_symmetry_multiplicity
 _atom_site_fract_x
 _atom_site_fract_y
 _atom_site_fract_z
 _atom_site_occupancy
  Rb  Rb0  1  0.173442  0.545704  0.750000  1
  Rb  Rb1  1  0.545704  0.173442  0.250000  1
  Cr  Cr2  1  0.705805  0.501289  0.750000  1
  Cr  Cr3  1  0.501289  0.705805  0.250000  1
  Ni  Ni4  1  0.614287  0.614287  0.500000  1
  Ni  Ni5  1  0.001330  0.206085  0.250000  1
  Ni  Ni6  1  0.206085  0.001330  0.750000  1
  Ni  Ni7  1  0.614287  0.614287  0.000000  1
  Se  Se8  1  0.744510  0.948208  0.003313  1
  Se  Se9  1  0.362737  0.355391  0.750000  1
  Se  Se10  1  0.355391  0.362737  0.250000  1
  Se  Se11  1  0.948208  0.744510  0.503313  1
  Se  Se12  1  0.562101  0.163909  0.750000  1
  Se  Se13  1  0.948208  0.744510  0.996687  1
  Se  Se14  1  0.163909  0.562101  0.250000  1
  Se  Se15  1  0.744510  0.948208  0.496687  1
