# generated using pymatgen
data_Li4CaTh3Si8
_symmetry_space_group_name_H-M   'P 1'
_cell_length_a   3.87563100
_cell_length_b   7.75188414
_cell_length_c   10.46912081
_cell_angle_alpha   89.75386466
_cell_angle_beta   90.00000000
_cell_angle_gamma   90.00000000
_symmetry_Int_Tables_number   1
_chemical_formula_structural   Li4CaTh3Si8
_chemical_formula_sum   'Li4 Ca1 Th3 Si8'
_cell_volume   314.52552649
_cell_formula_units_Z   1
loop_
 _symmetry_equiv_pos_site_id
 _symmetry_equiv_pos_as_xyz
  1  'x, y, z'
loop_
 _atom_site_type_symbol
 _atom_site_label
 _atom_site_symmetry_multiplicity
 _atom_site_fract_x
 _atom_site_fract_y
 _atom_site_fract_z
 _atom_site_occupancy
  Li  Li0  1  0.250000  0.999601  0.393829  1
  Li  Li1  1  0.750000  0.009893  0.606569  1
  Li  Li2  1  0.250000  0.488007  0.110565  1
  Li  Li3  1  0.750000  0.508315  0.895605  1
  Ca  Ca4  1  0.750000  0.362340  0.364013  1
  Th  Th5  1  0.250000  0.135030  0.863119  1
  Th  Th6  1  0.750000  0.861331  0.133362  1
  Th  Th7  1  0.250000  0.636449  0.634860  1
  Si  Si8  1  0.750000  0.263332  0.067464  1
  Si  Si9  1  0.250000  0.728482  0.929510  1
  Si  Si10  1  0.750000  0.773768  0.429537  1
  Si  Si11  1  0.250000  0.237593  0.572107  1
  Si  Si12  1  0.750000  0.834499  0.815544  1
  Si  Si13  1  0.250000  0.159184  0.177447  1
  Si  Si14  1  0.750000  0.335374  0.685433  1
  Si  Si15  1  0.250000  0.666802  0.321036  1
