# generated using pymatgen
data_TbHf3Si4W
_symmetry_space_group_name_H-M   'P 1'
_cell_length_a   7.05455600
_cell_length_b   7.05455600
_cell_length_c   12.87799700
_cell_angle_alpha   90.00000000
_cell_angle_beta   90.00000000
_cell_angle_gamma   90.00000000
_symmetry_Int_Tables_number   1
_chemical_formula_structural   TbHf3Si4W
_chemical_formula_sum   'Tb4 Hf12 Si16 W4'
_cell_volume   640.89619058
_cell_formula_units_Z   4
loop_
 _symmetry_equiv_pos_site_id
 _symmetry_equiv_pos_as_xyz
  1  'x, y, z'
loop_
 _atom_site_type_symbol
 _atom_site_label
 _atom_site_symmetry_multiplicity
 _atom_site_fract_x
 _atom_site_fract_y
 _atom_site_fract_z
 _atom_site_occupancy
  Tb  Tb0  1  0.495241  0.156908  0.532397  1
  Tb  Tb1  1  0.504759  0.843092  0.032397  1
  Tb  Tb2  1  0.656908  0.004759  0.282397  1
  Tb  Tb3  1  0.343092  0.995241  0.782397  1
  Hf  Hf4  1  0.847303  0.498543  0.968516  1
  Hf  Hf5  1  0.152697  0.501457  0.468516  1
  Hf  Hf6  1  0.998543  0.652697  0.718516  1
  Hf  Hf7  1  0.001457  0.347303  0.218516  1
  Hf  Hf8  1  0.493137  0.355790  0.124880  1
  Hf  Hf9  1  0.506863  0.644210  0.624880  1
  Hf  Hf10  1  0.855790  0.006863  0.874880  1
  Hf  Hf11  1  0.144210  0.993137  0.374880  1
  Hf  Hf12  1  0.646114  0.502965  0.374700  1
  Hf  Hf13  1  0.353886  0.497035  0.874700  1
  Hf  Hf14  1  0.002965  0.853886  0.124700  1
  Hf  Hf15  1  0.997035  0.146114  0.624700  1
  Si  Si16  1  0.804410  0.151460  0.069806  1
  Si  Si17  1  0.195590  0.848540  0.569806  1
  Si  Si18  1  0.651460  0.695590  0.819806  1
  Si  Si19  1  0.348540  0.304410  0.319806  1
  Si  Si20  1  0.865063  0.210398  0.429572  1
  Si  Si21  1  0.134937  0.789602  0.929572  1
  Si  Si22  1  0.710398  0.634937  0.179572  1
  Si  Si23  1  0.289602  0.365063  0.679572  1
  Si  Si24  1  0.553130  0.207134  0.933439  1
  Si  Si25  1  0.446870  0.792866  0.433439  1
  Si  Si26  1  0.707134  0.946870  0.683439  1
  Si  Si27  1  0.292866  0.053130  0.183439  1
  Si  Si28  1  0.805579  0.455293  0.566438  1
  Si  Si29  1  0.194421  0.544707  0.066438  1
  Si  Si30  1  0.955293  0.694421  0.316438  1
  Si  Si31  1  0.044707  0.305579  0.816438  1
  W  W32  1  0.680533  0.330502  0.750253  1
  W  W33  1  0.319467  0.669498  0.250253  1
  W  W34  1  0.830502  0.819467  0.500253  1
  W  W35  1  0.169498  0.180533  0.000253  1
