# generated using pymatgen
data_Sc2Sn3Ru6W
_symmetry_space_group_name_H-M   'P 1'
_cell_length_a   4.52480400
_cell_length_b   6.38630900
_cell_length_c   13.58738201
_cell_angle_alpha   90.00059545
_cell_angle_beta   90.00380541
_cell_angle_gamma   90.00078728
_symmetry_Int_Tables_number   1
_chemical_formula_structural   Sc2Sn3Ru6W
_chemical_formula_sum   'Sc4 Sn6 Ru12 W2'
_cell_volume   392.63181227
_cell_formula_units_Z   2
loop_
 _symmetry_equiv_pos_site_id
 _symmetry_equiv_pos_as_xyz
  1  'x, y, z'
loop_
 _atom_site_type_symbol
 _atom_site_label
 _atom_site_symmetry_multiplicity
 _atom_site_fract_x
 _atom_site_fract_y
 _atom_site_fract_z
 _atom_site_occupancy
  Sc  Sc0  1  0.999889  0.999990  0.335201  1
  Sc  Sc1  1  0.500006  0.499998  0.501485  1
  Sc  Sc2  1  0.000126  0.000005  0.665160  1
  Sc  Sc3  1  0.500117  0.500008  0.831464  1
  Sn  Sn4  1  0.000004  0.500000  0.997320  1
  Sn  Sn5  1  0.499910  0.999999  0.169345  1
  Sn  Sn6  1  0.999883  0.500000  0.337528  1
  Sn  Sn7  1  0.500005  0.000001  0.500612  1
  Sn  Sn8  1  0.000098  0.500000  0.666057  1
  Sn  Sn9  1  0.500088  0.000000  0.829146  1
  Ru  Ru10  1  0.500004  0.241291  0.005728  1
  Ru  Ru11  1  0.500002  0.758712  0.005729  1
  Ru  Ru12  1  0.999897  0.258754  0.160976  1
  Ru  Ru13  1  0.999889  0.741246  0.160973  1
  Ru  Ru14  1  0.499905  0.257830  0.325116  1
  Ru  Ru15  1  0.499906  0.742171  0.325113  1
  Ru  Ru16  1  0.000013  0.248592  0.498702  1
  Ru  Ru17  1  0.000013  0.751409  0.498701  1
  Ru  Ru18  1  0.500124  0.251396  0.667949  1
  Ru  Ru19  1  0.500124  0.748604  0.667950  1
  Ru  Ru20  1  0.000102  0.242198  0.841542  1
  Ru  Ru21  1  0.000101  0.757805  0.841547  1
  W  W22  1  0.000027  0.999994  0.996093  1
  W  W23  1  0.499763  0.500005  0.170560  1
