# generated using pymatgen
data_LiAc(CuO2)4
_symmetry_space_group_name_H-M   'P 1'
_cell_length_a   6.35129472
_cell_length_b   6.35129519
_cell_length_c   6.35129500
_cell_angle_alpha   124.69492749
_cell_angle_beta   124.69493045
_cell_angle_gamma   82.04393961
_symmetry_Int_Tables_number   1
_chemical_formula_structural   LiAc(CuO2)4
_chemical_formula_sum   'Li1 Ac1 Cu4 O8'
_cell_volume   166.54084886
_cell_formula_units_Z   1
loop_
 _symmetry_equiv_pos_site_id
 _symmetry_equiv_pos_as_xyz
  1  'x, y, z'
loop_
 _atom_site_type_symbol
 _atom_site_label
 _atom_site_symmetry_multiplicity
 _atom_site_fract_x
 _atom_site_fract_y
 _atom_site_fract_z
 _atom_site_occupancy
  Li  Li0  1  0.000000  0.000000  0.000000  1
  Ac  Ac1  1  0.750000  0.250000  0.500000  1
  Cu  Cu2  1  0.376750  0.630940  0.256206  1
  Cu  Cu3  1  0.374732  0.120542  0.743794  1
  Cu  Cu4  1  0.369060  0.625268  0.745810  1
  Cu  Cu5  1  0.879458  0.623250  0.254190  1
  O  O6  1  0.722272  0.300856  0.115018  1
  O  O7  1  0.185837  0.607254  0.884982  1
  O  O8  1  0.031808  0.932196  0.362756  1
  O  O9  1  0.569439  0.669052  0.637244  1
  O  O10  1  0.067804  0.430561  0.099613  1
  O  O11  1  0.330948  0.968192  0.900387  1
  O  O12  1  0.392746  0.277728  0.578583  1
  O  O13  1  0.699144  0.814163  0.421417  1
