# generated using pymatgen
data_Lu20Si4BiSb7
_symmetry_space_group_name_H-M   'P 1'
_cell_length_a   7.87565333
_cell_length_b   8.96878234
_cell_length_c   11.73377900
_cell_angle_alpha   90.01567703
_cell_angle_beta   90.03326153
_cell_angle_gamma   89.99848964
_symmetry_Int_Tables_number   1
_chemical_formula_structural   Lu20Si4BiSb7
_chemical_formula_sum   'Lu20 Si4 Bi1 Sb7'
_cell_volume   828.81554885
_cell_formula_units_Z   1
loop_
 _symmetry_equiv_pos_site_id
 _symmetry_equiv_pos_as_xyz
  1  'x, y, z'
loop_
 _atom_site_type_symbol
 _atom_site_label
 _atom_site_symmetry_multiplicity
 _atom_site_fract_x
 _atom_site_fract_y
 _atom_site_fract_z
 _atom_site_occupancy
  Lu  Lu0  1  0.681770  0.946609  0.433638  1
  Lu  Lu1  1  0.817536  0.552578  0.935967  1
  Lu  Lu2  1  0.318093  0.446983  0.564438  1
  Lu  Lu3  1  0.182741  0.052853  0.064811  1
  Lu  Lu4  1  0.319385  0.053876  0.563774  1
  Lu  Lu5  1  0.182793  0.447204  0.064496  1
  Lu  Lu6  1  0.681994  0.553066  0.435040  1
  Lu  Lu7  1  0.815807  0.946583  0.938683  1
  Lu  Lu8  1  0.333113  0.750314  0.284303  1
  Lu  Lu9  1  0.168803  0.746301  0.786271  1
  Lu  Lu10  1  0.663835  0.253544  0.714885  1
  Lu  Lu11  1  0.833320  0.249670  0.214767  1
  Lu  Lu12  1  0.039625  0.747477  0.496033  1
  Lu  Lu13  1  0.461568  0.750504  0.998042  1
  Lu  Lu14  1  0.962047  0.252511  0.500733  1
  Lu  Lu15  1  0.538478  0.249810  0.002546  1
  Lu  Lu16  1  0.860589  0.749822  0.206825  1
  Lu  Lu17  1  0.635643  0.747073  0.707326  1
  Lu  Lu18  1  0.142015  0.253190  0.794487  1
  Lu  Lu19  1  0.360611  0.249942  0.293269  1
  Si  Si20  1  0.087104  0.749915  0.021545  1
  Si  Si21  1  0.412943  0.750141  0.520439  1
  Si  Si22  1  0.913351  0.249723  0.978704  1
  Si  Si23  1  0.587887  0.250017  0.478377  1
  Bi  Bi24  1  0.930907  0.988777  0.674708  1
  Sb  Sb25  1  0.567907  0.989019  0.173457  1
  Sb  Sb26  1  0.931568  0.511465  0.673387  1
  Sb  Sb27  1  0.432132  0.489097  0.827555  1
  Sb  Sb28  1  0.068153  0.011169  0.326731  1
  Sb  Sb29  1  0.432147  0.011096  0.826105  1
  Sb  Sb30  1  0.068277  0.488646  0.325216  1
  Sb  Sb31  1  0.567855  0.511024  0.173441  1
