# generated using pymatgen
data_Nd3Sm3(CI3)2
_symmetry_space_group_name_H-M   'P 1'
_cell_length_a   4.01355500
_cell_length_b   8.96407149
_cell_length_c   12.13353004
_cell_angle_alpha   92.40447991
_cell_angle_beta   90.00000000
_cell_angle_gamma   90.00000000
_symmetry_Int_Tables_number   1
_chemical_formula_structural   Nd3Sm3(CI3)2
_chemical_formula_sum   'Nd3 Sm3 C2 I6'
_cell_volume   436.15329525
_cell_formula_units_Z   1
loop_
 _symmetry_equiv_pos_site_id
 _symmetry_equiv_pos_as_xyz
  1  'x, y, z'
loop_
 _atom_site_type_symbol
 _atom_site_label
 _atom_site_symmetry_multiplicity
 _atom_site_fract_x
 _atom_site_fract_y
 _atom_site_fract_z
 _atom_site_occupancy
  Nd  Nd0  1  0.250000  0.914208  0.602028  1
  Nd  Nd1  1  0.750000  0.085630  0.398432  1
  Nd  Nd2  1  0.250000  0.886323  0.179752  1
  Sm  Sm3  1  0.750000  0.114099  0.818551  1
  Sm  Sm4  1  0.250000  0.296663  0.615781  1
  Sm  Sm5  1  0.750000  0.703308  0.384247  1
  C  C6  1  0.250000  0.877283  0.384404  1
  C  C7  1  0.750000  0.122372  0.617862  1
  I  I8  1  0.250000  0.858493  0.875465  1
  I  I9  1  0.750000  0.146599  0.123431  1
  I  I10  1  0.250000  0.375948  0.871890  1
  I  I11  1  0.750000  0.619205  0.127760  1
  I  I12  1  0.250000  0.385118  0.366327  1
  I  I13  1  0.750000  0.614750  0.634070  1
