# generated using pymatgen
data_Y3Er3Co16(P6Os)2
_symmetry_space_group_name_H-M   'P 1'
_cell_length_a   3.71176100
_cell_length_b   10.48587699
_cell_length_c   12.23573062
_cell_angle_alpha   90.09405091
_cell_angle_beta   90.00000000
_cell_angle_gamma   90.00000000
_symmetry_Int_Tables_number   1
_chemical_formula_structural   Y3Er3Co16(P6Os)2
_chemical_formula_sum   'Y3 Er3 Co16 P12 Os2'
_cell_volume   476.22707731
_cell_formula_units_Z   1
loop_
 _symmetry_equiv_pos_site_id
 _symmetry_equiv_pos_as_xyz
  1  'x, y, z'
loop_
 _atom_site_type_symbol
 _atom_site_label
 _atom_site_symmetry_multiplicity
 _atom_site_fract_x
 _atom_site_fract_y
 _atom_site_fract_z
 _atom_site_occupancy
  Y  Y0  1  0.000000  0.500228  0.524434  1
  Y  Y1  1  0.500000  0.000024  0.475229  1
  Y  Y2  1  0.000000  0.317215  0.793075  1
  Er  Er3  1  0.500000  0.817505  0.207048  1
  Er  Er4  1  0.500000  0.182300  0.206921  1
  Er  Er5  1  0.000000  0.682750  0.793211  1
  Co  Co6  1  0.500000  0.501017  0.704205  1
  Co  Co7  1  0.000000  0.999808  0.295580  1
  Co  Co8  1  0.000000  0.500400  0.987353  1
  Co  Co9  1  0.500000  0.999520  0.013527  1
  Co  Co10  1  0.500000  0.332553  0.990517  1
  Co  Co11  1  0.500000  0.667896  0.990153  1
  Co  Co12  1  0.000000  0.166969  0.010582  1
  Co  Co13  1  0.000000  0.832320  0.010355  1
  Co  Co14  1  0.500000  0.297582  0.430027  1
  Co  Co15  1  0.500000  0.702669  0.430659  1
  Co  Co16  1  0.000000  0.202492  0.568536  1
  Co  Co17  1  0.000000  0.797636  0.569322  1
  Co  Co18  1  0.500000  0.878820  0.709139  1
  Co  Co19  1  0.500000  0.120256  0.708480  1
  Co  Co20  1  0.000000  0.621041  0.291042  1
  Co  Co21  1  0.000000  0.378927  0.290612  1
  P  P22  1  0.500000  0.500779  0.881105  1
  P  P23  1  0.000000  0.999711  0.119561  1
  P  P24  1  0.500000  0.500061  0.350386  1
  P  P25  1  0.000000  0.000124  0.649470  1
  P  P26  1  0.500000  0.311784  0.615636  1
  P  P27  1  0.500000  0.688722  0.616744  1
  P  P28  1  0.000000  0.188269  0.382763  1
  P  P29  1  0.000000  0.811650  0.383263  1
  P  P30  1  0.500000  0.845994  0.892713  1
  P  P31  1  0.500000  0.153091  0.893289  1
  P  P32  1  0.000000  0.654145  0.107691  1
  P  P33  1  0.000000  0.345858  0.107241  1
  Os  Os34  1  0.500000  0.500255  0.158832  1
  Os  Os35  1  0.000000  0.999628  0.841298  1
