# generated using pymatgen
data_Th6Al24IrOs6Rh
_symmetry_space_group_name_H-M   'P 1'
_cell_length_a   8.89511712
_cell_length_b   8.89511675
_cell_length_c   9.67189300
_cell_angle_alpha   90.03957512
_cell_angle_beta   89.96041844
_cell_angle_gamma   119.30979575
_symmetry_Int_Tables_number   1
_chemical_formula_structural   Th6Al24IrOs6Rh
_chemical_formula_sum   'Th6 Al24 Ir1 Os6 Rh1'
_cell_volume   667.30438096
_cell_formula_units_Z   1
loop_
 _symmetry_equiv_pos_site_id
 _symmetry_equiv_pos_as_xyz
  1  'x, y, z'
loop_
 _atom_site_type_symbol
 _atom_site_label
 _atom_site_symmetry_multiplicity
 _atom_site_fract_x
 _atom_site_fract_y
 _atom_site_fract_z
 _atom_site_occupancy
  Th  Th0  1  0.186696  0.387071  0.249823  1
  Th  Th1  1  0.813304  0.612929  0.750177  1
  Th  Th2  1  0.612929  0.813304  0.249823  1
  Th  Th3  1  0.387071  0.186696  0.750177  1
  Th  Th4  1  0.193289  0.806711  0.249593  1
  Th  Th5  1  0.806711  0.193289  0.750407  1
  Al  Al6  1  0.333285  0.666715  0.014714  1
  Al  Al7  1  0.666715  0.333285  0.985286  1
  Al  Al8  1  0.666620  0.333380  0.515093  1
  Al  Al9  1  0.333380  0.666620  0.484907  1
  Al  Al10  1  0.162266  0.325201  0.576337  1
  Al  Al11  1  0.837734  0.674799  0.423663  1
  Al  Al12  1  0.674799  0.837734  0.576337  1
  Al  Al13  1  0.837279  0.674636  0.075545  1
  Al  Al14  1  0.325201  0.162266  0.423663  1
  Al  Al15  1  0.162721  0.325364  0.924455  1
  Al  Al16  1  0.164095  0.835905  0.575122  1
  Al  Al17  1  0.325364  0.162721  0.075545  1
  Al  Al18  1  0.835905  0.164095  0.424878  1
  Al  Al19  1  0.674636  0.837279  0.924455  1
  Al  Al20  1  0.836126  0.163874  0.075336  1
  Al  Al21  1  0.163874  0.836126  0.924664  1
  Al  Al22  1  0.562344  0.130467  0.250009  1
  Al  Al23  1  0.437656  0.869533  0.749991  1
  Al  Al24  1  0.869533  0.437656  0.250009  1
  Al  Al25  1  0.130467  0.562344  0.749991  1
  Al  Al26  1  0.561658  0.438342  0.250504  1
  Al  Al27  1  0.438342  0.561658  0.749496  1
  Al  Al28  1  0.998597  0.001403  0.249893  1
  Al  Al29  1  0.001403  0.998597  0.750107  1
  Ir  Ir30  1  0.500000  0.500000  0.000000  1
  Os  Os31  1  0.500000  0.000000  0.000000  1
  Os  Os32  1  0.000000  0.500000  0.000000  1
  Os  Os33  1  0.500000  0.000000  0.500000  1
  Os  Os34  1  0.000000  0.500000  0.500000  1
  Os  Os35  1  0.000000  0.000000  0.000000  1
  Os  Os36  1  0.000000  0.000000  0.500000  1
  Rh  Rh37  1  0.500000  0.500000  0.500000  1
