# generated using pymatgen
data_YbPr16Y3Sn16
_symmetry_space_group_name_H-M   'P 1'
_cell_length_a   8.20796901
_cell_length_b   8.48215601
_cell_length_c   16.12011200
_cell_angle_alpha   90.00000000
_cell_angle_beta   90.00000000
_cell_angle_gamma   90.00439532
_symmetry_Int_Tables_number   1
_chemical_formula_structural   YbPr16Y3Sn16
_chemical_formula_sum   'Yb1 Pr16 Y3 Sn16'
_cell_volume   1122.30272477
_cell_formula_units_Z   1
loop_
 _symmetry_equiv_pos_site_id
 _symmetry_equiv_pos_as_xyz
  1  'x, y, z'
loop_
 _atom_site_type_symbol
 _atom_site_label
 _atom_site_symmetry_multiplicity
 _atom_site_fract_x
 _atom_site_fract_y
 _atom_site_fract_z
 _atom_site_occupancy
  Yb  Yb0  1  0.677135  0.002448  0.250000  1
  Pr  Pr1  1  0.653226  0.168884  0.624337  1
  Pr  Pr2  1  0.154072  0.333828  0.876796  1
  Pr  Pr3  1  0.349038  0.831922  0.123117  1
  Pr  Pr4  1  0.846129  0.669228  0.376778  1
  Pr  Pr5  1  0.349038  0.831922  0.376883  1
  Pr  Pr6  1  0.846129  0.669228  0.123222  1
  Pr  Pr7  1  0.653226  0.168884  0.875663  1
  Pr  Pr8  1  0.154072  0.333828  0.623204  1
  Pr  Pr9  1  0.497139  0.680999  0.596781  1
  Pr  Pr10  1  0.996955  0.819582  0.902974  1
  Pr  Pr11  1  0.503190  0.316785  0.096771  1
  Pr  Pr12  1  0.000559  0.180447  0.403927  1
  Pr  Pr13  1  0.503190  0.316785  0.403229  1
  Pr  Pr14  1  0.000559  0.180447  0.096073  1
  Pr  Pr15  1  0.497139  0.680999  0.903219  1
  Pr  Pr16  1  0.996955  0.819582  0.597026  1
  Y  Y17  1  0.821822  0.502668  0.750000  1
  Y  Y18  1  0.322469  0.997931  0.750000  1
  Y  Y19  1  0.177597  0.496061  0.250000  1
  Sn  Sn20  1  0.687296  0.962240  0.461625  1
  Sn  Sn21  1  0.186455  0.534400  0.043402  1
  Sn  Sn22  1  0.314365  0.036369  0.957873  1
  Sn  Sn23  1  0.812789  0.465877  0.542456  1
  Sn  Sn24  1  0.314365  0.036369  0.542127  1
  Sn  Sn25  1  0.812789  0.465877  0.957544  1
  Sn  Sn26  1  0.687296  0.962240  0.038375  1
  Sn  Sn27  1  0.186455  0.534400  0.456598  1
  Sn  Sn28  1  0.457435  0.390752  0.750000  1
  Sn  Sn29  1  0.958900  0.110847  0.750000  1
  Sn  Sn30  1  0.543010  0.604168  0.250000  1
  Sn  Sn31  1  0.046320  0.888700  0.250000  1
  Sn  Sn32  1  0.691749  0.852829  0.750000  1
  Sn  Sn33  1  0.191168  0.647584  0.750000  1
  Sn  Sn34  1  0.300343  0.146400  0.250000  1
  Sn  Sn35  1  0.809622  0.358488  0.250000  1
