# generated using pymatgen
data_CeIrF7
_symmetry_space_group_name_H-M   'P 1'
_cell_length_a   5.71517500
_cell_length_b   6.04979136
_cell_length_c   8.22549338
_cell_angle_alpha   100.92199322
_cell_angle_beta   90.00000000
_cell_angle_gamma   90.00000000
_symmetry_Int_Tables_number   1
_chemical_formula_structural   CeIrF7
_chemical_formula_sum   'Ce2 Ir2 F14'
_cell_volume   279.24987038
_cell_formula_units_Z   2
loop_
 _symmetry_equiv_pos_site_id
 _symmetry_equiv_pos_as_xyz
  1  'x, y, z'
loop_
 _atom_site_type_symbol
 _atom_site_label
 _atom_site_symmetry_multiplicity
 _atom_site_fract_x
 _atom_site_fract_y
 _atom_site_fract_z
 _atom_site_occupancy
  Ce  Ce0  1  0.702361  0.665547  0.694580  1
  Ce  Ce1  1  0.202361  0.334453  0.305420  1
  Ir  Ir2  1  0.711046  0.810208  0.227621  1
  Ir  Ir3  1  0.211046  0.189792  0.772379  1
  F  F4  1  0.878363  0.448427  0.478500  1
  F  F5  1  0.378363  0.551573  0.521500  1
  F  F6  1  0.418597  0.926327  0.769360  1
  F  F7  1  0.918597  0.073673  0.230640  1
  F  F8  1  0.943063  0.976367  0.763582  1
  F  F9  1  0.443063  0.023633  0.236418  1
  F  F10  1  0.002387  0.457788  0.789550  1
  F  F11  1  0.502387  0.542212  0.210450  1
  F  F12  1  0.707145  0.761531  0.981475  1
  F  F13  1  0.207145  0.238469  0.018525  1
  F  F14  1  0.718147  0.868808  0.474705  1
  F  F15  1  0.218147  0.131192  0.525295  1
  F  F16  1  0.495250  0.384284  0.785957  1
  F  F17  1  0.995250  0.615716  0.214043  1
