# generated using pymatgen
data_LiAc2CrO6
_symmetry_space_group_name_H-M   'P 1'
_cell_length_a   5.57718012
_cell_length_b   5.57423419
_cell_length_c   5.62479814
_cell_angle_alpha   120.79040164
_cell_angle_beta   59.26142344
_cell_angle_gamma   118.92056402
_symmetry_Int_Tables_number   1
_chemical_formula_structural   LiAc2CrO6
_chemical_formula_sum   'Li1 Ac2 Cr1 O6'
_cell_volume   123.14225891
_cell_formula_units_Z   1
loop_
 _symmetry_equiv_pos_site_id
 _symmetry_equiv_pos_as_xyz
  1  'x, y, z'
loop_
 _atom_site_type_symbol
 _atom_site_label
 _atom_site_symmetry_multiplicity
 _atom_site_fract_x
 _atom_site_fract_y
 _atom_site_fract_z
 _atom_site_occupancy
  Li  Li0  1  0.699943  0.300142  0.899022  1
  Ac  Ac1  1  0.951300  0.051848  0.150990  1
  Ac  Ac2  1  0.448147  0.548688  0.648906  1
  Cr  Cr3  1  0.199870  0.799898  0.399895  1
  O  O4  1  0.403553  0.046484  0.169236  1
  O  O5  1  0.972672  0.527319  0.149769  1
  O  O6  1  0.477113  0.605892  0.166081  1
  O  O7  1  0.427689  0.074352  0.650711  1
  O  O8  1  0.995974  0.551837  0.629985  1
  O  O9  1  0.922941  0.994341  0.637001  1
