# generated using pymatgen
data_Li3AlZn
_symmetry_space_group_name_H-M   'P 1'
_cell_length_a   5.24670135
_cell_length_b   5.24670122
_cell_length_c   5.24670038
_cell_angle_alpha   50.00098345
_cell_angle_beta   50.00099004
_cell_angle_gamma   50.00098393
_symmetry_Int_Tables_number   1
_chemical_formula_structural   Li3AlZn
_chemical_formula_sum   'Li3 Al1 Zn1'
_cell_volume   78.00038309
_cell_formula_units_Z   1
loop_
 _symmetry_equiv_pos_site_id
 _symmetry_equiv_pos_as_xyz
  1  'x, y, z'
loop_
 _atom_site_type_symbol
 _atom_site_label
 _atom_site_symmetry_multiplicity
 _atom_site_fract_x
 _atom_site_fract_y
 _atom_site_fract_z
 _atom_site_occupancy
  Li  Li0  1  0.593532  0.593532  0.593532  1
  Li  Li1  1  0.402205  0.402205  0.402205  1
  Li  Li2  1  0.003658  0.003658  0.003658  1
  Al  Al3  1  0.808627  0.808627  0.808627  1
  Zn  Zn4  1  0.191978  0.191978  0.191978  1
