# generated using pymatgen
data_Tb6Ho2In3Ru
_symmetry_space_group_name_H-M   'P 1'
_cell_length_a   10.44815000
_cell_length_b   10.44815145
_cell_length_c   7.05212400
_cell_angle_alpha   90.00000000
_cell_angle_beta   90.00000000
_cell_angle_gamma   119.99999540
_symmetry_Int_Tables_number   1
_chemical_formula_structural   Tb6Ho2In3Ru
_chemical_formula_sum   'Tb12 Ho4 In6 Ru2'
_cell_volume   666.69845731
_cell_formula_units_Z   2
loop_
 _symmetry_equiv_pos_site_id
 _symmetry_equiv_pos_as_xyz
  1  'x, y, z'
loop_
 _atom_site_type_symbol
 _atom_site_label
 _atom_site_symmetry_multiplicity
 _atom_site_fract_x
 _atom_site_fract_y
 _atom_site_fract_z
 _atom_site_occupancy
  Tb  Tb0  1  0.533181  0.066361  0.508049  1
  Tb  Tb1  1  0.933639  0.466819  0.508049  1
  Tb  Tb2  1  0.533181  0.466819  0.508049  1
  Tb  Tb3  1  0.466819  0.933639  0.008049  1
  Tb  Tb4  1  0.066361  0.533181  0.008049  1
  Tb  Tb5  1  0.466819  0.533181  0.008049  1
  Tb  Tb6  1  0.177004  0.354008  0.712193  1
  Tb  Tb7  1  0.645992  0.822996  0.712193  1
  Tb  Tb8  1  0.177004  0.822996  0.712193  1
  Tb  Tb9  1  0.822996  0.645992  0.212193  1
  Tb  Tb10  1  0.354008  0.177004  0.212193  1
  Tb  Tb11  1  0.822996  0.177004  0.212193  1
  Ho  Ho12  1  0.666667  0.333333  0.884964  1
  Ho  Ho13  1  0.333333  0.666667  0.384964  1
  Ho  Ho14  1  0.000000  0.000000  0.493161  1
  Ho  Ho15  1  0.000000  0.000000  0.993161  1
  In  In16  1  0.837383  0.674766  0.752412  1
  In  In17  1  0.325234  0.162617  0.752412  1
  In  In18  1  0.837383  0.162617  0.752412  1
  In  In19  1  0.162617  0.325234  0.252412  1
  In  In20  1  0.674766  0.837383  0.252412  1
  In  In21  1  0.162617  0.837383  0.252412  1
  Ru  Ru22  1  0.666667  0.333333  0.282935  1
  Ru  Ru23  1  0.333333  0.666667  0.782935  1
