# generated using pymatgen
data_AlRu(SeO3)4
_symmetry_space_group_name_H-M   'P 1'
_cell_length_a   8.08383600
_cell_length_b   8.05148131
_cell_length_c   8.09230945
_cell_angle_alpha   89.92588628
_cell_angle_beta   90.00000000
_cell_angle_gamma   90.00000000
_symmetry_Int_Tables_number   1
_chemical_formula_structural   AlRu(SeO3)4
_chemical_formula_sum   'Al2 Ru2 Se8 O24'
_cell_volume   526.70252684
_cell_formula_units_Z   2
loop_
 _symmetry_equiv_pos_site_id
 _symmetry_equiv_pos_as_xyz
  1  'x, y, z'
loop_
 _atom_site_type_symbol
 _atom_site_label
 _atom_site_symmetry_multiplicity
 _atom_site_fract_x
 _atom_site_fract_y
 _atom_site_fract_z
 _atom_site_occupancy
  Al  Al0  1  0.000000  0.000000  0.500000  1
  Al  Al1  1  0.500000  0.000000  0.000000  1
  Ru  Ru2  1  0.000000  0.500000  0.000000  1
  Ru  Ru3  1  0.500000  0.500000  0.500000  1
  Se  Se4  1  0.328563  0.681841  0.167576  1
  Se  Se5  1  0.828563  0.318159  0.332424  1
  Se  Se6  1  0.676128  0.836206  0.680003  1
  Se  Se7  1  0.176128  0.163794  0.819997  1
  Se  Se8  1  0.671437  0.318159  0.832424  1
  Se  Se9  1  0.171437  0.681841  0.667576  1
  Se  Se10  1  0.323872  0.163794  0.319997  1
  Se  Se11  1  0.823872  0.836206  0.180003  1
  O  O12  1  0.239703  0.529691  0.035671  1
  O  O13  1  0.739703  0.470309  0.464329  1
  O  O14  1  0.768514  0.964592  0.540553  1
  O  O15  1  0.268514  0.035408  0.959447  1
  O  O16  1  0.538705  0.969707  0.769199  1
  O  O17  1  0.469577  0.541983  0.260425  1
  O  O18  1  0.969577  0.458017  0.239575  1
  O  O19  1  0.038705  0.030293  0.730801  1
  O  O20  1  0.958786  0.233366  0.472233  1
  O  O21  1  0.531748  0.737840  0.539514  1
  O  O22  1  0.458786  0.766634  0.027767  1
  O  O23  1  0.031748  0.262160  0.960486  1
  O  O24  1  0.760297  0.470309  0.964329  1
  O  O25  1  0.260297  0.529691  0.535671  1
  O  O26  1  0.231486  0.035408  0.459447  1
  O  O27  1  0.731486  0.964592  0.040553  1
  O  O28  1  0.461295  0.030293  0.230801  1
  O  O29  1  0.530423  0.458017  0.739575  1
  O  O30  1  0.030423  0.541983  0.760425  1
  O  O31  1  0.961295  0.969707  0.269199  1
  O  O32  1  0.041214  0.766634  0.527767  1
  O  O33  1  0.468252  0.262160  0.460486  1
  O  O34  1  0.541214  0.233366  0.972233  1
  O  O35  1  0.968252  0.737840  0.039514  1
