# generated using pymatgen
data_PaCoH5
_symmetry_space_group_name_H-M   'P 1'
_cell_length_a   4.27001797
_cell_length_b   3.90570034
_cell_length_c   4.26760381
_cell_angle_alpha   62.76189528
_cell_angle_beta   118.91955427
_cell_angle_gamma   117.22123519
_symmetry_Int_Tables_number   1
_chemical_formula_structural   PaCoH5
_chemical_formula_sum   'Pa1 Co1 H5'
_cell_volume   52.77890140
_cell_formula_units_Z   1
loop_
 _symmetry_equiv_pos_site_id
 _symmetry_equiv_pos_as_xyz
  1  'x, y, z'
loop_
 _atom_site_type_symbol
 _atom_site_label
 _atom_site_symmetry_multiplicity
 _atom_site_fract_x
 _atom_site_fract_y
 _atom_site_fract_z
 _atom_site_occupancy
  Pa  Pa0  1  0.827635  0.383550  0.044340  1
  Co  Co1  1  0.327687  0.883562  0.544369  1
  H  H2  1  0.224026  0.053450  0.100893  1
  H  H3  1  0.431229  0.713658  0.987672  1
  H  H4  1  0.327811  0.383713  0.544130  1
  H  H5  1  0.770581  0.053616  0.647203  1
  H  H6  1  0.885059  0.713516  0.441716  1
