# generated using pymatgen
data_ThAgPRu2
_symmetry_space_group_name_H-M   'P 1'
_cell_length_a   4.02578200
_cell_length_b   4.02578200
_cell_length_c   11.15124900
_cell_angle_alpha   90.00000000
_cell_angle_beta   90.00000000
_cell_angle_gamma   90.00000000
_symmetry_Int_Tables_number   1
_chemical_formula_structural   ThAgPRu2
_chemical_formula_sum   'Th2 Ag2 P2 Ru4'
_cell_volume   180.72740838
_cell_formula_units_Z   2
loop_
 _symmetry_equiv_pos_site_id
 _symmetry_equiv_pos_as_xyz
  1  'x, y, z'
loop_
 _atom_site_type_symbol
 _atom_site_label
 _atom_site_symmetry_multiplicity
 _atom_site_fract_x
 _atom_site_fract_y
 _atom_site_fract_z
 _atom_site_occupancy
  Th  Th0  1  0.000000  0.500000  0.753289  1
  Th  Th1  1  0.500000  0.000000  0.246711  1
  Ag  Ag2  1  0.000000  0.000000  0.500000  1
  Ag  Ag3  1  0.500000  0.500000  0.500000  1
  P  P4  1  0.500000  0.000000  0.890632  1
  P  P5  1  0.000000  0.500000  0.109368  1
  Ru  Ru6  1  0.000000  0.500000  0.314487  1
  Ru  Ru7  1  0.500000  0.000000  0.685513  1
  Ru  Ru8  1  0.500000  0.500000  0.000000  1
  Ru  Ru9  1  0.000000  0.000000  0.000000  1
