# generated using pymatgen
data_YU5Co17P12W
_symmetry_space_group_name_H-M   'P 1'
_cell_length_a   3.72233200
_cell_length_b   10.50049600
_cell_length_c   12.31862300
_cell_angle_alpha   90.00000000
_cell_angle_beta   90.00000000
_cell_angle_gamma   90.00000000
_symmetry_Int_Tables_number   1
_chemical_formula_structural   YU5Co17P12W
_chemical_formula_sum   'Y1 U5 Co17 P12 W1'
_cell_volume   481.48979177
_cell_formula_units_Z   1
loop_
 _symmetry_equiv_pos_site_id
 _symmetry_equiv_pos_as_xyz
  1  'x, y, z'
loop_
 _atom_site_type_symbol
 _atom_site_label
 _atom_site_symmetry_multiplicity
 _atom_site_fract_x
 _atom_site_fract_y
 _atom_site_fract_z
 _atom_site_occupancy
  Y  Y0  1  0.500000  0.000000  0.476995  1
  U  U1  1  0.000000  0.500000  0.524344  1
  U  U2  1  0.500000  0.819882  0.206334  1
  U  U3  1  0.500000  0.180118  0.206334  1
  U  U4  1  0.000000  0.676983  0.791616  1
  U  U5  1  0.000000  0.323017  0.791616  1
  Co  Co6  1  0.500000  0.500000  0.163142  1
  Co  Co7  1  0.500000  0.500000  0.700800  1
  Co  Co8  1  0.000000  0.000000  0.290344  1
  Co  Co9  1  0.000000  0.500000  0.986212  1
  Co  Co10  1  0.500000  0.000000  0.010707  1
  Co  Co11  1  0.500000  0.333598  0.997544  1
  Co  Co12  1  0.500000  0.666402  0.997544  1
  Co  Co13  1  0.000000  0.168847  0.007383  1
  Co  Co14  1  0.000000  0.831153  0.007383  1
  Co  Co15  1  0.500000  0.301042  0.429306  1
  Co  Co16  1  0.500000  0.698958  0.429306  1
  Co  Co17  1  0.000000  0.201551  0.569710  1
  Co  Co18  1  0.000000  0.798449  0.569710  1
  Co  Co19  1  0.500000  0.877572  0.711712  1
  Co  Co20  1  0.500000  0.122428  0.711712  1
  Co  Co21  1  0.000000  0.621814  0.290785  1
  Co  Co22  1  0.000000  0.378186  0.290785  1
  P  P23  1  0.500000  0.500000  0.885821  1
  P  P24  1  0.000000  0.000000  0.112923  1
  P  P25  1  0.500000  0.500000  0.345604  1
  P  P26  1  0.000000  0.000000  0.650170  1
  P  P27  1  0.500000  0.308013  0.612148  1
  P  P28  1  0.500000  0.691987  0.612148  1
  P  P29  1  0.000000  0.188865  0.385619  1
  P  P30  1  0.000000  0.811135  0.385619  1
  P  P31  1  0.500000  0.839346  0.893740  1
  P  P32  1  0.500000  0.160654  0.893740  1
  P  P33  1  0.000000  0.651309  0.109132  1
  P  P34  1  0.000000  0.348691  0.109132  1
  W  W35  1  0.000000  0.000000  0.842882  1
