# generated using pymatgen
data_Ba10Nd4Y(OsO6)5
_symmetry_space_group_name_H-M   'P 1'
_cell_length_a   6.04617064
_cell_length_b   6.06965374
_cell_length_c   25.01539018
_cell_angle_alpha   83.38295787
_cell_angle_beta   83.06798279
_cell_angle_gamma   60.12898569
_symmetry_Int_Tables_number   1
_chemical_formula_structural   Ba10Nd4Y(OsO6)5
_chemical_formula_sum   'Ba10 Nd4 Y1 Os5 O30'
_cell_volume   788.61794713
_cell_formula_units_Z   1
loop_
 _symmetry_equiv_pos_site_id
 _symmetry_equiv_pos_as_xyz
  1  'x, y, z'
loop_
 _atom_site_type_symbol
 _atom_site_label
 _atom_site_symmetry_multiplicity
 _atom_site_fract_x
 _atom_site_fract_y
 _atom_site_fract_z
 _atom_site_occupancy
  Ba  Ba0  1  0.250787  0.249182  0.751153  1
  Ba  Ba1  1  0.450876  0.451291  0.147304  1
  Ba  Ba2  1  0.650980  0.649585  0.550090  1
  Ba  Ba3  1  0.848124  0.849458  0.951868  1
  Ba  Ba4  1  0.050074  0.050333  0.348963  1
  Ba  Ba5  1  0.549124  0.548709  0.852696  1
  Ba  Ba6  1  0.749213  0.750818  0.248847  1
  Ba  Ba7  1  0.949926  0.949667  0.651037  1
  Ba  Ba8  1  0.151876  0.150542  0.048132  1
  Ba  Ba9  1  0.349020  0.350415  0.449910  1
  Nd  Nd10  1  0.900522  0.898719  0.801553  1
  Nd  Nd11  1  0.300517  0.299597  0.600503  1
  Nd  Nd12  1  0.699483  0.700403  0.399497  1
  Nd  Nd13  1  0.099478  0.101281  0.198447  1
  Y  Y14  1  0.500000  0.500000  0.000000  1
  Os  Os15  1  0.198631  0.198951  0.902289  1
  Os  Os16  1  0.399535  0.400712  0.298957  1
  Os  Os17  1  0.600465  0.599288  0.701043  1
  Os  Os18  1  0.801369  0.801049  0.097711  1
  Os  Os19  1  0.000000  0.000000  0.500000  1
  O  O20  1  0.739406  0.275498  0.747203  1
  O  O21  1  0.937810  0.479266  0.144129  1
  O  O22  1  0.139805  0.676245  0.546137  1
  O  O23  1  0.339391  0.871311  0.948267  1
  O  O24  1  0.538496  0.077164  0.345148  1
  O  O25  1  0.062190  0.520734  0.855871  1
  O  O26  1  0.260594  0.724502  0.252797  1
  O  O27  1  0.461504  0.922836  0.654852  1
  O  O28  1  0.660609  0.128689  0.051733  1
  O  O29  1  0.860195  0.323755  0.453863  1
  O  O30  1  0.902815  0.442087  0.648220  1
  O  O31  1  0.300881  0.842921  0.446910  1
  O  O32  1  0.701697  0.243242  0.246101  1
  O  O33  1  0.114319  0.642960  0.046723  1
  O  O34  1  0.504174  0.044389  0.850548  1
  O  O35  1  0.298303  0.756758  0.753899  1
  O  O36  1  0.699119  0.157079  0.553090  1
  O  O37  1  0.097185  0.557913  0.351780  1
  O  O38  1  0.495826  0.955611  0.149452  1
  O  O39  1  0.885681  0.357040  0.953277  1
  O  O40  1  0.415942  0.481027  0.661531  1
  O  O41  1  0.814321  0.881678  0.460683  1
  O  O42  1  0.215463  0.281912  0.259352  1
  O  O43  1  0.624221  0.676012  0.056759  1
  O  O44  1  0.021629  0.078545  0.861598  1
  O  O45  1  0.375779  0.323988  0.943241  1
  O  O46  1  0.784537  0.718088  0.740648  1
  O  O47  1  0.185679  0.118322  0.539317  1
  O  O48  1  0.584058  0.518973  0.338469  1
  O  O49  1  0.978371  0.921455  0.138402  1
