# generated using pymatgen
data_TbNd7(AsBr6)2
_symmetry_space_group_name_H-M   'P 1'
_cell_length_a   4.23431900
_cell_length_b   13.59510994
_cell_length_c   14.44718601
_cell_angle_alpha   90.38692440
_cell_angle_beta   90.00000000
_cell_angle_gamma   90.00000000
_symmetry_Int_Tables_number   1
_chemical_formula_structural   TbNd7(AsBr6)2
_chemical_formula_sum   'Tb1 Nd7 As2 Br12'
_cell_volume   831.64821272
_cell_formula_units_Z   1
loop_
 _symmetry_equiv_pos_site_id
 _symmetry_equiv_pos_as_xyz
  1  'x, y, z'
loop_
 _atom_site_type_symbol
 _atom_site_label
 _atom_site_symmetry_multiplicity
 _atom_site_fract_x
 _atom_site_fract_y
 _atom_site_fract_z
 _atom_site_occupancy
  Tb  Tb0  1  0.500000  0.380479  0.839654  1
  Nd  Nd1  1  0.500000  0.119771  0.340553  1
  Nd  Nd2  1  0.500000  0.880947  0.660139  1
  Nd  Nd3  1  0.500000  0.618321  0.158181  1
  Nd  Nd4  1  0.000000  0.119238  0.579437  1
  Nd  Nd5  1  0.000000  0.882322  0.421877  1
  Nd  Nd6  1  0.000000  0.618293  0.922451  1
  Nd  Nd7  1  0.000000  0.382501  0.078635  1
  As  As8  1  0.500000  0.000999  0.500788  1
  As  As9  1  0.500000  0.497167  0.996121  1
  Br  Br10  1  0.500000  0.243336  0.160533  1
  Br  Br11  1  0.500000  0.755238  0.837791  1
  Br  Br12  1  0.500000  0.743201  0.338113  1
  Br  Br13  1  0.500000  0.258476  0.667222  1
  Br  Br14  1  0.000000  0.256232  0.412172  1
  Br  Br15  1  0.000000  0.744361  0.588453  1
  Br  Br16  1  0.000000  0.755791  0.089036  1
  Br  Br17  1  0.000000  0.250810  0.904698  1
  Br  Br18  1  0.000000  0.001468  0.243699  1
  Br  Br19  1  0.000000  0.998794  0.757328  1
  Br  Br20  1  0.000000  0.502084  0.256531  1
  Br  Br21  1  0.000000  0.490168  0.746590  1
