# generated using pymatgen
data_LiCa2AlGe2
_symmetry_space_group_name_H-M   'P 1'
_cell_length_a   4.36608200
_cell_length_b   7.10476200
_cell_length_c   16.54030800
_cell_angle_alpha   90.00000000
_cell_angle_beta   90.00000000
_cell_angle_gamma   90.00000000
_symmetry_Int_Tables_number   1
_chemical_formula_structural   LiCa2AlGe2
_chemical_formula_sum   'Li4 Ca8 Al4 Ge8'
_cell_volume   513.07991555
_cell_formula_units_Z   4
loop_
 _symmetry_equiv_pos_site_id
 _symmetry_equiv_pos_as_xyz
  1  'x, y, z'
loop_
 _atom_site_type_symbol
 _atom_site_label
 _atom_site_symmetry_multiplicity
 _atom_site_fract_x
 _atom_site_fract_y
 _atom_site_fract_z
 _atom_site_occupancy
  Li  Li0  1  0.250000  0.984107  0.067821  1
  Li  Li1  1  0.750000  0.515893  0.567821  1
  Li  Li2  1  0.750000  0.015893  0.932179  1
  Li  Li3  1  0.250000  0.484107  0.432179  1
  Ca  Ca4  1  0.250000  0.343659  0.938408  1
  Ca  Ca5  1  0.250000  0.843659  0.561592  1
  Ca  Ca6  1  0.750000  0.156341  0.438408  1
  Ca  Ca7  1  0.750000  0.497959  0.276886  1
  Ca  Ca8  1  0.750000  0.997959  0.223114  1
  Ca  Ca9  1  0.750000  0.656341  0.061592  1
  Ca  Ca10  1  0.250000  0.502041  0.723114  1
  Ca  Ca11  1  0.250000  0.002041  0.776886  1
  Al  Al12  1  0.750000  0.165865  0.655368  1
  Al  Al13  1  0.250000  0.834135  0.344632  1
  Al  Al14  1  0.750000  0.665865  0.844632  1
  Al  Al15  1  0.250000  0.334135  0.155368  1
  Ge  Ge16  1  0.750000  0.229348  0.070693  1
  Ge  Ge17  1  0.750000  0.792026  0.689163  1
  Ge  Ge18  1  0.250000  0.207974  0.310837  1
  Ge  Ge19  1  0.250000  0.707974  0.189163  1
  Ge  Ge20  1  0.250000  0.270652  0.570693  1
  Ge  Ge21  1  0.750000  0.292026  0.810837  1
  Ge  Ge22  1  0.250000  0.770652  0.929307  1
  Ge  Ge23  1  0.750000  0.729348  0.429307  1
