# generated using pymatgen
data_Tm6Al24FeIr6Ru
_symmetry_space_group_name_H-M   'P 1'
_cell_length_a   8.76643100
_cell_length_b   8.76642956
_cell_length_c   9.43706900
_cell_angle_alpha   90.00000000
_cell_angle_beta   90.00000000
_cell_angle_gamma   120.00000919
_symmetry_Int_Tables_number   1
_chemical_formula_structural   Tm6Al24FeIr6Ru
_chemical_formula_sum   'Tm6 Al24 Fe1 Ir6 Ru1'
_cell_volume   628.07757637
_cell_formula_units_Z   1
loop_
 _symmetry_equiv_pos_site_id
 _symmetry_equiv_pos_as_xyz
  1  'x, y, z'
loop_
 _atom_site_type_symbol
 _atom_site_label
 _atom_site_symmetry_multiplicity
 _atom_site_fract_x
 _atom_site_fract_y
 _atom_site_fract_z
 _atom_site_occupancy
  Tm  Tm0  1  0.805877  0.194123  0.750075  1
  Tm  Tm1  1  0.194123  0.805877  0.249925  1
  Tm  Tm2  1  0.388245  0.194123  0.750075  1
  Tm  Tm3  1  0.611755  0.805877  0.249925  1
  Tm  Tm4  1  0.805877  0.611755  0.750075  1
  Tm  Tm5  1  0.194123  0.388245  0.249925  1
  Al  Al6  1  0.666667  0.333333  0.972186  1
  Al  Al7  1  0.333333  0.666667  0.027814  1
  Al  Al8  1  0.333333  0.666667  0.471504  1
  Al  Al9  1  0.666667  0.333333  0.528496  1
  Al  Al10  1  0.837311  0.162689  0.422247  1
  Al  Al11  1  0.162689  0.837311  0.577753  1
  Al  Al12  1  0.325379  0.162689  0.422247  1
  Al  Al13  1  0.160357  0.839643  0.923307  1
  Al  Al14  1  0.674621  0.837311  0.577753  1
  Al  Al15  1  0.839643  0.160357  0.076693  1
  Al  Al16  1  0.837311  0.674621  0.422247  1
  Al  Al17  1  0.679286  0.839643  0.923307  1
  Al  Al18  1  0.162689  0.325379  0.577753  1
  Al  Al19  1  0.320714  0.160357  0.076693  1
  Al  Al20  1  0.160357  0.320714  0.923307  1
  Al  Al21  1  0.839643  0.679286  0.076693  1
  Al  Al22  1  0.437497  0.562503  0.750235  1
  Al  Al23  1  0.562503  0.437497  0.249765  1
  Al  Al24  1  0.125006  0.562503  0.750235  1
  Al  Al25  1  0.874994  0.437497  0.249765  1
  Al  Al26  1  0.437497  0.874994  0.750235  1
  Al  Al27  1  0.562503  0.125006  0.249765  1
  Al  Al28  1  0.000000  0.000000  0.756115  1
  Al  Al29  1  0.000000  0.000000  0.243885  1
  Fe  Fe30  1  0.000000  0.000000  0.000000  1
  Ir  Ir31  1  0.500000  0.500000  0.000000  1
  Ir  Ir32  1  0.000000  0.500000  0.000000  1
  Ir  Ir33  1  0.500000  0.500000  0.500000  1
  Ir  Ir34  1  0.500000  0.000000  0.000000  1
  Ir  Ir35  1  0.000000  0.500000  0.500000  1
  Ir  Ir36  1  0.500000  0.000000  0.500000  1
  Ru  Ru37  1  0.000000  0.000000  0.500000  1
