# generated using pymatgen
data_Tb2Dy(SiNi3)2
_symmetry_space_group_name_H-M   'P 1'
_cell_length_a   7.60989281
_cell_length_b   7.60989174
_cell_length_c   7.60079171
_cell_angle_alpha   109.44856652
_cell_angle_beta   109.44857428
_cell_angle_gamma   109.56495635
_symmetry_Int_Tables_number   1
_chemical_formula_structural   Tb2Dy(SiNi3)2
_chemical_formula_sum   'Tb4 Dy2 Si4 Ni12'
_cell_volume   338.63639894
_cell_formula_units_Z   2
loop_
 _symmetry_equiv_pos_site_id
 _symmetry_equiv_pos_as_xyz
  1  'x, y, z'
loop_
 _atom_site_type_symbol
 _atom_site_label
 _atom_site_symmetry_multiplicity
 _atom_site_fract_x
 _atom_site_fract_y
 _atom_site_fract_z
 _atom_site_occupancy
  Tb  Tb0  1  0.714795  0.714795  0.000114  1
  Tb  Tb1  1  0.285097  0.000039  0.285135  1
  Tb  Tb2  1  0.000039  0.285097  0.285135  1
  Tb  Tb3  1  0.285319  0.285319  0.000114  1
  Dy  Dy4  1  0.714332  0.000276  0.714608  1
  Dy  Dy5  1  0.000276  0.714332  0.714608  1
  Si  Si6  1  0.999993  0.999993  0.500514  1
  Si  Si7  1  0.999954  0.499954  0.999910  1
  Si  Si8  1  0.499954  0.999954  0.999910  1
  Si  Si9  1  0.500521  0.500521  0.500514  1
  Ni  Ni10  1  0.331022  0.331022  0.662045  1
  Ni  Ni11  1  0.668515  0.999484  0.330846  1
  Ni  Ni12  1  0.999484  0.668515  0.330846  1
  Ni  Ni13  1  0.668840  0.329848  0.998690  1
  Ni  Ni14  1  0.331363  0.662331  0.330846  1
  Ni  Ni15  1  0.999205  0.330079  0.669060  1
  Ni  Ni16  1  0.329848  0.668840  0.998690  1
  Ni  Ni17  1  0.330079  0.999205  0.669060  1
  Ni  Ni18  1  0.662331  0.331363  0.330846  1
  Ni  Ni19  1  0.670194  0.670194  0.340389  1
  Ni  Ni20  1  0.669855  0.338982  0.669060  1
  Ni  Ni21  1  0.338982  0.669855  0.669060  1
