# generated using pymatgen
data_ErLu3(ZrIr)4
_symmetry_space_group_name_H-M   'P 1'
_cell_length_a   4.53880500
_cell_length_b   7.05588668
_cell_length_c   8.23681520
_cell_angle_alpha   90.03197410
_cell_angle_beta   90.00000000
_cell_angle_gamma   90.00000000
_symmetry_Int_Tables_number   1
_chemical_formula_structural   ErLu3(ZrIr)4
_chemical_formula_sum   'Er1 Lu3 Zr4 Ir4'
_cell_volume   263.78638533
_cell_formula_units_Z   1
loop_
 _symmetry_equiv_pos_site_id
 _symmetry_equiv_pos_as_xyz
  1  'x, y, z'
loop_
 _atom_site_type_symbol
 _atom_site_label
 _atom_site_symmetry_multiplicity
 _atom_site_fract_x
 _atom_site_fract_y
 _atom_site_fract_z
 _atom_site_occupancy
  Er  Er0  1  0.750000  0.516512  0.824192  1
  Lu  Lu1  1  0.250000  0.982882  0.325041  1
  Lu  Lu2  1  0.250000  0.482116  0.175749  1
  Lu  Lu3  1  0.750000  0.017534  0.674638  1
  Zr  Zr4  1  0.250000  0.354344  0.573298  1
  Zr  Zr5  1  0.250000  0.854863  0.925956  1
  Zr  Zr6  1  0.750000  0.646218  0.424931  1
  Zr  Zr7  1  0.750000  0.144972  0.075128  1
  Ir  Ir8  1  0.250000  0.235255  0.904505  1
  Ir  Ir9  1  0.250000  0.737091  0.595643  1
  Ir  Ir10  1  0.750000  0.764151  0.097065  1
  Ir  Ir11  1  0.750000  0.264062  0.403856  1
