# generated using pymatgen
data_Zr3MnFe8
_symmetry_space_group_name_H-M   'P 1'
_cell_length_a   8.53718047
_cell_length_b   8.53718007
_cell_length_c   8.53718014
_cell_angle_alpha   33.49211050
_cell_angle_beta   33.49211408
_cell_angle_gamma   33.49211567
_symmetry_Int_Tables_number   1
_chemical_formula_structural   Zr3MnFe8
_chemical_formula_sum   'Zr3 Mn1 Fe8'
_cell_volume   168.74778977
_cell_formula_units_Z   1
loop_
 _symmetry_equiv_pos_site_id
 _symmetry_equiv_pos_as_xyz
  1  'x, y, z'
loop_
 _atom_site_type_symbol
 _atom_site_label
 _atom_site_symmetry_multiplicity
 _atom_site_fract_x
 _atom_site_fract_y
 _atom_site_fract_z
 _atom_site_occupancy
  Zr  Zr0  1  0.624496  0.624496  0.624496  1
  Zr  Zr1  1  0.004966  0.004966  0.004966  1
  Zr  Zr2  1  0.496053  0.496053  0.496053  1
  Mn  Mn3  1  0.125873  0.125873  0.125873  1
  Fe  Fe4  1  0.563738  0.061953  0.563738  1
  Fe  Fe5  1  0.062402  0.559737  0.062402  1
  Fe  Fe6  1  0.061953  0.563738  0.563738  1
  Fe  Fe7  1  0.559737  0.062402  0.062402  1
  Fe  Fe8  1  0.812246  0.812246  0.812246  1
  Fe  Fe9  1  0.312397  0.312397  0.312397  1
  Fe  Fe10  1  0.563738  0.563738  0.061953  1
  Fe  Fe11  1  0.062402  0.062402  0.559737  1
