# generated using pymatgen
data_Cs2Eu(ICl)2
_symmetry_space_group_name_H-M   'P 1'
_cell_length_a   10.53919664
_cell_length_b   10.53919688
_cell_length_c   10.53919753
_cell_angle_alpha   148.64586616
_cell_angle_beta   148.64311411
_cell_angle_gamma   44.93486146
_symmetry_Int_Tables_number   1
_chemical_formula_structural   Cs2Eu(ICl)2
_chemical_formula_sum   'Cs2 Eu1 I2 Cl2'
_cell_volume   315.97772689
_cell_formula_units_Z   1
loop_
 _symmetry_equiv_pos_site_id
 _symmetry_equiv_pos_as_xyz
  1  'x, y, z'
loop_
 _atom_site_type_symbol
 _atom_site_label
 _atom_site_symmetry_multiplicity
 _atom_site_fract_x
 _atom_site_fract_y
 _atom_site_fract_z
 _atom_site_occupancy
  Cs  Cs0  1  0.367688  0.367688  0.000000  1
  Cs  Cs1  1  0.632312  0.632312  0.000000  1
  Eu  Eu2  1  0.000000  0.000000  0.000000  1
  I  I3  1  0.167159  0.167159  0.000000  1
  I  I4  1  0.832841  0.832841  0.000000  1
  Cl  Cl5  1  0.500000  0.000000  0.500000  1
  Cl  Cl6  1  0.000000  0.500000  0.500000  1
