# generated using pymatgen
data_YPa(Co3B2)2
_symmetry_space_group_name_H-M   'P 1'
_cell_length_a   5.83059613
_cell_length_b   5.83059696
_cell_length_c   5.83059700
_cell_angle_alpha   129.84981581
_cell_angle_beta   116.02679924
_cell_angle_gamma   85.43620607
_symmetry_Int_Tables_number   1
_chemical_formula_structural   YPa(Co3B2)2
_chemical_formula_sum   'Y1 Pa1 Co6 B4'
_cell_volume   130.77452012
_cell_formula_units_Z   1
loop_
 _symmetry_equiv_pos_site_id
 _symmetry_equiv_pos_as_xyz
  1  'x, y, z'
loop_
 _atom_site_type_symbol
 _atom_site_label
 _atom_site_symmetry_multiplicity
 _atom_site_fract_x
 _atom_site_fract_y
 _atom_site_fract_z
 _atom_site_occupancy
  Y  Y0  1  0.750000  0.498402  0.748402  1
  Pa  Pa1  1  0.250000  0.504524  0.254524  1
  Co  Co2  1  0.009537  0.999843  0.509380  1
  Co  Co3  1  0.490463  0.999843  0.990305  1
  Co  Co4  1  0.741966  0.998205  0.741470  1
  Co  Co5  1  0.243266  0.499505  0.741470  1
  Co  Co6  1  0.256734  0.998205  0.256239  1
  Co  Co7  1  0.758034  0.499505  0.256239  1
  B  B8  1  0.078033  0.837456  0.759422  1
  B  B9  1  0.912336  0.153899  0.241562  1
  B  B10  1  0.587664  0.829227  0.241562  1
  B  B11  1  0.421967  0.181387  0.759422  1
