# generated using pymatgen
data_SmTmI26
_symmetry_space_group_name_H-M   'P 1'
_cell_length_a   13.25602360
_cell_length_b   11.37609619
_cell_length_c   15.27405886
_cell_angle_alpha   120.49835496
_cell_angle_beta   89.46741919
_cell_angle_gamma   105.16723067
_symmetry_Int_Tables_number   1
_chemical_formula_structural   SmTmI26
_chemical_formula_sum   'Sm1 Tm1 I26'
_cell_volume   1894.30234968
_cell_formula_units_Z   1
loop_
 _symmetry_equiv_pos_site_id
 _symmetry_equiv_pos_as_xyz
  1  'x, y, z'
loop_
 _atom_site_type_symbol
 _atom_site_label
 _atom_site_symmetry_multiplicity
 _atom_site_fract_x
 _atom_site_fract_y
 _atom_site_fract_z
 _atom_site_occupancy
  Sm  Sm0  1  0.666956  0.125198  0.064821  1
  Tm  Tm1  1  0.330649  0.869670  0.934370  1
  I  I2  1  0.376473  0.653934  0.975176  1
  I  I3  1  0.619379  0.346877  0.022828  1
  I  I4  1  0.583071  0.811731  0.392931  1
  I  I5  1  0.421792  0.192994  0.607030  1
  I  I6  1  0.729480  0.682888  0.000356  1
  I  I7  1  0.263607  0.308243  0.995378  1
  I  I8  1  0.703093  0.943332  0.158686  1
  I  I9  1  0.285715  0.042220  0.842337  1
  I  I10  1  0.442198  0.120037  0.137554  1
  I  I11  1  0.545381  0.871319  0.856926  1
  I  I12  1  0.242102  0.660263  0.706262  1
  I  I13  1  0.772326  0.354098  0.293989  1
  I  I14  1  0.123538  0.830781  0.995486  1
  I  I15  1  0.883618  0.168386  0.009523  1
  I  I16  1  0.093434  0.083030  0.211091  1
  I  I17  1  0.904804  0.915395  0.792597  1
  I  I18  1  0.276725  0.915123  0.458418  1
  I  I19  1  0.725263  0.089282  0.543073  1
  I  I20  1  0.333139  0.424252  0.650974  1
  I  I21  1  0.679527  0.585216  0.346213  1
  I  I22  1  0.854782  0.382266  0.701586  1
  I  I23  1  0.146385  0.623406  0.301490  1
  I  I24  1  0.948317  0.709257  0.608174  1
  I  I25  1  0.049292  0.291687  0.393410  1
  I  I26  1  0.254275  0.627418  0.132356  1
  I  I27  1  0.744680  0.371697  0.866967  1
