# generated using pymatgen
data_Ba7LaUCdSe12
_symmetry_space_group_name_H-M   'P 1'
_cell_length_a   8.98163054
_cell_length_b   8.98163160
_cell_length_c   8.98163248
_cell_angle_alpha   90.77342598
_cell_angle_beta   90.77342298
_cell_angle_gamma   90.77344031
_symmetry_Int_Tables_number   1
_chemical_formula_structural   Ba7LaUCdSe12
_chemical_formula_sum   'Ba7 La1 U1 Cd1 Se12'
_cell_volume   724.34572985
_cell_formula_units_Z   1
loop_
 _symmetry_equiv_pos_site_id
 _symmetry_equiv_pos_as_xyz
  1  'x, y, z'
loop_
 _atom_site_type_symbol
 _atom_site_label
 _atom_site_symmetry_multiplicity
 _atom_site_fract_x
 _atom_site_fract_y
 _atom_site_fract_z
 _atom_site_occupancy
  Ba  Ba0  1  0.862461  0.621430  0.260924  1
  Ba  Ba1  1  0.260924  0.862461  0.621430  1
  Ba  Ba2  1  0.621430  0.260924  0.862461  1
  Ba  Ba3  1  0.739786  0.132315  0.377239  1
  Ba  Ba4  1  0.377239  0.739786  0.132315  1
  Ba  Ba5  1  0.132315  0.377239  0.739786  1
  Ba  Ba6  1  0.740370  0.740370  0.740370  1
  La  La7  1  0.262789  0.262789  0.262789  1
  U  U8  1  0.002069  0.002069  0.002069  1
  Cd  Cd9  1  0.503119  0.503119  0.503119  1
  Se  Se10  1  0.192842  0.549875  0.405064  1
  Se  Se11  1  0.405064  0.192842  0.549875  1
  Se  Se12  1  0.549875  0.405064  0.192842  1
  Se  Se13  1  0.931238  0.055102  0.708564  1
  Se  Se14  1  0.708564  0.931238  0.055102  1
  Se  Se15  1  0.055102  0.708564  0.931238  1
  Se  Se16  1  0.803622  0.432833  0.579502  1
  Se  Se17  1  0.579502  0.803622  0.432833  1
  Se  Se18  1  0.432833  0.579502  0.803622  1
  Se  Se19  1  0.082660  0.958465  0.297731  1
  Se  Se20  1  0.297731  0.082660  0.958465  1
  Se  Se21  1  0.958465  0.297731  0.082660  1
