# generated using pymatgen
data_Ho4Al6RuRh
_symmetry_space_group_name_H-M   'P 1'
_cell_length_a   5.51414500
_cell_length_b   5.51414555
_cell_length_c   8.74396500
_cell_angle_alpha   90.00000000
_cell_angle_beta   90.00000000
_cell_angle_gamma   120.00000268
_symmetry_Int_Tables_number   1
_chemical_formula_structural   Ho4Al6RuRh
_chemical_formula_sum   'Ho4 Al6 Ru1 Rh1'
_cell_volume   230.24777302
_cell_formula_units_Z   1
loop_
 _symmetry_equiv_pos_site_id
 _symmetry_equiv_pos_as_xyz
  1  'x, y, z'
loop_
 _atom_site_type_symbol
 _atom_site_label
 _atom_site_symmetry_multiplicity
 _atom_site_fract_x
 _atom_site_fract_y
 _atom_site_fract_z
 _atom_site_occupancy
  Ho  Ho0  1  0.666666  0.333332  0.053421  1
  Ho  Ho1  1  0.666666  0.333332  0.444194  1
  Ho  Ho2  1  0.333334  0.666667  0.555806  1
  Ho  Ho3  1  0.333334  0.666667  0.946579  1
  Al  Al4  1  0.162956  0.325913  0.249985  1
  Al  Al5  1  0.162957  0.837044  0.249985  1
  Al  Al6  1  0.674087  0.837044  0.249985  1
  Al  Al7  1  0.325913  0.162957  0.750013  1
  Al  Al8  1  0.837045  0.162957  0.750013  1
  Al  Al9  1  0.837043  0.674087  0.750013  1
  Ru  Ru10  1  0.000000  0.000000  0.500000  1
  Rh  Rh11  1  0.000000  0.000000  0.000000  1
