# generated using pymatgen
data_Y3In4CoAg
_symmetry_space_group_name_H-M   'P 1'
_cell_length_a   8.04432100
_cell_length_b   8.04432145
_cell_length_c   3.73222400
_cell_angle_alpha   90.00000000
_cell_angle_beta   90.00000000
_cell_angle_gamma   120.00001047
_symmetry_Int_Tables_number   1
_chemical_formula_structural   Y3In4CoAg
_chemical_formula_sum   'Y3 In4 Co1 Ag1'
_cell_volume   209.15925983
_cell_formula_units_Z   1
loop_
 _symmetry_equiv_pos_site_id
 _symmetry_equiv_pos_as_xyz
  1  'x, y, z'
loop_
 _atom_site_type_symbol
 _atom_site_label
 _atom_site_symmetry_multiplicity
 _atom_site_fract_x
 _atom_site_fract_y
 _atom_site_fract_z
 _atom_site_occupancy
  Y  Y0  1  0.045990  0.289205  0.500000  1
  Y  Y1  1  0.710795  0.756784  0.500000  1
  Y  Y2  1  0.243216  0.954010  0.500000  1
  In  In3  1  0.669542  0.062432  0.000000  1
  In  In4  1  0.937568  0.607111  0.000000  1
  In  In5  1  0.392889  0.330458  0.000000  1
  In  In6  1  0.333333  0.666667  0.000000  1
  Co  Co7  1  0.000000  0.000000  0.000000  1
  Ag  Ag8  1  0.666667  0.333333  0.500000  1
