# generated using pymatgen
data_Rb2Sc2GaAgTe6
_symmetry_space_group_name_H-M   'P 1'
_cell_length_a   8.63455771
_cell_length_b   8.63455716
_cell_length_c   11.38381900
_cell_angle_alpha   90.00000000
_cell_angle_beta   90.00000000
_cell_angle_gamma   150.78046840
_symmetry_Int_Tables_number   1
_chemical_formula_structural   Rb2Sc2GaAgTe6
_chemical_formula_sum   'Rb2 Sc2 Ga1 Ag1 Te6'
_cell_volume   414.31232068
_cell_formula_units_Z   1
loop_
 _symmetry_equiv_pos_site_id
 _symmetry_equiv_pos_as_xyz
  1  'x, y, z'
loop_
 _atom_site_type_symbol
 _atom_site_label
 _atom_site_symmetry_multiplicity
 _atom_site_fract_x
 _atom_site_fract_y
 _atom_site_fract_z
 _atom_site_occupancy
  Rb  Rb0  1  0.240958  0.759040  0.250000  1
  Rb  Rb1  1  0.746679  0.253319  0.750000  1
  Sc  Sc2  1  0.005704  0.994296  0.023104  1
  Sc  Sc3  1  0.005704  0.994296  0.476896  1
  Ga  Ga4  1  0.461382  0.538617  0.750000  1
  Ag  Ag5  1  0.536754  0.463245  0.250000  1
  Te  Te6  1  0.621789  0.378210  0.039518  1
  Te  Te7  1  0.927424  0.072574  0.250000  1
  Te  Te8  1  0.621789  0.378210  0.460482  1
  Te  Te9  1  0.386440  0.613559  0.550035  1
  Te  Te10  1  0.058931  0.941067  0.750000  1
  Te  Te11  1  0.386440  0.613559  0.949966  1
