# generated using pymatgen
data_HoTm3Mg2(B2Rh5)2
_symmetry_space_group_name_H-M   'P 1'
_cell_length_a   9.59567553
_cell_length_b   9.59567553
_cell_length_c   3.16975400
_cell_angle_alpha   90.00000000
_cell_angle_beta   90.00000000
_cell_angle_gamma   89.93528630
_symmetry_Int_Tables_number   1
_chemical_formula_structural   HoTm3Mg2(B2Rh5)2
_chemical_formula_sum   'Ho1 Tm3 Mg2 B4 Rh10'
_cell_volume   291.86121765
_cell_formula_units_Z   1
loop_
 _symmetry_equiv_pos_site_id
 _symmetry_equiv_pos_as_xyz
  1  'x, y, z'
loop_
 _atom_site_type_symbol
 _atom_site_label
 _atom_site_symmetry_multiplicity
 _atom_site_fract_x
 _atom_site_fract_y
 _atom_site_fract_z
 _atom_site_occupancy
  Ho  Ho0  1  0.675741  0.175741  0.000000  1
  Tm  Tm1  1  0.324053  0.824053  0.000000  1
  Tm  Tm2  1  0.175865  0.324571  0.000000  1
  Tm  Tm3  1  0.824571  0.675865  0.000000  1
  Mg  Mg4  1  0.000270  0.000031  0.000000  1
  Mg  Mg5  1  0.500031  0.500270  0.000000  1
  B  B6  1  0.123179  0.623179  0.000000  1
  B  B7  1  0.877870  0.377870  0.000000  1
  B  B8  1  0.622238  0.876421  0.000000  1
  B  B9  1  0.376421  0.122238  0.000000  1
  Rh  Rh10  1  0.499290  0.999290  0.500000  1
  Rh  Rh11  1  0.000426  0.500426  0.500000  1
  Rh  Rh12  1  0.222914  0.070418  0.500000  1
  Rh  Rh13  1  0.776539  0.928150  0.500000  1
  Rh  Rh14  1  0.070559  0.776504  0.500000  1
  Rh  Rh15  1  0.724251  0.430710  0.500000  1
  Rh  Rh16  1  0.930710  0.224251  0.500000  1
  Rh  Rh17  1  0.276504  0.570559  0.500000  1
  Rh  Rh18  1  0.570418  0.722914  0.500000  1
  Rh  Rh19  1  0.428150  0.276539  0.500000  1
