# generated using pymatgen
data_Er16Al4Ir3Rh
_symmetry_space_group_name_H-M   'P 1'
_cell_length_a   9.46370286
_cell_length_b   9.46370362
_cell_length_c   9.46370237
_cell_angle_alpha   59.98188156
_cell_angle_beta   59.98188641
_cell_angle_gamma   59.98188201
_symmetry_Int_Tables_number   1
_chemical_formula_structural   Er16Al4Ir3Rh
_chemical_formula_sum   'Er16 Al4 Ir3 Rh1'
_cell_volume   599.08694958
_cell_formula_units_Z   1
loop_
 _symmetry_equiv_pos_site_id
 _symmetry_equiv_pos_as_xyz
  1  'x, y, z'
loop_
 _atom_site_type_symbol
 _atom_site_label
 _atom_site_symmetry_multiplicity
 _atom_site_fract_x
 _atom_site_fract_y
 _atom_site_fract_z
 _atom_site_occupancy
  Er  Er0  1  0.194613  0.194613  0.806504  1
  Er  Er1  1  0.435812  0.062882  0.062882  1
  Er  Er2  1  0.438291  0.061838  0.438291  1
  Er  Er3  1  0.062882  0.435812  0.062882  1
  Er  Er4  1  0.646442  0.057045  0.646442  1
  Er  Er5  1  0.195209  0.805864  0.805864  1
  Er  Er6  1  0.062882  0.062882  0.435812  1
  Er  Er7  1  0.806504  0.194613  0.194613  1
  Er  Er8  1  0.805864  0.805864  0.195209  1
  Er  Er9  1  0.646442  0.646442  0.057045  1
  Er  Er10  1  0.648633  0.648633  0.648633  1
  Er  Er11  1  0.061838  0.438291  0.438291  1
  Er  Er12  1  0.057045  0.646442  0.646442  1
  Er  Er13  1  0.805864  0.195209  0.805864  1
  Er  Er14  1  0.438291  0.438291  0.061838  1
  Er  Er15  1  0.194613  0.806504  0.194613  1
  Al  Al16  1  0.421619  0.734448  0.421619  1
  Al  Al17  1  0.421619  0.421619  0.734448  1
  Al  Al18  1  0.734448  0.421619  0.421619  1
  Al  Al19  1  0.421406  0.421406  0.421406  1
  Ir  Ir20  1  0.858176  0.424825  0.858176  1
  Ir  Ir21  1  0.858176  0.858176  0.424825  1
  Ir  Ir22  1  0.424825  0.858176  0.858176  1
  Rh  Rh23  1  0.858504  0.858504  0.858504  1
