# generated using pymatgen
data_KTl2InF6
_symmetry_space_group_name_H-M   'P 1'
_cell_length_a   6.55130800
_cell_length_b   6.55506394
_cell_length_c   11.35741500
_cell_angle_alpha   54.79755784
_cell_angle_beta   90.00000000
_cell_angle_gamma   90.00000000
_symmetry_Int_Tables_number   1
_chemical_formula_structural   KTl2InF6
_chemical_formula_sum   'K2 Tl4 In2 F12'
_cell_volume   398.53866363
_cell_formula_units_Z   2
loop_
 _symmetry_equiv_pos_site_id
 _symmetry_equiv_pos_as_xyz
  1  'x, y, z'
loop_
 _atom_site_type_symbol
 _atom_site_label
 _atom_site_symmetry_multiplicity
 _atom_site_fract_x
 _atom_site_fract_y
 _atom_site_fract_z
 _atom_site_occupancy
  K  K0  1  0.000000  0.500000  0.500000  1
  K  K1  1  0.500000  0.500000  0.000000  1
  Tl  Tl2  1  0.472082  0.752933  0.249379  1
  Tl  Tl3  1  0.527918  0.247067  0.750621  1
  Tl  Tl4  1  0.972082  0.247067  0.250621  1
  Tl  Tl5  1  0.027918  0.752933  0.749379  1
  In  In6  1  0.000000  0.000000  0.000000  1
  In  In7  1  0.500000  0.000000  0.500000  1
  F  F8  1  0.175409  0.226846  0.039592  1
  F  F9  1  0.824591  0.773154  0.960408  1
  F  F10  1  0.675409  0.773154  0.460408  1
  F  F11  1  0.324591  0.226846  0.539592  1
  F  F12  1  0.025702  0.697990  0.220877  1
  F  F13  1  0.974298  0.302010  0.779123  1
  F  F14  1  0.525702  0.302010  0.279123  1
  F  F15  1  0.474298  0.697990  0.720877  1
  F  F16  1  0.729535  0.124716  0.042866  1
  F  F17  1  0.270465  0.875284  0.957134  1
  F  F18  1  0.229535  0.875284  0.457134  1
  F  F19  1  0.770465  0.124716  0.542866  1
