# generated using pymatgen
data_Dy3Ho(Ga5Co3)2
_symmetry_space_group_name_H-M   'P 1'
_cell_length_a   8.32522108
_cell_length_b   8.32302769
_cell_length_c   5.51362640
_cell_angle_alpha   70.62631662
_cell_angle_beta   70.62956588
_cell_angle_gamma   96.52482414
_symmetry_Int_Tables_number   1
_chemical_formula_structural   Dy3Ho(Ga5Co3)2
_chemical_formula_sum   'Dy3 Ho1 Ga10 Co6'
_cell_volume   329.09815156
_cell_formula_units_Z   1
loop_
 _symmetry_equiv_pos_site_id
 _symmetry_equiv_pos_as_xyz
  1  'x, y, z'
loop_
 _atom_site_type_symbol
 _atom_site_label
 _atom_site_symmetry_multiplicity
 _atom_site_fract_x
 _atom_site_fract_y
 _atom_site_fract_z
 _atom_site_occupancy
  Dy  Dy0  1  0.867966  0.579183  0.777818  1
  Dy  Dy1  1  0.132028  0.420894  0.222140  1
  Dy  Dy2  1  0.579067  0.868002  0.277869  1
  Ho  Ho3  1  0.421094  0.132003  0.722045  1
  Ga  Ga4  1  0.500336  0.499293  0.750029  1
  Ga  Ga5  1  0.499387  0.500254  0.250328  1
  Ga  Ga6  1  0.795368  0.204479  0.750110  1
  Ga  Ga7  1  0.204579  0.795656  0.249855  1
  Ga  Ga8  1  0.096752  0.263311  0.818738  1
  Ga  Ga9  1  0.736775  0.903576  0.681055  1
  Ga  Ga10  1  0.796058  0.203807  0.250038  1
  Ga  Ga11  1  0.203891  0.796364  0.749919  1
  Ga  Ga12  1  0.263524  0.096599  0.318735  1
  Ga  Ga13  1  0.903486  0.736632  0.181125  1
  Co  Co14  1  0.000052  0.000098  0.749910  1
  Co  Co15  1  0.000116  0.000041  0.249930  1
  Co  Co16  1  0.265224  0.564842  0.586022  1
  Co  Co17  1  0.564581  0.265052  0.086279  1
  Co  Co18  1  0.734377  0.435016  0.414242  1
  Co  Co19  1  0.435341  0.734898  0.913811  1
