# generated using pymatgen
data_Hf2Si2RhAu
_symmetry_space_group_name_H-M   'P 1'
_cell_length_a   3.92860100
_cell_length_b   6.63710335
_cell_length_c   7.61144302
_cell_angle_alpha   88.60028152
_cell_angle_beta   90.00000000
_cell_angle_gamma   90.00000000
_symmetry_Int_Tables_number   1
_chemical_formula_structural   Hf2Si2RhAu
_chemical_formula_sum   'Hf4 Si4 Rh2 Au2'
_cell_volume   198.40558578
_cell_formula_units_Z   2
loop_
 _symmetry_equiv_pos_site_id
 _symmetry_equiv_pos_as_xyz
  1  'x, y, z'
loop_
 _atom_site_type_symbol
 _atom_site_label
 _atom_site_symmetry_multiplicity
 _atom_site_fract_x
 _atom_site_fract_y
 _atom_site_fract_z
 _atom_site_occupancy
  Hf  Hf0  1  0.250000  0.522315  0.186591  1
  Hf  Hf1  1  0.750000  0.477685  0.813409  1
  Hf  Hf2  1  0.250000  0.024124  0.328569  1
  Hf  Hf3  1  0.750000  0.975876  0.671431  1
  Si  Si4  1  0.250000  0.750869  0.863878  1
  Si  Si5  1  0.750000  0.249131  0.136122  1
  Si  Si6  1  0.250000  0.270193  0.607577  1
  Si  Si7  1  0.750000  0.729807  0.392423  1
  Rh  Rh8  1  0.750000  0.358945  0.438975  1
  Rh  Rh9  1  0.250000  0.641055  0.561025  1
  Au  Au10  1  0.750000  0.846500  0.066970  1
  Au  Au11  1  0.250000  0.153500  0.933030  1
