# generated using pymatgen
data_LiLa5Au4
_symmetry_space_group_name_H-M   'P 1'
_cell_length_a   8.41768100
_cell_length_b   8.41768100
_cell_length_c   4.02315100
_cell_angle_alpha   90.00000000
_cell_angle_beta   90.00000000
_cell_angle_gamma   90.00000000
_symmetry_Int_Tables_number   1
_chemical_formula_structural   LiLa5Au4
_chemical_formula_sum   'Li1 La5 Au4'
_cell_volume   285.06983226
_cell_formula_units_Z   1
loop_
 _symmetry_equiv_pos_site_id
 _symmetry_equiv_pos_as_xyz
  1  'x, y, z'
loop_
 _atom_site_type_symbol
 _atom_site_label
 _atom_site_symmetry_multiplicity
 _atom_site_fract_x
 _atom_site_fract_y
 _atom_site_fract_z
 _atom_site_occupancy
  Li  Li0  1  0.500000  0.500000  0.000000  1
  La  La1  1  0.640237  0.187540  0.500000  1
  La  La2  1  0.359763  0.812460  0.500000  1
  La  La3  1  0.187540  0.359763  0.500000  1
  La  La4  1  0.812460  0.640237  0.500000  1
  La  La5  1  0.000000  0.000000  0.000000  1
  Au  Au6  1  0.122809  0.639005  0.000000  1
  Au  Au7  1  0.877191  0.360995  0.000000  1
  Au  Au8  1  0.639005  0.877191  0.000000  1
  Au  Au9  1  0.360995  0.122809  0.000000  1
