# generated using pymatgen
data_LiPr16In(AgRh2)2
_symmetry_space_group_name_H-M   'P 1'
_cell_length_a   10.01787875
_cell_length_b   10.03261962
_cell_length_c   10.01787991
_cell_angle_alpha   59.93616291
_cell_angle_beta   59.97040427
_cell_angle_gamma   59.93616434
_symmetry_Int_Tables_number   1
_chemical_formula_structural   LiPr16In(AgRh2)2
_chemical_formula_sum   'Li1 Pr16 In1 Ag2 Rh4'
_cell_volume   711.10572808
_cell_formula_units_Z   1
loop_
 _symmetry_equiv_pos_site_id
 _symmetry_equiv_pos_as_xyz
  1  'x, y, z'
loop_
 _atom_site_type_symbol
 _atom_site_label
 _atom_site_symmetry_multiplicity
 _atom_site_fract_x
 _atom_site_fract_y
 _atom_site_fract_z
 _atom_site_occupancy
  Li  Li0  1  0.434799  0.705101  0.434799  1
  Pr  Pr1  1  0.189522  0.191918  0.808387  1
  Pr  Pr2  1  0.436051  0.064017  0.061112  1
  Pr  Pr3  1  0.434865  0.065605  0.434865  1
  Pr  Pr4  1  0.062814  0.436141  0.062814  1
  Pr  Pr5  1  0.646805  0.058398  0.646805  1
  Pr  Pr6  1  0.185797  0.815976  0.814107  1
  Pr  Pr7  1  0.061112  0.064017  0.436051  1
  Pr  Pr8  1  0.808387  0.191918  0.189522  1
  Pr  Pr9  1  0.814107  0.815976  0.185797  1
  Pr  Pr10  1  0.651272  0.649540  0.048091  1
  Pr  Pr11  1  0.651185  0.651807  0.651185  1
  Pr  Pr12  1  0.058574  0.436179  0.434212  1
  Pr  Pr13  1  0.048091  0.649540  0.651272  1
  Pr  Pr14  1  0.809685  0.192451  0.809685  1
  Pr  Pr15  1  0.434212  0.436179  0.058574  1
  Pr  Pr16  1  0.189494  0.809135  0.189494  1
  In  In17  1  0.419057  0.420857  0.419057  1
  Ag  Ag18  1  0.415442  0.416831  0.751633  1
  Ag  Ag19  1  0.751633  0.416831  0.415442  1
  Rh  Rh20  1  0.857389  0.428489  0.857389  1
  Rh  Rh21  1  0.856520  0.860506  0.427714  1
  Rh  Rh22  1  0.427714  0.860506  0.856520  1
  Rh  Rh23  1  0.855473  0.862081  0.855473  1
