# generated using pymatgen
data_Tb4SnSb5Rh7
_symmetry_space_group_name_H-M   'P 1'
_cell_length_a   7.62550077
_cell_length_b   7.62550133
_cell_length_c   7.62550054
_cell_angle_alpha   109.60928861
_cell_angle_beta   109.40223297
_cell_angle_gamma   109.40222931
_symmetry_Int_Tables_number   1
_chemical_formula_structural   Tb4SnSb5Rh7
_chemical_formula_sum   'Tb4 Sn1 Sb5 Rh7'
_cell_volume   341.33540631
_cell_formula_units_Z   1
loop_
 _symmetry_equiv_pos_site_id
 _symmetry_equiv_pos_as_xyz
  1  'x, y, z'
loop_
 _atom_site_type_symbol
 _atom_site_label
 _atom_site_symmetry_multiplicity
 _atom_site_fract_x
 _atom_site_fract_y
 _atom_site_fract_z
 _atom_site_occupancy
  Tb  Tb0  1  0.498867  0.000637  0.000637  1
  Tb  Tb1  1  0.000000  0.501770  0.000637  1
  Tb  Tb2  1  0.000000  0.000637  0.501770  1
  Tb  Tb3  1  0.501133  0.501770  0.501770  1
  Sn  Sn4  1  0.000000  0.314424  0.314424  1
  Sb  Sb5  1  0.682639  0.001393  0.684032  1
  Sb  Sb6  1  0.682639  0.684032  0.001393  1
  Sb  Sb7  1  0.000000  0.678248  0.678248  1
  Sb  Sb8  1  0.317361  0.001393  0.318753  1
  Sb  Sb9  1  0.317361  0.318753  0.001393  1
  Rh  Rh10  1  0.000000  0.994932  0.994932  1
  Rh  Rh11  1  0.500000  0.751154  0.251154  1
  Rh  Rh12  1  0.749123  0.499925  0.249049  1
  Rh  Rh13  1  0.250877  0.750802  0.499925  1
  Rh  Rh14  1  0.250877  0.499925  0.750802  1
  Rh  Rh15  1  0.500000  0.251154  0.751154  1
  Rh  Rh16  1  0.749123  0.249049  0.499925  1
