# generated using pymatgen
data_CaLa7(US5)4
_symmetry_space_group_name_H-M   'P 1'
_cell_length_a   7.52176322
_cell_length_b   8.10949821
_cell_length_c   11.87648800
_cell_angle_alpha   89.98069062
_cell_angle_beta   89.79272428
_cell_angle_gamma   90.05502475
_symmetry_Int_Tables_number   1
_chemical_formula_structural   CaLa7(US5)4
_chemical_formula_sum   'Ca1 La7 U4 S20'
_cell_volume   724.43363679
_cell_formula_units_Z   1
loop_
 _symmetry_equiv_pos_site_id
 _symmetry_equiv_pos_as_xyz
  1  'x, y, z'
loop_
 _atom_site_type_symbol
 _atom_site_label
 _atom_site_symmetry_multiplicity
 _atom_site_fract_x
 _atom_site_fract_y
 _atom_site_fract_z
 _atom_site_occupancy
  Ca  Ca0  1  0.529777  0.500407  0.322622  1
  La  La1  1  0.966527  0.998641  0.825246  1
  La  La2  1  0.466696  0.001832  0.674529  1
  La  La3  1  0.032065  0.497957  0.179272  1
  La  La4  1  0.465493  0.498097  0.670334  1
  La  La5  1  0.035798  0.000698  0.175572  1
  La  La6  1  0.532909  0.997189  0.324122  1
  La  La7  1  0.964194  0.501709  0.827174  1
  U  U8  1  0.068070  0.751264  0.491262  1
  U  U9  1  0.432750  0.748377  0.991589  1
  U  U10  1  0.930058  0.252539  0.507345  1
  U  U11  1  0.566972  0.250940  0.010082  1
  S  S12  1  0.835920  0.960026  0.591585  1
  S  S13  1  0.668202  0.542251  0.086391  1
  S  S14  1  0.165196  0.459980  0.411798  1
  S  S15  1  0.334880  0.040746  0.909885  1
  S  S16  1  0.165388  0.043320  0.410678  1
  S  S17  1  0.335373  0.458296  0.908184  1
  S  S18  1  0.836454  0.542483  0.592509  1
  S  S19  1  0.665674  0.957706  0.088912  1
  S  S20  1  0.840096  0.751203  0.313047  1
  S  S21  1  0.660992  0.750241  0.810814  1
  S  S22  1  0.159546  0.250786  0.687779  1
  S  S23  1  0.336768  0.248545  0.187475  1
  S  S24  1  0.451731  0.750880  0.498316  1
  S  S25  1  0.049839  0.749331  0.999266  1
  S  S26  1  0.550433  0.249992  0.500979  1
  S  S27  1  0.951812  0.248608  0.001938  1
  S  S28  1  0.187112  0.749382  0.713878  1
  S  S29  1  0.315144  0.746911  0.213388  1
  S  S30  1  0.811211  0.249226  0.286546  1
  S  S31  1  0.686918  0.250436  0.787483  1
