# generated using pymatgen
data_Ti2Cr2GaN3
_symmetry_space_group_name_H-M   'P 1'
_cell_length_a   2.98012300
_cell_length_b   2.98012342
_cell_length_c   22.10043100
_cell_angle_alpha   90.00000000
_cell_angle_beta   90.00000000
_cell_angle_gamma   119.99998422
_symmetry_Int_Tables_number   1
_chemical_formula_structural   Ti2Cr2GaN3
_chemical_formula_sum   'Ti4 Cr4 Ga2 N6'
_cell_volume   169.98080596
_cell_formula_units_Z   2
loop_
 _symmetry_equiv_pos_site_id
 _symmetry_equiv_pos_as_xyz
  1  'x, y, z'
loop_
 _atom_site_type_symbol
 _atom_site_label
 _atom_site_symmetry_multiplicity
 _atom_site_fract_x
 _atom_site_fract_y
 _atom_site_fract_z
 _atom_site_occupancy
  Ti  Ti0  1  0.333333  0.666667  0.441777  1
  Ti  Ti1  1  0.666667  0.333333  0.558223  1
  Ti  Ti2  1  0.666667  0.333333  0.941777  1
  Ti  Ti3  1  0.333333  0.666667  0.058223  1
  Cr  Cr4  1  0.000000  0.000000  0.344775  1
  Cr  Cr5  1  0.000000  0.000000  0.655225  1
  Cr  Cr6  1  0.000000  0.000000  0.844775  1
  Cr  Cr7  1  0.000000  0.000000  0.155225  1
  Ga  Ga8  1  0.333333  0.666667  0.250000  1
  Ga  Ga9  1  0.666667  0.333333  0.750000  1
  N  N10  1  0.000000  0.000000  0.500000  1
  N  N11  1  0.000000  0.000000  0.000000  1
  N  N12  1  0.666667  0.333333  0.385951  1
  N  N13  1  0.333333  0.666667  0.614049  1
  N  N14  1  0.333333  0.666667  0.885951  1
  N  N15  1  0.666667  0.333333  0.114049  1
