# generated using pymatgen
data_Dy3ScHg5
_symmetry_space_group_name_H-M   'P 1'
_cell_length_a   8.18605402
_cell_length_b   8.18605463
_cell_length_c   8.18605500
_cell_angle_alpha   66.60453253
_cell_angle_beta   66.60453069
_cell_angle_gamma   66.60450627
_symmetry_Int_Tables_number   1
_chemical_formula_structural   Dy3ScHg5
_chemical_formula_sum   'Dy6 Sc2 Hg10'
_cell_volume   443.01288754
_cell_formula_units_Z   2
loop_
 _symmetry_equiv_pos_site_id
 _symmetry_equiv_pos_as_xyz
  1  'x, y, z'
loop_
 _atom_site_type_symbol
 _atom_site_label
 _atom_site_symmetry_multiplicity
 _atom_site_fract_x
 _atom_site_fract_y
 _atom_site_fract_z
 _atom_site_occupancy
  Dy  Dy0  1  0.888829  0.186354  0.620310  1
  Dy  Dy1  1  0.620310  0.888829  0.186354  1
  Dy  Dy2  1  0.186354  0.620310  0.888829  1
  Dy  Dy3  1  0.111171  0.813646  0.379690  1
  Dy  Dy4  1  0.379690  0.111171  0.813646  1
  Dy  Dy5  1  0.813646  0.379690  0.111171  1
  Sc  Sc6  1  0.658295  0.658295  0.658295  1
  Sc  Sc7  1  0.341705  0.341705  0.341705  1
  Hg  Hg8  1  0.000000  0.000000  0.000000  1
  Hg  Hg9  1  0.500000  0.500000  0.500000  1
  Hg  Hg10  1  0.809350  0.809350  0.809350  1
  Hg  Hg11  1  0.190650  0.190650  0.190650  1
  Hg  Hg12  1  0.942922  0.557369  0.313993  1
  Hg  Hg13  1  0.313993  0.942922  0.557369  1
  Hg  Hg14  1  0.557369  0.313993  0.942922  1
  Hg  Hg15  1  0.057078  0.442631  0.686007  1
  Hg  Hg16  1  0.686007  0.057078  0.442631  1
  Hg  Hg17  1  0.442631  0.686007  0.057078  1
