# generated using pymatgen
data_Tb5Dy5(In2Pt)4
_symmetry_space_group_name_H-M   'P 1'
_cell_length_a   3.62620200
_cell_length_b   8.20418400
_cell_length_c   18.34999105
_cell_angle_alpha   90.02065704
_cell_angle_beta   90.00000000
_cell_angle_gamma   90.00000000
_symmetry_Int_Tables_number   1
_chemical_formula_structural   Tb5Dy5(In2Pt)4
_chemical_formula_sum   'Tb5 Dy5 In8 Pt4'
_cell_volume   545.91272001
_cell_formula_units_Z   1
loop_
 _symmetry_equiv_pos_site_id
 _symmetry_equiv_pos_as_xyz
  1  'x, y, z'
loop_
 _atom_site_type_symbol
 _atom_site_label
 _atom_site_symmetry_multiplicity
 _atom_site_fract_x
 _atom_site_fract_y
 _atom_site_fract_z
 _atom_site_occupancy
  Tb  Tb0  1  0.000000  0.117811  0.414954  1
  Tb  Tb1  1  0.000000  0.882069  0.585025  1
  Tb  Tb2  1  0.000000  0.382447  0.915142  1
  Tb  Tb3  1  0.000000  0.000003  0.000147  1
  Tb  Tb4  1  0.000000  0.500051  0.499907  1
  Dy  Dy5  1  0.000000  0.617302  0.085305  1
  Dy  Dy6  1  0.000000  0.242765  0.220720  1
  Dy  Dy7  1  0.000000  0.757294  0.779068  1
  Dy  Dy8  1  0.000000  0.257333  0.721028  1
  Dy  Dy9  1  0.000000  0.742856  0.279031  1
  In  In10  1  0.500000  0.425708  0.350824  1
  In  In11  1  0.500000  0.573950  0.649000  1
  In  In12  1  0.500000  0.074553  0.851134  1
  In  In13  1  0.500000  0.924409  0.148928  1
  In  In14  1  0.500000  0.292660  0.067740  1
  In  In15  1  0.500000  0.707969  0.932484  1
  In  In16  1  0.500000  0.207733  0.567773  1
  In  In17  1  0.500000  0.792181  0.432119  1
  Pt  Pt18  1  0.500000  0.023359  0.303054  1
  Pt  Pt19  1  0.500000  0.976960  0.696871  1
  Pt  Pt20  1  0.500000  0.476998  0.803278  1
  Pt  Pt21  1  0.500000  0.523585  0.196469  1
