# generated using pymatgen
data_Ho6In2C
_symmetry_space_group_name_H-M   'P 1'
_cell_length_a   6.88939554
_cell_length_b   6.88939600
_cell_length_c   6.88939600
_cell_angle_alpha   60.00000959
_cell_angle_beta   60.00000740
_cell_angle_gamma   60.00000990
_symmetry_Int_Tables_number   1
_chemical_formula_structural   Ho6In2C
_chemical_formula_sum   'Ho6 In2 C1'
_cell_volume   231.22165585
_cell_formula_units_Z   1
loop_
 _symmetry_equiv_pos_site_id
 _symmetry_equiv_pos_as_xyz
  1  'x, y, z'
loop_
 _atom_site_type_symbol
 _atom_site_label
 _atom_site_symmetry_multiplicity
 _atom_site_fract_x
 _atom_site_fract_y
 _atom_site_fract_z
 _atom_site_occupancy
  Ho  Ho0  1  0.754497  0.754497  0.245502  1
  Ho  Ho1  1  0.754496  0.245503  0.245502  1
  Ho  Ho2  1  0.245503  0.754496  0.245502  1
  Ho  Ho3  1  0.245503  0.245503  0.754496  1
  Ho  Ho4  1  0.754498  0.245501  0.754498  1
  Ho  Ho5  1  0.245501  0.754498  0.754498  1
  In  In6  1  0.250000  0.250000  0.250000  1
  In  In7  1  0.749999  0.749999  0.749999  1
  C  C8  1  0.000000  0.000000  0.000000  1
