# generated using pymatgen
data_Tm4Al4OsPt3
_symmetry_space_group_name_H-M   'P 1'
_cell_length_a   4.33921700
_cell_length_b   6.78543676
_cell_length_c   7.82787675
_cell_angle_alpha   89.83851086
_cell_angle_beta   90.00000000
_cell_angle_gamma   90.00000000
_symmetry_Int_Tables_number   1
_chemical_formula_structural   Tm4Al4OsPt3
_chemical_formula_sum   'Tm4 Al4 Os1 Pt3'
_cell_volume   230.47903689
_cell_formula_units_Z   1
loop_
 _symmetry_equiv_pos_site_id
 _symmetry_equiv_pos_as_xyz
  1  'x, y, z'
loop_
 _atom_site_type_symbol
 _atom_site_label
 _atom_site_symmetry_multiplicity
 _atom_site_fract_x
 _atom_site_fract_y
 _atom_site_fract_z
 _atom_site_occupancy
  Tm  Tm0  1  0.250000  0.031137  0.677993  1
  Tm  Tm1  1  0.250000  0.527864  0.818786  1
  Tm  Tm2  1  0.750000  0.980025  0.321164  1
  Tm  Tm3  1  0.750000  0.468149  0.185680  1
  Al  Al4  1  0.250000  0.144970  0.063026  1
  Al  Al5  1  0.250000  0.641299  0.436894  1
  Al  Al6  1  0.750000  0.856165  0.938417  1
  Al  Al7  1  0.750000  0.353275  0.560358  1
  Os  Os8  1  0.250000  0.265390  0.379123  1
  Pt  Pt9  1  0.250000  0.768212  0.117072  1
  Pt  Pt10  1  0.750000  0.731677  0.620838  1
  Pt  Pt11  1  0.750000  0.231837  0.880650  1
