# generated using pymatgen
data_Zn22AgIr2Pt
_symmetry_space_group_name_H-M   'P 1'
_cell_length_a   7.95716413
_cell_length_b   7.93223261
_cell_length_c   7.96396602
_cell_angle_alpha   109.48168755
_cell_angle_beta   109.60819756
_cell_angle_gamma   109.22540675
_symmetry_Int_Tables_number   1
_chemical_formula_structural   Zn22AgIr2Pt
_chemical_formula_sum   'Zn22 Ag1 Ir2 Pt1'
_cell_volume   387.42140792
_cell_formula_units_Z   1
loop_
 _symmetry_equiv_pos_site_id
 _symmetry_equiv_pos_as_xyz
  1  'x, y, z'
loop_
 _atom_site_type_symbol
 _atom_site_label
 _atom_site_symmetry_multiplicity
 _atom_site_fract_x
 _atom_site_fract_y
 _atom_site_fract_z
 _atom_site_occupancy
  Zn  Zn0  1  0.721384  0.374427  0.719744  1
  Zn  Zn1  1  0.620226  0.354260  0.350534  1
  Zn  Zn2  1  0.350463  0.352568  0.617630  1
  Zn  Zn3  1  0.647871  0.273548  0.000000  1
  Zn  Zn4  1  0.218600  0.214698  0.221026  1
  Zn  Zn5  1  0.997575  0.993672  0.778974  1
  Zn  Zn6  1  0.784051  0.992692  0.000000  1
  Zn  Zn7  1  0.996539  0.785640  0.000000  1
  Zn  Zn8  1  0.357509  0.357576  0.000000  1
  Zn  Zn9  1  0.999456  0.635188  0.649090  1
  Zn  Zn10  1  0.993119  0.354181  0.354517  1
  Zn  Zn11  1  0.350366  0.986098  0.350910  1
  Zn  Zn12  1  0.638602  0.999664  0.645483  1
  Zn  Zn13  1  0.645404  0.638320  0.000000  1
  Zn  Zn14  1  0.355419  0.624385  0.353447  1
  Zn  Zn15  1  0.269690  0.003727  0.649466  1
  Zn  Zn16  1  0.652555  0.003541  0.272433  1
  Zn  Zn17  1  0.280082  0.653035  0.000000  1
  Zn  Zn18  1  0.732834  0.734939  0.382370  1
  Zn  Zn19  1  0.380121  0.731107  0.727567  1
  Zn  Zn20  1  0.001641  0.654684  0.280256  1
  Zn  Zn21  1  0.001973  0.270936  0.646553  1
  Ag  Ag22  1  0.000970  0.351156  0.000000  1
  Ir  Ir23  1  0.001490  0.002245  0.346494  1
  Ir  Ir24  1  0.654995  0.655751  0.653506  1
  Pt  Pt25  1  0.347067  0.001961  0.000000  1
