# generated using pymatgen
data_Sb2Mo2Pb4O13
_symmetry_space_group_name_H-M   'P 1'
_cell_length_a   7.57507584
_cell_length_b   7.57482466
_cell_length_c   7.55512809
_cell_angle_alpha   119.58721903
_cell_angle_beta   120.32534323
_cell_angle_gamma   90.18327558
_symmetry_Int_Tables_number   1
_chemical_formula_structural   Sb2Mo2Pb4O13
_chemical_formula_sum   'Sb2 Mo2 Pb4 O13'
_cell_volume   306.43962049
_cell_formula_units_Z   1
loop_
 _symmetry_equiv_pos_site_id
 _symmetry_equiv_pos_as_xyz
  1  'x, y, z'
loop_
 _atom_site_type_symbol
 _atom_site_label
 _atom_site_symmetry_multiplicity
 _atom_site_fract_x
 _atom_site_fract_y
 _atom_site_fract_z
 _atom_site_occupancy
  Sb  Sb0  1  0.749749  0.999086  0.249559  1
  Sb  Sb1  1  0.749556  0.500170  0.750464  1
  Mo  Mo2  1  0.250935  0.499713  0.750244  1
  Mo  Mo3  1  0.749560  0.500735  0.249952  1
  Pb  Pb4  1  0.754450  0.002547  0.754570  1
  Pb  Pb5  1  0.247628  0.999941  0.244969  1
  Pb  Pb6  1  0.247795  0.499860  0.249315  1
  Pb  Pb7  1  0.250485  0.998519  0.750656  1
  O  O8  1  0.076258  0.575903  0.500084  1
  O  O9  1  0.681223  0.180519  0.500695  1
  O  O10  1  0.069556  0.175359  0.488131  1
  O  O11  1  0.686338  0.580161  0.510545  1
  O  O12  1  0.672123  0.163881  0.095502  1
  O  O13  1  0.068099  0.577810  0.904482  1
  O  O14  1  0.427936  0.428291  0.000144  1
  O  O15  1  0.816343  0.817014  0.999268  1
  O  O16  1  0.431674  0.821535  0.011803  1
  O  O17  1  0.810641  0.420981  0.989564  1
  O  O18  1  0.825000  0.832784  0.399797  1
  O  O19  1  0.433292  0.423998  0.600389  1
  O  O20  1  0.376355  0.876193  0.499865  1
