# generated using pymatgen
data_Tm6Al16Os7
_symmetry_space_group_name_H-M   'P 1'
_cell_length_a   8.90202493
_cell_length_b   8.90202498
_cell_length_c   8.90202500
_cell_angle_alpha   60.00000365
_cell_angle_beta   60.00000345
_cell_angle_gamma   59.99999821
_symmetry_Int_Tables_number   1
_chemical_formula_structural   Tm6Al16Os7
_chemical_formula_sum   'Tm6 Al16 Os7'
_cell_volume   498.82871308
_cell_formula_units_Z   1
loop_
 _symmetry_equiv_pos_site_id
 _symmetry_equiv_pos_as_xyz
  1  'x, y, z'
loop_
 _atom_site_type_symbol
 _atom_site_label
 _atom_site_symmetry_multiplicity
 _atom_site_fract_x
 _atom_site_fract_y
 _atom_site_fract_z
 _atom_site_occupancy
  Tm  Tm0  1  0.711701  0.711701  0.288299  1
  Tm  Tm1  1  0.288299  0.711701  0.288299  1
  Tm  Tm2  1  0.711701  0.288299  0.288299  1
  Tm  Tm3  1  0.288299  0.288299  0.711701  1
  Tm  Tm4  1  0.711701  0.288299  0.711701  1
  Tm  Tm5  1  0.288299  0.711701  0.711701  1
  Al  Al6  1  0.878986  0.878986  0.363042  1
  Al  Al7  1  0.878986  0.363042  0.878986  1
  Al  Al8  1  0.363042  0.878986  0.878986  1
  Al  Al9  1  0.878986  0.878986  0.878986  1
  Al  Al10  1  0.121014  0.121014  0.636958  1
  Al  Al11  1  0.121014  0.636958  0.121014  1
  Al  Al12  1  0.636958  0.121014  0.121014  1
  Al  Al13  1  0.121014  0.121014  0.121014  1
  Al  Al14  1  0.666944  0.666944  0.999168  1
  Al  Al15  1  0.666944  0.999168  0.666944  1
  Al  Al16  1  0.999168  0.666944  0.666944  1
  Al  Al17  1  0.666944  0.666944  0.666944  1
  Al  Al18  1  0.333056  0.333056  0.000832  1
  Al  Al19  1  0.333056  0.000832  0.333056  1
  Al  Al20  1  0.000832  0.333056  0.333056  1
  Al  Al21  1  0.333056  0.333056  0.333056  1
  Os  Os22  1  0.000000  0.000000  0.000000  1
  Os  Os23  1  0.000000  0.000000  0.500000  1
  Os  Os24  1  0.500000  0.000000  0.500000  1
  Os  Os25  1  0.000000  0.500000  0.500000  1
  Os  Os26  1  0.500000  0.500000  0.000000  1
  Os  Os27  1  0.000000  0.500000  0.000000  1
  Os  Os28  1  0.500000  0.000000  0.000000  1
