# generated using pymatgen
data_SrRh2PbF12
_symmetry_space_group_name_H-M   'P 1'
_cell_length_a   5.43312937
_cell_length_b   5.50334043
_cell_length_c   10.43045300
_cell_angle_alpha   75.20429616
_cell_angle_beta   75.24711367
_cell_angle_gamma   59.53809597
_symmetry_Int_Tables_number   1
_chemical_formula_structural   SrRh2PbF12
_chemical_formula_sum   'Sr1 Rh2 Pb1 F12'
_cell_volume   256.96258073
_cell_formula_units_Z   1
loop_
 _symmetry_equiv_pos_site_id
 _symmetry_equiv_pos_as_xyz
  1  'x, y, z'
loop_
 _atom_site_type_symbol
 _atom_site_label
 _atom_site_symmetry_multiplicity
 _atom_site_fract_x
 _atom_site_fract_y
 _atom_site_fract_z
 _atom_site_occupancy
  Sr  Sr0  1  0.000000  0.000000  0.000000  1
  Rh  Rh1  1  0.750794  0.751393  0.746604  1
  Rh  Rh2  1  0.249206  0.248607  0.253396  1
  Pb  Pb3  1  0.500000  0.500000  0.500000  1
  F  F4  1  0.480210  0.817117  0.634373  1
  F  F5  1  0.519790  0.182883  0.365627  1
  F  F6  1  0.814489  0.062820  0.633620  1
  F  F7  1  0.185511  0.937180  0.366380  1
  F  F8  1  0.695567  0.436221  0.860363  1
  F  F9  1  0.304433  0.563779  0.139637  1
  F  F10  1  0.015871  0.694806  0.859397  1
  F  F11  1  0.984129  0.305194  0.140603  1
  F  F12  1  0.568444  0.985342  0.139174  1
  F  F13  1  0.431556  0.014658  0.860826  1
  F  F14  1  0.933518  0.516069  0.367190  1
  F  F15  1  0.066482  0.483931  0.632810  1
