# generated using pymatgen
data_Y2Nb3B4Ru10W
_symmetry_space_group_name_H-M   'P 1'
_cell_length_a   9.59371088
_cell_length_b   9.57001351
_cell_length_c   3.06929000
_cell_angle_alpha   90.00000000
_cell_angle_beta   90.00000000
_cell_angle_gamma   90.63828395
_symmetry_Int_Tables_number   1
_chemical_formula_structural   Y2Nb3B4Ru10W
_chemical_formula_sum   'Y2 Nb3 B4 Ru10 W1'
_cell_volume   281.77999217
_cell_formula_units_Z   1
loop_
 _symmetry_equiv_pos_site_id
 _symmetry_equiv_pos_as_xyz
  1  'x, y, z'
loop_
 _atom_site_type_symbol
 _atom_site_label
 _atom_site_symmetry_multiplicity
 _atom_site_fract_x
 _atom_site_fract_y
 _atom_site_fract_z
 _atom_site_occupancy
  Y  Y0  1  0.823341  0.676446  0.000000  1
  Y  Y1  1  0.176659  0.323554  0.000000  1
  Nb  Nb2  1  0.324012  0.825059  0.000000  1
  Nb  Nb3  1  0.675988  0.174941  0.000000  1
  Nb  Nb4  1  0.000000  0.000000  0.000000  1
  B  B5  1  0.620485  0.881140  0.000000  1
  B  B6  1  0.379515  0.118860  0.000000  1
  B  B7  1  0.120645  0.622208  0.000000  1
  B  B8  1  0.879355  0.377792  0.000000  1
  Ru  Ru9  1  0.559682  0.720329  0.500000  1
  Ru  Ru10  1  0.440318  0.279671  0.500000  1
  Ru  Ru11  1  0.082078  0.784161  0.500000  1
  Ru  Ru12  1  0.917922  0.215839  0.500000  1
  Ru  Ru13  1  0.287680  0.578051  0.500000  1
  Ru  Ru14  1  0.712320  0.421949  0.500000  1
  Ru  Ru15  1  0.223740  0.061117  0.500000  1
  Ru  Ru16  1  0.776260  0.938883  0.500000  1
  Ru  Ru17  1  0.500000  0.000000  0.500000  1
  Ru  Ru18  1  0.000000  0.500000  0.500000  1
  W  W19  1  0.500000  0.500000  0.000000  1
