# generated using pymatgen
data_Tb2Pr2Al17GaIr6
_symmetry_space_group_name_H-M   'P 1'
_cell_length_a   7.58564428
_cell_length_b   7.58564359
_cell_length_c   9.58524400
_cell_angle_alpha   90.00000000
_cell_angle_beta   90.00000000
_cell_angle_gamma   119.31177576
_symmetry_Int_Tables_number   1
_chemical_formula_structural   Tb2Pr2Al17GaIr6
_chemical_formula_sum   'Tb2 Pr2 Al17 Ga1 Ir6'
_cell_volume   480.93785482
_cell_formula_units_Z   1
loop_
 _symmetry_equiv_pos_site_id
 _symmetry_equiv_pos_as_xyz
  1  'x, y, z'
loop_
 _atom_site_type_symbol
 _atom_site_label
 _atom_site_symmetry_multiplicity
 _atom_site_fract_x
 _atom_site_fract_y
 _atom_site_fract_z
 _atom_site_occupancy
  Tb  Tb0  1  0.005006  0.327446  0.750000  1
  Tb  Tb1  1  0.327446  0.005006  0.750000  1
  Pr  Pr2  1  0.993876  0.674306  0.250000  1
  Pr  Pr3  1  0.674306  0.993876  0.250000  1
  Al  Al4  1  0.870085  0.870085  0.750000  1
  Al  Al5  1  0.003336  0.336002  0.068356  1
  Al  Al6  1  0.998485  0.663940  0.923659  1
  Al  Al7  1  0.998485  0.663940  0.576341  1
  Al  Al8  1  0.336002  0.003336  0.431644  1
  Al  Al9  1  0.003336  0.336002  0.431644  1
  Al  Al10  1  0.663940  0.998485  0.576341  1
  Al  Al11  1  0.663940  0.998485  0.923659  1
  Al  Al12  1  0.336002  0.003336  0.068356  1
  Al  Al13  1  0.333016  0.333016  0.554286  1
  Al  Al14  1  0.664407  0.664407  0.456621  1
  Al  Al15  1  0.664407  0.664407  0.043379  1
  Al  Al16  1  0.333016  0.333016  0.945714  1
  Al  Al17  1  0.338379  0.546563  0.250000  1
  Al  Al18  1  0.660051  0.450533  0.750000  1
  Al  Al19  1  0.546563  0.338379  0.250000  1
  Al  Al20  1  0.450533  0.660051  0.750000  1
  Ga  Ga21  1  0.138132  0.138132  0.250000  1
  Ir  Ir22  1  0.670306  0.327634  0.998107  1
  Ir  Ir23  1  0.327634  0.670306  0.998107  1
  Ir  Ir24  1  0.327634  0.670306  0.501893  1
  Ir  Ir25  1  0.670306  0.327634  0.501893  1
  Ir  Ir26  1  0.000687  0.000687  0.994997  1
  Ir  Ir27  1  0.000687  0.000687  0.505003  1
