# generated using pymatgen
data_Tb5B(WC3)2
_symmetry_space_group_name_H-M   'P 1'
_cell_length_a   8.48783066
_cell_length_b   8.48783082
_cell_length_c   3.44718000
_cell_angle_alpha   90.00000000
_cell_angle_beta   90.00000000
_cell_angle_gamma   122.92311587
_symmetry_Int_Tables_number   1
_chemical_formula_structural   Tb5B(WC3)2
_chemical_formula_sum   'Tb5 B1 W2 C6'
_cell_volume   208.46189702
_cell_formula_units_Z   1
loop_
 _symmetry_equiv_pos_site_id
 _symmetry_equiv_pos_as_xyz
  1  'x, y, z'
loop_
 _atom_site_type_symbol
 _atom_site_label
 _atom_site_symmetry_multiplicity
 _atom_site_fract_x
 _atom_site_fract_y
 _atom_site_fract_z
 _atom_site_occupancy
  Tb  Tb0  1  0.500000  0.500000  0.000000  1
  Tb  Tb1  1  0.075399  0.325609  0.500000  1
  Tb  Tb2  1  0.924601  0.674391  0.500000  1
  Tb  Tb3  1  0.674391  0.924601  0.500000  1
  Tb  Tb4  1  0.325609  0.075399  0.500000  1
  B  B5  1  0.000000  0.000000  0.000000  1
  W  W6  1  0.712405  0.287595  0.000000  1
  W  W7  1  0.287595  0.712405  0.000000  1
  C  C8  1  0.628937  0.371063  0.500000  1
  C  C9  1  0.371063  0.628937  0.500000  1
  C  C10  1  0.181744  0.181744  0.000000  1
  C  C11  1  0.818256  0.818256  0.000000  1
  C  C12  1  0.000000  0.500000  0.000000  1
  C  C13  1  0.500000  0.000000  0.000000  1
