# generated using pymatgen
data_Tb2Sm4Pt5Rh13
_symmetry_space_group_name_H-M   'P 1'
_cell_length_a   5.34939999
_cell_length_b   5.34939991
_cell_length_c   17.63079337
_cell_angle_alpha   90.03454234
_cell_angle_beta   89.96545846
_cell_angle_gamma   120.27372149
_symmetry_Int_Tables_number   1
_chemical_formula_structural   Tb2Sm4Pt5Rh13
_chemical_formula_sum   'Tb2 Sm4 Pt5 Rh13'
_cell_volume   435.72053673
_cell_formula_units_Z   1
loop_
 _symmetry_equiv_pos_site_id
 _symmetry_equiv_pos_as_xyz
  1  'x, y, z'
loop_
 _atom_site_type_symbol
 _atom_site_label
 _atom_site_symmetry_multiplicity
 _atom_site_fract_x
 _atom_site_fract_y
 _atom_site_fract_z
 _atom_site_occupancy
  Tb  Tb0  1  0.333621  0.666379  0.957285  1
  Tb  Tb1  1  0.666775  0.333225  0.042067  1
  Sm  Sm2  1  0.666044  0.333956  0.457427  1
  Sm  Sm3  1  0.333070  0.666930  0.544095  1
  Sm  Sm4  1  0.333512  0.666488  0.751678  1
  Sm  Sm5  1  0.666442  0.333558  0.247861  1
  Pt  Pt6  1  0.168982  0.831018  0.374072  1
  Pt  Pt7  1  0.334774  0.665226  0.248556  1
  Pt  Pt8  1  0.666811  0.333189  0.750673  1
  Pt  Pt9  1  0.998689  0.001311  0.500558  1
  Pt  Pt10  1  0.000280  0.999720  0.999939  1
  Rh  Rh11  1  0.168451  0.333302  0.373585  1
  Rh  Rh12  1  0.666698  0.831549  0.373585  1
  Rh  Rh13  1  0.832243  0.167757  0.626889  1
  Rh  Rh14  1  0.832297  0.665744  0.626898  1
  Rh  Rh15  1  0.334256  0.167703  0.626898  1
  Rh  Rh16  1  0.832696  0.167304  0.875137  1
  Rh  Rh17  1  0.832479  0.664322  0.875196  1
  Rh  Rh18  1  0.335678  0.167521  0.875196  1
  Rh  Rh19  1  0.167135  0.832865  0.125213  1
  Rh  Rh20  1  0.168404  0.336507  0.124136  1
  Rh  Rh21  1  0.663493  0.831596  0.124136  1
  Rh  Rh22  1  0.996402  0.003598  0.248005  1
  Rh  Rh23  1  0.000771  0.999229  0.750913  1
