# generated using pymatgen
data_LiNd6Th2Zn7Rh8
_symmetry_space_group_name_H-M   'P 1'
_cell_length_a   3.96975500
_cell_length_b   7.46267224
_cell_length_c   16.59473153
_cell_angle_alpha   90.02885070
_cell_angle_beta   90.00000000
_cell_angle_gamma   90.00000000
_symmetry_Int_Tables_number   1
_chemical_formula_structural   LiNd6Th2Zn7Rh8
_chemical_formula_sum   'Li1 Nd6 Th2 Zn7 Rh8'
_cell_volume   491.61853428
_cell_formula_units_Z   1
loop_
 _symmetry_equiv_pos_site_id
 _symmetry_equiv_pos_as_xyz
  1  'x, y, z'
loop_
 _atom_site_type_symbol
 _atom_site_label
 _atom_site_symmetry_multiplicity
 _atom_site_fract_x
 _atom_site_fract_y
 _atom_site_fract_z
 _atom_site_occupancy
  Li  Li0  1  0.750000  0.014070  0.558189  1
  Nd  Nd1  1  0.750000  0.329574  0.437163  1
  Nd  Nd2  1  0.750000  0.947402  0.285537  1
  Nd  Nd3  1  0.750000  0.828231  0.062421  1
  Nd  Nd4  1  0.750000  0.446312  0.215002  1
  Nd  Nd5  1  0.250000  0.050910  0.714793  1
  Nd  Nd6  1  0.250000  0.553459  0.785272  1
  Th  Th7  1  0.250000  0.170497  0.939389  1
  Th  Th8  1  0.250000  0.667160  0.559684  1
  Zn  Zn9  1  0.250000  0.618922  0.348123  1
  Zn  Zn10  1  0.750000  0.375449  0.653648  1
  Zn  Zn11  1  0.250000  0.501842  0.060044  1
  Zn  Zn12  1  0.750000  0.510576  0.939812  1
  Zn  Zn13  1  0.250000  0.002521  0.443303  1
  Zn  Zn14  1  0.250000  0.117535  0.151401  1
  Zn  Zn15  1  0.750000  0.880499  0.845425  1
  Rh  Rh16  1  0.750000  0.744987  0.442250  1
  Rh  Rh17  1  0.250000  0.238681  0.311063  1
  Rh  Rh18  1  0.750000  0.247811  0.820495  1
  Rh  Rh19  1  0.750000  0.744903  0.680704  1
  Rh  Rh20  1  0.250000  0.266500  0.564832  1
  Rh  Rh21  1  0.250000  0.739588  0.188995  1
  Rh  Rh22  1  0.750000  0.247136  0.058049  1
  Rh  Rh23  1  0.250000  0.755435  0.934407  1
