# generated using pymatgen
data_Dy4TmOs2
_symmetry_space_group_name_H-M   'P 1'
_cell_length_a   6.35341417
_cell_length_b   7.35121872
_cell_length_c   8.41805615
_cell_angle_alpha   96.80721615
_cell_angle_beta   112.17075212
_cell_angle_gamma   90.00000647
_symmetry_Int_Tables_number   1
_chemical_formula_structural   Dy4TmOs2
_chemical_formula_sum   'Dy8 Tm2 Os4'
_cell_volume   361.10395475
_cell_formula_units_Z   2
loop_
 _symmetry_equiv_pos_site_id
 _symmetry_equiv_pos_as_xyz
  1  'x, y, z'
loop_
 _atom_site_type_symbol
 _atom_site_label
 _atom_site_symmetry_multiplicity
 _atom_site_fract_x
 _atom_site_fract_y
 _atom_site_fract_z
 _atom_site_occupancy
  Dy  Dy0  1  0.792512  0.083697  0.817285  1
  Dy  Dy1  1  0.975227  0.416303  0.182715  1
  Dy  Dy2  1  0.207488  0.916303  0.182715  1
  Dy  Dy3  1  0.024773  0.583697  0.817285  1
  Dy  Dy4  1  0.204188  0.182888  0.565117  1
  Dy  Dy5  1  0.639072  0.317112  0.434883  1
  Dy  Dy6  1  0.795812  0.817112  0.434883  1
  Dy  Dy7  1  0.360928  0.682888  0.565117  1
  Tm  Tm8  1  0.421744  0.250000  0.000000  1
  Tm  Tm9  1  0.578256  0.750000  0.000000  1
  Os  Os10  1  0.602382  0.422799  0.782626  1
  Os  Os11  1  0.819755  0.077201  0.217374  1
  Os  Os12  1  0.397618  0.577201  0.217374  1
  Os  Os13  1  0.180245  0.922799  0.782626  1
