# generated using pymatgen
data_AlZn2Co3O8
_symmetry_space_group_name_H-M   'P 1'
_cell_length_a   5.75471749
_cell_length_b   5.75471739
_cell_length_c   5.75471749
_cell_angle_alpha   60.48788193
_cell_angle_beta   60.48788117
_cell_angle_gamma   60.48787239
_symmetry_Int_Tables_number   1
_chemical_formula_structural   AlZn2Co3O8
_chemical_formula_sum   'Al1 Zn2 Co3 O8'
_cell_volume   136.24473189
_cell_formula_units_Z   1
loop_
 _symmetry_equiv_pos_site_id
 _symmetry_equiv_pos_as_xyz
  1  'x, y, z'
loop_
 _atom_site_type_symbol
 _atom_site_label
 _atom_site_symmetry_multiplicity
 _atom_site_fract_x
 _atom_site_fract_y
 _atom_site_fract_z
 _atom_site_occupancy
  Al  Al0  1  0.000000  0.000000  0.000000  1
  Zn  Zn1  1  0.622649  0.622649  0.622649  1
  Zn  Zn2  1  0.377351  0.377351  0.377351  1
  Co  Co3  1  0.000000  0.500000  0.000000  1
  Co  Co4  1  0.500000  0.000000  0.000000  1
  Co  Co5  1  0.000000  0.000000  0.500000  1
  O  O6  1  0.235782  0.235782  0.235782  1
  O  O7  1  0.233725  0.792357  0.233725  1
  O  O8  1  0.792357  0.233725  0.233725  1
  O  O9  1  0.233725  0.233725  0.792357  1
  O  O10  1  0.764218  0.764218  0.764218  1
  O  O11  1  0.766275  0.207643  0.766275  1
  O  O12  1  0.207643  0.766275  0.766275  1
  O  O13  1  0.766275  0.766275  0.207643  1
