# generated using pymatgen
data_RbNaV2O6
_symmetry_space_group_name_H-M   'P 1'
_cell_length_a   7.61433675
_cell_length_b   7.61433681
_cell_length_c   5.95003258
_cell_angle_alpha   80.00553540
_cell_angle_beta   80.00554031
_cell_angle_gamma   87.62102844
_symmetry_Int_Tables_number   1
_chemical_formula_structural   RbNaV2O6
_chemical_formula_sum   'Rb2 Na2 V4 O12'
_cell_volume   334.55789507
_cell_formula_units_Z   2
loop_
 _symmetry_equiv_pos_site_id
 _symmetry_equiv_pos_as_xyz
  1  'x, y, z'
loop_
 _atom_site_type_symbol
 _atom_site_label
 _atom_site_symmetry_multiplicity
 _atom_site_fract_x
 _atom_site_fract_y
 _atom_site_fract_z
 _atom_site_occupancy
  Rb  Rb0  1  0.197238  0.802762  0.250000  1
  Rb  Rb1  1  0.802762  0.197238  0.750000  1
  Na  Na2  1  0.594834  0.405166  0.250000  1
  Na  Na3  1  0.405166  0.594834  0.750000  1
  V  V4  1  0.865839  0.701003  0.784540  1
  V  V5  1  0.298997  0.134161  0.715460  1
  V  V6  1  0.134161  0.298997  0.215460  1
  V  V7  1  0.701003  0.865839  0.284540  1
  O  O8  1  0.613036  0.070471  0.227840  1
  O  O9  1  0.929529  0.386964  0.272160  1
  O  O10  1  0.386964  0.929529  0.772160  1
  O  O11  1  0.070471  0.613036  0.727840  1
  O  O12  1  0.169756  0.146707  0.479724  1
  O  O13  1  0.853293  0.830244  0.020276  1
  O  O14  1  0.830244  0.853293  0.520276  1
  O  O15  1  0.146707  0.169756  0.979724  1
  O  O16  1  0.707525  0.543868  0.854101  1
  O  O17  1  0.456132  0.292475  0.645899  1
  O  O18  1  0.292475  0.456132  0.145899  1
  O  O19  1  0.543868  0.707525  0.354101  1
