# generated using pymatgen
data_SrNdNi2(As2Pd)2
_symmetry_space_group_name_H-M   'P 1'
_cell_length_a   4.34132400
_cell_length_b   4.34132400
_cell_length_c   9.81798800
_cell_angle_alpha   90.00000000
_cell_angle_beta   90.00000000
_cell_angle_gamma   90.00000000
_symmetry_Int_Tables_number   1
_chemical_formula_structural   SrNdNi2(As2Pd)2
_chemical_formula_sum   'Sr1 Nd1 Ni2 As4 Pd2'
_cell_volume   185.04054344
_cell_formula_units_Z   1
loop_
 _symmetry_equiv_pos_site_id
 _symmetry_equiv_pos_as_xyz
  1  'x, y, z'
loop_
 _atom_site_type_symbol
 _atom_site_label
 _atom_site_symmetry_multiplicity
 _atom_site_fract_x
 _atom_site_fract_y
 _atom_site_fract_z
 _atom_site_occupancy
  Sr  Sr0  1  0.500000  0.000000  0.744440  1
  Nd  Nd1  1  0.000000  0.500000  0.259434  1
  Ni  Ni2  1  0.500000  0.000000  0.384510  1
  Ni  Ni3  1  0.000000  0.500000  0.608047  1
  As  As4  1  0.500000  0.000000  0.146181  1
  As  As5  1  0.000000  0.500000  0.854108  1
  As  As6  1  0.500000  0.500000  0.497431  1
  As  As7  1  0.000000  0.000000  0.497431  1
  Pd  Pd8  1  0.500000  0.500000  0.004209  1
  Pd  Pd9  1  0.000000  0.000000  0.004209  1
