# generated using pymatgen
data_Cs8BeHg3H16
_symmetry_space_group_name_H-M   'P 1'
_cell_length_a   6.43837500
_cell_length_b   8.96366482
_cell_length_c   11.41365003
_cell_angle_alpha   90.01125865
_cell_angle_beta   90.00000000
_cell_angle_gamma   90.00000000
_symmetry_Int_Tables_number   1
_chemical_formula_structural   Cs8BeHg3H16
_chemical_formula_sum   'Cs8 Be1 Hg3 H16'
_cell_volume   658.69811454
_cell_formula_units_Z   1
loop_
 _symmetry_equiv_pos_site_id
 _symmetry_equiv_pos_as_xyz
  1  'x, y, z'
loop_
 _atom_site_type_symbol
 _atom_site_label
 _atom_site_symmetry_multiplicity
 _atom_site_fract_x
 _atom_site_fract_y
 _atom_site_fract_z
 _atom_site_occupancy
  Cs  Cs0  1  0.250000  0.667313  0.081454  1
  Cs  Cs1  1  0.250000  0.159327  0.409222  1
  Cs  Cs2  1  0.750000  0.370474  0.909972  1
  Cs  Cs3  1  0.750000  0.833311  0.610527  1
  Cs  Cs4  1  0.250000  0.980585  0.818132  1
  Cs  Cs5  1  0.250000  0.488669  0.688710  1
  Cs  Cs6  1  0.750000  0.005667  0.171869  1
  Cs  Cs7  1  0.750000  0.515244  0.315424  1
  Be  Be8  1  0.750000  0.752188  0.914775  1
  Hg  Hg9  1  0.250000  0.740604  0.414690  1
  Hg  Hg10  1  0.250000  0.244214  0.083217  1
  Hg  Hg11  1  0.750000  0.257803  0.586665  1
  H  H12  1  0.018374  0.815966  0.345102  1
  H  H13  1  0.483315  0.317487  0.151919  1
  H  H14  1  0.517550  0.185008  0.657677  1
  H  H15  1  0.938205  0.691182  0.855965  1
  H  H16  1  0.982450  0.185008  0.657677  1
  H  H17  1  0.561795  0.691182  0.855965  1
  H  H18  1  0.481626  0.815966  0.345102  1
  H  H19  1  0.016685  0.317487  0.151919  1
  H  H20  1  0.250000  0.538636  0.408774  1
  H  H21  1  0.250000  0.041618  0.091389  1
  H  H22  1  0.750000  0.460548  0.596617  1
  H  H23  1  0.750000  0.915509  0.906249  1
  H  H24  1  0.250000  0.309030  0.930404  1
  H  H25  1  0.250000  0.805700  0.568168  1
  H  H26  1  0.750000  0.699514  0.038204  1
  H  H27  1  0.750000  0.194758  0.434214  1
