# generated using pymatgen
data_LuPaTcB6
_symmetry_space_group_name_H-M   'P 1'
_cell_length_a   3.68937900
_cell_length_b   9.08774200
_cell_length_c   11.45008400
_cell_angle_alpha   90.00000000
_cell_angle_beta   90.00000000
_cell_angle_gamma   90.00000000
_symmetry_Int_Tables_number   1
_chemical_formula_structural   LuPaTcB6
_chemical_formula_sum   'Lu4 Pa4 Tc4 B24'
_cell_volume   383.89984180
_cell_formula_units_Z   4
loop_
 _symmetry_equiv_pos_site_id
 _symmetry_equiv_pos_as_xyz
  1  'x, y, z'
loop_
 _atom_site_type_symbol
 _atom_site_label
 _atom_site_symmetry_multiplicity
 _atom_site_fract_x
 _atom_site_fract_y
 _atom_site_fract_z
 _atom_site_occupancy
  Lu  Lu0  1  0.000000  0.945217  0.374042  1
  Lu  Lu1  1  0.000000  0.054783  0.625958  1
  Lu  Lu2  1  0.000000  0.445217  0.125958  1
  Lu  Lu3  1  0.000000  0.554783  0.874042  1
  Pa  Pa4  1  0.000000  0.323051  0.413562  1
  Pa  Pa5  1  0.000000  0.676949  0.586438  1
  Pa  Pa6  1  0.000000  0.823051  0.086438  1
  Pa  Pa7  1  0.000000  0.176949  0.913562  1
  Tc  Tc8  1  0.000000  0.639868  0.320523  1
  Tc  Tc9  1  0.000000  0.360132  0.679477  1
  Tc  Tc10  1  0.000000  0.139868  0.179477  1
  Tc  Tc11  1  0.000000  0.860132  0.820523  1
  B  B12  1  0.500000  0.553282  0.433218  1
  B  B13  1  0.500000  0.446718  0.566782  1
  B  B14  1  0.500000  0.053282  0.066782  1
  B  B15  1  0.500000  0.946718  0.933218  1
  B  B16  1  0.500000  0.750054  0.419860  1
  B  B17  1  0.500000  0.249946  0.580140  1
  B  B18  1  0.500000  0.250054  0.080140  1
  B  B19  1  0.500000  0.749946  0.919860  1
  B  B20  1  0.500000  0.794387  0.265760  1
  B  B21  1  0.500000  0.205613  0.734239  1
  B  B22  1  0.500000  0.294387  0.234240  1
  B  B23  1  0.500000  0.705613  0.765761  1
  B  B24  1  0.500000  0.632911  0.184271  1
  B  B25  1  0.500000  0.367089  0.815729  1
  B  B26  1  0.500000  0.132911  0.315729  1
  B  B27  1  0.500000  0.867089  0.684271  1
  B  B28  1  0.500000  0.982798  0.214133  1
  B  B29  1  0.500000  0.017202  0.785867  1
  B  B30  1  0.500000  0.482798  0.285867  1
  B  B31  1  0.500000  0.517202  0.714133  1
  B  B32  1  0.500000  0.607700  0.029591  1
  B  B33  1  0.500000  0.392300  0.970409  1
  B  B34  1  0.500000  0.107700  0.470409  1
  B  B35  1  0.500000  0.892300  0.529591  1
