# generated using pymatgen
data_La2B4Ir3Rh
_symmetry_space_group_name_H-M   'P 1'
_cell_length_a   7.10048234
_cell_length_b   6.14360518
_cell_length_c   5.59749979
_cell_angle_alpha   74.25986268
_cell_angle_beta   56.38698076
_cell_angle_gamma   50.22212408
_symmetry_Int_Tables_number   1
_chemical_formula_structural   La2B4Ir3Rh
_chemical_formula_sum   'La2 B4 Ir3 Rh1'
_cell_volume   154.96357564
_cell_formula_units_Z   1
loop_
 _symmetry_equiv_pos_site_id
 _symmetry_equiv_pos_as_xyz
  1  'x, y, z'
loop_
 _atom_site_type_symbol
 _atom_site_label
 _atom_site_symmetry_multiplicity
 _atom_site_fract_x
 _atom_site_fract_y
 _atom_site_fract_z
 _atom_site_occupancy
  La  La0  1  0.501215  0.501220  0.498791  1
  La  La1  1  0.751892  0.751885  0.748112  1
  B  B2  1  0.188786  0.816125  0.169512  1
  B  B3  1  0.069562  0.425989  0.077490  1
  B  B4  1  0.816136  0.188775  0.825577  1
  B  B5  1  0.425986  0.069564  0.426961  1
  Ir  Ir6  1  0.130430  0.130436  0.869566  1
  Ir  Ir7  1  0.380167  0.380164  0.119833  1
  Ir  Ir8  1  0.117233  0.117247  0.382758  1
  Rh  Rh9  1  0.868594  0.868595  0.131401  1
