# generated using pymatgen
data_LuP2Ir3
_symmetry_space_group_name_H-M   'P 1'
_cell_length_a   3.94359000
_cell_length_b   11.14131800
_cell_length_c   12.79992000
_cell_angle_alpha   90.00000000
_cell_angle_beta   90.00000000
_cell_angle_gamma   90.00000000
_symmetry_Int_Tables_number   1
_chemical_formula_structural   LuP2Ir3
_chemical_formula_sum   'Lu6 P12 Ir18'
_cell_volume   562.38740028
_cell_formula_units_Z   6
loop_
 _symmetry_equiv_pos_site_id
 _symmetry_equiv_pos_as_xyz
  1  'x, y, z'
loop_
 _atom_site_type_symbol
 _atom_site_label
 _atom_site_symmetry_multiplicity
 _atom_site_fract_x
 _atom_site_fract_y
 _atom_site_fract_z
 _atom_site_occupancy
  Lu  Lu0  1  0.000000  0.500000  0.522902  1
  Lu  Lu1  1  0.500000  0.000000  0.477098  1
  Lu  Lu2  1  0.500000  0.814093  0.204423  1
  Lu  Lu3  1  0.500000  0.185907  0.204423  1
  Lu  Lu4  1  0.000000  0.685907  0.795577  1
  Lu  Lu5  1  0.000000  0.314093  0.795577  1
  P  P6  1  0.500000  0.500000  0.872650  1
  P  P7  1  0.000000  0.000000  0.127350  1
  P  P8  1  0.500000  0.500000  0.362061  1
  P  P9  1  0.000000  0.000000  0.637939  1
  P  P10  1  0.500000  0.315798  0.617379  1
  P  P11  1  0.500000  0.684202  0.617379  1
  P  P12  1  0.000000  0.184202  0.382621  1
  P  P13  1  0.000000  0.815798  0.382621  1
  P  P14  1  0.500000  0.846243  0.892721  1
  P  P15  1  0.500000  0.153757  0.892721  1
  P  P16  1  0.000000  0.653757  0.107279  1
  P  P17  1  0.000000  0.346243  0.107279  1
  Ir  Ir18  1  0.500000  0.500000  0.183182  1
  Ir  Ir19  1  0.000000  0.000000  0.816818  1
  Ir  Ir20  1  0.500000  0.500000  0.697527  1
  Ir  Ir21  1  0.000000  0.000000  0.302473  1
  Ir  Ir22  1  0.000000  0.500000  0.965716  1
  Ir  Ir23  1  0.500000  0.000000  0.034284  1
  Ir  Ir24  1  0.500000  0.336673  0.004911  1
  Ir  Ir25  1  0.500000  0.663327  0.004911  1
  Ir  Ir26  1  0.000000  0.163327  0.995089  1
  Ir  Ir27  1  0.000000  0.836673  0.995089  1
  Ir  Ir28  1  0.500000  0.294712  0.430518  1
  Ir  Ir29  1  0.500000  0.705288  0.430518  1
  Ir  Ir30  1  0.000000  0.205288  0.569482  1
  Ir  Ir31  1  0.000000  0.794712  0.569482  1
  Ir  Ir32  1  0.500000  0.867140  0.713931  1
  Ir  Ir33  1  0.500000  0.132860  0.713931  1
  Ir  Ir34  1  0.000000  0.632860  0.286069  1
  Ir  Ir35  1  0.000000  0.367140  0.286069  1
