# generated using pymatgen
data_Nb2RuI6
_symmetry_space_group_name_H-M   'P 1'
_cell_length_a   11.02752650
_cell_length_b   11.02752797
_cell_length_c   12.86106000
_cell_angle_alpha   90.00000000
_cell_angle_beta   90.00000000
_cell_angle_gamma   108.70375944
_symmetry_Int_Tables_number   1
_chemical_formula_structural   Nb2RuI6
_chemical_formula_sum   'Nb8 Ru4 I24'
_cell_volume   1481.39132766
_cell_formula_units_Z   4
loop_
 _symmetry_equiv_pos_site_id
 _symmetry_equiv_pos_as_xyz
  1  'x, y, z'
loop_
 _atom_site_type_symbol
 _atom_site_label
 _atom_site_symmetry_multiplicity
 _atom_site_fract_x
 _atom_site_fract_y
 _atom_site_fract_z
 _atom_site_occupancy
  Nb  Nb0  1  0.432553  0.432553  0.364045  1
  Nb  Nb1  1  0.567447  0.567447  0.635955  1
  Nb  Nb2  1  0.067447  0.067447  0.864045  1
  Nb  Nb3  1  0.932553  0.932553  0.135955  1
  Nb  Nb4  1  0.135865  0.135865  0.067433  1
  Nb  Nb5  1  0.864135  0.864135  0.932567  1
  Nb  Nb6  1  0.364135  0.364135  0.567433  1
  Nb  Nb7  1  0.635865  0.635865  0.432567  1
  Ru  Ru8  1  0.883808  0.116192  0.000000  1
  Ru  Ru9  1  0.116192  0.883808  0.000000  1
  Ru  Ru10  1  0.616192  0.383808  0.500000  1
  Ru  Ru11  1  0.383808  0.616192  0.500000  1
  I  I12  1  0.727275  0.272725  0.000000  1
  I  I13  1  0.272725  0.727275  0.000000  1
  I  I14  1  0.772725  0.227275  0.500000  1
  I  I15  1  0.227275  0.772725  0.500000  1
  I  I16  1  0.949200  0.185283  0.199086  1
  I  I17  1  0.050800  0.814717  0.800914  1
  I  I18  1  0.550800  0.314717  0.699086  1
  I  I19  1  0.685283  0.449200  0.300914  1
  I  I20  1  0.449200  0.685283  0.300914  1
  I  I21  1  0.314717  0.550800  0.699086  1
  I  I22  1  0.814717  0.050800  0.800914  1
  I  I23  1  0.185283  0.949200  0.199086  1
  I  I24  1  0.349172  0.349172  0.150698  1
  I  I25  1  0.650828  0.650828  0.849302  1
  I  I26  1  0.150828  0.150828  0.650698  1
  I  I27  1  0.849172  0.849172  0.349302  1
  I  I28  1  0.918834  0.682822  0.067119  1
  I  I29  1  0.081166  0.317178  0.932881  1
  I  I30  1  0.581166  0.817178  0.567119  1
  I  I31  1  0.182822  0.418834  0.432881  1
  I  I32  1  0.418834  0.182822  0.432881  1
  I  I33  1  0.817178  0.581166  0.567119  1
  I  I34  1  0.317178  0.081166  0.932881  1
  I  I35  1  0.682822  0.918834  0.067119  1
