# generated using pymatgen
data_TbY2Mg3NiGe2
_symmetry_space_group_name_H-M   'P 1'
_cell_length_a   7.23394067
_cell_length_b   7.20702721
_cell_length_c   4.27304700
_cell_angle_alpha   90.00000000
_cell_angle_beta   90.00000000
_cell_angle_gamma   119.87699829
_symmetry_Int_Tables_number   1
_chemical_formula_structural   TbY2Mg3NiGe2
_chemical_formula_sum   'Tb1 Y2 Mg3 Ni1 Ge2'
_cell_volume   193.16852216
_cell_formula_units_Z   1
loop_
 _symmetry_equiv_pos_site_id
 _symmetry_equiv_pos_as_xyz
  1  'x, y, z'
loop_
 _atom_site_type_symbol
 _atom_site_label
 _atom_site_symmetry_multiplicity
 _atom_site_fract_x
 _atom_site_fract_y
 _atom_site_fract_z
 _atom_site_occupancy
  Tb  Tb0  1  0.000000  0.591083  0.000000  1
  Y  Y1  1  0.409581  0.410205  0.000000  1
  Y  Y2  1  0.590419  0.000624  0.000000  1
  Mg  Mg3  1  0.239266  0.000627  0.500000  1
  Mg  Mg4  1  0.760734  0.761361  0.500000  1
  Mg  Mg5  1  0.000000  0.238508  0.500000  1
  Ni  Ni6  1  0.000000  0.998033  0.000000  1
  Ge  Ge7  1  0.667021  0.333289  0.500000  1
  Ge  Ge8  1  0.332979  0.666269  0.500000  1
