# generated using pymatgen
data_Ca2Ga2CoNi5B2
_symmetry_space_group_name_H-M   'P 1'
_cell_length_a   5.24257573
_cell_length_b   5.23519760
_cell_length_c   6.64944100
_cell_angle_alpha   90.00000000
_cell_angle_beta   90.00000000
_cell_angle_gamma   119.95345618
_symmetry_Int_Tables_number   1
_chemical_formula_structural   Ca2Ga2CoNi5B2
_chemical_formula_sum   'Ca2 Ga2 Co1 Ni5 B2'
_cell_volume   158.12373192
_cell_formula_units_Z   1
loop_
 _symmetry_equiv_pos_site_id
 _symmetry_equiv_pos_as_xyz
  1  'x, y, z'
loop_
 _atom_site_type_symbol
 _atom_site_label
 _atom_site_symmetry_multiplicity
 _atom_site_fract_x
 _atom_site_fract_y
 _atom_site_fract_z
 _atom_site_occupancy
  Ca  Ca0  1  0.000000  0.000000  0.502033  1
  Ca  Ca1  1  0.000000  0.000000  0.998793  1
  Ga  Ga2  1  0.330453  0.665227  0.500839  1
  Ga  Ga3  1  0.669547  0.334773  0.500839  1
  Co  Co4  1  0.000000  0.500000  0.801350  1
  Ni  Ni5  1  0.500000  0.500000  0.799481  1
  Ni  Ni6  1  0.500000  0.000000  0.799481  1
  Ni  Ni7  1  0.000000  0.500000  0.199939  1
  Ni  Ni8  1  0.500000  0.500000  0.200149  1
  Ni  Ni9  1  0.500000  0.000000  0.200149  1
  B  B10  1  0.672078  0.336038  0.998473  1
  B  B11  1  0.327922  0.663962  0.998473  1
