# generated using pymatgen
data_Ta7Nb5(BOs)12
_symmetry_space_group_name_H-M   'P 1'
_cell_length_a   3.10886900
_cell_length_b   9.11189666
_cell_length_c   15.86245688
_cell_angle_alpha   89.93089739
_cell_angle_beta   90.00000000
_cell_angle_gamma   90.00000000
_symmetry_Int_Tables_number   1
_chemical_formula_structural   Ta7Nb5(BOs)12
_chemical_formula_sum   'Ta7 Nb5 B12 Os12'
_cell_volume   449.34648278
_cell_formula_units_Z   1
loop_
 _symmetry_equiv_pos_site_id
 _symmetry_equiv_pos_as_xyz
  1  'x, y, z'
loop_
 _atom_site_type_symbol
 _atom_site_label
 _atom_site_symmetry_multiplicity
 _atom_site_fract_x
 _atom_site_fract_y
 _atom_site_fract_z
 _atom_site_occupancy
  Ta  Ta0  1  0.000000  0.799614  0.495629  1
  Ta  Ta1  1  0.000000  0.200425  0.504481  1
  Ta  Ta2  1  0.000000  0.299716  0.004703  1
  Ta  Ta3  1  0.000000  0.700110  0.995315  1
  Ta  Ta4  1  0.000000  0.515986  0.593930  1
  Ta  Ta5  1  0.000000  0.484008  0.406103  1
  Ta  Ta6  1  0.000000  0.016326  0.906031  1
  Nb  Nb7  1  0.000000  0.983276  0.093357  1
  Nb  Nb8  1  0.000000  0.688413  0.201905  1
  Nb  Nb9  1  0.000000  0.312082  0.798369  1
  Nb  Nb10  1  0.000000  0.187636  0.298191  1
  Nb  Nb11  1  0.000000  0.812204  0.701774  1
  B  B12  1  0.500000  0.604644  0.496946  1
  B  B13  1  0.500000  0.395261  0.503019  1
  B  B14  1  0.500000  0.105393  0.002226  1
  B  B15  1  0.500000  0.894725  0.996451  1
  B  B16  1  0.000000  0.609137  0.832078  1
  B  B17  1  0.000000  0.390596  0.167835  1
  B  B18  1  0.000000  0.108921  0.668019  1
  B  B19  1  0.000000  0.891249  0.331801  1
  B  B20  1  0.500000  0.715622  0.597475  1
  B  B21  1  0.500000  0.284619  0.402556  1
  B  B22  1  0.500000  0.215376  0.902751  1
  B  B23  1  0.500000  0.783131  0.097075  1
  Os  Os24  1  0.500000  0.719196  0.356541  1
  Os  Os25  1  0.500000  0.280745  0.643776  1
  Os  Os26  1  0.500000  0.219966  0.144429  1
  Os  Os27  1  0.500000  0.780602  0.855982  1
  Os  Os28  1  0.500000  0.515411  0.093109  1
  Os  Os29  1  0.500000  0.484990  0.906998  1
  Os  Os30  1  0.500000  0.015006  0.407315  1
  Os  Os31  1  0.500000  0.985070  0.592934  1
  Os  Os32  1  0.500000  0.559854  0.734836  1
  Os  Os33  1  0.500000  0.440193  0.265376  1
  Os  Os34  1  0.500000  0.059817  0.764944  1
  Os  Os35  1  0.500000  0.940683  0.235738  1
