# generated using pymatgen
data_Nd2Al9OsPt2
_symmetry_space_group_name_H-M   'P 1'
_cell_length_a   7.65278746
_cell_length_b   7.65278689
_cell_length_c   9.61067100
_cell_angle_alpha   90.00000000
_cell_angle_beta   90.00000000
_cell_angle_gamma   119.49815217
_symmetry_Int_Tables_number   1
_chemical_formula_structural   Nd2Al9OsPt2
_chemical_formula_sum   'Nd4 Al18 Os2 Pt4'
_cell_volume   489.88899270
_cell_formula_units_Z   2
loop_
 _symmetry_equiv_pos_site_id
 _symmetry_equiv_pos_as_xyz
  1  'x, y, z'
loop_
 _atom_site_type_symbol
 _atom_site_label
 _atom_site_symmetry_multiplicity
 _atom_site_fract_x
 _atom_site_fract_y
 _atom_site_fract_z
 _atom_site_occupancy
  Nd  Nd0  1  0.994025  0.669794  0.250000  1
  Nd  Nd1  1  0.005975  0.330206  0.750000  1
  Nd  Nd2  1  0.669794  0.994025  0.250000  1
  Nd  Nd3  1  0.330206  0.005975  0.750000  1
  Al  Al4  1  0.127517  0.127517  0.250000  1
  Al  Al5  1  0.872483  0.872483  0.750000  1
  Al  Al6  1  0.001504  0.329498  0.073794  1
  Al  Al7  1  0.998496  0.670502  0.926206  1
  Al  Al8  1  0.998496  0.670502  0.573794  1
  Al  Al9  1  0.329498  0.001504  0.426206  1
  Al  Al10  1  0.001504  0.329498  0.426206  1
  Al  Al11  1  0.670502  0.998496  0.573794  1
  Al  Al12  1  0.670502  0.998496  0.926206  1
  Al  Al13  1  0.329498  0.001504  0.073794  1
  Al  Al14  1  0.329619  0.329619  0.551236  1
  Al  Al15  1  0.670381  0.670381  0.448764  1
  Al  Al16  1  0.670381  0.670381  0.051236  1
  Al  Al17  1  0.329619  0.329619  0.948764  1
  Al  Al18  1  0.341309  0.544149  0.250000  1
  Al  Al19  1  0.658691  0.455851  0.750000  1
  Al  Al20  1  0.544149  0.341309  0.250000  1
  Al  Al21  1  0.455851  0.658691  0.750000  1
  Os  Os22  1  0.000000  0.000000  0.000000  1
  Os  Os23  1  0.000000  0.000000  0.500000  1
  Pt  Pt24  1  0.671203  0.328797  0.000000  1
  Pt  Pt25  1  0.328797  0.671203  0.000000  1
  Pt  Pt26  1  0.328797  0.671203  0.500000  1
  Pt  Pt27  1  0.671203  0.328797  0.500000  1
