# generated using pymatgen
data_CrFe7ReW3
_symmetry_space_group_name_H-M   'P 1'
_cell_length_a   4.71455800
_cell_length_b   4.71455887
_cell_length_c   7.69160200
_cell_angle_alpha   90.00000000
_cell_angle_beta   90.00000000
_cell_angle_gamma   119.99999390
_symmetry_Int_Tables_number   1
_chemical_formula_structural   CrFe7ReW3
_chemical_formula_sum   'Cr1 Fe7 Re1 W3'
_cell_volume   148.05719188
_cell_formula_units_Z   1
loop_
 _symmetry_equiv_pos_site_id
 _symmetry_equiv_pos_as_xyz
  1  'x, y, z'
loop_
 _atom_site_type_symbol
 _atom_site_label
 _atom_site_symmetry_multiplicity
 _atom_site_fract_x
 _atom_site_fract_y
 _atom_site_fract_z
 _atom_site_occupancy
  Cr  Cr0  1  0.000000  0.000000  0.999815  1
  Fe  Fe1  1  0.000000  0.000000  0.499306  1
  Fe  Fe2  1  0.170937  0.829063  0.250391  1
  Fe  Fe3  1  0.341877  0.170940  0.749555  1
  Fe  Fe4  1  0.829060  0.658123  0.749555  1
  Fe  Fe5  1  0.170937  0.341872  0.250391  1
  Fe  Fe6  1  0.658128  0.829063  0.250391  1
  Fe  Fe7  1  0.829060  0.170940  0.749555  1
  Re  Re8  1  0.333333  0.666667  0.934079  1
  W  W9  1  0.666667  0.333333  0.430145  1
  W  W10  1  0.666667  0.333333  0.063351  1
  W  W11  1  0.333333  0.666667  0.573466  1
