# generated using pymatgen
data_Y2ErTm(Ga2Ag)4
_symmetry_space_group_name_H-M   'P 1'
_cell_length_a   4.37355000
_cell_length_b   6.94702327
_cell_length_c   10.25421900
_cell_angle_alpha   89.94237353
_cell_angle_beta   90.00000000
_cell_angle_gamma   90.00000000
_symmetry_Int_Tables_number   1
_chemical_formula_structural   Y2ErTm(Ga2Ag)4
_chemical_formula_sum   'Y2 Er1 Tm1 Ga8 Ag4'
_cell_volume   311.55535345
_cell_formula_units_Z   1
loop_
 _symmetry_equiv_pos_site_id
 _symmetry_equiv_pos_as_xyz
  1  'x, y, z'
loop_
 _atom_site_type_symbol
 _atom_site_label
 _atom_site_symmetry_multiplicity
 _atom_site_fract_x
 _atom_site_fract_y
 _atom_site_fract_z
 _atom_site_occupancy
  Y  Y0  1  0.250000  0.779339  0.823244  1
  Y  Y1  1  0.750000  0.721106  0.324242  1
  Er  Er2  1  0.750000  0.221183  0.175586  1
  Tm  Tm3  1  0.250000  0.278642  0.675571  1
  Ga  Ga4  1  0.250000  0.699464  0.535395  1
  Ga  Ga5  1  0.750000  0.298752  0.464735  1
  Ga  Ga6  1  0.750000  0.798610  0.035538  1
  Ga  Ga7  1  0.250000  0.202030  0.964167  1
  Ga  Ga8  1  0.250000  0.930498  0.154750  1
  Ga  Ga9  1  0.750000  0.072400  0.845668  1
  Ga  Ga10  1  0.750000  0.569081  0.653956  1
  Ga  Ga11  1  0.250000  0.427599  0.344836  1
  Ag  Ag12  1  0.250000  0.544543  0.095728  1
  Ag  Ag13  1  0.750000  0.454417  0.903796  1
  Ag  Ag14  1  0.750000  0.956259  0.597032  1
  Ag  Ag15  1  0.250000  0.046080  0.405756  1
