# generated using pymatgen
data_AcTaP7Ru12
_symmetry_space_group_name_H-M   'P 1'
_cell_length_a   9.48258700
_cell_length_b   9.48258691
_cell_length_c   3.92871400
_cell_angle_alpha   90.00000000
_cell_angle_beta   90.00000000
_cell_angle_gamma   119.99999588
_symmetry_Int_Tables_number   1
_chemical_formula_structural   AcTaP7Ru12
_chemical_formula_sum   'Ac1 Ta1 P7 Ru12'
_cell_volume   305.93892193
_cell_formula_units_Z   1
loop_
 _symmetry_equiv_pos_site_id
 _symmetry_equiv_pos_as_xyz
  1  'x, y, z'
loop_
 _atom_site_type_symbol
 _atom_site_label
 _atom_site_symmetry_multiplicity
 _atom_site_fract_x
 _atom_site_fract_y
 _atom_site_fract_z
 _atom_site_occupancy
  Ac  Ac0  1  0.333333  0.666667  0.000000  1
  Ta  Ta1  1  0.666667  0.333333  0.500000  1
  P  P2  1  0.609237  0.719574  0.500000  1
  P  P3  1  0.000000  0.000000  0.000000  1
  P  P4  1  0.280426  0.889664  0.500000  1
  P  P5  1  0.110336  0.390763  0.500000  1
  P  P6  1  0.886973  0.568984  0.000000  1
  P  P7  1  0.431016  0.317989  0.000000  1
  P  P8  1  0.682011  0.113027  0.000000  1
  Ru  Ru9  1  0.565137  0.969699  0.500000  1
  Ru  Ru10  1  0.404564  0.434863  0.500000  1
  Ru  Ru11  1  0.913761  0.119229  0.500000  1
  Ru  Ru12  1  0.205468  0.086239  0.500000  1
  Ru  Ru13  1  0.880771  0.794532  0.500000  1
  Ru  Ru14  1  0.727334  0.889764  0.000000  1
  Ru  Ru15  1  0.110236  0.837570  0.000000  1
  Ru  Ru16  1  0.162430  0.272666  0.000000  1
  Ru  Ru17  1  0.427633  0.082542  0.000000  1
  Ru  Ru18  1  0.917458  0.345091  0.000000  1
  Ru  Ru19  1  0.654909  0.572367  0.000000  1
  Ru  Ru20  1  0.030301  0.595436  0.500000  1
