# generated using pymatgen
data_Lu8Zn4AgAu3
_symmetry_space_group_name_H-M   'P 1'
_cell_length_a   7.13926513
_cell_length_b   7.04680800
_cell_length_c   7.13941600
_cell_angle_alpha   90.00000000
_cell_angle_beta   89.98926998
_cell_angle_gamma   90.00000000
_symmetry_Int_Tables_number   1
_chemical_formula_structural   Lu8Zn4AgAu3
_chemical_formula_sum   'Lu8 Zn4 Ag1 Au3'
_cell_volume   359.17709170
_cell_formula_units_Z   1
loop_
 _symmetry_equiv_pos_site_id
 _symmetry_equiv_pos_as_xyz
  1  'x, y, z'
loop_
 _atom_site_type_symbol
 _atom_site_label
 _atom_site_symmetry_multiplicity
 _atom_site_fract_x
 _atom_site_fract_y
 _atom_site_fract_z
 _atom_site_occupancy
  Lu  Lu0  1  0.248905  0.001465  0.251101  1
  Lu  Lu1  1  0.248905  0.498535  0.251101  1
  Lu  Lu2  1  0.751115  0.499337  0.251099  1
  Lu  Lu3  1  0.751115  0.000663  0.251099  1
  Lu  Lu4  1  0.248875  0.001437  0.748887  1
  Lu  Lu5  1  0.248875  0.498563  0.748887  1
  Lu  Lu6  1  0.751093  0.499343  0.748932  1
  Lu  Lu7  1  0.751093  0.000657  0.748932  1
  Zn  Zn8  1  0.999098  0.249999  0.999996  1
  Zn  Zn9  1  0.000960  0.749999  0.999997  1
  Zn  Zn10  1  0.499096  0.749999  0.499943  1
  Zn  Zn11  1  0.500905  0.249999  0.500031  1
  Ag  Ag12  1  0.498749  0.749999  0.000094  1
  Au  Au13  1  0.998699  0.249999  0.499902  1
  Au  Au14  1  0.001268  0.749999  0.500107  1
  Au  Au15  1  0.501249  0.249999  0.999895  1
