# generated using pymatgen
data_Li2Pr2Si2Bi
_symmetry_space_group_name_H-M   'P 1'
_cell_length_a   9.93092433
_cell_length_b   9.93092510
_cell_length_c   6.97207100
_cell_angle_alpha   90.00000000
_cell_angle_beta   90.00000000
_cell_angle_gamma   153.21856054
_symmetry_Int_Tables_number   1
_chemical_formula_structural   Li2Pr2Si2Bi
_chemical_formula_sum   'Li4 Pr4 Si4 Bi2'
_cell_volume   309.82835325
_cell_formula_units_Z   2
loop_
 _symmetry_equiv_pos_site_id
 _symmetry_equiv_pos_as_xyz
  1  'x, y, z'
loop_
 _atom_site_type_symbol
 _atom_site_label
 _atom_site_symmetry_multiplicity
 _atom_site_fract_x
 _atom_site_fract_y
 _atom_site_fract_z
 _atom_site_occupancy
  Li  Li0  1  0.816793  0.183207  0.557148  1
  Li  Li1  1  0.183207  0.816793  0.442852  1
  Li  Li2  1  0.183207  0.816793  0.057148  1
  Li  Li3  1  0.816793  0.183207  0.942852  1
  Pr  Pr4  1  0.545366  0.454634  0.250000  1
  Pr  Pr5  1  0.454634  0.545366  0.750000  1
  Pr  Pr6  1  0.353870  0.646130  0.250000  1
  Pr  Pr7  1  0.646130  0.353870  0.750000  1
  Si  Si8  1  0.943543  0.056457  0.074469  1
  Si  Si9  1  0.056457  0.943543  0.925531  1
  Si  Si10  1  0.056457  0.943543  0.574469  1
  Si  Si11  1  0.943543  0.056457  0.425531  1
  Bi  Bi12  1  0.718983  0.281017  0.250000  1
  Bi  Bi13  1  0.281017  0.718983  0.750000  1
