# generated using pymatgen
data_Ba6SmSc(BO3)6
_symmetry_space_group_name_H-M   'P 1'
_cell_length_a   8.21163707
_cell_length_b   8.21163612
_cell_length_c   8.21163718
_cell_angle_alpha   105.76933275
_cell_angle_beta   105.76932972
_cell_angle_gamma   105.76934243
_symmetry_Int_Tables_number   1
_chemical_formula_structural   Ba6SmSc(BO3)6
_chemical_formula_sum   'Ba6 Sm1 Sc1 B6 O18'
_cell_volume   475.77547093
_cell_formula_units_Z   1
loop_
 _symmetry_equiv_pos_site_id
 _symmetry_equiv_pos_as_xyz
  1  'x, y, z'
loop_
 _atom_site_type_symbol
 _atom_site_label
 _atom_site_symmetry_multiplicity
 _atom_site_fract_x
 _atom_site_fract_y
 _atom_site_fract_z
 _atom_site_occupancy
  Ba  Ba0  1  0.350081  0.731787  0.837809  1
  Ba  Ba1  1  0.837809  0.350081  0.731787  1
  Ba  Ba2  1  0.731787  0.837809  0.350081  1
  Ba  Ba3  1  0.649919  0.268213  0.162191  1
  Ba  Ba4  1  0.162191  0.649919  0.268213  1
  Ba  Ba5  1  0.268213  0.162191  0.649919  1
  Sm  Sm6  1  0.000000  0.000000  0.000000  1
  Sc  Sc7  1  0.500000  0.500000  0.500000  1
  B  B8  1  0.378963  0.051918  0.294776  1
  B  B9  1  0.294776  0.378963  0.051918  1
  B  B10  1  0.051918  0.294776  0.378963  1
  B  B11  1  0.705224  0.621037  0.948082  1
  B  B12  1  0.948082  0.705224  0.621037  1
  B  B13  1  0.621037  0.948082  0.705224  1
  O  O14  1  0.426399  0.489781  0.227017  1
  O  O15  1  0.227017  0.426399  0.489781  1
  O  O16  1  0.806836  0.013760  0.734993  1
  O  O17  1  0.013760  0.734993  0.806836  1
  O  O18  1  0.734993  0.806836  0.013760  1
  O  O19  1  0.265007  0.193164  0.986240  1
  O  O20  1  0.193164  0.986240  0.265007  1
  O  O21  1  0.986240  0.265007  0.193164  1
  O  O22  1  0.546086  0.054760  0.797343  1
  O  O23  1  0.054760  0.797343  0.546086  1
  O  O24  1  0.797343  0.546086  0.054760  1
  O  O25  1  0.453914  0.945240  0.202657  1
  O  O26  1  0.945240  0.202657  0.453914  1
  O  O27  1  0.202657  0.453914  0.945240  1
  O  O28  1  0.510219  0.772983  0.573601  1
  O  O29  1  0.772983  0.573601  0.510219  1
  O  O30  1  0.573601  0.510219  0.772983  1
  O  O31  1  0.489781  0.227017  0.426399  1
