# generated using pymatgen
data_Nd6YHoSb20
_symmetry_space_group_name_H-M   'P 1'
_cell_length_a   4.26456800
_cell_length_b   13.50175543
_cell_length_c   15.14096900
_cell_angle_alpha   77.98218080
_cell_angle_beta   90.00000000
_cell_angle_gamma   90.00000000
_symmetry_Int_Tables_number   1
_chemical_formula_structural   Nd6YHoSb20
_chemical_formula_sum   'Nd6 Y1 Ho1 Sb20'
_cell_volume   852.69676162
_cell_formula_units_Z   1
loop_
 _symmetry_equiv_pos_site_id
 _symmetry_equiv_pos_as_xyz
  1  'x, y, z'
loop_
 _atom_site_type_symbol
 _atom_site_label
 _atom_site_symmetry_multiplicity
 _atom_site_fract_x
 _atom_site_fract_y
 _atom_site_fract_z
 _atom_site_occupancy
  Nd  Nd0  1  0.750000  0.335661  0.142957  1
  Nd  Nd1  1  0.250000  0.949687  0.361126  1
  Nd  Nd2  1  0.250000  0.664322  0.857041  1
  Nd  Nd3  1  0.250000  0.668134  0.576286  1
  Nd  Nd4  1  0.750000  0.050252  0.638894  1
  Nd  Nd5  1  0.750000  0.331881  0.423769  1
  Y  Y6  1  0.250000  0.396640  0.772544  1
  Ho  Ho7  1  0.750000  0.603369  0.227504  1
  Sb  Sb8  1  0.750000  0.851005  0.820012  1
  Sb  Sb9  1  0.250000  0.861952  0.675166  1
  Sb  Sb10  1  0.250000  0.142730  0.478128  1
  Sb  Sb11  1  0.750000  0.284658  0.935061  1
  Sb  Sb12  1  0.250000  0.146644  0.780932  1
  Sb  Sb13  1  0.750000  0.574388  0.441358  1
  Sb  Sb14  1  0.750000  0.138067  0.324758  1
  Sb  Sb15  1  0.250000  0.706253  0.350125  1
  Sb  Sb16  1  0.750000  0.293562  0.649626  1
  Sb  Sb17  1  0.750000  0.853098  0.219073  1
  Sb  Sb18  1  0.250000  0.420416  0.972903  1
  Sb  Sb19  1  0.250000  0.425617  0.558435  1
  Sb  Sb20  1  0.750000  0.572851  0.736311  1
  Sb  Sb21  1  0.250000  0.427955  0.263512  1
  Sb  Sb22  1  0.750000  0.857193  0.521878  1
  Sb  Sb23  1  0.750000  0.031146  0.891235  1
  Sb  Sb24  1  0.250000  0.715170  0.065231  1
  Sb  Sb25  1  0.250000  0.968839  0.108719  1
  Sb  Sb26  1  0.250000  0.148980  0.179951  1
  Sb  Sb27  1  0.750000  0.579528  0.027466  1
