# generated using pymatgen
data_Nd11Ho(SiBr3)4
_symmetry_space_group_name_H-M   'P 1'
_cell_length_a   10.42050195
_cell_length_b   10.39690114
_cell_length_c   10.42960745
_cell_angle_alpha   109.50114331
_cell_angle_beta   109.50579671
_cell_angle_gamma   109.37860393
_symmetry_Int_Tables_number   1
_chemical_formula_structural   Nd11Ho(SiBr3)4
_chemical_formula_sum   'Nd11 Ho1 Si4 Br12'
_cell_volume   870.13917966
_cell_formula_units_Z   1
loop_
 _symmetry_equiv_pos_site_id
 _symmetry_equiv_pos_as_xyz
  1  'x, y, z'
loop_
 _atom_site_type_symbol
 _atom_site_label
 _atom_site_symmetry_multiplicity
 _atom_site_fract_x
 _atom_site_fract_y
 _atom_site_fract_z
 _atom_site_occupancy
  Nd  Nd0  1  0.750370  0.238697  0.261727  1
  Nd  Nd1  1  0.750370  0.011673  0.488642  1
  Nd  Nd2  1  0.238076  0.476599  0.488195  1
  Nd  Nd3  1  0.262179  0.749822  0.238317  1
  Nd  Nd4  1  0.024297  0.262148  0.012148  1
  Nd  Nd5  1  0.013174  0.024222  0.261601  1
  Nd  Nd6  1  0.489360  0.750347  0.012781  1
  Nd  Nd7  1  0.489360  0.239014  0.476578  1
  Nd  Nd8  1  0.013174  0.488953  0.751573  1
  Nd  Nd9  1  0.262179  0.012357  0.023863  1
  Nd  Nd10  1  0.238076  0.261476  0.749882  1
  Ho  Ho11  1  0.468657  0.484329  0.234329  1
  Si  Si12  1  0.253219  0.253190  0.250540  1
  Si  Si13  1  0.500476  0.000238  0.250238  1
  Si  Si14  1  0.000189  0.250095  0.500095  1
  Si  Si15  1  0.253219  0.500029  0.002679  1
  Br  Br16  1  0.250797  0.755326  0.745656  1
  Br  Br17  1  0.509431  0.504715  0.754715  1
  Br  Br18  1  0.990697  0.745349  0.995349  1
  Br  Br19  1  0.745953  0.250247  0.755233  1
  Br  Br20  1  0.995685  0.990683  0.745834  1
  Br  Br21  1  0.250797  0.995471  0.505141  1
  Br  Br22  1  0.747725  0.508953  0.496355  1
  Br  Br23  1  0.506588  0.261159  0.005702  1
  Br  Br24  1  0.747725  0.738773  0.251370  1
  Br  Br25  1  0.745953  0.995706  0.990719  1
  Br  Br26  1  0.995685  0.505000  0.249851  1
  Br  Br27  1  0.506588  0.745429  0.500887  1
