# generated using pymatgen
data_Tb2Ho13Er(CdNi)4
_symmetry_space_group_name_H-M   'P 1'
_cell_length_a   9.51351964
_cell_length_b   9.51352079
_cell_length_c   9.49578300
_cell_angle_alpha   60.06165395
_cell_angle_beta   60.06164998
_cell_angle_gamma   60.13621424
_symmetry_Int_Tables_number   1
_chemical_formula_structural   Tb2Ho13Er(CdNi)4
_chemical_formula_sum   'Tb2 Ho13 Er1 Cd4 Ni4'
_cell_volume   608.90322111
_cell_formula_units_Z   1
loop_
 _symmetry_equiv_pos_site_id
 _symmetry_equiv_pos_as_xyz
  1  'x, y, z'
loop_
 _atom_site_type_symbol
 _atom_site_label
 _atom_site_symmetry_multiplicity
 _atom_site_fract_x
 _atom_site_fract_y
 _atom_site_fract_z
 _atom_site_occupancy
  Tb  Tb0  1  0.347762  0.347762  0.347707  1
  Tb  Tb1  1  0.347762  0.347762  0.956771  1
  Ho  Ho2  1  0.350795  0.949718  0.349744  1
  Ho  Ho3  1  0.949718  0.350795  0.349744  1
  Ho  Ho4  1  0.812591  0.188914  0.188257  1
  Ho  Ho5  1  0.188914  0.812591  0.810239  1
  Ho  Ho6  1  0.188914  0.812591  0.188257  1
  Ho  Ho7  1  0.812591  0.188914  0.810239  1
  Ho  Ho8  1  0.189460  0.189460  0.810540  1
  Ho  Ho9  1  0.812338  0.812338  0.187662  1
  Ho  Ho10  1  0.936616  0.564511  0.563786  1
  Ho  Ho11  1  0.564511  0.936616  0.935087  1
  Ho  Ho12  1  0.564511  0.936616  0.563786  1
  Ho  Ho13  1  0.936616  0.564511  0.935087  1
  Ho  Ho14  1  0.565396  0.565396  0.934604  1
  Er  Er15  1  0.937862  0.937862  0.562138  1
  Cd  Cd16  1  0.580523  0.580523  0.581665  1
  Cd  Cd17  1  0.580523  0.580523  0.257289  1
  Cd  Cd18  1  0.580499  0.255987  0.581756  1
  Cd  Cd19  1  0.255987  0.580499  0.581756  1
  Ni  Ni20  1  0.141238  0.141238  0.146041  1
  Ni  Ni21  1  0.141238  0.141238  0.571483  1
  Ni  Ni22  1  0.138686  0.574950  0.143182  1
  Ni  Ni23  1  0.574950  0.138686  0.143182  1
