# generated using pymatgen
data_La4Zn4PtRh3
_symmetry_space_group_name_H-M   'P 1'
_cell_length_a   4.06830000
_cell_length_b   7.52997800
_cell_length_c   16.74265700
_cell_angle_alpha   90.00000000
_cell_angle_beta   90.00000000
_cell_angle_gamma   90.00000000
_symmetry_Int_Tables_number   1
_chemical_formula_structural   La4Zn4PtRh3
_chemical_formula_sum   'La8 Zn8 Pt2 Rh6'
_cell_volume   512.89806208
_cell_formula_units_Z   2
loop_
 _symmetry_equiv_pos_site_id
 _symmetry_equiv_pos_as_xyz
  1  'x, y, z'
loop_
 _atom_site_type_symbol
 _atom_site_label
 _atom_site_symmetry_multiplicity
 _atom_site_fract_x
 _atom_site_fract_y
 _atom_site_fract_z
 _atom_site_occupancy
  La  La0  1  0.750000  0.329718  0.443349  1
  La  La1  1  0.250000  0.043943  0.715780  1
  La  La2  1  0.250000  0.552476  0.782288  1
  La  La3  1  0.250000  0.673053  0.559740  1
  La  La4  1  0.750000  0.826947  0.059740  1
  La  La5  1  0.250000  0.170282  0.943349  1
  La  La6  1  0.750000  0.456057  0.215780  1
  La  La7  1  0.750000  0.947524  0.282288  1
  Zn  Zn8  1  0.250000  0.127304  0.148524  1
  Zn  Zn9  1  0.250000  0.996893  0.440836  1
  Zn  Zn10  1  0.750000  0.870002  0.850614  1
  Zn  Zn11  1  0.750000  0.001012  0.559447  1
  Zn  Zn12  1  0.250000  0.498988  0.059447  1
  Zn  Zn13  1  0.750000  0.372696  0.648524  1
  Zn  Zn14  1  0.750000  0.503107  0.940836  1
  Zn  Zn15  1  0.250000  0.629998  0.350614  1
  Pt  Pt16  1  0.750000  0.253326  0.814081  1
  Pt  Pt17  1  0.250000  0.246674  0.314081  1
  Rh  Rh18  1  0.250000  0.740903  0.934298  1
  Rh  Rh19  1  0.250000  0.240283  0.565499  1
  Rh  Rh20  1  0.250000  0.748600  0.185544  1
  Rh  Rh21  1  0.750000  0.759097  0.434298  1
  Rh  Rh22  1  0.750000  0.259717  0.065499  1
  Rh  Rh23  1  0.750000  0.751400  0.685544  1
