# generated using pymatgen
data_V5In2AsO18
_symmetry_space_group_name_H-M   'P 1'
_cell_length_a   8.14537700
_cell_length_b   8.16692839
_cell_length_c   10.53530698
_cell_angle_alpha   121.83362742
_cell_angle_beta   122.07773271
_cell_angle_gamma   52.89064667
_symmetry_Int_Tables_number   1
_chemical_formula_structural   V5In2AsO18
_chemical_formula_sum   'V5 In2 As1 O18'
_cell_volume   450.80132891
_cell_formula_units_Z   1
loop_
 _symmetry_equiv_pos_site_id
 _symmetry_equiv_pos_as_xyz
  1  'x, y, z'
loop_
 _atom_site_type_symbol
 _atom_site_label
 _atom_site_symmetry_multiplicity
 _atom_site_fract_x
 _atom_site_fract_y
 _atom_site_fract_z
 _atom_site_occupancy
  V  V0  1  0.058350  0.963069  0.260367  1
  V  V1  1  0.299926  0.472846  0.324210  1
  V  V2  1  0.728967  0.502114  0.676241  1
  V  V3  1  0.963536  0.052146  0.763406  1
  V  V4  1  0.469251  0.310936  0.831616  1
  In  In5  1  0.979464  0.517260  0.493579  1
  In  In6  1  0.515786  0.982017  0.000756  1
  As  As7  1  0.513243  0.724867  0.179661  1
  O  O8  1  0.838960  0.956149  0.100439  1
  O  O9  1  0.372370  0.299390  0.159642  1
  O  O10  1  0.629626  0.827444  0.166271  1
  O  O11  1  0.265425  0.929587  0.214052  1
  O  O12  1  0.128484  0.431937  0.335937  1
  O  O13  1  0.662541  0.597960  0.316907  1
  O  O14  1  0.174966  0.749170  0.333350  1
  O  O15  1  0.990152  0.201547  0.401451  1
  O  O16  1  0.534330  0.435090  0.493851  1
  O  O17  1  0.948196  0.840207  0.599596  1
  O  O18  1  0.297056  0.378636  0.664136  1
  O  O19  1  0.834812  0.611679  0.658848  1
  O  O20  1  0.936697  0.250676  0.716897  1
  O  O21  1  0.429453  0.141825  0.846247  1
  O  O22  1  0.613711  0.674350  0.821032  1
  O  O23  1  0.745534  0.180798  0.838450  1
  O  O24  1  0.206244  0.977004  0.902411  1
  O  O25  1  0.425521  0.553897  0.998064  1
