# generated using pymatgen
data_Eu4ScIn(HgPt2)2
_symmetry_space_group_name_H-M   'P 1'
_cell_length_a   4.39078400
_cell_length_b   7.41369594
_cell_length_c   8.75944029
_cell_angle_alpha   89.69774512
_cell_angle_beta   90.00000000
_cell_angle_gamma   90.00000000
_symmetry_Int_Tables_number   1
_chemical_formula_structural   Eu4ScIn(HgPt2)2
_chemical_formula_sum   'Eu4 Sc1 In1 Hg2 Pt4'
_cell_volume   285.13278555
_cell_formula_units_Z   1
loop_
 _symmetry_equiv_pos_site_id
 _symmetry_equiv_pos_as_xyz
  1  'x, y, z'
loop_
 _atom_site_type_symbol
 _atom_site_label
 _atom_site_symmetry_multiplicity
 _atom_site_fract_x
 _atom_site_fract_y
 _atom_site_fract_z
 _atom_site_occupancy
  Eu  Eu0  1  0.750000  0.466282  0.823690  1
  Eu  Eu1  1  0.250000  0.024081  0.315665  1
  Eu  Eu2  1  0.750000  0.956580  0.680995  1
  Eu  Eu3  1  0.250000  0.534034  0.172616  1
  Sc  Sc4  1  0.750000  0.373234  0.440333  1
  In  In5  1  0.750000  0.859191  0.060959  1
  Hg  Hg6  1  0.250000  0.646695  0.569472  1
  Hg  Hg7  1  0.250000  0.155685  0.933228  1
  Pt  Pt8  1  0.250000  0.760801  0.884562  1
  Pt  Pt9  1  0.250000  0.253319  0.602123  1
  Pt  Pt10  1  0.750000  0.729146  0.364350  1
  Pt  Pt11  1  0.750000  0.240951  0.152009  1
