# generated using pymatgen
data_La8SmYTl6
_symmetry_space_group_name_H-M   'P 1'
_cell_length_a   9.53203750
_cell_length_b   9.53203628
_cell_length_c   9.53203800
_cell_angle_alpha   96.24200014
_cell_angle_beta   96.24200538
_cell_angle_gamma   141.49406285
_symmetry_Int_Tables_number   1
_chemical_formula_structural   La8SmYTl6
_chemical_formula_sum   'La8 Sm1 Y1 Tl6'
_cell_volume   509.05938091
_cell_formula_units_Z   1
loop_
 _symmetry_equiv_pos_site_id
 _symmetry_equiv_pos_as_xyz
  1  'x, y, z'
loop_
 _atom_site_type_symbol
 _atom_site_label
 _atom_site_symmetry_multiplicity
 _atom_site_fract_x
 _atom_site_fract_y
 _atom_site_fract_z
 _atom_site_occupancy
  La  La0  1  0.911874  0.222639  0.133844  1
  La  La1  1  0.222002  0.088160  0.310791  1
  La  La2  1  0.777373  0.911213  0.689205  1
  La  La3  1  0.088811  0.778038  0.866152  1
  La  La4  1  0.722632  0.411840  0.133843  1
  La  La5  1  0.277992  0.588787  0.866159  1
  La  La6  1  0.588115  0.721962  0.310772  1
  La  La7  1  0.411205  0.277361  0.689236  1
  Sm  Sm8  1  0.749994  0.250000  0.499994  1
  Y  Y9  1  0.249998  0.750000  0.499998  1
  Tl  Tl10  1  0.750000  0.750000  0.000000  1
  Tl  Tl11  1  0.250000  0.250000  0.000000  1
  Tl  Tl12  1  0.844919  0.657275  0.500003  1
  Tl  Tl13  1  0.655078  0.155079  0.812360  1
  Tl  Tl14  1  0.342728  0.842725  0.187643  1
  Tl  Tl15  1  0.157280  0.344921  0.499999  1
