# generated using pymatgen
data_MgNb2(Ni10B3)2
_symmetry_space_group_name_H-M   'P 1'
_cell_length_a   7.48352942
_cell_length_b   7.48352895
_cell_length_c   7.48353000
_cell_angle_alpha   60.00000422
_cell_angle_beta   60.00000629
_cell_angle_gamma   60.00000212
_symmetry_Int_Tables_number   1
_chemical_formula_structural   MgNb2(Ni10B3)2
_chemical_formula_sum   'Mg1 Nb2 Ni20 B6'
_cell_volume   296.34967913
_cell_formula_units_Z   1
loop_
 _symmetry_equiv_pos_site_id
 _symmetry_equiv_pos_as_xyz
  1  'x, y, z'
loop_
 _atom_site_type_symbol
 _atom_site_label
 _atom_site_symmetry_multiplicity
 _atom_site_fract_x
 _atom_site_fract_y
 _atom_site_fract_z
 _atom_site_occupancy
  Mg  Mg0  1  0.250000  0.250000  0.250000  1
  Nb  Nb1  1  0.750000  0.750000  0.750000  1
  Nb  Nb2  1  0.000000  0.000000  0.000000  1
  Ni  Ni3  1  0.385672  0.385672  0.842983  1
  Ni  Ni4  1  0.615815  0.615815  0.615815  1
  Ni  Ni5  1  0.998401  0.344071  0.998401  1
  Ni  Ni6  1  0.344071  0.998401  0.998401  1
  Ni  Ni7  1  0.998401  0.344071  0.659127  1
  Ni  Ni8  1  0.842983  0.385672  0.385672  1
  Ni  Ni9  1  0.344071  0.998401  0.659127  1
  Ni  Ni10  1  0.998401  0.998401  0.344071  1
  Ni  Ni11  1  0.659127  0.344071  0.998401  1
  Ni  Ni12  1  0.998401  0.659127  0.344071  1
  Ni  Ni13  1  0.998401  0.998401  0.659127  1
  Ni  Ni14  1  0.344071  0.659127  0.998401  1
  Ni  Ni15  1  0.659127  0.998401  0.998401  1
  Ni  Ni16  1  0.998401  0.659127  0.998401  1
  Ni  Ni17  1  0.385672  0.842983  0.385672  1
  Ni  Ni18  1  0.615815  0.615815  0.152555  1
  Ni  Ni19  1  0.615815  0.152555  0.615815  1
  Ni  Ni20  1  0.152555  0.615815  0.615815  1
  Ni  Ni21  1  0.385672  0.385672  0.385672  1
  Ni  Ni22  1  0.659127  0.998401  0.344071  1
  B  B23  1  0.730597  0.269403  0.730597  1
  B  B24  1  0.269403  0.730597  0.269403  1
  B  B25  1  0.269403  0.730597  0.730597  1
  B  B26  1  0.269403  0.269403  0.730597  1
  B  B27  1  0.730597  0.730597  0.269403  1
  B  B28  1  0.730597  0.269403  0.269403  1
