# generated using pymatgen
data_Nd4Re16Si7Ge
_symmetry_space_group_name_H-M   'P 1'
_cell_length_a   4.16912600
_cell_length_b   7.36088334
_cell_length_c   15.56716197
_cell_angle_alpha   89.79887938
_cell_angle_beta   90.00000000
_cell_angle_gamma   90.00000000
_symmetry_Int_Tables_number   1
_chemical_formula_structural   Nd4Re16Si7Ge
_chemical_formula_sum   'Nd4 Re16 Si7 Ge1'
_cell_volume   477.72913037
_cell_formula_units_Z   1
loop_
 _symmetry_equiv_pos_site_id
 _symmetry_equiv_pos_as_xyz
  1  'x, y, z'
loop_
 _atom_site_type_symbol
 _atom_site_label
 _atom_site_symmetry_multiplicity
 _atom_site_fract_x
 _atom_site_fract_y
 _atom_site_fract_z
 _atom_site_occupancy
  Nd  Nd0  1  0.000000  0.578499  0.118045  1
  Nd  Nd1  1  0.000000  0.419723  0.881841  1
  Nd  Nd2  1  0.500000  0.082219  0.380738  1
  Nd  Nd3  1  0.500000  0.922439  0.620286  1
  Re  Re4  1  0.000000  0.136758  0.051751  1
  Re  Re5  1  0.000000  0.861037  0.948030  1
  Re  Re6  1  0.500000  0.633815  0.446475  1
  Re  Re7  1  0.500000  0.363536  0.552210  1
  Re  Re8  1  0.000000  0.731128  0.320345  1
  Re  Re9  1  0.000000  0.267942  0.679826  1
  Re  Re10  1  0.500000  0.231848  0.178374  1
  Re  Re11  1  0.500000  0.766260  0.821147  1
  Re  Re12  1  0.000000  0.432018  0.417912  1
  Re  Re13  1  0.000000  0.565396  0.581485  1
  Re  Re14  1  0.500000  0.931658  0.081507  1
  Re  Re15  1  0.500000  0.065944  0.918410  1
  Re  Re16  1  0.000000  0.989556  0.206048  1
  Re  Re17  1  0.000000  0.008054  0.793873  1
  Re  Re18  1  0.500000  0.489606  0.292861  1
  Re  Re19  1  0.500000  0.508446  0.706474  1
  Si  Si20  1  0.000000  0.178868  0.525570  1
  Si  Si21  1  0.500000  0.326625  0.023957  1
  Si  Si22  1  0.500000  0.671492  0.975815  1
  Si  Si23  1  0.000000  0.292423  0.272411  1
  Si  Si24  1  0.000000  0.705981  0.726878  1
  Si  Si25  1  0.500000  0.791651  0.226347  1
  Si  Si26  1  0.500000  0.206886  0.774127  1
  Ge  Ge27  1  0.000000  0.840192  0.477259  1
