# generated using pymatgen
data_La20GaSi10Sn
_symmetry_space_group_name_H-M   'P 1'
_cell_length_a   7.90621200
_cell_length_b   7.90621200
_cell_length_c   14.53922200
_cell_angle_alpha   90.00000000
_cell_angle_beta   90.00000000
_cell_angle_gamma   90.00000000
_symmetry_Int_Tables_number   1
_chemical_formula_structural   La20GaSi10Sn
_chemical_formula_sum   'La20 Ga1 Si10 Sn1'
_cell_volume   908.82042490
_cell_formula_units_Z   1
loop_
 _symmetry_equiv_pos_site_id
 _symmetry_equiv_pos_as_xyz
  1  'x, y, z'
loop_
 _atom_site_type_symbol
 _atom_site_label
 _atom_site_symmetry_multiplicity
 _atom_site_fract_x
 _atom_site_fract_y
 _atom_site_fract_z
 _atom_site_occupancy
  La  La0  1  0.500000  0.000000  0.774664  1
  La  La1  1  0.334425  0.309995  0.106852  1
  La  La2  1  0.822212  0.823368  0.891939  1
  La  La3  1  0.000000  0.500000  0.236567  1
  La  La4  1  0.823716  0.179655  0.393488  1
  La  La5  1  0.177788  0.176632  0.891939  1
  La  La6  1  0.665575  0.690005  0.106852  1
  La  La7  1  0.000000  0.500000  0.724154  1
  La  La8  1  0.810632  0.833519  0.606713  1
  La  La9  1  0.320345  0.323716  0.393488  1
  La  La10  1  0.190005  0.834425  0.106852  1
  La  La11  1  0.189368  0.166481  0.606713  1
  La  La12  1  0.809995  0.165575  0.106852  1
  La  La13  1  0.333519  0.689368  0.606713  1
  La  La14  1  0.500000  0.000000  0.277555  1
  La  La15  1  0.676632  0.322212  0.891939  1
  La  La16  1  0.666481  0.310632  0.606713  1
  La  La17  1  0.323368  0.677788  0.891939  1
  La  La18  1  0.176284  0.820345  0.393488  1
  La  La19  1  0.679655  0.676284  0.393488  1
  Ga  Ga20  1  0.000000  0.500000  0.501071  1
  Si  Si21  1  0.614160  0.388686  0.249754  1
  Si  Si22  1  0.888606  0.114657  0.750175  1
  Si  Si23  1  0.500000  0.000000  0.494218  1
  Si  Si24  1  0.888686  0.885840  0.249754  1
  Si  Si25  1  0.111394  0.885343  0.750175  1
  Si  Si26  1  0.385343  0.388606  0.750175  1
  Si  Si27  1  0.111314  0.114160  0.249754  1
  Si  Si28  1  0.385840  0.611314  0.249754  1
  Si  Si29  1  0.614657  0.611394  0.750175  1
  Si  Si30  1  0.500000  0.000000  0.992713  1
  Sn  Sn31  1  0.000000  0.500000  0.003364  1
