# generated using pymatgen
data_Tb6MgSc(MnC6)2
_symmetry_space_group_name_H-M   'P 1'
_cell_length_a   8.29249700
_cell_length_b   8.29249743
_cell_length_c   5.15290900
_cell_angle_alpha   90.00000000
_cell_angle_beta   90.00000000
_cell_angle_gamma   119.99999908
_symmetry_Int_Tables_number   1
_chemical_formula_structural   Tb6MgSc(MnC6)2
_chemical_formula_sum   'Tb6 Mg1 Sc1 Mn2 C12'
_cell_volume   306.86953639
_cell_formula_units_Z   1
loop_
 _symmetry_equiv_pos_site_id
 _symmetry_equiv_pos_as_xyz
  1  'x, y, z'
loop_
 _atom_site_type_symbol
 _atom_site_label
 _atom_site_symmetry_multiplicity
 _atom_site_fract_x
 _atom_site_fract_y
 _atom_site_fract_z
 _atom_site_occupancy
  Tb  Tb0  1  0.615941  0.677784  0.749042  1
  Tb  Tb1  1  0.938157  0.615941  0.250958  1
  Tb  Tb2  1  0.677784  0.061843  0.250958  1
  Tb  Tb3  1  0.322216  0.938157  0.749042  1
  Tb  Tb4  1  0.061843  0.384059  0.749042  1
  Tb  Tb5  1  0.384059  0.322216  0.250958  1
  Mg  Mg6  1  0.000000  0.000000  0.000000  1
  Sc  Sc7  1  0.000000  0.000000  0.500000  1
  Mn  Mn8  1  0.666667  0.333333  0.756143  1
  Mn  Mn9  1  0.333333  0.666667  0.243857  1
  C  C10  1  0.970131  0.754941  0.743252  1
  C  C11  1  0.215190  0.970131  0.256748  1
  C  C12  1  0.754941  0.784810  0.256748  1
  C  C13  1  0.245059  0.215190  0.743252  1
  C  C14  1  0.784810  0.029869  0.743252  1
  C  C15  1  0.029869  0.245059  0.256748  1
  C  C16  1  0.860078  0.567871  0.753454  1
  C  C17  1  0.292208  0.860078  0.246546  1
  C  C18  1  0.567871  0.707792  0.246546  1
  C  C19  1  0.432129  0.292208  0.753454  1
  C  C20  1  0.139922  0.432129  0.246546  1
  C  C21  1  0.707792  0.139922  0.753454  1
