# generated using pymatgen
data_Dy3Y2Er15(Cd3Ru)2
_symmetry_space_group_name_H-M   'P 1'
_cell_length_a   9.53626701
_cell_length_b   9.53626822
_cell_length_c   9.77034000
_cell_angle_alpha   90.00000000
_cell_angle_beta   90.00000000
_cell_angle_gamma   119.98566893
_symmetry_Int_Tables_number   1
_chemical_formula_structural   Dy3Y2Er15(Cd3Ru)2
_chemical_formula_sum   'Dy3 Y2 Er15 Cd6 Ru2'
_cell_volume   769.59079962
_cell_formula_units_Z   1
loop_
 _symmetry_equiv_pos_site_id
 _symmetry_equiv_pos_as_xyz
  1  'x, y, z'
loop_
 _atom_site_type_symbol
 _atom_site_label
 _atom_site_symmetry_multiplicity
 _atom_site_fract_x
 _atom_site_fract_y
 _atom_site_fract_z
 _atom_site_occupancy
  Dy  Dy0  1  0.459196  0.540804  0.750000  1
  Dy  Dy1  1  0.459174  0.918472  0.750000  1
  Dy  Dy2  1  0.081528  0.540826  0.750000  1
  Y  Y3  1  0.540782  0.081996  0.250000  1
  Y  Y4  1  0.918004  0.459218  0.250000  1
  Er  Er5  1  0.000058  0.999942  0.499914  1
  Er  Er6  1  0.000058  0.999942  0.000086  1
  Er  Er7  1  0.209889  0.790111  0.440029  1
  Er  Er8  1  0.210279  0.419724  0.439912  1
  Er  Er9  1  0.580276  0.789721  0.439912  1
  Er  Er10  1  0.790203  0.209797  0.560032  1
  Er  Er11  1  0.789830  0.580241  0.559736  1
  Er  Er12  1  0.419759  0.210170  0.559736  1
  Er  Er13  1  0.790203  0.209797  0.939968  1
  Er  Er14  1  0.789830  0.580241  0.940264  1
  Er  Er15  1  0.419759  0.210170  0.940264  1
  Er  Er16  1  0.209889  0.790111  0.059971  1
  Er  Er17  1  0.210279  0.419724  0.060088  1
  Er  Er18  1  0.580276  0.789721  0.060088  1
  Er  Er19  1  0.540502  0.459498  0.250000  1
  Cd  Cd20  1  0.885730  0.114270  0.250000  1
  Cd  Cd21  1  0.885088  0.770872  0.250000  1
  Cd  Cd22  1  0.229128  0.114912  0.250000  1
  Cd  Cd23  1  0.114358  0.885642  0.750000  1
  Cd  Cd24  1  0.114360  0.228679  0.750000  1
  Cd  Cd25  1  0.771321  0.885640  0.750000  1
  Ru  Ru26  1  0.333522  0.666478  0.250000  1
  Ru  Ru27  1  0.666716  0.333284  0.750000  1
