# generated using pymatgen
data_Sm3Ho2P12Ru17Pt2
_symmetry_space_group_name_H-M   'P 1'
_cell_length_a   12.67905900
_cell_length_b   12.57969813
_cell_length_c   4.00183000
_cell_angle_alpha   90.00000000
_cell_angle_beta   90.00000000
_cell_angle_gamma   120.26162373
_symmetry_Int_Tables_number   1
_chemical_formula_structural   Sm3Ho2P12Ru17Pt2
_chemical_formula_sum   'Sm3 Ho2 P12 Ru17 Pt2'
_cell_volume   551.30957391
_cell_formula_units_Z   1
loop_
 _symmetry_equiv_pos_site_id
 _symmetry_equiv_pos_as_xyz
  1  'x, y, z'
loop_
 _atom_site_type_symbol
 _atom_site_label
 _atom_site_symmetry_multiplicity
 _atom_site_fract_x
 _atom_site_fract_y
 _atom_site_fract_z
 _atom_site_occupancy
  Sm  Sm0  1  0.001796  0.183542  0.500000  1
  Sm  Sm1  1  0.818254  0.816458  0.500000  1
  Sm  Sm2  1  0.184165  0.000000  0.500000  1
  Ho  Ho3  1  0.664216  0.326981  0.000000  1
  Ho  Ho4  1  0.337235  0.673019  0.000000  1
  P  P5  1  0.997999  0.810556  0.000000  1
  P  P6  1  0.187443  0.189444  0.000000  1
  P  P7  1  0.816523  0.000000  0.000000  1
  P  P8  1  0.693133  0.170430  0.500000  1
  P  P9  1  0.815246  0.515264  0.500000  1
  P  P10  1  0.477978  0.298659  0.500000  1
  P  P11  1  0.179319  0.701341  0.500000  1
  P  P12  1  0.522703  0.829570  0.500000  1
  P  P13  1  0.299983  0.484736  0.500000  1
  P  P14  1  0.000279  0.366039  0.000000  1
  P  P15  1  0.634240  0.633961  0.000000  1
  P  P16  1  0.374254  0.000000  0.000000  1
  Ru  Ru17  1  0.555059  0.000000  0.000000  1
  Ru  Ru18  1  0.997214  0.707371  0.500000  1
  Ru  Ru19  1  0.289843  0.292629  0.500000  1
  Ru  Ru20  1  0.717117  0.000000  0.500000  1
  Ru  Ru21  1  0.807332  0.184888  0.000000  1
  Ru  Ru22  1  0.812409  0.615659  0.000000  1
  Ru  Ru23  1  0.378381  0.194796  0.000000  1
  Ru  Ru24  1  0.183585  0.805204  0.000000  1
  Ru  Ru25  1  0.622444  0.815112  0.000000  1
  Ru  Ru26  1  0.196750  0.384341  0.000000  1
  Ru  Ru27  1  0.869920  0.365537  0.500000  1
  Ru  Ru28  1  0.628067  0.505071  0.500000  1
  Ru  Ru29  1  0.492422  0.124023  0.500000  1
  Ru  Ru30  1  0.368398  0.875977  0.500000  1
  Ru  Ru31  1  0.504383  0.634463  0.500000  1
  Ru  Ru32  1  0.122998  0.494929  0.500000  1
  Ru  Ru33  1  0.002916  0.000000  0.000000  1
  Pt  Pt34  1  0.997644  0.549291  0.000000  1
  Pt  Pt35  1  0.448353  0.450709  0.000000  1
