# generated using pymatgen
data_HoEr4Bi2P
_symmetry_space_group_name_H-M   'P 1'
_cell_length_a   7.92965305
_cell_length_b   8.92752303
_cell_length_c   12.05866511
_cell_angle_alpha   90.00904152
_cell_angle_beta   90.01233316
_cell_angle_gamma   90.00033257
_symmetry_Int_Tables_number   1
_chemical_formula_structural   HoEr4Bi2P
_chemical_formula_sum   'Ho4 Er16 Bi8 P4'
_cell_volume   853.65892130
_cell_formula_units_Z   4
loop_
 _symmetry_equiv_pos_site_id
 _symmetry_equiv_pos_as_xyz
  1  'x, y, z'
loop_
 _atom_site_type_symbol
 _atom_site_label
 _atom_site_symmetry_multiplicity
 _atom_site_fract_x
 _atom_site_fract_y
 _atom_site_fract_z
 _atom_site_occupancy
  Ho  Ho0  1  0.817321  0.050435  0.064142  1
  Ho  Ho1  1  0.682656  0.449446  0.564130  1
  Ho  Ho2  1  0.817315  0.449528  0.064159  1
  Ho  Ho3  1  0.182711  0.550560  0.935855  1
  Er  Er4  1  0.850202  0.750064  0.794316  1
  Er  Er5  1  0.149810  0.250006  0.205723  1
  Er  Er6  1  0.350231  0.249935  0.705684  1
  Er  Er7  1  0.649786  0.750006  0.294332  1
  Er  Er8  1  0.376110  0.750048  0.699496  1
  Er  Er9  1  0.623847  0.249993  0.300522  1
  Er  Er10  1  0.876121  0.249952  0.800413  1
  Er  Er11  1  0.123929  0.750009  0.199595  1
  Er  Er12  1  0.958357  0.750042  0.501821  1
  Er  Er13  1  0.041717  0.249961  0.498158  1
  Er  Er14  1  0.458173  0.249952  0.998111  1
  Er  Er15  1  0.541672  0.750030  0.001859  1
  Er  Er16  1  0.682343  0.050631  0.564009  1
  Er  Er17  1  0.317648  0.949265  0.436020  1
  Er  Er18  1  0.182401  0.949375  0.935936  1
  Er  Er19  1  0.317637  0.550767  0.435991  1
  Bi  Bi20  1  0.576710  0.490629  0.826656  1
  Bi  Bi21  1  0.423238  0.509396  0.173378  1
  Bi  Bi22  1  0.076712  0.509376  0.673242  1
  Bi  Bi23  1  0.423240  0.990633  0.173345  1
  Bi  Bi24  1  0.923314  0.490591  0.326725  1
  Bi  Bi25  1  0.576734  0.009391  0.826619  1
  Bi  Bi26  1  0.923337  0.009383  0.326750  1
  Bi  Bi27  1  0.076738  0.990597  0.673283  1
  P  P28  1  0.575184  0.750304  0.512563  1
  P  P29  1  0.424506  0.249789  0.487297  1
  P  P30  1  0.075518  0.249683  0.987311  1
  P  P31  1  0.924785  0.750222  0.012560  1
