# generated using pymatgen
data_Cs(VSe2)3
_symmetry_space_group_name_H-M   'P 1'
_cell_length_a   5.84898800
_cell_length_b   5.84898870
_cell_length_c   18.67420900
_cell_angle_alpha   90.00000000
_cell_angle_beta   90.00000000
_cell_angle_gamma   119.99999605
_symmetry_Int_Tables_number   1
_chemical_formula_structural   Cs(VSe2)3
_chemical_formula_sum   'Cs2 V6 Se12'
_cell_volume   553.26650234
_cell_formula_units_Z   2
loop_
 _symmetry_equiv_pos_site_id
 _symmetry_equiv_pos_as_xyz
  1  'x, y, z'
loop_
 _atom_site_type_symbol
 _atom_site_label
 _atom_site_symmetry_multiplicity
 _atom_site_fract_x
 _atom_site_fract_y
 _atom_site_fract_z
 _atom_site_occupancy
  Cs  Cs0  1  0.000000  0.000000  0.500000  1
  Cs  Cs1  1  0.000000  0.000000  0.000000  1
  V  V2  1  0.000000  0.000000  0.250000  1
  V  V3  1  0.000000  0.000000  0.750000  1
  V  V4  1  0.333333  0.666667  0.250000  1
  V  V5  1  0.666667  0.333333  0.750000  1
  V  V6  1  0.666667  0.333333  0.250000  1
  V  V7  1  0.333333  0.666667  0.750000  1
  Se  Se8  1  0.334896  0.000000  0.165544  1
  Se  Se9  1  0.000000  0.334896  0.165544  1
  Se  Se10  1  0.665104  0.665104  0.165544  1
  Se  Se11  1  0.334896  0.334896  0.665544  1
  Se  Se12  1  0.665104  0.665104  0.334456  1
  Se  Se13  1  0.665104  0.000000  0.665544  1
  Se  Se14  1  0.000000  0.665104  0.665544  1
  Se  Se15  1  0.000000  0.665104  0.834456  1
  Se  Se16  1  0.334896  0.334896  0.834456  1
  Se  Se17  1  0.000000  0.334896  0.334456  1
  Se  Se18  1  0.334896  0.000000  0.334456  1
  Se  Se19  1  0.665104  0.000000  0.834456  1
