# generated using pymatgen
data_Er16Cd4PdRu2Pt
_symmetry_space_group_name_H-M   'P 1'
_cell_length_a   9.58772943
_cell_length_b   9.57815751
_cell_length_c   9.61133800
_cell_angle_alpha   59.88533252
_cell_angle_beta   59.91850495
_cell_angle_gamma   59.67049789
_symmetry_Int_Tables_number   1
_chemical_formula_structural   Er16Cd4PdRu2Pt
_chemical_formula_sum   'Er16 Cd4 Pd1 Ru2 Pt1'
_cell_volume   621.62878936
_cell_formula_units_Z   1
loop_
 _symmetry_equiv_pos_site_id
 _symmetry_equiv_pos_as_xyz
  1  'x, y, z'
loop_
 _atom_site_type_symbol
 _atom_site_label
 _atom_site_symmetry_multiplicity
 _atom_site_fract_x
 _atom_site_fract_y
 _atom_site_fract_z
 _atom_site_occupancy
  Er  Er0  1  0.349805  0.348752  0.353512  1
  Er  Er1  1  0.349805  0.348752  0.947934  1
  Er  Er2  1  0.347377  0.952557  0.350033  1
  Er  Er3  1  0.951830  0.346622  0.350774  1
  Er  Er4  1  0.815553  0.188404  0.189087  1
  Er  Er5  1  0.188543  0.816349  0.806258  1
  Er  Er6  1  0.188543  0.816349  0.188850  1
  Er  Er7  1  0.815553  0.188404  0.806956  1
  Er  Er8  1  0.187836  0.187407  0.812379  1
  Er  Er9  1  0.808857  0.809669  0.190737  1
  Er  Er10  1  0.936452  0.560111  0.567176  1
  Er  Er11  1  0.560019  0.936764  0.936407  1
  Er  Er12  1  0.560019  0.936764  0.566809  1
  Er  Er13  1  0.936452  0.560111  0.936261  1
  Er  Er14  1  0.564869  0.564523  0.935304  1
  Er  Er15  1  0.938063  0.938232  0.561852  1
  Cd  Cd16  1  0.579988  0.579966  0.581703  1
  Cd  Cd17  1  0.579988  0.579966  0.258344  1
  Cd  Cd18  1  0.581273  0.255089  0.581819  1
  Cd  Cd19  1  0.255004  0.581357  0.581819  1
  Pd  Pd20  1  0.144125  0.572531  0.141671  1
  Ru  Ru21  1  0.143625  0.143709  0.139930  1
  Ru  Ru22  1  0.143625  0.143709  0.572736  1
  Pt  Pt23  1  0.572797  0.143905  0.141648  1
