# generated using pymatgen
data_Tm12InCo4Ru
_symmetry_space_group_name_H-M   'P 1'
_cell_length_a   8.15558610
_cell_length_b   8.15558609
_cell_length_c   8.15558675
_cell_angle_alpha   111.27926933
_cell_angle_beta   111.03275445
_cell_angle_gamma   106.15187035
_symmetry_Int_Tables_number   1
_chemical_formula_structural   Tm12InCo4Ru
_chemical_formula_sum   'Tm12 In1 Co4 Ru1'
_cell_volume   416.53841105
_cell_formula_units_Z   1
loop_
 _symmetry_equiv_pos_site_id
 _symmetry_equiv_pos_as_xyz
  1  'x, y, z'
loop_
 _atom_site_type_symbol
 _atom_site_label
 _atom_site_symmetry_multiplicity
 _atom_site_fract_x
 _atom_site_fract_y
 _atom_site_fract_z
 _atom_site_occupancy
  Tm  Tm0  1  0.414403  0.220738  0.193664  1
  Tm  Tm1  1  0.585597  0.779262  0.806336  1
  Tm  Tm2  1  0.027074  0.220738  0.806336  1
  Tm  Tm3  1  0.972926  0.779262  0.193664  1
  Tm  Tm4  1  0.183861  0.281851  0.465712  1
  Tm  Tm5  1  0.816139  0.718149  0.534288  1
  Tm  Tm6  1  0.183861  0.718149  0.902010  1
  Tm  Tm7  1  0.816139  0.281851  0.097990  1
  Tm  Tm8  1  0.314116  0.619995  0.305879  1
  Tm  Tm9  1  0.685884  0.380005  0.694121  1
  Tm  Tm10  1  0.314116  0.008237  0.694121  1
  Tm  Tm11  1  0.685884  0.991763  0.305879  1
  In  In12  1  0.500000  0.500000  0.000000  1
  Co  Co13  1  0.374815  0.000000  0.374815  1
  Co  Co14  1  0.625185  0.000000  0.625185  1
  Co  Co15  1  0.112101  0.612101  0.500000  1
  Co  Co16  1  0.887899  0.387899  0.500000  1
  Ru  Ru17  1  0.000000  0.000000  0.000000  1
