# generated using pymatgen
data_Nd4YP12PdRu18
_symmetry_space_group_name_H-M   'P 1'
_cell_length_a   12.67948150
_cell_length_b   12.57825918
_cell_length_c   4.01463700
_cell_angle_alpha   90.00000000
_cell_angle_beta   90.00000000
_cell_angle_gamma   119.74228015
_symmetry_Int_Tables_number   1
_chemical_formula_structural   Nd4YP12PdRu18
_chemical_formula_sum   'Nd4 Y1 P12 Pd1 Ru18'
_cell_volume   555.93106663
_cell_formula_units_Z   1
loop_
 _symmetry_equiv_pos_site_id
 _symmetry_equiv_pos_as_xyz
  1  'x, y, z'
loop_
 _atom_site_type_symbol
 _atom_site_label
 _atom_site_symmetry_multiplicity
 _atom_site_fract_x
 _atom_site_fract_y
 _atom_site_fract_z
 _atom_site_occupancy
  Nd  Nd0  1  0.999888  0.182481  0.500000  1
  Nd  Nd1  1  0.816321  0.815383  0.500000  1
  Nd  Nd2  1  0.183827  0.999262  0.500000  1
  Nd  Nd3  1  0.661733  0.330592  0.000000  1
  Y  Y4  1  0.338626  0.668705  0.000000  1
  P  P5  1  0.001216  0.809549  0.000000  1
  P  P6  1  0.185336  0.187532  0.000000  1
  P  P7  1  0.813722  0.000200  0.000000  1
  P  P8  1  0.693753  0.172050  0.500000  1
  P  P9  1  0.819976  0.521403  0.500000  1
  P  P10  1  0.473304  0.304944  0.500000  1
  P  P11  1  0.182718  0.701133  0.500000  1
  P  P12  1  0.524480  0.829020  0.500000  1
  P  P13  1  0.305956  0.480812  0.500000  1
  P  P14  1  0.999518  0.366675  0.000000  1
  P  P15  1  0.624548  0.625277  0.000000  1
  P  P16  1  0.375459  0.000831  0.000000  1
  Pd  Pd17  1  0.999767  0.552273  0.000000  1
  Ru  Ru18  1  0.444281  0.446017  0.000000  1
  Ru  Ru19  1  0.555459  0.001295  0.000000  1
  Ru  Ru20  1  0.001251  0.710023  0.500000  1
  Ru  Ru21  1  0.283329  0.286653  0.500000  1
  Ru  Ru22  1  0.715525  0.000805  0.500000  1
  Ru  Ru23  1  0.805316  0.185232  0.000000  1
  Ru  Ru24  1  0.814786  0.620061  0.000000  1
  Ru  Ru25  1  0.375498  0.193173  0.000000  1
  Ru  Ru26  1  0.187259  0.804558  0.000000  1
  Ru  Ru27  1  0.622263  0.815609  0.000000  1
  Ru  Ru28  1  0.194728  0.382176  0.000000  1
  Ru  Ru29  1  0.875862  0.368088  0.500000  1
  Ru  Ru30  1  0.629696  0.509035  0.500000  1
  Ru  Ru31  1  0.490495  0.125239  0.500000  1
  Ru  Ru32  1  0.371257  0.877328  0.500000  1
  Ru  Ru33  1  0.506581  0.634026  0.500000  1
  Ru  Ru34  1  0.126308  0.495042  0.500000  1
  Ru  Ru35  1  0.999958  0.997517  0.000000  1
