# generated using pymatgen
data_Tb4MgNi2Ag
_symmetry_space_group_name_H-M   'P 1'
_cell_length_a   8.53132118
_cell_length_b   8.53132171
_cell_length_c   8.53132146
_cell_angle_alpha   128.34351098
_cell_angle_beta   128.34351592
_cell_angle_gamma   76.06920770
_symmetry_Int_Tables_number   1
_chemical_formula_structural   Tb4MgNi2Ag
_chemical_formula_sum   'Tb8 Mg2 Ni4 Ag2'
_cell_volume   371.33080319
_cell_formula_units_Z   2
loop_
 _symmetry_equiv_pos_site_id
 _symmetry_equiv_pos_as_xyz
  1  'x, y, z'
loop_
 _atom_site_type_symbol
 _atom_site_label
 _atom_site_symmetry_multiplicity
 _atom_site_fract_x
 _atom_site_fract_y
 _atom_site_fract_z
 _atom_site_occupancy
  Tb  Tb0  1  0.798339  0.298339  0.837132  1
  Tb  Tb1  1  0.201661  0.701661  0.162868  1
  Tb  Tb2  1  0.461208  0.961208  0.162868  1
  Tb  Tb3  1  0.298339  0.461208  0.500000  1
  Tb  Tb4  1  0.038792  0.201661  0.500000  1
  Tb  Tb5  1  0.538792  0.038792  0.837132  1
  Tb  Tb6  1  0.701661  0.538792  0.500000  1
  Tb  Tb7  1  0.961208  0.798339  0.500000  1
  Mg  Mg8  1  0.000000  0.000000  0.000000  1
  Mg  Mg9  1  0.500000  0.500000  0.000000  1
  Ni  Ni10  1  0.127214  0.627214  0.754428  1
  Ni  Ni11  1  0.872786  0.372786  0.245572  1
  Ni  Ni12  1  0.627214  0.872786  0.500000  1
  Ni  Ni13  1  0.372786  0.127214  0.500000  1
  Ag  Ag14  1  0.250000  0.250000  0.000000  1
  Ag  Ag15  1  0.750000  0.750000  0.000000  1
