# generated using pymatgen
data_Sm2ErTm(SeO3)6
_symmetry_space_group_name_H-M   'P 1'
_cell_length_a   7.16344353
_cell_length_b   8.20560075
_cell_length_c   9.12556145
_cell_angle_alpha   71.05723293
_cell_angle_beta   70.16228348
_cell_angle_gamma   66.17460445
_symmetry_Int_Tables_number   1
_chemical_formula_structural   Sm2ErTm(SeO3)6
_chemical_formula_sum   'Sm2 Er1 Tm1 Se6 O18'
_cell_volume   450.47734424
_cell_formula_units_Z   1
loop_
 _symmetry_equiv_pos_site_id
 _symmetry_equiv_pos_as_xyz
  1  'x, y, z'
loop_
 _atom_site_type_symbol
 _atom_site_label
 _atom_site_symmetry_multiplicity
 _atom_site_fract_x
 _atom_site_fract_y
 _atom_site_fract_z
 _atom_site_occupancy
  Sm  Sm0  1  0.333194  0.729279  0.591581  1
  Sm  Sm1  1  0.666870  0.270618  0.408531  1
  Er  Er2  1  0.258913  0.264062  0.199921  1
  Tm  Tm3  1  0.741154  0.735764  0.800271  1
  Se  Se4  1  0.425864  0.780456  0.193877  1
  Se  Se5  1  0.574559  0.218939  0.805738  1
  Se  Se6  1  0.149094  0.747910  0.967597  1
  Se  Se7  1  0.850775  0.253019  0.031706  1
  Se  Se8  1  0.886713  0.756122  0.418704  1
  Se  Se9  1  0.113058  0.243902  0.581756  1
  O  O10  1  0.646475  0.792607  0.046909  1
  O  O11  1  0.353559  0.207063  0.952126  1
  O  O12  1  0.363140  0.948496  0.297287  1
  O  O13  1  0.637547  0.050234  0.703065  1
  O  O14  1  0.514987  0.599714  0.347036  1
  O  O15  1  0.485366  0.399904  0.652805  1
  O  O16  1  0.170603  0.562004  0.121066  1
  O  O17  1  0.828902  0.439514  0.878654  1
  O  O18  1  0.406495  0.711122  0.850949  1
  O  O19  1  0.593877  0.289029  0.148791  1
  O  O20  1  0.342398  0.249673  0.433061  1
  O  O21  1  0.657690  0.750244  0.568002  1
  O  O22  1  0.971682  0.292894  0.440754  1
  O  O23  1  0.027752  0.707163  0.560009  1
  O  O24  1  0.152741  0.019303  0.658115  1
  O  O25  1  0.847311  0.980610  0.341838  1
  O  O26  1  0.938865  0.303145  0.162784  1
  O  O27  1  0.060413  0.697211  0.837068  1
