# generated using pymatgen
data_Tb3Nd4TmAu4
_symmetry_space_group_name_H-M   'P 1'
_cell_length_a   5.01660700
_cell_length_b   7.30594573
_cell_length_c   9.08400235
_cell_angle_alpha   89.49837329
_cell_angle_beta   90.00000000
_cell_angle_gamma   90.00000000
_symmetry_Int_Tables_number   1
_chemical_formula_structural   Tb3Nd4TmAu4
_chemical_formula_sum   'Tb3 Nd4 Tm1 Au4'
_cell_volume   332.92554153
_cell_formula_units_Z   1
loop_
 _symmetry_equiv_pos_site_id
 _symmetry_equiv_pos_as_xyz
  1  'x, y, z'
loop_
 _atom_site_type_symbol
 _atom_site_label
 _atom_site_symmetry_multiplicity
 _atom_site_fract_x
 _atom_site_fract_y
 _atom_site_fract_z
 _atom_site_occupancy
  Tb  Tb0  1  0.250000  0.347409  0.582853  1
  Tb  Tb1  1  0.750000  0.149902  0.081032  1
  Tb  Tb2  1  0.750000  0.652677  0.415784  1
  Nd  Nd3  1  0.250000  0.490464  0.178346  1
  Nd  Nd4  1  0.250000  0.989475  0.324134  1
  Nd  Nd5  1  0.750000  0.512590  0.819108  1
  Nd  Nd6  1  0.750000  0.009091  0.677292  1
  Tm  Tm7  1  0.250000  0.851735  0.920519  1
  Au  Au8  1  0.250000  0.244774  0.904502  1
  Au  Au9  1  0.250000  0.745630  0.604586  1
  Au  Au10  1  0.750000  0.752033  0.090985  1
  Au  Au11  1  0.750000  0.254220  0.400858  1
