# generated using pymatgen
data_Tb7Dy3(Bi2Rh)2
_symmetry_space_group_name_H-M   'P 1'
_cell_length_a   8.05360307
_cell_length_b   9.03114105
_cell_length_c   12.50178508
_cell_angle_alpha   90.00691369
_cell_angle_beta   89.98897733
_cell_angle_gamma   90.01012131
_symmetry_Int_Tables_number   1
_chemical_formula_structural   Tb7Dy3(Bi2Rh)2
_chemical_formula_sum   'Tb14 Dy6 Bi8 Rh4'
_cell_volume   909.29511313
_cell_formula_units_Z   2
loop_
 _symmetry_equiv_pos_site_id
 _symmetry_equiv_pos_as_xyz
  1  'x, y, z'
loop_
 _atom_site_type_symbol
 _atom_site_label
 _atom_site_symmetry_multiplicity
 _atom_site_fract_x
 _atom_site_fract_y
 _atom_site_fract_z
 _atom_site_occupancy
  Tb  Tb0  1  0.841373  0.749988  0.793857  1
  Tb  Tb1  1  0.158627  0.250012  0.206143  1
  Tb  Tb2  1  0.341314  0.250022  0.706181  1
  Tb  Tb3  1  0.658686  0.749978  0.293819  1
  Tb  Tb4  1  0.374931  0.749966  0.693991  1
  Tb  Tb5  1  0.625069  0.250034  0.306009  1
  Tb  Tb6  1  0.874966  0.250003  0.806064  1
  Tb  Tb7  1  0.125034  0.749997  0.193936  1
  Tb  Tb8  1  0.954007  0.749959  0.501257  1
  Tb  Tb9  1  0.045993  0.250041  0.498743  1
  Tb  Tb10  1  0.453986  0.249997  0.998744  1
  Tb  Tb11  1  0.546014  0.750003  0.001256  1
  Tb  Tb12  1  0.678093  0.040761  0.566025  1
  Tb  Tb13  1  0.321907  0.959239  0.433975  1
  Dy  Dy14  1  0.177825  0.959245  0.934029  1
  Dy  Dy15  1  0.322162  0.540752  0.434028  1
  Dy  Dy16  1  0.822175  0.040755  0.065971  1
  Dy  Dy17  1  0.677838  0.459248  0.565972  1
  Dy  Dy18  1  0.822172  0.459240  0.065972  1
  Dy  Dy19  1  0.177828  0.540760  0.934028  1
  Bi  Bi20  1  0.569338  0.491638  0.826318  1
  Bi  Bi21  1  0.430662  0.508362  0.173682  1
  Bi  Bi22  1  0.069333  0.508365  0.673682  1
  Bi  Bi23  1  0.430685  0.991641  0.173659  1
  Bi  Bi24  1  0.930667  0.491635  0.326318  1
  Bi  Bi25  1  0.569315  0.008359  0.826341  1
  Bi  Bi26  1  0.930594  0.008371  0.326291  1
  Bi  Bi27  1  0.069406  0.991629  0.673709  1
  Rh  Rh28  1  0.570229  0.749819  0.510205  1
  Rh  Rh29  1  0.429771  0.250181  0.489795  1
  Rh  Rh30  1  0.070183  0.250003  0.989807  1
  Rh  Rh31  1  0.929817  0.749997  0.010193  1
