# generated using pymatgen
data_HfThZr7(In2Co)7
_symmetry_space_group_name_H-M   'P 1'
_cell_length_a   9.49985769
_cell_length_b   9.50835648
_cell_length_c   9.49985900
_cell_angle_alpha   60.02956196
_cell_angle_beta   59.99999891
_cell_angle_gamma   60.02956633
_symmetry_Int_Tables_number   1
_chemical_formula_structural   HfThZr7(In2Co)7
_chemical_formula_sum   'Hf1 Th1 Zr7 In14 Co7'
_cell_volume   607.04185766
_cell_formula_units_Z   1
loop_
 _symmetry_equiv_pos_site_id
 _symmetry_equiv_pos_as_xyz
  1  'x, y, z'
loop_
 _atom_site_type_symbol
 _atom_site_label
 _atom_site_symmetry_multiplicity
 _atom_site_fract_x
 _atom_site_fract_y
 _atom_site_fract_z
 _atom_site_occupancy
  Hf  Hf0  1  0.118630  0.644111  0.118630  1
  Th  Th1  1  0.499973  0.500080  0.499973  1
  Zr  Zr2  1  0.362552  0.878273  0.879588  1
  Zr  Zr3  1  0.879588  0.878273  0.879588  1
  Zr  Zr4  1  0.637953  0.120597  0.120725  1
  Zr  Zr5  1  0.879588  0.878273  0.362552  1
  Zr  Zr6  1  0.120725  0.120597  0.120725  1
  Zr  Zr7  1  0.879288  0.362137  0.879288  1
  Zr  Zr8  1  0.120725  0.120597  0.637953  1
  In  In9  1  0.500229  0.846972  0.152569  1
  In  In10  1  0.500229  0.846972  0.500229  1
  In  In11  1  0.499969  0.152495  0.499969  1
  In  In12  1  0.499629  0.499692  0.847881  1
  In  In13  1  0.152799  0.499692  0.499629  1
  In  In14  1  0.847567  0.152495  0.499969  1
  In  In15  1  0.152569  0.846972  0.500229  1
  In  In16  1  0.499969  0.152495  0.847567  1
  In  In17  1  0.152799  0.499692  0.847881  1
  In  In18  1  0.499629  0.499692  0.152799  1
  In  In19  1  0.847881  0.499692  0.499629  1
  In  In20  1  0.847881  0.499692  0.152799  1
  In  In21  1  0.248369  0.254892  0.248369  1
  In  In22  1  0.749948  0.750156  0.749948  1
  Co  Co23  1  0.780118  0.778633  0.220624  1
  Co  Co24  1  0.000509  0.998473  0.000509  1
  Co  Co25  1  0.220624  0.778633  0.220624  1
  Co  Co26  1  0.220624  0.778633  0.780118  1
  Co  Co27  1  0.220308  0.220364  0.779664  1
  Co  Co28  1  0.779664  0.220364  0.779664  1
  Co  Co29  1  0.779664  0.220364  0.220308  1
