# generated using pymatgen
data_Ca6PuUO12
_symmetry_space_group_name_H-M   'P 1'
_cell_length_a   6.73481538
_cell_length_b   6.73481551
_cell_length_c   6.73481700
_cell_angle_alpha   92.25824481
_cell_angle_beta   92.25823634
_cell_angle_gamma   92.25824384
_symmetry_Int_Tables_number   1
_chemical_formula_structural   Ca6PuUO12
_chemical_formula_sum   'Ca6 Pu1 U1 O12'
_cell_volume   304.74506727
_cell_formula_units_Z   1
loop_
 _symmetry_equiv_pos_site_id
 _symmetry_equiv_pos_as_xyz
  1  'x, y, z'
loop_
 _atom_site_type_symbol
 _atom_site_label
 _atom_site_symmetry_multiplicity
 _atom_site_fract_x
 _atom_site_fract_y
 _atom_site_fract_z
 _atom_site_occupancy
  Ca  Ca0  1  0.936521  0.438219  0.745894  1
  Ca  Ca1  1  0.745894  0.936521  0.438219  1
  Ca  Ca2  1  0.561781  0.254106  0.063479  1
  Ca  Ca3  1  0.438219  0.745894  0.936521  1
  Ca  Ca4  1  0.254106  0.063479  0.561781  1
  Ca  Ca5  1  0.063479  0.561781  0.254106  1
  Pu  Pu6  1  0.500000  0.500000  0.500000  1
  U  U7  1  0.000000  0.000000  0.000000  1
  O  O8  1  0.927868  0.295434  0.063481  1
  O  O9  1  0.936519  0.072132  0.704566  1
  O  O10  1  0.792216  0.585758  0.457689  1
  O  O11  1  0.704566  0.936519  0.072132  1
  O  O12  1  0.585758  0.457689  0.792216  1
  O  O13  1  0.542311  0.207784  0.414242  1
  O  O14  1  0.457689  0.792216  0.585758  1
  O  O15  1  0.414242  0.542311  0.207784  1
  O  O16  1  0.295434  0.063481  0.927868  1
  O  O17  1  0.207784  0.414242  0.542311  1
  O  O18  1  0.063481  0.927868  0.295434  1
  O  O19  1  0.072132  0.704566  0.936519  1
