# generated using pymatgen
data_Zr4ZnIn2Co2Pt
_symmetry_space_group_name_H-M   'P 1'
_cell_length_a   7.39764217
_cell_length_b   7.39764218
_cell_length_c   3.36921800
_cell_angle_alpha   90.00000000
_cell_angle_beta   90.00000000
_cell_angle_gamma   90.89474226
_symmetry_Int_Tables_number   1
_chemical_formula_structural   Zr4ZnIn2Co2Pt
_chemical_formula_sum   'Zr4 Zn1 In2 Co2 Pt1'
_cell_volume   184.35834335
_cell_formula_units_Z   1
loop_
 _symmetry_equiv_pos_site_id
 _symmetry_equiv_pos_as_xyz
  1  'x, y, z'
loop_
 _atom_site_type_symbol
 _atom_site_label
 _atom_site_symmetry_multiplicity
 _atom_site_fract_x
 _atom_site_fract_y
 _atom_site_fract_z
 _atom_site_occupancy
  Zr  Zr0  1  0.684318  0.195649  0.500000  1
  Zr  Zr1  1  0.160061  0.339939  0.500000  1
  Zr  Zr2  1  0.847973  0.652027  0.500000  1
  Zr  Zr3  1  0.304351  0.815682  0.500000  1
  Zn  Zn4  1  0.627092  0.872908  0.000000  1
  In  In5  1  0.995658  0.001131  0.000000  1
  In  In6  1  0.498869  0.504342  0.000000  1
  Co  Co7  1  0.126655  0.624281  0.000000  1
  Co  Co8  1  0.875719  0.373345  0.000000  1
  Pt  Pt9  1  0.379303  0.120697  0.000000  1
