# generated using pymatgen
data_InGaPt3
_symmetry_space_group_name_H-M   'P 1'
_cell_length_a   5.61527100
_cell_length_b   5.61527183
_cell_length_c   13.35658800
_cell_angle_alpha   90.00000000
_cell_angle_beta   90.00000000
_cell_angle_gamma   120.00000103
_symmetry_Int_Tables_number   1
_chemical_formula_structural   InGaPt3
_chemical_formula_sum   'In4 Ga4 Pt12'
_cell_volume   364.72678826
_cell_formula_units_Z   4
loop_
 _symmetry_equiv_pos_site_id
 _symmetry_equiv_pos_as_xyz
  1  'x, y, z'
loop_
 _atom_site_type_symbol
 _atom_site_label
 _atom_site_symmetry_multiplicity
 _atom_site_fract_x
 _atom_site_fract_y
 _atom_site_fract_z
 _atom_site_occupancy
  In  In0  1  0.333333  0.666667  0.584834  1
  In  In1  1  0.666667  0.333333  0.084834  1
  In  In2  1  0.666667  0.333333  0.415166  1
  In  In3  1  0.333333  0.666667  0.915166  1
  Ga  Ga4  1  0.000000  0.000000  0.250000  1
  Ga  Ga5  1  0.000000  0.000000  0.750000  1
  Ga  Ga6  1  0.333333  0.666667  0.250000  1
  Ga  Ga7  1  0.666667  0.333333  0.750000  1
  Pt  Pt8  1  0.165376  0.330751  0.400281  1
  Pt  Pt9  1  0.165376  0.834624  0.400281  1
  Pt  Pt10  1  0.669249  0.834624  0.400281  1
  Pt  Pt11  1  0.834624  0.165376  0.900281  1
  Pt  Pt12  1  0.330751  0.165376  0.900281  1
  Pt  Pt13  1  0.834624  0.669249  0.900281  1
  Pt  Pt14  1  0.834624  0.669249  0.599719  1
  Pt  Pt15  1  0.834624  0.165376  0.599719  1
  Pt  Pt16  1  0.330751  0.165376  0.599719  1
  Pt  Pt17  1  0.165376  0.834624  0.099719  1
  Pt  Pt18  1  0.669249  0.834624  0.099719  1
  Pt  Pt19  1  0.165376  0.330751  0.099719  1
