# generated using pymatgen
data_La2Tm3Ga4
_symmetry_space_group_name_H-M   'P 1'
_cell_length_a   7.95871100
_cell_length_b   7.95871100
_cell_length_c   14.75761200
_cell_angle_alpha   90.00000000
_cell_angle_beta   90.00000000
_cell_angle_gamma   90.00000000
_symmetry_Int_Tables_number   1
_chemical_formula_structural   La2Tm3Ga4
_chemical_formula_sum   'La8 Tm12 Ga16'
_cell_volume   934.76309383
_cell_formula_units_Z   4
loop_
 _symmetry_equiv_pos_site_id
 _symmetry_equiv_pos_as_xyz
  1  'x, y, z'
loop_
 _atom_site_type_symbol
 _atom_site_label
 _atom_site_symmetry_multiplicity
 _atom_site_fract_x
 _atom_site_fract_y
 _atom_site_fract_z
 _atom_site_occupancy
  La  La0  1  0.988612  0.641024  0.040895  1
  La  La1  1  0.011388  0.358976  0.540895  1
  La  La2  1  0.641024  0.988612  0.959105  1
  La  La3  1  0.141024  0.511388  0.790895  1
  La  La4  1  0.858976  0.488612  0.290895  1
  La  La5  1  0.511388  0.141024  0.209105  1
  La  La6  1  0.488612  0.858976  0.709105  1
  La  La7  1  0.358976  0.011388  0.459105  1
  Tm  Tm8  1  0.357134  0.493903  0.374628  1
  Tm  Tm9  1  0.857134  0.006097  0.375372  1
  Tm  Tm10  1  0.993903  0.142866  0.124628  1
  Tm  Tm11  1  0.006097  0.857134  0.624628  1
  Tm  Tm12  1  0.642866  0.506097  0.874628  1
  Tm  Tm13  1  0.493903  0.357134  0.625372  1
  Tm  Tm14  1  0.506097  0.642866  0.125372  1
  Tm  Tm15  1  0.142866  0.993903  0.875372  1
  Tm  Tm16  1  0.681294  0.681294  0.500000  1
  Tm  Tm17  1  0.818706  0.181294  0.750000  1
  Tm  Tm18  1  0.181294  0.818706  0.250000  1
  Tm  Tm19  1  0.318706  0.318706  0.000000  1
  Ga  Ga20  1  0.063488  0.715511  0.437082  1
  Ga  Ga21  1  0.936512  0.284489  0.937082  1
  Ga  Ga22  1  0.715511  0.063488  0.562918  1
  Ga  Ga23  1  0.215512  0.436512  0.187082  1
  Ga  Ga24  1  0.784489  0.563488  0.687082  1
  Ga  Ga25  1  0.436512  0.215512  0.812918  1
  Ga  Ga26  1  0.563488  0.784489  0.312918  1
  Ga  Ga27  1  0.284489  0.936512  0.062918  1
  Ga  Ga28  1  0.849370  0.797472  0.810901  1
  Ga  Ga29  1  0.150630  0.202528  0.310901  1
  Ga  Ga30  1  0.797472  0.849370  0.189099  1
  Ga  Ga31  1  0.297472  0.650630  0.560901  1
  Ga  Ga32  1  0.702528  0.349370  0.060901  1
  Ga  Ga33  1  0.650630  0.297472  0.439099  1
  Ga  Ga34  1  0.349370  0.702528  0.939099  1
  Ga  Ga35  1  0.202528  0.150630  0.689099  1
