# generated using pymatgen
data_Dy3Y7Si6O
_symmetry_space_group_name_H-M   'P 1'
_cell_length_a   8.42062300
_cell_length_b   8.42062324
_cell_length_c   6.31698300
_cell_angle_alpha   90.00000000
_cell_angle_beta   90.00000000
_cell_angle_gamma   119.99999513
_symmetry_Int_Tables_number   1
_chemical_formula_structural   Dy3Y7Si6O
_chemical_formula_sum   'Dy3 Y7 Si6 O1'
_cell_volume   387.90807608
_cell_formula_units_Z   1
loop_
 _symmetry_equiv_pos_site_id
 _symmetry_equiv_pos_as_xyz
  1  'x, y, z'
loop_
 _atom_site_type_symbol
 _atom_site_label
 _atom_site_symmetry_multiplicity
 _atom_site_fract_x
 _atom_site_fract_y
 _atom_site_fract_z
 _atom_site_occupancy
  Dy  Dy0  1  0.333333  0.666667  0.500000  1
  Dy  Dy1  1  0.666667  0.333333  0.500000  1
  Dy  Dy2  1  0.666667  0.333333  0.000000  1
  Y  Y3  1  0.333333  0.666667  0.000000  1
  Y  Y4  1  0.000007  0.763521  0.260042  1
  Y  Y5  1  0.236479  0.236487  0.260042  1
  Y  Y6  1  0.763513  0.999993  0.260042  1
  Y  Y7  1  0.000007  0.236487  0.739958  1
  Y  Y8  1  0.763513  0.763521  0.739958  1
  Y  Y9  1  0.236479  0.999993  0.739958  1
  Si  Si10  1  0.999977  0.396743  0.249950  1
  Si  Si11  1  0.603257  0.603234  0.249950  1
  Si  Si12  1  0.396766  0.000023  0.249950  1
  Si  Si13  1  0.999977  0.603234  0.750050  1
  Si  Si14  1  0.396766  0.396743  0.750050  1
  Si  Si15  1  0.603257  0.000023  0.750050  1
  O  O16  1  0.000000  0.000000  0.500000  1
