# generated using pymatgen
data_Sr3B3MoO9
_symmetry_space_group_name_H-M   'P 1'
_cell_length_a   7.76050755
_cell_length_b   7.76050742
_cell_length_c   7.76050845
_cell_angle_alpha   105.14207454
_cell_angle_beta   105.14207812
_cell_angle_gamma   105.14207517
_symmetry_Int_Tables_number   1
_chemical_formula_structural   Sr3B3MoO9
_chemical_formula_sum   'Sr6 B6 Mo2 O18'
_cell_volume   407.36052734
_cell_formula_units_Z   2
loop_
 _symmetry_equiv_pos_site_id
 _symmetry_equiv_pos_as_xyz
  1  'x, y, z'
loop_
 _atom_site_type_symbol
 _atom_site_label
 _atom_site_symmetry_multiplicity
 _atom_site_fract_x
 _atom_site_fract_y
 _atom_site_fract_z
 _atom_site_occupancy
  Sr  Sr0  1  0.160332  0.264177  0.651659  1
  Sr  Sr1  1  0.651659  0.160332  0.264177  1
  Sr  Sr2  1  0.264177  0.651659  0.160332  1
  Sr  Sr3  1  0.839668  0.735823  0.348341  1
  Sr  Sr4  1  0.348341  0.839668  0.735823  1
  Sr  Sr5  1  0.735823  0.348341  0.839668  1
  B  B6  1  0.289404  0.042128  0.375690  1
  B  B7  1  0.375690  0.289404  0.042128  1
  B  B8  1  0.042128  0.375690  0.289404  1
  B  B9  1  0.624310  0.710596  0.957872  1
  B  B10  1  0.957872  0.624310  0.710596  1
  B  B11  1  0.710596  0.957872  0.624310  1
  Mo  Mo12  1  0.000000  0.000000  0.000000  1
  Mo  Mo13  1  0.500000  0.500000  0.500000  1
  O  O14  1  0.181428  0.263013  0.987151  1
  O  O15  1  0.987151  0.181428  0.263013  1
  O  O16  1  0.448661  0.188215  0.925838  1
  O  O17  1  0.188215  0.925838  0.448661  1
  O  O18  1  0.925838  0.448661  0.188215  1
  O  O19  1  0.074162  0.551339  0.811785  1
  O  O20  1  0.551339  0.811786  0.074162  1
  O  O21  1  0.811786  0.074162  0.551339  1
  O  O22  1  0.501314  0.434672  0.213853  1
  O  O23  1  0.434672  0.213853  0.501314  1
  O  O24  1  0.213853  0.501314  0.434672  1
  O  O25  1  0.498686  0.565328  0.786147  1
  O  O26  1  0.565328  0.786147  0.498686  1
  O  O27  1  0.786147  0.498686  0.565328  1
  O  O28  1  0.736987  0.012849  0.818572  1
  O  O29  1  0.012849  0.818572  0.736987  1
  O  O30  1  0.818572  0.736987  0.012849  1
  O  O31  1  0.263013  0.987151  0.181428  1
