# generated using pymatgen
data_SmHo4ErRh18
_symmetry_space_group_name_H-M   'P 1'
_cell_length_a   5.27008200
_cell_length_b   5.27008296
_cell_length_c   17.55417500
_cell_angle_alpha   90.00000000
_cell_angle_beta   90.00000000
_cell_angle_gamma   119.99999398
_symmetry_Int_Tables_number   1
_chemical_formula_structural   SmHo4ErRh18
_chemical_formula_sum   'Sm1 Ho4 Er1 Rh18'
_cell_volume   422.22690719
_cell_formula_units_Z   1
loop_
 _symmetry_equiv_pos_site_id
 _symmetry_equiv_pos_as_xyz
  1  'x, y, z'
loop_
 _atom_site_type_symbol
 _atom_site_label
 _atom_site_symmetry_multiplicity
 _atom_site_fract_x
 _atom_site_fract_y
 _atom_site_fract_z
 _atom_site_occupancy
  Sm  Sm0  1  0.666667  0.333333  0.249873  1
  Ho  Ho1  1  0.666667  0.333333  0.041080  1
  Ho  Ho2  1  0.666667  0.333333  0.458692  1
  Ho  Ho3  1  0.333333  0.666667  0.542189  1
  Ho  Ho4  1  0.333333  0.666667  0.750123  1
  Er  Er5  1  0.333333  0.666667  0.957759  1
  Rh  Rh6  1  0.167270  0.832730  0.374838  1
  Rh  Rh7  1  0.167270  0.334540  0.374838  1
  Rh  Rh8  1  0.665460  0.832730  0.374838  1
  Rh  Rh9  1  0.832764  0.167236  0.625775  1
  Rh  Rh10  1  0.832764  0.665527  0.625775  1
  Rh  Rh11  1  0.334473  0.167236  0.625775  1
  Rh  Rh12  1  0.832588  0.167412  0.874523  1
  Rh  Rh13  1  0.832588  0.665174  0.874523  1
  Rh  Rh14  1  0.334826  0.167412  0.874523  1
  Rh  Rh15  1  0.167120  0.832880  0.124953  1
  Rh  Rh16  1  0.167120  0.334239  0.124953  1
  Rh  Rh17  1  0.665761  0.832880  0.124953  1
  Rh  Rh18  1  0.333333  0.666667  0.249941  1
  Rh  Rh19  1  0.666667  0.333333  0.750110  1
  Rh  Rh20  1  0.000000  0.000000  0.249849  1
  Rh  Rh21  1  0.000000  0.000000  0.750130  1
  Rh  Rh22  1  0.000000  0.000000  0.500299  1
  Rh  Rh23  1  0.000000  0.000000  0.999689  1
