# generated using pymatgen
data_Ce4Si4Tc3Rh
_symmetry_space_group_name_H-M   'P 1'
_cell_length_a   7.42722012
_cell_length_b   4.45677000
_cell_length_c   6.70122779
_cell_angle_alpha   90.00000000
_cell_angle_beta   90.27611486
_cell_angle_gamma   90.00000000
_symmetry_Int_Tables_number   1
_chemical_formula_structural   Ce4Si4Tc3Rh
_chemical_formula_sum   'Ce4 Si4 Tc3 Rh1'
_cell_volume   221.81752526
_cell_formula_units_Z   1
loop_
 _symmetry_equiv_pos_site_id
 _symmetry_equiv_pos_as_xyz
  1  'x, y, z'
loop_
 _atom_site_type_symbol
 _atom_site_label
 _atom_site_symmetry_multiplicity
 _atom_site_fract_x
 _atom_site_fract_y
 _atom_site_fract_z
 _atom_site_occupancy
  Ce  Ce0  1  0.517532  0.250001  0.166577  1
  Ce  Ce1  1  0.024942  0.250001  0.335996  1
  Ce  Ce2  1  0.976664  0.750001  0.664527  1
  Ce  Ce3  1  0.478527  0.750001  0.834666  1
  Si  Si4  1  0.810645  0.750001  0.118098  1
  Si  Si5  1  0.309223  0.750001  0.390069  1
  Si  Si6  1  0.691212  0.250001  0.606411  1
  Si  Si7  1  0.190360  0.250001  0.887322  1
  Tc  Tc8  1  0.138509  0.750001  0.061813  1
  Tc  Tc9  1  0.642252  0.750001  0.435754  1
  Tc  Tc10  1  0.360222  0.250001  0.566404  1
  Rh  Rh11  1  0.859913  0.250001  0.932362  1
