# generated using pymatgen
data_SmScZn2(Ni3B)2
_symmetry_space_group_name_H-M   'P 1'
_cell_length_a   5.07555600
_cell_length_b   5.07804955
_cell_length_c   6.79483300
_cell_angle_alpha   90.00000000
_cell_angle_beta   90.00000000
_cell_angle_gamma   119.98275299
_symmetry_Int_Tables_number   1
_chemical_formula_structural   SmScZn2(Ni3B)2
_chemical_formula_sum   'Sm1 Sc1 Zn2 Ni6 B2'
_cell_volume   151.69296062
_cell_formula_units_Z   1
loop_
 _symmetry_equiv_pos_site_id
 _symmetry_equiv_pos_as_xyz
  1  'x, y, z'
loop_
 _atom_site_type_symbol
 _atom_site_label
 _atom_site_symmetry_multiplicity
 _atom_site_fract_x
 _atom_site_fract_y
 _atom_site_fract_z
 _atom_site_occupancy
  Sm  Sm0  1  0.999985  0.000000  0.000000  1
  Sc  Sc1  1  0.999900  0.999998  0.500000  1
  Zn  Zn2  1  0.333327  0.666678  0.000000  1
  Zn  Zn3  1  0.666650  0.333322  0.000000  1
  Ni  Ni4  1  0.499993  0.000000  0.301242  1
  Ni  Ni5  1  0.499994  0.500005  0.300999  1
  Ni  Ni6  1  0.999991  0.499995  0.300998  1
  Ni  Ni7  1  0.499993  0.000000  0.698758  1
  Ni  Ni8  1  0.499994  0.500005  0.699001  1
  Ni  Ni9  1  0.999991  0.499995  0.699002  1
  B  B10  1  0.333480  0.666979  0.500000  1
  B  B11  1  0.666499  0.333021  0.500000  1
