# generated using pymatgen
data_Rb2Dy5LuF20
_symmetry_space_group_name_H-M   'P 1'
_cell_length_a   8.25104008
_cell_length_b   8.25104415
_cell_length_c   8.28390000
_cell_angle_alpha   59.86788747
_cell_angle_beta   59.86764805
_cell_angle_gamma   60.26335105
_symmetry_Int_Tables_number   1
_chemical_formula_structural   Rb2Dy5LuF20
_chemical_formula_sum   'Rb2 Dy5 Lu1 F20'
_cell_volume   398.76769157
_cell_formula_units_Z   1
loop_
 _symmetry_equiv_pos_site_id
 _symmetry_equiv_pos_as_xyz
  1  'x, y, z'
loop_
 _atom_site_type_symbol
 _atom_site_label
 _atom_site_symmetry_multiplicity
 _atom_site_fract_x
 _atom_site_fract_y
 _atom_site_fract_z
 _atom_site_occupancy
  Rb  Rb0  1  0.250617  0.250618  0.249379  1
  Rb  Rb1  1  0.750618  0.750616  0.749382  1
  Dy  Dy2  1  0.759787  0.241113  0.240213  1
  Dy  Dy3  1  0.241114  0.759790  0.758885  1
  Dy  Dy4  1  0.241118  0.759789  0.240212  1
  Dy  Dy5  1  0.759786  0.241113  0.758888  1
  Dy  Dy6  1  0.240481  0.240481  0.759519  1
  Lu  Lu7  1  0.759550  0.759549  0.240452  1
  F  F8  1  0.826896  0.504845  0.495153  1
  F  F9  1  0.170051  0.499699  0.500302  1
  F  F10  1  0.504849  0.826892  0.173110  1
  F  F11  1  0.499698  0.170059  0.829942  1
  F  F12  1  0.504847  0.826898  0.495152  1
  F  F13  1  0.170059  0.499696  0.829942  1
  F  F14  1  0.499698  0.170050  0.500304  1
  F  F15  1  0.826896  0.504851  0.173102  1
  F  F16  1  0.500162  0.500165  0.830503  1
  F  F17  1  0.500168  0.500167  0.169169  1
  F  F18  1  0.169497  0.830834  0.499834  1
  F  F19  1  0.830829  0.169500  0.499836  1
  F  F20  1  0.110809  0.110810  0.110739  1
  F  F21  1  0.887505  0.887505  0.894467  1
  F  F22  1  0.110814  0.110813  0.667635  1
  F  F23  1  0.105534  0.669479  0.112493  1
  F  F24  1  0.887509  0.887510  0.330517  1
  F  F25  1  0.889263  0.332358  0.889189  1
  F  F26  1  0.669479  0.105536  0.112492  1
  F  F27  1  0.332364  0.889262  0.889189  1
