# generated using pymatgen
data_Li4TbGd3O8
_symmetry_space_group_name_H-M   'P 1'
_cell_length_a   3.44268300
_cell_length_b   5.34299637
_cell_length_c   11.38719688
_cell_angle_alpha   89.91819505
_cell_angle_beta   90.00000000
_cell_angle_gamma   90.00000000
_symmetry_Int_Tables_number   1
_chemical_formula_structural   Li4TbGd3O8
_chemical_formula_sum   'Li4 Tb1 Gd3 O8'
_cell_volume   209.45865048
_cell_formula_units_Z   1
loop_
 _symmetry_equiv_pos_site_id
 _symmetry_equiv_pos_as_xyz
  1  'x, y, z'
loop_
 _atom_site_type_symbol
 _atom_site_label
 _atom_site_symmetry_multiplicity
 _atom_site_fract_x
 _atom_site_fract_y
 _atom_site_fract_z
 _atom_site_occupancy
  Li  Li0  1  0.250000  0.096471  0.566804  1
  Li  Li1  1  0.750000  0.903318  0.433865  1
  Li  Li2  1  0.750000  0.596609  0.933249  1
  Li  Li3  1  0.250000  0.403720  0.065782  1
  Tb  Tb4  1  0.250000  0.045969  0.860066  1
  Gd  Gd5  1  0.250000  0.452781  0.360125  1
  Gd  Gd6  1  0.750000  0.546987  0.641414  1
  Gd  Gd7  1  0.750000  0.953055  0.139606  1
  O  O8  1  0.250000  0.303296  0.704869  1
  O  O9  1  0.750000  0.695734  0.296514  1
  O  O10  1  0.750000  0.807993  0.796935  1
  O  O11  1  0.250000  0.195878  0.202920  1
  O  O12  1  0.250000  0.755269  0.025117  1
  O  O13  1  0.750000  0.243539  0.971943  1
  O  O14  1  0.750000  0.254389  0.474237  1
  O  O15  1  0.250000  0.744991  0.526555  1
