# generated using pymatgen
data_ErLu5(CrB7)2
_symmetry_space_group_name_H-M   'P 1'
_cell_length_a   7.90989545
_cell_length_b   7.90989641
_cell_length_c   9.23804500
_cell_angle_alpha   90.00000000
_cell_angle_beta   90.00000000
_cell_angle_gamma   155.27530746
_symmetry_Int_Tables_number   1
_chemical_formula_structural   ErLu5(CrB7)2
_chemical_formula_sum   'Er1 Lu5 Cr2 B14'
_cell_volume   241.74998830
_cell_formula_units_Z   1
loop_
 _symmetry_equiv_pos_site_id
 _symmetry_equiv_pos_as_xyz
  1  'x, y, z'
loop_
 _atom_site_type_symbol
 _atom_site_label
 _atom_site_symmetry_multiplicity
 _atom_site_fract_x
 _atom_site_fract_y
 _atom_site_fract_z
 _atom_site_occupancy
  Er  Er0  1  0.756407  0.243593  0.750000  1
  Lu  Lu1  1  0.894918  0.105082  0.441644  1
  Lu  Lu2  1  0.104873  0.895127  0.557214  1
  Lu  Lu3  1  0.894918  0.105082  0.058356  1
  Lu  Lu4  1  0.104873  0.895127  0.942786  1
  Lu  Lu5  1  0.242365  0.757635  0.250000  1
  Cr  Cr6  1  0.051857  0.948143  0.250000  1
  Cr  Cr7  1  0.948289  0.051711  0.750000  1
  B  B8  1  0.727543  0.272457  0.466270  1
  B  B9  1  0.272814  0.727186  0.530503  1
  B  B10  1  0.727543  0.272457  0.033730  1
  B  B11  1  0.272814  0.727186  0.969497  1
  B  B12  1  0.631278  0.368722  0.151525  1
  B  B13  1  0.368888  0.631112  0.849119  1
  B  B14  1  0.631278  0.368722  0.348475  1
  B  B15  1  0.368888  0.631112  0.650881  1
  B  B16  1  0.519725  0.480275  0.095748  1
  B  B17  1  0.480336  0.519664  0.904261  1
  B  B18  1  0.519725  0.480275  0.404252  1
  B  B19  1  0.480336  0.519664  0.595739  1
  B  B20  1  0.454331  0.545669  0.250000  1
  B  B21  1  0.546003  0.453997  0.750000  1
