# generated using pymatgen
data_RbCrH5
_symmetry_space_group_name_H-M   'P 1'
_cell_length_a   12.98569600
_cell_length_b   5.88179300
_cell_length_c   4.36958400
_cell_angle_alpha   90.00000000
_cell_angle_beta   90.00000000
_cell_angle_gamma   90.00000000
_symmetry_Int_Tables_number   1
_chemical_formula_structural   RbCrH5
_chemical_formula_sum   'Rb4 Cr4 H20'
_cell_volume   333.74522465
_cell_formula_units_Z   4
loop_
 _symmetry_equiv_pos_site_id
 _symmetry_equiv_pos_as_xyz
  1  'x, y, z'
loop_
 _atom_site_type_symbol
 _atom_site_label
 _atom_site_symmetry_multiplicity
 _atom_site_fract_x
 _atom_site_fract_y
 _atom_site_fract_z
 _atom_site_occupancy
  Rb  Rb0  1  0.095149  0.502726  0.469405  1
  Rb  Rb1  1  0.404851  0.497274  0.969405  1
  Rb  Rb2  1  0.595149  0.997274  0.530595  1
  Rb  Rb3  1  0.904851  0.002726  0.030595  1
  Cr  Cr4  1  0.787347  0.502256  0.501712  1
  Cr  Cr5  1  0.712653  0.497744  0.001712  1
  Cr  Cr6  1  0.287347  0.997744  0.498288  1
  Cr  Cr7  1  0.212653  0.002256  0.998288  1
  H  H8  1  0.266338  0.210395  0.247908  1
  H  H9  1  0.233662  0.789605  0.747908  1
  H  H10  1  0.766338  0.289605  0.752092  1
  H  H11  1  0.733662  0.710395  0.252092  1
  H  H12  1  0.886324  0.670312  0.521898  1
  H  H13  1  0.613676  0.329688  0.021898  1
  H  H14  1  0.386324  0.829688  0.478102  1
  H  H15  1  0.113676  0.170312  0.978102  1
  H  H16  1  0.890132  0.346555  0.522354  1
  H  H17  1  0.609868  0.653445  0.022354  1
  H  H18  1  0.390132  0.153445  0.477646  1
  H  H19  1  0.109868  0.846555  0.977646  1
  H  H20  1  0.839107  0.505112  0.129584  1
  H  H21  1  0.660893  0.494888  0.629584  1
  H  H22  1  0.339107  0.994888  0.870416  1
  H  H23  1  0.160893  0.005112  0.370416  1
  H  H24  1  0.761565  0.712116  0.753546  1
  H  H25  1  0.738435  0.287884  0.253546  1
  H  H26  1  0.261565  0.787884  0.246454  1
  H  H27  1  0.238435  0.212116  0.746454  1
