# generated using pymatgen
data_Sc2Mn2Fe10P7
_symmetry_space_group_name_H-M   'P 1'
_cell_length_a   8.91028382
_cell_length_b   8.93814410
_cell_length_c   3.57188200
_cell_angle_alpha   90.00000000
_cell_angle_beta   90.00000000
_cell_angle_gamma   120.09787659
_symmetry_Int_Tables_number   1
_chemical_formula_structural   Sc2Mn2Fe10P7
_chemical_formula_sum   'Sc2 Mn2 Fe10 P7'
_cell_volume   246.11463968
_cell_formula_units_Z   1
loop_
 _symmetry_equiv_pos_site_id
 _symmetry_equiv_pos_as_xyz
  1  'x, y, z'
loop_
 _atom_site_type_symbol
 _atom_site_label
 _atom_site_symmetry_multiplicity
 _atom_site_fract_x
 _atom_site_fract_y
 _atom_site_fract_z
 _atom_site_occupancy
  Sc  Sc0  1  0.002375  0.000981  0.000000  1
  Sc  Sc1  1  0.664877  0.333308  0.500000  1
  Mn  Mn2  1  0.113430  0.563571  0.500000  1
  Mn  Mn3  1  0.453938  0.885729  0.500000  1
  Fe  Fe4  1  0.391352  0.298517  0.000000  1
  Fe  Fe5  1  0.904567  0.608750  0.000000  1
  Fe  Fe6  1  0.703229  0.093855  0.000000  1
  Fe  Fe7  1  0.610249  0.786102  0.000000  1
  Fe  Fe8  1  0.174524  0.388802  0.000000  1
  Fe  Fe9  1  0.214104  0.821977  0.000000  1
  Fe  Fe10  1  0.768472  0.716056  0.500000  1
  Fe  Fe11  1  0.948623  0.230905  0.500000  1
  Fe  Fe12  1  0.283077  0.053196  0.500000  1
  Fe  Fe13  1  0.428838  0.547796  0.500000  1
  P  P14  1  0.630694  0.549633  0.000000  1
  P  P15  1  0.913276  0.366309  0.000000  1
  P  P16  1  0.449649  0.084657  0.000000  1
  P  P17  1  0.747387  0.955723  0.500000  1
  P  P18  1  0.219285  0.262062  0.500000  1
  P  P19  1  0.043593  0.788252  0.500000  1
  P  P20  1  0.334462  0.663818  0.000000  1
