# generated using pymatgen
data_Ti6Al5Fe12W
_symmetry_space_group_name_H-M   'P 1'
_cell_length_a   4.13372500
_cell_length_b   5.85477000
_cell_length_c   12.33973600
_cell_angle_alpha   90.00000000
_cell_angle_beta   90.00001843
_cell_angle_gamma   90.00000000
_symmetry_Int_Tables_number   1
_chemical_formula_structural   Ti6Al5Fe12W
_chemical_formula_sum   'Ti6 Al5 Fe12 W1'
_cell_volume   298.64640319
_cell_formula_units_Z   1
loop_
 _symmetry_equiv_pos_site_id
 _symmetry_equiv_pos_as_xyz
  1  'x, y, z'
loop_
 _atom_site_type_symbol
 _atom_site_label
 _atom_site_symmetry_multiplicity
 _atom_site_fract_x
 _atom_site_fract_y
 _atom_site_fract_z
 _atom_site_occupancy
  Ti  Ti0  1  0.000000  0.500000  0.000000  1
  Ti  Ti1  1  0.500000  0.000000  0.175237  1
  Ti  Ti2  1  0.000001  0.500000  0.333959  1
  Ti  Ti3  1  0.499999  0.000000  0.500000  1
  Ti  Ti4  1  0.999999  0.500000  0.666041  1
  Ti  Ti5  1  0.500000  0.000000  0.824763  1
  Al  Al6  1  0.499999  0.500000  0.167082  1
  Al  Al7  1  0.000000  0.000000  0.334580  1
  Al  Al8  1  0.499999  0.500000  0.500000  1
  Al  Al9  1  0.000000  0.000000  0.665420  1
  Al  Al10  1  0.499999  0.500000  0.832918  1
  Fe  Fe11  1  0.500001  0.243604  0.000000  1
  Fe  Fe12  1  0.500001  0.756397  0.000000  1
  Fe  Fe13  1  0.000000  0.247212  0.163799  1
  Fe  Fe14  1  0.000000  0.752787  0.163799  1
  Fe  Fe15  1  0.500001  0.252174  0.334715  1
  Fe  Fe16  1  0.500001  0.747825  0.334715  1
  Fe  Fe17  1  0.000000  0.251603  0.500000  1
  Fe  Fe18  1  0.000000  0.748396  0.500000  1
  Fe  Fe19  1  0.499999  0.252174  0.665285  1
  Fe  Fe20  1  0.499999  0.747825  0.665285  1
  Fe  Fe21  1  0.000000  0.247212  0.836202  1
  Fe  Fe22  1  0.000000  0.752787  0.836202  1
  W  W23  1  0.000000  0.000000  0.000000  1
