# generated using pymatgen
data_Sr6MoRuO12
_symmetry_space_group_name_H-M   'P 1'
_cell_length_a   6.12590093
_cell_length_b   5.86514296
_cell_length_c   10.29183810
_cell_angle_alpha   54.97973897
_cell_angle_beta   89.89997347
_cell_angle_gamma   90.06113529
_symmetry_Int_Tables_number   1
_chemical_formula_structural   Sr6MoRuO12
_chemical_formula_sum   'Sr6 Mo1 Ru1 O12'
_cell_volume   302.82826841
_cell_formula_units_Z   1
loop_
 _symmetry_equiv_pos_site_id
 _symmetry_equiv_pos_as_xyz
  1  'x, y, z'
loop_
 _atom_site_type_symbol
 _atom_site_label
 _atom_site_symmetry_multiplicity
 _atom_site_fract_x
 _atom_site_fract_y
 _atom_site_fract_z
 _atom_site_occupancy
  Sr  Sr0  1  0.500000  0.500000  0.500000  1
  Sr  Sr1  1  0.950104  0.726590  0.257555  1
  Sr  Sr2  1  0.445930  0.266560  0.247506  1
  Sr  Sr3  1  0.000000  0.500000  0.000000  1
  Sr  Sr4  1  0.554070  0.733440  0.752494  1
  Sr  Sr5  1  0.049896  0.273410  0.742445  1
  Mo  Mo6  1  0.500000  0.000000  0.000000  1
  Ru  Ru7  1  0.000000  0.000000  0.500000  1
  O  O8  1  0.452577  0.115561  0.781651  1
  O  O9  1  0.235485  0.766479  0.066285  1
  O  O10  1  0.178664  0.313817  0.454818  1
  O  O11  1  0.673945  0.683386  0.045655  1
  O  O12  1  0.737994  0.233137  0.435287  1
  O  O13  1  0.952746  0.884120  0.717829  1
  O  O14  1  0.047254  0.115880  0.282171  1
  O  O15  1  0.262006  0.766863  0.564713  1
  O  O16  1  0.326055  0.316614  0.954345  1
  O  O17  1  0.821336  0.686183  0.545182  1
  O  O18  1  0.764515  0.233521  0.933715  1
  O  O19  1  0.547423  0.884439  0.218349  1
