# generated using pymatgen
data_Ca2SiAs5Pd21
_symmetry_space_group_name_H-M   'P 1'
_cell_length_a   8.84153842
_cell_length_b   8.80586832
_cell_length_c   8.80586853
_cell_angle_alpha   60.26816931
_cell_angle_beta   59.86592079
_cell_angle_gamma   59.86591354
_symmetry_Int_Tables_number   1
_chemical_formula_structural   Ca2SiAs5Pd21
_chemical_formula_sum   'Ca2 Si1 As5 Pd21'
_cell_volume   484.77802749
_cell_formula_units_Z   1
loop_
 _symmetry_equiv_pos_site_id
 _symmetry_equiv_pos_as_xyz
  1  'x, y, z'
loop_
 _atom_site_type_symbol
 _atom_site_label
 _atom_site_symmetry_multiplicity
 _atom_site_fract_x
 _atom_site_fract_y
 _atom_site_fract_z
 _atom_site_occupancy
  Ca  Ca0  1  0.750379  0.749621  0.749621  1
  Ca  Ca1  1  0.250379  0.249621  0.249621  1
  Si  Si2  1  0.263396  0.736604  0.736604  1
  As  As3  1  0.736407  0.736123  0.263593  1
  As  As4  1  0.263877  0.736123  0.263593  1
  As  As5  1  0.736912  0.263088  0.263088  1
  As  As6  1  0.263877  0.263593  0.736123  1
  As  As7  1  0.736407  0.263593  0.736123  1
  Pd  Pd8  1  0.001140  0.998860  0.998860  1
  Pd  Pd9  1  0.615588  0.616518  0.152306  1
  Pd  Pd10  1  0.615588  0.152306  0.616518  1
  Pd  Pd11  1  0.153559  0.618600  0.618600  1
  Pd  Pd12  1  0.609243  0.618600  0.618600  1
  Pd  Pd13  1  0.381400  0.390757  0.846441  1
  Pd  Pd14  1  0.381400  0.846441  0.390757  1
  Pd  Pd15  1  0.847694  0.384412  0.384412  1
  Pd  Pd16  1  0.383482  0.384412  0.384412  1
  Pd  Pd17  1  0.999795  0.000205  0.347603  1
  Pd  Pd18  1  0.652397  0.000205  0.347603  1
  Pd  Pd19  1  0.001008  0.652739  0.345246  1
  Pd  Pd20  1  0.652397  0.347603  0.000205  1
  Pd  Pd21  1  0.999795  0.347603  0.000205  1
  Pd  Pd22  1  0.001008  0.345246  0.652739  1
  Pd  Pd23  1  0.344768  0.655232  0.994338  1
  Pd  Pd24  1  0.344768  0.994338  0.655232  1
  Pd  Pd25  1  0.347261  0.998992  0.998992  1
  Pd  Pd26  1  0.005662  0.994338  0.655232  1
  Pd  Pd27  1  0.005662  0.655232  0.994338  1
  Pd  Pd28  1  0.654754  0.998992  0.998992  1
