# generated using pymatgen
data_Sr2ZnReN4
_symmetry_space_group_name_H-M   'P 1'
_cell_length_a   5.92908200
_cell_length_b   6.26805727
_cell_length_c   6.87416264
_cell_angle_alpha   73.79214447
_cell_angle_beta   90.00000000
_cell_angle_gamma   90.00000000
_symmetry_Int_Tables_number   1
_chemical_formula_structural   Sr2ZnReN4
_chemical_formula_sum   'Sr4 Zn2 Re2 N8'
_cell_volume   245.31662736
_cell_formula_units_Z   2
loop_
 _symmetry_equiv_pos_site_id
 _symmetry_equiv_pos_as_xyz
  1  'x, y, z'
loop_
 _atom_site_type_symbol
 _atom_site_label
 _atom_site_symmetry_multiplicity
 _atom_site_fract_x
 _atom_site_fract_y
 _atom_site_fract_z
 _atom_site_occupancy
  Sr  Sr0  1  0.250000  0.239637  0.066707  1
  Sr  Sr1  1  0.750000  0.760363  0.933293  1
  Sr  Sr2  1  0.750000  0.786784  0.425847  1
  Sr  Sr3  1  0.250000  0.213216  0.574153  1
  Zn  Zn4  1  0.750000  0.298205  0.303850  1
  Zn  Zn5  1  0.250000  0.701795  0.696150  1
  Re  Re6  1  0.250000  0.709449  0.199990  1
  Re  Re7  1  0.750000  0.290551  0.800010  1
  N  N8  1  0.496599  0.466397  0.754453  1
  N  N9  1  0.996599  0.533603  0.245547  1
  N  N10  1  0.503401  0.533603  0.245547  1
  N  N11  1  0.003401  0.466397  0.754453  1
  N  N12  1  0.750000  0.115473  0.615281  1
  N  N13  1  0.250000  0.884527  0.384719  1
  N  N14  1  0.750000  0.121068  0.074484  1
  N  N15  1  0.250000  0.878932  0.925516  1
