# generated using pymatgen
data_GdV3O9
_symmetry_space_group_name_H-M   'P 1'
_cell_length_a   7.42242332
_cell_length_b   8.47060339
_cell_length_c   9.56136600
_cell_angle_alpha   105.93234886
_cell_angle_beta   112.83922135
_cell_angle_gamma   64.01546443
_symmetry_Int_Tables_number   1
_chemical_formula_structural   GdV3O9
_chemical_formula_sum   'Gd2 V6 O18'
_cell_volume   494.03704623
_cell_formula_units_Z   2
loop_
 _symmetry_equiv_pos_site_id
 _symmetry_equiv_pos_as_xyz
  1  'x, y, z'
loop_
 _atom_site_type_symbol
 _atom_site_label
 _atom_site_symmetry_multiplicity
 _atom_site_fract_x
 _atom_site_fract_y
 _atom_site_fract_z
 _atom_site_occupancy
  Gd  Gd0  1  0.682947  0.357715  0.242804  1
  Gd  Gd1  1  0.202141  0.857715  0.742802  1
  V  V2  1  0.749496  0.607600  0.007130  1
  V  V3  1  0.992717  0.906031  0.074363  1
  V  V4  1  0.417673  0.809315  0.417324  1
  V  V5  1  0.650035  0.107599  0.507131  1
  V  V6  1  0.175614  0.406032  0.574361  1
  V  V7  1  0.190338  0.309313  0.917324  1
  O  O8  1  0.361262  0.390921  0.059306  1
  O  O9  1  0.835039  0.122444  0.084315  1
  O  O10  1  0.860517  0.775291  0.080560  1
  O  O11  1  0.683596  0.574688  0.143680  1
  O  O12  1  0.222440  0.873864  0.238866  1
  O  O13  1  0.648605  0.170157  0.353550  1
  O  O14  1  0.008718  0.341874  0.413388  1
  O  O15  1  0.530817  0.586526  0.406524  1
  O  O16  1  0.610416  0.901876  0.453290  1
  O  O17  1  0.307120  0.890922  0.559306  1
  O  O18  1  0.126831  0.622445  0.584315  1
  O  O19  1  0.444752  0.275291  0.580560  1
  O  O20  1  0.885395  0.074690  0.643681  1
  O  O21  1  0.142563  0.373866  0.738868  1
  O  O22  1  0.534788  0.670158  0.853550  1
  O  O23  1  0.062795  0.841873  0.913388  1
  O  O24  1  0.289181  0.086526  0.906525  1
  O  O25  1  0.940998  0.401874  0.953289  1
