# generated using pymatgen
data_Dy6YLu(InRh)2
_symmetry_space_group_name_H-M   'P 1'
_cell_length_a   9.63725753
_cell_length_b   9.65326899
_cell_length_c   9.64248097
_cell_angle_alpha   59.89320055
_cell_angle_beta   60.03832246
_cell_angle_gamma   59.89461249
_symmetry_Int_Tables_number   1
_chemical_formula_structural   Dy6YLu(InRh)2
_chemical_formula_sum   'Dy12 Y2 Lu2 In4 Rh4'
_cell_volume   633.47369162
_cell_formula_units_Z   2
loop_
 _symmetry_equiv_pos_site_id
 _symmetry_equiv_pos_as_xyz
  1  'x, y, z'
loop_
 _atom_site_type_symbol
 _atom_site_label
 _atom_site_symmetry_multiplicity
 _atom_site_fract_x
 _atom_site_fract_y
 _atom_site_fract_z
 _atom_site_occupancy
  Dy  Dy0  1  0.147862  0.149951  0.549455  1
  Dy  Dy1  1  0.561213  0.938899  0.559115  1
  Dy  Dy2  1  0.149887  0.152186  0.152455  1
  Dy  Dy3  1  0.311536  0.310171  0.689866  1
  Dy  Dy4  1  0.934857  0.563204  0.561850  1
  Dy  Dy5  1  0.561273  0.560777  0.938979  1
  Dy  Dy6  1  0.561507  0.937769  0.939372  1
  Dy  Dy7  1  0.934991  0.562303  0.939834  1
  Dy  Dy8  1  0.147748  0.548943  0.150241  1
  Dy  Dy9  1  0.312443  0.689687  0.688389  1
  Dy  Dy10  1  0.688967  0.312651  0.687603  1
  Dy  Dy11  1  0.553072  0.147643  0.147834  1
  Y  Y12  1  0.313003  0.689380  0.310154  1
  Y  Y13  1  0.935471  0.938970  0.561829  1
  Lu  Lu14  1  0.690021  0.311907  0.310587  1
  Lu  Lu15  1  0.689060  0.688544  0.311189  1
  In  In16  1  0.918686  0.916817  0.248300  1
  In  In17  1  0.249075  0.916829  0.917773  1
  In  In18  1  0.917640  0.249062  0.917536  1
  In  In19  1  0.917403  0.916113  0.917363  1
  Rh  Rh20  1  0.361415  0.354585  0.357530  1
  Rh  Rh21  1  0.923277  0.359730  0.357540  1
  Rh  Rh22  1  0.358115  0.357385  0.927504  1
  Rh  Rh23  1  0.361478  0.926494  0.357704  1
