# generated using pymatgen
data_La8Yb12Si15Ge
_symmetry_space_group_name_H-M   'P 1'
_cell_length_a   7.96338163
_cell_length_b   7.96188107
_cell_length_c   14.78423416
_cell_angle_alpha   90.00868300
_cell_angle_beta   89.95578262
_cell_angle_gamma   89.98758208
_symmetry_Int_Tables_number   1
_chemical_formula_structural   La8Yb12Si15Ge
_chemical_formula_sum   'La8 Yb12 Si15 Ge1'
_cell_volume   937.37184099
_cell_formula_units_Z   1
loop_
 _symmetry_equiv_pos_site_id
 _symmetry_equiv_pos_as_xyz
  1  'x, y, z'
loop_
 _atom_site_type_symbol
 _atom_site_label
 _atom_site_symmetry_multiplicity
 _atom_site_fract_x
 _atom_site_fract_y
 _atom_site_fract_z
 _atom_site_occupancy
  La  La0  1  0.990164  0.623515  0.047478  1
  La  La1  1  0.009949  0.375688  0.547943  1
  La  La2  1  0.623516  0.990006  0.952448  1
  La  La3  1  0.123890  0.510152  0.797346  1
  La  La4  1  0.874774  0.488062  0.296225  1
  La  La5  1  0.509629  0.123307  0.202306  1
  La  La6  1  0.490451  0.876748  0.702791  1
  La  La7  1  0.377648  0.010862  0.452670  1
  Yb  Yb8  1  0.369710  0.492886  0.376048  1
  Yb  Yb9  1  0.870381  0.008316  0.374328  1
  Yb  Yb10  1  0.992149  0.129190  0.125396  1
  Yb  Yb11  1  0.008446  0.870125  0.625134  1
  Yb  Yb12  1  0.629406  0.507866  0.875461  1
  Yb  Yb13  1  0.492804  0.369970  0.624806  1
  Yb  Yb14  1  0.507699  0.629401  0.124458  1
  Yb  Yb15  1  0.129230  0.992053  0.874576  1
  Yb  Yb16  1  0.686976  0.687010  0.500093  1
  Yb  Yb17  1  0.812843  0.187123  0.750110  1
  Yb  Yb18  1  0.187441  0.812781  0.249797  1
  Yb  Yb19  1  0.312493  0.312643  0.000008  1
  Si  Si20  1  0.919386  0.290063  0.942292  1
  Si  Si21  1  0.710490  0.080691  0.557801  1
  Si  Si22  1  0.209831  0.419527  0.192305  1
  Si  Si23  1  0.790558  0.580366  0.692237  1
  Si  Si24  1  0.419286  0.209890  0.807899  1
  Si  Si25  1  0.580310  0.789922  0.307756  1
  Si  Si26  1  0.290125  0.919471  0.057715  1
  Si  Si27  1  0.834670  0.794699  0.807244  1
  Si  Si28  1  0.165765  0.205325  0.307372  1
  Si  Si29  1  0.794772  0.834382  0.192760  1
  Si  Si30  1  0.297178  0.664815  0.559049  1
  Si  Si31  1  0.705188  0.334472  0.057430  1
  Si  Si32  1  0.665692  0.295105  0.442771  1
  Si  Si33  1  0.334480  0.705178  0.942715  1
  Si  Si34  1  0.205218  0.165440  0.692882  1
  Ge  Ge35  1  0.077454  0.712949  0.440352  1
