# generated using pymatgen
data_LaNd2Cd3PtPb2
_symmetry_space_group_name_H-M   'P 1'
_cell_length_a   7.71872358
_cell_length_b   7.64677948
_cell_length_c   4.72196900
_cell_angle_alpha   90.00000000
_cell_angle_beta   90.00000000
_cell_angle_gamma   119.69213985
_symmetry_Int_Tables_number   1
_chemical_formula_structural   LaNd2Cd3PtPb2
_chemical_formula_sum   'La1 Nd2 Cd3 Pt1 Pb2'
_cell_volume   242.11224002
_cell_formula_units_Z   1
loop_
 _symmetry_equiv_pos_site_id
 _symmetry_equiv_pos_as_xyz
  1  'x, y, z'
loop_
 _atom_site_type_symbol
 _atom_site_label
 _atom_site_symmetry_multiplicity
 _atom_site_fract_x
 _atom_site_fract_y
 _atom_site_fract_z
 _atom_site_occupancy
  La  La0  1  0.000000  0.392598  0.000000  1
  Nd  Nd1  1  0.609941  0.609436  0.000000  1
  Nd  Nd2  1  0.390059  0.999496  0.000000  1
  Cd  Cd3  1  0.000000  0.771834  0.500000  1
  Cd  Cd4  1  0.229952  0.228066  0.500000  1
  Cd  Cd5  1  0.770048  0.998114  0.500000  1
  Pt  Pt6  1  0.000000  0.000709  0.000000  1
  Pb  Pb7  1  0.337104  0.668427  0.500000  1
  Pb  Pb8  1  0.662896  0.331322  0.500000  1
