# generated using pymatgen
data_CsTc6Te7
_symmetry_space_group_name_H-M   'P 1'
_cell_length_a   10.27495475
_cell_length_b   10.27495494
_cell_length_c   10.27495467
_cell_angle_alpha   61.55575455
_cell_angle_beta   61.55575744
_cell_angle_gamma   61.55576196
_symmetry_Int_Tables_number   1
_chemical_formula_structural   CsTc6Te7
_chemical_formula_sum   'Cs2 Tc12 Te14'
_cell_volume   793.82901708
_cell_formula_units_Z   2
loop_
 _symmetry_equiv_pos_site_id
 _symmetry_equiv_pos_as_xyz
  1  'x, y, z'
loop_
 _atom_site_type_symbol
 _atom_site_label
 _atom_site_symmetry_multiplicity
 _atom_site_fract_x
 _atom_site_fract_y
 _atom_site_fract_z
 _atom_site_occupancy
  Cs  Cs0  1  0.617938  0.617938  0.617938  1
  Cs  Cs1  1  0.382063  0.382063  0.382063  1
  Tc  Tc2  1  0.705559  0.875049  0.002249  1
  Tc  Tc3  1  0.002249  0.705559  0.875049  1
  Tc  Tc4  1  0.875049  0.002249  0.705559  1
  Tc  Tc5  1  0.294441  0.124951  0.997751  1
  Tc  Tc6  1  0.997751  0.294441  0.124951  1
  Tc  Tc7  1  0.124951  0.997751  0.294441  1
  Tc  Tc8  1  0.940180  0.811097  0.106617  1
  Tc  Tc9  1  0.106617  0.940180  0.811097  1
  Tc  Tc10  1  0.811097  0.106617  0.940180  1
  Tc  Tc11  1  0.059820  0.188903  0.893383  1
  Tc  Tc12  1  0.893383  0.059820  0.188903  1
  Tc  Tc13  1  0.188903  0.893383  0.059820  1
  Te  Te14  1  0.420315  0.816962  0.164686  1
  Te  Te15  1  0.164686  0.420315  0.816962  1
  Te  Te16  1  0.816962  0.164686  0.420315  1
  Te  Te17  1  0.579685  0.183038  0.835314  1
  Te  Te18  1  0.835314  0.579685  0.183038  1
  Te  Te19  1  0.183038  0.835314  0.579685  1
  Te  Te20  1  0.645742  0.984148  0.238972  1
  Te  Te21  1  0.238972  0.645742  0.984148  1
  Te  Te22  1  0.984148  0.238972  0.645742  1
  Te  Te23  1  0.354258  0.015852  0.761028  1
  Te  Te24  1  0.761028  0.354258  0.015852  1
  Te  Te25  1  0.015852  0.761028  0.354258  1
  Te  Te26  1  0.775501  0.775501  0.775501  1
  Te  Te27  1  0.224499  0.224499  0.224499  1
