# generated using pymatgen
data_CaTb2Yb5(Si3Au)4
_symmetry_space_group_name_H-M   'P 1'
_cell_length_a   8.30675942
_cell_length_b   8.30664619
_cell_length_c   8.26654600
_cell_angle_alpha   90.00000000
_cell_angle_beta   90.00000000
_cell_angle_gamma   120.19760329
_symmetry_Int_Tables_number   1
_chemical_formula_structural   CaTb2Yb5(Si3Au)4
_chemical_formula_sum   'Ca1 Tb2 Yb5 Si12 Au4'
_cell_volume   492.99652261
_cell_formula_units_Z   1
loop_
 _symmetry_equiv_pos_site_id
 _symmetry_equiv_pos_as_xyz
  1  'x, y, z'
loop_
 _atom_site_type_symbol
 _atom_site_label
 _atom_site_symmetry_multiplicity
 _atom_site_fract_x
 _atom_site_fract_y
 _atom_site_fract_z
 _atom_site_occupancy
  Ca  Ca0  1  0.498858  0.501142  0.750000  1
  Tb  Tb1  1  0.999965  0.000035  0.250000  1
  Tb  Tb2  1  0.000061  0.999939  0.750000  1
  Yb  Yb3  1  0.501263  0.002277  0.250000  1
  Yb  Yb4  1  0.498677  0.997671  0.750000  1
  Yb  Yb5  1  0.997722  0.498737  0.250000  1
  Yb  Yb6  1  0.002329  0.501323  0.750000  1
  Yb  Yb7  1  0.501088  0.498912  0.250000  1
  Si  Si8  1  0.161942  0.323492  0.001468  1
  Si  Si9  1  0.838071  0.676533  0.999907  1
  Si  Si10  1  0.676509  0.838059  0.001468  1
  Si  Si11  1  0.838071  0.676533  0.500093  1
  Si  Si12  1  0.323466  0.161928  0.999907  1
  Si  Si13  1  0.161942  0.323492  0.498532  1
  Si  Si14  1  0.161490  0.838511  0.000570  1
  Si  Si15  1  0.323466  0.161928  0.500093  1
  Si  Si16  1  0.838525  0.161474  0.998377  1
  Si  Si17  1  0.676509  0.838059  0.498532  1
  Si  Si18  1  0.838525  0.161474  0.501623  1
  Si  Si19  1  0.161490  0.838511  0.499430  1
  Au  Au20  1  0.332606  0.667400  0.005002  1
  Au  Au21  1  0.667408  0.332586  0.998302  1
  Au  Au22  1  0.667408  0.332586  0.501698  1
  Au  Au23  1  0.332606  0.667400  0.494998  1
