# generated using pymatgen
data_RbNaS2O7
_symmetry_space_group_name_H-M   'P 1'
_cell_length_a   6.01974085
_cell_length_b   7.53997888
_cell_length_c   7.83562736
_cell_angle_alpha   101.42749940
_cell_angle_beta   90.12493035
_cell_angle_gamma   93.75117291
_symmetry_Int_Tables_number   1
_chemical_formula_structural   RbNaS2O7
_chemical_formula_sum   'Rb2 Na2 S4 O14'
_cell_volume   347.81023405
_cell_formula_units_Z   2
loop_
 _symmetry_equiv_pos_site_id
 _symmetry_equiv_pos_as_xyz
  1  'x, y, z'
loop_
 _atom_site_type_symbol
 _atom_site_label
 _atom_site_symmetry_multiplicity
 _atom_site_fract_x
 _atom_site_fract_y
 _atom_site_fract_z
 _atom_site_occupancy
  Rb  Rb0  1  0.226013  0.777346  0.431270  1
  Rb  Rb1  1  0.773987  0.222654  0.568730  1
  Na  Na2  1  0.206953  0.642089  0.901061  1
  Na  Na3  1  0.793047  0.357911  0.098939  1
  S  S4  1  0.716369  0.724360  0.704650  1
  S  S5  1  0.722973  0.821614  0.089961  1
  S  S6  1  0.277027  0.178386  0.910039  1
  S  S7  1  0.283631  0.275640  0.295350  1
  O  O8  1  0.738402  0.873907  0.891603  1
  O  O9  1  0.500714  0.261240  0.897625  1
  O  O10  1  0.897169  0.694795  0.096772  1
  O  O11  1  0.499035  0.376401  0.295976  1
  O  O12  1  0.261598  0.126093  0.108397  1
  O  O13  1  0.499286  0.738760  0.102375  1
  O  O14  1  0.102831  0.305205  0.903228  1
  O  O15  1  0.500965  0.623599  0.704024  1
  O  O16  1  0.093798  0.388402  0.298249  1
  O  O17  1  0.267798  0.156750  0.420885  1
  O  O18  1  0.232490  0.999696  0.802802  1
  O  O19  1  0.732202  0.843250  0.579115  1
  O  O20  1  0.906202  0.611598  0.701751  1
  O  O21  1  0.767510  0.000304  0.197198  1
