# generated using pymatgen
data_NdY2Pa(ReB6)2
_symmetry_space_group_name_H-M   'P 1'
_cell_length_a   3.72901900
_cell_length_b   9.23296936
_cell_length_c   11.62333105
_cell_angle_alpha   89.61755551
_cell_angle_beta   90.00000000
_cell_angle_gamma   90.00000000
_symmetry_Int_Tables_number   1
_chemical_formula_structural   NdY2Pa(ReB6)2
_chemical_formula_sum   'Nd2 Y4 Pa2 Re4 B24'
_cell_volume   400.18142196
_cell_formula_units_Z   2
loop_
 _symmetry_equiv_pos_site_id
 _symmetry_equiv_pos_as_xyz
  1  'x, y, z'
loop_
 _atom_site_type_symbol
 _atom_site_label
 _atom_site_symmetry_multiplicity
 _atom_site_fract_x
 _atom_site_fract_y
 _atom_site_fract_z
 _atom_site_occupancy
  Nd  Nd0  1  0.000000  0.323885  0.413634  1
  Nd  Nd1  1  0.000000  0.676115  0.586366  1
  Y  Y2  1  0.000000  0.444957  0.126175  1
  Y  Y3  1  0.000000  0.555043  0.873825  1
  Y  Y4  1  0.000000  0.944123  0.372500  1
  Y  Y5  1  0.000000  0.055877  0.627500  1
  Pa  Pa6  1  0.000000  0.822412  0.086760  1
  Pa  Pa7  1  0.000000  0.177588  0.913240  1
  Re  Re8  1  0.000000  0.134286  0.173636  1
  Re  Re9  1  0.000000  0.865714  0.826364  1
  Re  Re10  1  0.000000  0.642446  0.315824  1
  Re  Re11  1  0.000000  0.357554  0.684176  1
  B  B12  1  0.500000  0.053039  0.066490  1
  B  B13  1  0.500000  0.946961  0.933511  1
  B  B14  1  0.500000  0.555222  0.429728  1
  B  B15  1  0.500000  0.444778  0.570271  1
  B  B16  1  0.500000  0.246739  0.079394  1
  B  B17  1  0.500000  0.753261  0.920606  1
  B  B18  1  0.500000  0.748613  0.416745  1
  B  B19  1  0.500000  0.251387  0.583255  1
  B  B20  1  0.500000  0.289909  0.231445  1
  B  B21  1  0.500000  0.710091  0.768555  1
  B  B22  1  0.500000  0.792912  0.264598  1
  B  B23  1  0.500000  0.207088  0.735402  1
  B  B24  1  0.500000  0.130237  0.312091  1
  B  B25  1  0.500000  0.869763  0.687909  1
  B  B26  1  0.500000  0.633929  0.184766  1
  B  B27  1  0.500000  0.366071  0.815234  1
  B  B28  1  0.500000  0.484985  0.285303  1
  B  B29  1  0.500000  0.515015  0.714697  1
  B  B30  1  0.500000  0.983046  0.211878  1
  B  B31  1  0.500000  0.016954  0.788122  1
  B  B32  1  0.500000  0.101263  0.471461  1
  B  B33  1  0.500000  0.898737  0.528539  1
  B  B34  1  0.500000  0.615503  0.031507  1
  B  B35  1  0.500000  0.384497  0.968493  1
