# generated using pymatgen
data_Hf6Ga6Pd5Au
_symmetry_space_group_name_H-M   'P 1'
_cell_length_a   7.19688400
_cell_length_b   7.19688318
_cell_length_c   7.04781300
_cell_angle_alpha   90.00000000
_cell_angle_beta   90.00000000
_cell_angle_gamma   119.99999459
_symmetry_Int_Tables_number   1
_chemical_formula_structural   Hf6Ga6Pd5Au
_chemical_formula_sum   'Hf6 Ga6 Pd5 Au1'
_cell_volume   316.13602162
_cell_formula_units_Z   1
loop_
 _symmetry_equiv_pos_site_id
 _symmetry_equiv_pos_as_xyz
  1  'x, y, z'
loop_
 _atom_site_type_symbol
 _atom_site_label
 _atom_site_symmetry_multiplicity
 _atom_site_fract_x
 _atom_site_fract_y
 _atom_site_fract_z
 _atom_site_occupancy
  Hf  Hf0  1  0.616652  0.587967  0.246322  1
  Hf  Hf1  1  0.019767  0.406783  0.753834  1
  Hf  Hf2  1  0.412033  0.028685  0.246322  1
  Hf  Hf3  1  0.971315  0.383348  0.246322  1
  Hf  Hf4  1  0.387017  0.980233  0.753834  1
  Hf  Hf5  1  0.593217  0.612983  0.753834  1
  Ga  Ga6  1  0.269251  0.263191  0.501339  1
  Ga  Ga7  1  0.736809  0.006060  0.501339  1
  Ga  Ga8  1  0.993940  0.730749  0.501339  1
  Ga  Ga9  1  0.730989  0.998043  0.000102  1
  Ga  Ga10  1  0.267053  0.269011  0.000102  1
  Ga  Ga11  1  0.001957  0.732947  0.000102  1
  Pd  Pd12  1  0.000000  0.000000  0.750840  1
  Pd  Pd13  1  0.000000  0.000000  0.250236  1
  Pd  Pd14  1  0.333333  0.666667  0.032986  1
  Pd  Pd15  1  0.666667  0.333333  0.533550  1
  Pd  Pd16  1  0.666667  0.333333  0.964968  1
  Au  Au17  1  0.333333  0.666667  0.462628  1
