# generated using pymatgen
data_Ho6SbO12
_symmetry_space_group_name_H-M   'P 1'
_cell_length_a   6.48194118
_cell_length_b   6.48194057
_cell_length_c   6.48194061
_cell_angle_alpha   98.89514679
_cell_angle_beta   98.89513641
_cell_angle_gamma   98.89513725
_symmetry_Int_Tables_number   1
_chemical_formula_structural   Ho6SbO12
_chemical_formula_sum   'Ho6 Sb1 O12'
_cell_volume   261.34619441
_cell_formula_units_Z   1
loop_
 _symmetry_equiv_pos_site_id
 _symmetry_equiv_pos_as_xyz
  1  'x, y, z'
loop_
 _atom_site_type_symbol
 _atom_site_label
 _atom_site_symmetry_multiplicity
 _atom_site_fract_x
 _atom_site_fract_y
 _atom_site_fract_z
 _atom_site_occupancy
  Ho  Ho0  1  0.695456  0.860432  0.391422  1
  Ho  Ho1  1  0.391422  0.695456  0.860432  1
  Ho  Ho2  1  0.860432  0.391422  0.695456  1
  Ho  Ho3  1  0.304544  0.139568  0.608578  1
  Ho  Ho4  1  0.608578  0.304544  0.139568  1
  Ho  Ho5  1  0.139568  0.608578  0.304544  1
  Sb  Sb6  1  0.000000  0.000000  0.000000  1
  O  O7  1  0.434947  0.587419  0.178544  1
  O  O8  1  0.178544  0.434947  0.587419  1
  O  O9  1  0.587419  0.178544  0.434947  1
  O  O10  1  0.565053  0.412581  0.821456  1
  O  O11  1  0.821456  0.565053  0.412581  1
  O  O12  1  0.412581  0.821456  0.565053  1
  O  O13  1  0.926987  0.044104  0.695786  1
  O  O14  1  0.955896  0.304214  0.073013  1
  O  O15  1  0.304214  0.073013  0.955896  1
  O  O16  1  0.073013  0.955896  0.304214  1
  O  O17  1  0.044104  0.695786  0.926987  1
  O  O18  1  0.695786  0.926987  0.044104  1
