# generated using pymatgen
data_La3Ge2S8I
_symmetry_space_group_name_H-M   'P 1'
_cell_length_a   9.08752235
_cell_length_b   9.08752274
_cell_length_c   11.11860492
_cell_angle_alpha   82.93954437
_cell_angle_beta   97.06045544
_cell_angle_gamma   127.48001557
_symmetry_Int_Tables_number   1
_chemical_formula_structural   La3Ge2S8I
_chemical_formula_sum   'La6 Ge4 S16 I2'
_cell_volume   721.78195626
_cell_formula_units_Z   2
loop_
 _symmetry_equiv_pos_site_id
 _symmetry_equiv_pos_as_xyz
  1  'x, y, z'
loop_
 _atom_site_type_symbol
 _atom_site_label
 _atom_site_symmetry_multiplicity
 _atom_site_fract_x
 _atom_site_fract_y
 _atom_site_fract_z
 _atom_site_occupancy
  La  La0  1  0.598308  0.598308  0.750000  1
  La  La1  1  0.401691  0.401691  0.250000  1
  La  La2  1  0.320033  0.923466  0.680444  1
  La  La3  1  0.923466  0.320032  0.819556  1
  La  La4  1  0.679967  0.076533  0.319556  1
  La  La5  1  0.076533  0.679967  0.180443  1
  Ge  Ge6  1  0.620958  0.301458  0.029129  1
  Ge  Ge7  1  0.301458  0.620958  0.470870  1
  Ge  Ge8  1  0.379043  0.698542  0.970870  1
  Ge  Ge9  1  0.698542  0.379043  0.529129  1
  S  S10  1  0.856562  0.286322  0.086641  1
  S  S11  1  0.286321  0.856563  0.413358  1
  S  S12  1  0.143437  0.713678  0.913358  1
  S  S13  1  0.713678  0.143437  0.586642  1
  S  S14  1  0.395148  0.105445  0.152754  1
  S  S15  1  0.105445  0.395147  0.347246  1
  S  S16  1  0.604852  0.894554  0.847246  1
  S  S17  1  0.894554  0.604852  0.652754  1
  S  S18  1  0.549867  0.251521  0.832421  1
  S  S19  1  0.251520  0.549867  0.667579  1
  S  S20  1  0.450133  0.748480  0.167579  1
  S  S21  1  0.748480  0.450133  0.332421  1
  S  S22  1  0.724113  0.591861  0.044084  1
  S  S23  1  0.591861  0.724113  0.455915  1
  S  S24  1  0.275886  0.408139  0.955915  1
  S  S25  1  0.408139  0.275886  0.544085  1
  I  I26  1  0.984917  0.984916  0.250000  1
  I  I27  1  0.015084  0.015084  0.750000  1
