# generated using pymatgen
data_DyHoAl2(SiIr2)2
_symmetry_space_group_name_H-M   'P 1'
_cell_length_a   4.07420800
_cell_length_b   4.07420800
_cell_length_c   10.41464800
_cell_angle_alpha   90.00000000
_cell_angle_beta   90.00000000
_cell_angle_gamma   90.00000000
_symmetry_Int_Tables_number   1
_chemical_formula_structural   DyHoAl2(SiIr2)2
_chemical_formula_sum   'Dy1 Ho1 Al2 Si2 Ir4'
_cell_volume   172.87452126
_cell_formula_units_Z   1
loop_
 _symmetry_equiv_pos_site_id
 _symmetry_equiv_pos_as_xyz
  1  'x, y, z'
loop_
 _atom_site_type_symbol
 _atom_site_label
 _atom_site_symmetry_multiplicity
 _atom_site_fract_x
 _atom_site_fract_y
 _atom_site_fract_z
 _atom_site_occupancy
  Dy  Dy0  1  0.000000  0.500000  0.243402  1
  Ho  Ho1  1  0.500000  0.000000  0.756614  1
  Al  Al2  1  0.000000  0.000000  0.500056  1
  Al  Al3  1  0.500000  0.500000  0.500056  1
  Si  Si4  1  0.000000  0.500000  0.874931  1
  Si  Si5  1  0.500000  0.000000  0.124989  1
  Ir  Ir6  1  0.000000  0.000000  0.999925  1
  Ir  Ir7  1  0.500000  0.500000  0.999925  1
  Ir  Ir8  1  0.000000  0.500000  0.645877  1
  Ir  Ir9  1  0.500000  0.000000  0.354225  1
