# generated using pymatgen
data_Ba2HfZr3H14
_symmetry_space_group_name_H-M   'P 1'
_cell_length_a   6.89852605
_cell_length_b   6.89852651
_cell_length_c   6.89852530
_cell_angle_alpha   60.13608132
_cell_angle_beta   60.13607935
_cell_angle_gamma   60.13608123
_symmetry_Int_Tables_number   1
_chemical_formula_structural   Ba2HfZr3H14
_chemical_formula_sum   'Ba2 Hf1 Zr3 H14'
_cell_volume   232.85770878
_cell_formula_units_Z   1
loop_
 _symmetry_equiv_pos_site_id
 _symmetry_equiv_pos_as_xyz
  1  'x, y, z'
loop_
 _atom_site_type_symbol
 _atom_site_label
 _atom_site_symmetry_multiplicity
 _atom_site_fract_x
 _atom_site_fract_y
 _atom_site_fract_z
 _atom_site_occupancy
  Ba  Ba0  1  0.249984  0.249984  0.249984  1
  Ba  Ba1  1  0.000016  0.000016  0.000016  1
  Hf  Hf2  1  0.625000  0.625000  0.625000  1
  Zr  Zr3  1  0.625000  0.625000  0.125000  1
  Zr  Zr4  1  0.625000  0.125000  0.625000  1
  Zr  Zr5  1  0.125000  0.625000  0.625000  1
  H  H6  1  0.733702  0.269617  0.733702  1
  H  H7  1  0.985325  0.515007  0.985325  1
  H  H8  1  0.733702  0.733702  0.269617  1
  H  H9  1  0.269617  0.733702  0.733702  1
  H  H10  1  0.734993  0.264675  0.264675  1
  H  H11  1  0.264675  0.264675  0.734993  1
  H  H12  1  0.500949  0.500949  0.500949  1
  H  H13  1  0.749051  0.749051  0.749051  1
  H  H14  1  0.264675  0.734993  0.264675  1
  H  H15  1  0.515007  0.985325  0.985325  1
  H  H16  1  0.980383  0.516298  0.516298  1
  H  H17  1  0.516298  0.980383  0.516298  1
  H  H18  1  0.985325  0.985325  0.515007  1
  H  H19  1  0.516298  0.516298  0.980383  1
