# generated using pymatgen
data_KUAuSe3
_symmetry_space_group_name_H-M   'P 1'
_cell_length_a   7.71316771
_cell_length_b   7.71316795
_cell_length_c   10.74247800
_cell_angle_alpha   90.00000000
_cell_angle_beta   90.00000000
_cell_angle_gamma   148.29987209
_symmetry_Int_Tables_number   1
_chemical_formula_structural   KUAuSe3
_chemical_formula_sum   'K2 U2 Au2 Se6'
_cell_volume   335.83108815
_cell_formula_units_Z   2
loop_
 _symmetry_equiv_pos_site_id
 _symmetry_equiv_pos_as_xyz
  1  'x, y, z'
loop_
 _atom_site_type_symbol
 _atom_site_label
 _atom_site_symmetry_multiplicity
 _atom_site_fract_x
 _atom_site_fract_y
 _atom_site_fract_z
 _atom_site_occupancy
  K  K0  1  0.252930  0.747068  0.250000  1
  K  K1  1  0.747068  0.252930  0.750000  1
  U  U2  1  0.499999  0.499999  0.000000  1
  U  U3  1  0.499999  0.499999  0.500000  1
  Au  Au4  1  0.958734  0.041264  0.250000  1
  Au  Au5  1  0.041264  0.958734  0.750000  1
  Se  Se6  1  0.871073  0.128925  0.042601  1
  Se  Se7  1  0.572247  0.427751  0.250000  1
  Se  Se8  1  0.871073  0.128925  0.457399  1
  Se  Se9  1  0.128925  0.871073  0.542601  1
  Se  Se10  1  0.427751  0.572247  0.750000  1
  Se  Se11  1  0.128925  0.871073  0.957399  1
