# generated using pymatgen
data_Zr10CuSi(SnBi2)2
_symmetry_space_group_name_H-M   'P 1'
_cell_length_a   8.77763974
_cell_length_b   8.77763963
_cell_length_c   5.92016834
_cell_angle_alpha   90.03617149
_cell_angle_beta   90.03617231
_cell_angle_gamma   119.82890230
_symmetry_Int_Tables_number   1
_chemical_formula_structural   Zr10CuSi(SnBi2)2
_chemical_formula_sum   'Zr10 Cu1 Si1 Sn2 Bi4'
_cell_volume   395.69997942
_cell_formula_units_Z   1
loop_
 _symmetry_equiv_pos_site_id
 _symmetry_equiv_pos_as_xyz
  1  'x, y, z'
loop_
 _atom_site_type_symbol
 _atom_site_label
 _atom_site_symmetry_multiplicity
 _atom_site_fract_x
 _atom_site_fract_y
 _atom_site_fract_z
 _atom_site_occupancy
  Zr  Zr0  1  0.667288  0.330116  0.505394  1
  Zr  Zr1  1  0.330116  0.667288  0.505394  1
  Zr  Zr2  1  0.330731  0.667411  0.996015  1
  Zr  Zr3  1  0.667411  0.330731  0.996015  1
  Zr  Zr4  1  0.749800  0.749800  0.257622  1
  Zr  Zr5  1  0.250756  0.999705  0.255800  1
  Zr  Zr6  1  0.999705  0.250756  0.255800  1
  Zr  Zr7  1  0.264446  0.264446  0.744881  1
  Zr  Zr8  1  0.734990  0.005198  0.743869  1
  Zr  Zr9  1  0.005198  0.734990  0.743869  1
  Cu  Cu10  1  0.999971  0.999971  0.971910  1
  Si  Si11  1  0.000158  0.000158  0.520364  1
  Sn  Sn12  1  0.385350  0.000475  0.754189  1
  Sn  Sn13  1  0.000475  0.385350  0.754189  1
  Bi  Bi14  1  0.394134  0.394134  0.247760  1
  Bi  Bi15  1  0.604658  0.999231  0.245977  1
  Bi  Bi16  1  0.999231  0.604658  0.245977  1
  Bi  Bi17  1  0.615581  0.615581  0.754974  1
