# generated using pymatgen
data_YbCe3S8
_symmetry_space_group_name_H-M   'P 1'
_cell_length_a   7.98172044
_cell_length_b   4.01405447
_cell_length_c   8.02002613
_cell_angle_alpha   89.61816579
_cell_angle_beta   89.93529188
_cell_angle_gamma   90.03670942
_symmetry_Int_Tables_number   1
_chemical_formula_structural   YbCe3S8
_chemical_formula_sum   'Yb1 Ce3 S8'
_cell_volume   256.94817950
_cell_formula_units_Z   1
loop_
 _symmetry_equiv_pos_site_id
 _symmetry_equiv_pos_as_xyz
  1  'x, y, z'
loop_
 _atom_site_type_symbol
 _atom_site_label
 _atom_site_symmetry_multiplicity
 _atom_site_fract_x
 _atom_site_fract_y
 _atom_site_fract_z
 _atom_site_occupancy
  Yb  Yb0  1  0.870224  0.213413  0.280900  1
  Ce  Ce1  1  0.370070  0.285801  0.280015  1
  Ce  Ce2  1  0.631482  0.713600  0.722844  1
  Ce  Ce3  1  0.127510  0.785624  0.723232  1
  S  S4  1  0.390212  0.842561  0.999420  1
  S  S5  1  0.894075  0.656744  0.000019  1
  S  S6  1  0.131888  0.765365  0.366502  1
  S  S7  1  0.619238  0.738847  0.366375  1
  S  S8  1  0.875674  0.237374  0.635814  1
  S  S9  1  0.373016  0.262373  0.637800  1
  S  S10  1  0.609300  0.157009  0.994752  1
  S  S11  1  0.107307  0.341287  0.992328  1
