# generated using pymatgen
data_Ti10CuSn5Sb2
_symmetry_space_group_name_H-M   'P 1'
_cell_length_a   5.59133594
_cell_length_b   8.32144411
_cell_length_c   8.30369092
_cell_angle_alpha   120.07075102
_cell_angle_beta   90.03670163
_cell_angle_gamma   89.92674208
_symmetry_Int_Tables_number   1
_chemical_formula_structural   Ti10CuSn5Sb2
_chemical_formula_sum   'Ti10 Cu1 Sn5 Sb2'
_cell_volume   334.35334647
_cell_formula_units_Z   1
loop_
 _symmetry_equiv_pos_site_id
 _symmetry_equiv_pos_as_xyz
  1  'x, y, z'
loop_
 _atom_site_type_symbol
 _atom_site_label
 _atom_site_symmetry_multiplicity
 _atom_site_fract_x
 _atom_site_fract_y
 _atom_site_fract_z
 _atom_site_occupancy
  Ti  Ti0  1  0.499479  0.334518  0.668072  1
  Ti  Ti1  1  0.499479  0.666446  0.331928  1
  Ti  Ti2  1  0.000342  0.666473  0.331839  1
  Ti  Ti3  1  0.000342  0.334633  0.668161  1
  Ti  Ti4  1  0.738628  0.274337  0.000000  1
  Ti  Ti5  1  0.738509  0.726611  0.728700  1
  Ti  Ti6  1  0.738509  0.997911  0.271300  1
  Ti  Ti7  1  0.261261  0.725122  0.000000  1
  Ti  Ti8  1  0.262105  0.274008  0.274204  1
  Ti  Ti9  1  0.262105  0.999804  0.725796  1
  Cu  Cu10  1  0.498594  0.001716  0.000000  1
  Sn  Sn11  1  0.751970  0.387316  0.387705  1
  Sn  Sn12  1  0.751970  0.999610  0.612295  1
  Sn  Sn13  1  0.248362  0.384800  0.000000  1
  Sn  Sn14  1  0.248524  0.613430  0.612366  1
  Sn  Sn15  1  0.248524  0.001064  0.387634  1
  Sb  Sb16  1  0.749890  0.611251  0.000000  1
  Sb  Sb17  1  0.001407  0.000951  0.000000  1
