# generated using pymatgen
data_Sr3Sm(Al8Pt3)3
_symmetry_space_group_name_H-M   'P 1'
_cell_length_a   7.58356777
_cell_length_b   7.59178422
_cell_length_c   13.45757400
_cell_angle_alpha   84.66971596
_cell_angle_beta   100.88970470
_cell_angle_gamma   119.77144276
_symmetry_Int_Tables_number   1
_chemical_formula_structural   Sr3Sm(Al8Pt3)3
_chemical_formula_sum   'Sr3 Sm1 Al24 Pt9'
_cell_volume   660.41732596
_cell_formula_units_Z   1
loop_
 _symmetry_equiv_pos_site_id
 _symmetry_equiv_pos_as_xyz
  1  'x, y, z'
loop_
 _atom_site_type_symbol
 _atom_site_label
 _atom_site_symmetry_multiplicity
 _atom_site_fract_x
 _atom_site_fract_y
 _atom_site_fract_z
 _atom_site_occupancy
  Sr  Sr0  1  0.562752  0.168576  0.192491  1
  Sr  Sr1  1  0.767581  0.501854  0.806881  1
  Sr  Sr2  1  0.231446  0.497726  0.192364  1
  Sm  Sm3  1  0.436259  0.830923  0.805570  1
  Al  Al4  1  0.480368  0.165706  0.946442  1
  Al  Al5  1  0.521931  0.834205  0.048592  1
  Al  Al6  1  0.022024  0.168636  0.560341  1
  Al  Al7  1  0.979819  0.831427  0.442995  1
  Al  Al8  1  0.353914  0.833309  0.558828  1
  Al  Al9  1  0.646289  0.166309  0.443842  1
  Al  Al10  1  0.622714  0.834721  0.337930  1
  Al  Al11  1  0.379717  0.164904  0.666527  1
  Al  Al12  1  0.055390  0.492049  0.665771  1
  Al  Al13  1  0.946673  0.509084  0.337883  1
  Al  Al14  1  0.732304  0.842983  0.665613  1
  Al  Al15  1  0.269476  0.156894  0.340067  1
  Al  Al16  1  0.149453  0.499253  0.947531  1
  Al  Al17  1  0.850679  0.505694  0.049082  1
  Al  Al18  1  0.816578  0.834034  0.953415  1
  Al  Al19  1  0.175281  0.162955  0.035878  1
  Al  Al20  1  0.315500  0.501146  0.443336  1
  Al  Al21  1  0.684648  0.498258  0.558441  1
  Al  Al22  1  0.097944  0.834305  0.183716  1
  Al  Al23  1  0.896027  0.157245  0.815827  1
  Al  Al24  1  0.300798  0.370580  0.814286  1
  Al  Al25  1  0.695302  0.634024  0.184722  1
  Al  Al26  1  0.109579  0.965449  0.814752  1
  Al  Al27  1  0.895987  0.036215  0.184201  1
  Pt  Pt28  1  0.386025  0.506971  0.636611  1
  Pt  Pt29  1  0.616449  0.494513  0.365923  1
  Pt  Pt30  1  0.171762  0.830170  0.997823  1
  Pt  Pt31  1  0.828801  0.171667  0.998523  1
  Pt  Pt32  1  0.294343  0.832774  0.365872  1
  Pt  Pt33  1  0.705481  0.166655  0.636840  1
  Pt  Pt34  1  0.047274  0.827159  0.635967  1
  Pt  Pt35  1  0.954820  0.171886  0.367290  1
  Pt  Pt36  1  0.498615  0.499744  0.997830  1
