# generated using pymatgen
data_Sr4Cd17(InAu4)3
_symmetry_space_group_name_H-M   'P 1'
_cell_length_a   4.56942400
_cell_length_b   13.05053203
_cell_length_c   14.25185007
_cell_angle_alpha   89.99013967
_cell_angle_beta   90.00000000
_cell_angle_gamma   90.00000000
_symmetry_Int_Tables_number   1
_chemical_formula_structural   Sr4Cd17(InAu4)3
_chemical_formula_sum   'Sr4 Cd17 In3 Au12'
_cell_volume   849.88646716
_cell_formula_units_Z   1
loop_
 _symmetry_equiv_pos_site_id
 _symmetry_equiv_pos_as_xyz
  1  'x, y, z'
loop_
 _atom_site_type_symbol
 _atom_site_label
 _atom_site_symmetry_multiplicity
 _atom_site_fract_x
 _atom_site_fract_y
 _atom_site_fract_z
 _atom_site_occupancy
  Sr  Sr0  1  0.250000  0.900018  0.295436  1
  Sr  Sr1  1  0.750000  0.100907  0.705725  1
  Sr  Sr2  1  0.750000  0.397523  0.206149  1
  Sr  Sr3  1  0.250000  0.600568  0.795701  1
  Cd  Cd4  1  0.250000  0.414515  0.002485  1
  Cd  Cd5  1  0.750000  0.585745  0.997193  1
  Cd  Cd6  1  0.750000  0.913473  0.497876  1
  Cd  Cd7  1  0.250000  0.087153  0.499340  1
  Cd  Cd8  1  0.250000  0.606317  0.323458  1
  Cd  Cd9  1  0.750000  0.393921  0.676183  1
  Cd  Cd10  1  0.750000  0.108342  0.178844  1
  Cd  Cd11  1  0.250000  0.894664  0.823628  1
  Cd  Cd12  1  0.250000  0.012599  0.068986  1
  Cd  Cd13  1  0.750000  0.989294  0.932598  1
  Cd  Cd14  1  0.750000  0.512019  0.432717  1
  Cd  Cd15  1  0.250000  0.488861  0.569384  1
  Cd  Cd16  1  0.250000  0.778326  0.020307  1
  Cd  Cd17  1  0.750000  0.220947  0.978742  1
  Cd  Cd18  1  0.750000  0.276135  0.476122  1
  Cd  Cd19  1  0.250000  0.721385  0.520973  1
  Cd  Cd20  1  0.250000  0.190610  0.306354  1
  In  In21  1  0.750000  0.809036  0.693622  1
  In  In22  1  0.750000  0.691141  0.193391  1
  In  In23  1  0.250000  0.307638  0.806512  1
  Au  Au24  1  0.250000  0.585911  0.124262  1
  Au  Au25  1  0.750000  0.413521  0.875719  1
  Au  Au26  1  0.750000  0.082431  0.375797  1
  Au  Au27  1  0.250000  0.914598  0.623124  1
  Au  Au28  1  0.250000  0.229767  0.108655  1
  Au  Au29  1  0.750000  0.771832  0.890490  1
  Au  Au30  1  0.750000  0.728839  0.390862  1
  Au  Au31  1  0.250000  0.271280  0.608035  1
  Au  Au32  1  0.250000  0.387701  0.384310  1
  Au  Au33  1  0.750000  0.613486  0.618024  1
  Au  Au34  1  0.750000  0.886311  0.116843  1
  Au  Au35  1  0.250000  0.113185  0.882153  1
