# generated using pymatgen
data_Dy8Mg2Sc9Si16Mo
_symmetry_space_group_name_H-M   'P 1'
_cell_length_a   6.98045288
_cell_length_b   7.37742945
_cell_length_c   13.89896600
_cell_angle_alpha   90.00000000
_cell_angle_beta   90.00000000
_cell_angle_gamma   89.64639922
_symmetry_Int_Tables_number   1
_chemical_formula_structural   Dy8Mg2Sc9Si16Mo
_chemical_formula_sum   'Dy8 Mg2 Sc9 Si16 Mo1'
_cell_volume   715.75252121
_cell_formula_units_Z   1
loop_
 _symmetry_equiv_pos_site_id
 _symmetry_equiv_pos_as_xyz
  1  'x, y, z'
loop_
 _atom_site_type_symbol
 _atom_site_label
 _atom_site_symmetry_multiplicity
 _atom_site_fract_x
 _atom_site_fract_y
 _atom_site_fract_z
 _atom_site_occupancy
  Dy  Dy0  1  0.013531  0.176186  0.098655  1
  Dy  Dy1  1  0.988281  0.821312  0.904193  1
  Dy  Dy2  1  0.484890  0.676401  0.906080  1
  Dy  Dy3  1  0.988281  0.821312  0.595807  1
  Dy  Dy4  1  0.511198  0.319402  0.099053  1
  Dy  Dy5  1  0.013531  0.176186  0.401345  1
  Dy  Dy6  1  0.511198  0.319402  0.400947  1
  Dy  Dy7  1  0.484890  0.676401  0.593920  1
  Mg  Mg8  1  0.155299  0.503678  0.750000  1
  Mg  Mg9  1  0.843415  0.493921  0.250000  1
  Sc  Sc10  1  0.656400  0.997050  0.750000  1
  Sc  Sc11  1  0.324952  0.178556  0.623200  1
  Sc  Sc12  1  0.674092  0.824849  0.372360  1
  Sc  Sc13  1  0.171939  0.679102  0.373432  1
  Sc  Sc14  1  0.674092  0.824849  0.127640  1
  Sc  Sc15  1  0.829055  0.325014  0.624760  1
  Sc  Sc16  1  0.324952  0.178556  0.876800  1
  Sc  Sc17  1  0.829055  0.325014  0.875240  1
  Sc  Sc18  1  0.171939  0.679102  0.126568  1
  Si  Si19  1  0.027751  0.104391  0.750000  1
  Si  Si20  1  0.981296  0.905049  0.250000  1
  Si  Si21  1  0.463736  0.621863  0.250000  1
  Si  Si22  1  0.532154  0.384800  0.750000  1
  Si  Si23  1  0.286699  0.881447  0.750000  1
  Si  Si24  1  0.707292  0.117463  0.250000  1
  Si  Si25  1  0.226486  0.365203  0.250000  1
  Si  Si26  1  0.773834  0.629404  0.750000  1
  Si  Si27  1  0.156067  0.461170  0.532766  1
  Si  Si28  1  0.840507  0.537245  0.463579  1
  Si  Si29  1  0.346570  0.966979  0.452492  1
  Si  Si30  1  0.840507  0.537245  0.036421  1
  Si  Si31  1  0.657879  0.034042  0.537420  1
  Si  Si32  1  0.156067  0.461170  0.967234  1
  Si  Si33  1  0.657879  0.034042  0.962580  1
  Si  Si34  1  0.346570  0.966979  0.047508  1
  Mo  Mo35  1  0.347715  0.995209  0.250000  1
