# generated using pymatgen
data_CaEu(ZnAu2)3
_symmetry_space_group_name_H-M   'P 1'
_cell_length_a   8.84366837
_cell_length_b   8.84366869
_cell_length_c   8.84366800
_cell_angle_alpha   57.23007712
_cell_angle_beta   57.23007581
_cell_angle_gamma   57.23008325
_symmetry_Int_Tables_number   1
_chemical_formula_structural   CaEu(ZnAu2)3
_chemical_formula_sum   'Ca2 Eu2 Zn6 Au12'
_cell_volume   457.88190336
_cell_formula_units_Z   2
loop_
 _symmetry_equiv_pos_site_id
 _symmetry_equiv_pos_as_xyz
  1  'x, y, z'
loop_
 _atom_site_type_symbol
 _atom_site_label
 _atom_site_symmetry_multiplicity
 _atom_site_fract_x
 _atom_site_fract_y
 _atom_site_fract_z
 _atom_site_occupancy
  Ca  Ca0  1  0.092327  0.092327  0.092327  1
  Ca  Ca1  1  0.592327  0.592327  0.592327  1
  Eu  Eu2  1  0.907373  0.907373  0.907373  1
  Eu  Eu3  1  0.407373  0.407373  0.407373  1
  Zn  Zn4  1  0.558728  0.750095  0.940930  1
  Zn  Zn5  1  0.940930  0.558728  0.750095  1
  Zn  Zn6  1  0.750095  0.940930  0.558728  1
  Zn  Zn7  1  0.440930  0.250095  0.058728  1
  Zn  Zn8  1  0.058728  0.440930  0.250095  1
  Zn  Zn9  1  0.250095  0.058728  0.440930  1
  Au  Au10  1  0.481391  0.861802  0.206803  1
  Au  Au11  1  0.206803  0.481391  0.861802  1
  Au  Au12  1  0.861802  0.206803  0.481391  1
  Au  Au13  1  0.706803  0.361802  0.981391  1
  Au  Au14  1  0.981391  0.706803  0.361802  1
  Au  Au15  1  0.361802  0.981391  0.706803  1
  Au  Au16  1  0.517905  0.139014  0.793630  1
  Au  Au17  1  0.793630  0.517905  0.139014  1
  Au  Au18  1  0.139014  0.793630  0.517905  1
  Au  Au19  1  0.293630  0.639014  0.017905  1
  Au  Au20  1  0.017905  0.293630  0.639014  1
  Au  Au21  1  0.639014  0.017905  0.293630  1
