# generated using pymatgen
data_Er3TmTi2O10
_symmetry_space_group_name_H-M   'P 1'
_cell_length_a   3.66895800
_cell_length_b   10.33496117
_cell_length_c   11.25438618
_cell_angle_alpha   90.02039140
_cell_angle_beta   90.00000000
_cell_angle_gamma   90.00000000
_symmetry_Int_Tables_number   1
_chemical_formula_structural   Er3TmTi2O10
_chemical_formula_sum   'Er6 Tm2 Ti4 O20'
_cell_volume   426.74984790
_cell_formula_units_Z   2
loop_
 _symmetry_equiv_pos_site_id
 _symmetry_equiv_pos_as_xyz
  1  'x, y, z'
loop_
 _atom_site_type_symbol
 _atom_site_label
 _atom_site_symmetry_multiplicity
 _atom_site_fract_x
 _atom_site_fract_y
 _atom_site_fract_z
 _atom_site_occupancy
  Er  Er0  1  0.250000  0.117401  0.275431  1
  Er  Er1  1  0.250000  0.134786  0.943800  1
  Er  Er2  1  0.750000  0.364178  0.444151  1
  Er  Er3  1  0.750000  0.382384  0.775868  1
  Er  Er4  1  0.250000  0.618142  0.223991  1
  Er  Er5  1  0.250000  0.636044  0.556096  1
  Tm  Tm6  1  0.750000  0.863857  0.055366  1
  Tm  Tm7  1  0.750000  0.881889  0.724710  1
  Ti  Ti8  1  0.250000  0.171889  0.618807  1
  Ti  Ti9  1  0.750000  0.327365  0.118177  1
  Ti  Ti10  1  0.250000  0.673005  0.881392  1
  Ti  Ti11  1  0.750000  0.827819  0.381588  1
  O  O12  1  0.750000  0.004852  0.894762  1
  O  O13  1  0.250000  0.003530  0.655802  1
  O  O14  1  0.250000  0.223825  0.455673  1
  O  O15  1  0.750000  0.238165  0.615864  1
  O  O16  1  0.750000  0.245312  0.270965  1
  O  O17  1  0.250000  0.254662  0.771177  1
  O  O18  1  0.250000  0.261175  0.115474  1
  O  O19  1  0.750000  0.275078  0.955565  1
  O  O20  1  0.750000  0.496087  0.153726  1
  O  O21  1  0.250000  0.493949  0.394808  1
  O  O22  1  0.750000  0.506567  0.605176  1
  O  O23  1  0.250000  0.504400  0.845776  1
  O  O24  1  0.250000  0.725350  0.044102  1
  O  O25  1  0.750000  0.738860  0.884156  1
  O  O26  1  0.750000  0.746396  0.228252  1
  O  O27  1  0.250000  0.755800  0.729081  1
  O  O28  1  0.250000  0.761631  0.384298  1
  O  O29  1  0.750000  0.776835  0.544940  1
  O  O30  1  0.750000  0.996126  0.346299  1
  O  O31  1  0.250000  0.992640  0.104727  1
