# generated using pymatgen
data_Sm4Gd2RuI10
_symmetry_space_group_name_H-M   'P 1'
_cell_length_a   7.83703192
_cell_length_b   9.85966971
_cell_length_c   9.87251000
_cell_angle_alpha   106.97023020
_cell_angle_beta   96.37396822
_cell_angle_gamma   104.51045082
_symmetry_Int_Tables_number   1
_chemical_formula_structural   Sm4Gd2RuI10
_chemical_formula_sum   'Sm4 Gd2 Ru1 I10'
_cell_volume   692.25311916
_cell_formula_units_Z   1
loop_
 _symmetry_equiv_pos_site_id
 _symmetry_equiv_pos_as_xyz
  1  'x, y, z'
loop_
 _atom_site_type_symbol
 _atom_site_label
 _atom_site_symmetry_multiplicity
 _atom_site_fract_x
 _atom_site_fract_y
 _atom_site_fract_z
 _atom_site_occupancy
  Sm  Sm0  1  0.116608  0.042524  0.760023  1
  Sm  Sm1  1  0.883392  0.957476  0.239977  1
  Sm  Sm2  1  0.969054  0.281615  0.084305  1
  Sm  Sm3  1  0.030946  0.718385  0.915695  1
  Gd  Gd4  1  0.352045  0.123218  0.166187  1
  Gd  Gd5  1  0.647955  0.876782  0.833813  1
  Ru  Ru6  1  0.000000  0.000000  0.000000  1
  I  I7  1  0.546070  0.184106  0.908615  1
  I  I8  1  0.453930  0.815894  0.091385  1
  I  I9  1  0.351705  0.446380  0.271163  1
  I  I10  1  0.648295  0.553620  0.728837  1
  I  I11  1  0.257492  0.086230  0.457878  1
  I  I12  1  0.742508  0.913770  0.542122  1
  I  I13  1  0.774921  0.255386  0.346167  1
  I  I14  1  0.225079  0.744614  0.653833  1
  I  I15  1  0.088714  0.371314  0.820325  1
  I  I16  1  0.911286  0.628686  0.179675  1
