# generated using pymatgen
data_Y5Ho3ReTc3C8
_symmetry_space_group_name_H-M   'P 1'
_cell_length_a   5.10446600
_cell_length_b   6.58040806
_cell_length_c   9.87359056
_cell_angle_alpha   89.98873021
_cell_angle_beta   90.00000000
_cell_angle_gamma   90.00000000
_symmetry_Int_Tables_number   1
_chemical_formula_structural   Y5Ho3ReTc3C8
_chemical_formula_sum   'Y5 Ho3 Re1 Tc3 C8'
_cell_volume   331.64865974
_cell_formula_units_Z   1
loop_
 _symmetry_equiv_pos_site_id
 _symmetry_equiv_pos_as_xyz
  1  'x, y, z'
loop_
 _atom_site_type_symbol
 _atom_site_label
 _atom_site_symmetry_multiplicity
 _atom_site_fract_x
 _atom_site_fract_y
 _atom_site_fract_z
 _atom_site_occupancy
  Y  Y0  1  0.250000  0.465340  0.784240  1
  Y  Y1  1  0.750000  0.033534  0.283955  1
  Y  Y2  1  0.250000  0.966144  0.715582  1
  Y  Y3  1  0.750000  0.533276  0.214771  1
  Y  Y4  1  0.750000  0.676831  0.556965  1
  Ho  Ho5  1  0.250000  0.823742  0.057535  1
  Ho  Ho6  1  0.250000  0.323886  0.441699  1
  Ho  Ho7  1  0.750000  0.177268  0.942189  1
  Re  Re8  1  0.750000  0.719047  0.866549  1
  Tc  Tc9  1  0.250000  0.281040  0.133688  1
  Tc  Tc10  1  0.750000  0.219609  0.634319  1
  Tc  Tc11  1  0.250000  0.781186  0.365254  1
  C  C12  1  0.250000  0.176155  0.952078  1
  C  C13  1  0.750000  0.823194  0.049208  1
  C  C14  1  0.250000  0.676968  0.547146  1
  C  C15  1  0.750000  0.321503  0.452267  1
  C  C16  1  0.250000  0.048739  0.258389  1
  C  C17  1  0.750000  0.452112  0.760782  1
  C  C18  1  0.250000  0.548787  0.240843  1
  C  C19  1  0.750000  0.951636  0.742544  1
