# generated using pymatgen
data_K3W(SO4)4
_symmetry_space_group_name_H-M   'P 1'
_cell_length_a   7.95550200
_cell_length_b   12.43630100
_cell_length_c   14.51545900
_cell_angle_alpha   90.00000000
_cell_angle_beta   90.00000000
_cell_angle_gamma   90.00000000
_symmetry_Int_Tables_number   1
_chemical_formula_structural   K3W(SO4)4
_chemical_formula_sum   'K12 W4 S16 O64'
_cell_volume   1436.11622079
_cell_formula_units_Z   4
loop_
 _symmetry_equiv_pos_site_id
 _symmetry_equiv_pos_as_xyz
  1  'x, y, z'
loop_
 _atom_site_type_symbol
 _atom_site_label
 _atom_site_symmetry_multiplicity
 _atom_site_fract_x
 _atom_site_fract_y
 _atom_site_fract_z
 _atom_site_occupancy
  K  K0  1  0.865325  0.750000  0.930825  1
  K  K1  1  0.365325  0.750000  0.569175  1
  K  K2  1  0.605834  0.487430  0.730170  1
  K  K3  1  0.634675  0.250000  0.430825  1
  K  K4  1  0.105834  0.487430  0.769830  1
  K  K5  1  0.894166  0.987430  0.230170  1
  K  K6  1  0.605834  0.012570  0.730170  1
  K  K7  1  0.394166  0.987430  0.269830  1
  K  K8  1  0.394166  0.512570  0.269830  1
  K  K9  1  0.105834  0.012570  0.769830  1
  K  K10  1  0.134675  0.250000  0.069175  1
  K  K11  1  0.894166  0.512570  0.230170  1
  W  W12  1  0.150171  0.250000  0.510493  1
  W  W13  1  0.849829  0.750000  0.489507  1
  W  W14  1  0.349829  0.750000  0.010493  1
  W  W15  1  0.650171  0.250000  0.989507  1
  S  S16  1  0.570590  0.750000  0.161815  1
  S  S17  1  0.729376  0.539692  0.474629  1
  S  S18  1  0.876257  0.750000  0.684327  1
  S  S19  1  0.229376  0.539692  0.025371  1
  S  S20  1  0.376257  0.750000  0.815673  1
  S  S21  1  0.929410  0.250000  0.661815  1
  S  S22  1  0.229376  0.960308  0.025371  1
  S  S23  1  0.123743  0.250000  0.315673  1
  S  S24  1  0.623743  0.250000  0.184327  1
  S  S25  1  0.070590  0.750000  0.338185  1
  S  S26  1  0.729376  0.960308  0.474629  1
  S  S27  1  0.429410  0.250000  0.838185  1
  S  S28  1  0.770624  0.039692  0.974629  1
  S  S29  1  0.270624  0.039692  0.525371  1
  S  S30  1  0.770624  0.460308  0.974629  1
  S  S31  1  0.270624  0.460308  0.525371  1
  O  O32  1  0.661956  0.017042  0.553035  1
  O  O33  1  0.884026  0.847632  0.739192  1
  O  O34  1  0.869167  0.348347  0.703620  1
  O  O35  1  0.726087  0.021240  0.389421  1
  O  O36  1  0.511019  0.750000  0.892331  1
  O  O37  1  0.905115  0.914704  0.495625  1
  O  O38  1  0.594885  0.085296  0.995625  1
  O  O39  1  0.615974  0.347632  0.239192  1
  O  O40  1  0.726087  0.478760  0.389421  1
  O  O41  1  0.779209  0.250000  0.121198  1
  O  O42  1  0.358097  0.151361  0.539366  1
  O  O43  1  0.858097  0.348639  0.960634  1
  O  O44  1  0.376424  0.750000  0.156126  1
  O  O45  1  0.896518  0.250000  0.556167  1
  O  O46  1  0.161956  0.017042  0.946965  1
  O  O47  1  0.384026  0.847632  0.760808  1
  O  O48  1  0.103482  0.750000  0.443833  1
  O  O49  1  0.615974  0.152368  0.239192  1
  O  O50  1  0.369167  0.151653  0.796380  1
  O  O51  1  0.773913  0.521240  0.889421  1
  O  O52  1  0.858097  0.151361  0.960634  1
  O  O53  1  0.405115  0.585296  0.004375  1
  O  O54  1  0.273913  0.521240  0.610579  1
  O  O55  1  0.623576  0.250000  0.843874  1
  O  O56  1  0.226087  0.021240  0.110579  1
  O  O57  1  0.773913  0.978760  0.889421  1
  O  O58  1  0.094885  0.414704  0.504375  1
  O  O59  1  0.141903  0.848639  0.039366  1
  O  O60  1  0.661956  0.482958  0.553035  1
  O  O61  1  0.011019  0.750000  0.607669  1
  O  O62  1  0.226087  0.478760  0.110579  1
  O  O63  1  0.094885  0.085296  0.504375  1
  O  O64  1  0.338044  0.517042  0.446965  1
  O  O65  1  0.630833  0.651653  0.203620  1
  O  O66  1  0.273913  0.978760  0.610579  1
  O  O67  1  0.115974  0.347632  0.260808  1
  O  O68  1  0.141903  0.651361  0.039366  1
  O  O69  1  0.641903  0.651361  0.460634  1
  O  O70  1  0.338044  0.982958  0.446965  1
  O  O71  1  0.161956  0.482958  0.946965  1
  O  O72  1  0.720791  0.750000  0.621198  1
  O  O73  1  0.630833  0.848347  0.203620  1
  O  O74  1  0.279209  0.250000  0.378802  1
  O  O75  1  0.396518  0.250000  0.943833  1
  O  O76  1  0.869167  0.151653  0.703620  1
  O  O77  1  0.838044  0.517042  0.053035  1
  O  O78  1  0.123576  0.250000  0.656126  1
  O  O79  1  0.641903  0.848639  0.460634  1
  O  O80  1  0.130833  0.651653  0.296380  1
  O  O81  1  0.115974  0.152368  0.260808  1
  O  O82  1  0.876424  0.750000  0.343874  1
  O  O83  1  0.884026  0.652368  0.739192  1
  O  O84  1  0.603482  0.750000  0.056167  1
  O  O85  1  0.905115  0.585296  0.495625  1
  O  O86  1  0.488981  0.250000  0.107669  1
  O  O87  1  0.358097  0.348639  0.539366  1
  O  O88  1  0.130833  0.848347  0.296380  1
  O  O89  1  0.594885  0.414704  0.995625  1
  O  O90  1  0.220791  0.750000  0.878802  1
  O  O91  1  0.988981  0.250000  0.392331  1
  O  O92  1  0.838044  0.982958  0.053035  1
  O  O93  1  0.369167  0.348347  0.796380  1
  O  O94  1  0.384026  0.652368  0.760808  1
  O  O95  1  0.405115  0.914704  0.004375  1
