# generated using pymatgen
data_Ti4Ga2CN
_symmetry_space_group_name_H-M   'P 1'
_cell_length_a   3.05576200
_cell_length_b   3.05576242
_cell_length_c   13.33114800
_cell_angle_alpha   90.00000000
_cell_angle_beta   90.00000000
_cell_angle_gamma   119.99999550
_symmetry_Int_Tables_number   1
_chemical_formula_structural   Ti4Ga2CN
_chemical_formula_sum   'Ti4 Ga2 C1 N1'
_cell_volume   107.80460489
_cell_formula_units_Z   1
loop_
 _symmetry_equiv_pos_site_id
 _symmetry_equiv_pos_as_xyz
  1  'x, y, z'
loop_
 _atom_site_type_symbol
 _atom_site_label
 _atom_site_symmetry_multiplicity
 _atom_site_fract_x
 _atom_site_fract_y
 _atom_site_fract_z
 _atom_site_occupancy
  Ti  Ti0  1  0.666667  0.333333  0.415476  1
  Ti  Ti1  1  0.333333  0.666667  0.584524  1
  Ti  Ti2  1  0.333333  0.666667  0.913957  1
  Ti  Ti3  1  0.666667  0.333333  0.086043  1
  Ga  Ga4  1  0.666667  0.333333  0.748831  1
  Ga  Ga5  1  0.333333  0.666667  0.251169  1
  C  C6  1  0.000000  0.000000  0.000000  1
  N  N7  1  0.000000  0.000000  0.500000  1
