# generated using pymatgen
data_La5Nd3(Si3Pt)4
_symmetry_space_group_name_H-M   'P 1'
_cell_length_a   8.27874000
_cell_length_b   8.27874073
_cell_length_c   8.74146300
_cell_angle_alpha   90.00000000
_cell_angle_beta   90.00000000
_cell_angle_gamma   119.99999706
_symmetry_Int_Tables_number   1
_chemical_formula_structural   La5Nd3(Si3Pt)4
_chemical_formula_sum   'La5 Nd3 Si12 Pt4'
_cell_volume   518.85175935
_cell_formula_units_Z   1
loop_
 _symmetry_equiv_pos_site_id
 _symmetry_equiv_pos_as_xyz
  1  'x, y, z'
loop_
 _atom_site_type_symbol
 _atom_site_label
 _atom_site_symmetry_multiplicity
 _atom_site_fract_x
 _atom_site_fract_y
 _atom_site_fract_z
 _atom_site_occupancy
  La  La0  1  0.499776  0.500224  0.750000  1
  La  La1  1  0.000448  0.500224  0.750000  1
  La  La2  1  0.499776  0.999552  0.750000  1
  La  La3  1  0.000000  0.000000  0.750000  1
  La  La4  1  0.000000  0.000000  0.250000  1
  Nd  Nd5  1  0.500228  0.499772  0.250000  1
  Nd  Nd6  1  0.999545  0.499772  0.250000  1
  Nd  Nd7  1  0.500228  0.000455  0.250000  1
  Si  Si8  1  0.834069  0.165931  0.001171  1
  Si  Si9  1  0.165932  0.834068  0.002500  1
  Si  Si10  1  0.331863  0.165931  0.001171  1
  Si  Si11  1  0.165932  0.834068  0.497500  1
  Si  Si12  1  0.668136  0.834068  0.002500  1
  Si  Si13  1  0.834069  0.165931  0.498829  1
  Si  Si14  1  0.834069  0.668137  0.001171  1
  Si  Si15  1  0.668136  0.834068  0.497500  1
  Si  Si16  1  0.165932  0.331864  0.002500  1
  Si  Si17  1  0.331863  0.165931  0.498829  1
  Si  Si18  1  0.165932  0.331864  0.497500  1
  Si  Si19  1  0.834069  0.668137  0.498829  1
  Pt  Pt20  1  0.666667  0.333333  0.003280  1
  Pt  Pt21  1  0.333333  0.666667  0.003649  1
  Pt  Pt22  1  0.333333  0.666667  0.496351  1
  Pt  Pt23  1  0.666667  0.333333  0.496720  1
