# generated using pymatgen
data_HoNp2(SnIr)3
_symmetry_space_group_name_H-M   'P 1'
_cell_length_a   7.47301040
_cell_length_b   7.34254878
_cell_length_c   3.96025600
_cell_angle_alpha   90.00000000
_cell_angle_beta   90.00000000
_cell_angle_gamma   119.42416998
_symmetry_Int_Tables_number   1
_chemical_formula_structural   HoNp2(SnIr)3
_chemical_formula_sum   'Ho1 Np2 Sn3 Ir3'
_cell_volume   189.27234266
_cell_formula_units_Z   1
loop_
 _symmetry_equiv_pos_site_id
 _symmetry_equiv_pos_as_xyz
  1  'x, y, z'
loop_
 _atom_site_type_symbol
 _atom_site_label
 _atom_site_symmetry_multiplicity
 _atom_site_fract_x
 _atom_site_fract_y
 _atom_site_fract_z
 _atom_site_occupancy
  Ho  Ho0  1  0.000000  0.592597  0.500000  1
  Np  Np1  1  0.586294  0.000157  0.500000  1
  Np  Np2  1  0.413706  0.413862  0.500000  1
  Sn  Sn3  1  0.000000  0.263909  0.000000  1
  Sn  Sn4  1  0.751640  0.743262  0.000000  1
  Sn  Sn5  1  0.248360  0.991622  0.000000  1
  Ir  Ir6  1  0.351855  0.668656  0.000000  1
  Ir  Ir7  1  0.000000  0.009134  0.500000  1
  Ir  Ir8  1  0.648145  0.316800  0.000000  1
