# generated using pymatgen
data_LaTbNd2CdIr
_symmetry_space_group_name_H-M   'P 1'
_cell_length_a   9.93762463
_cell_length_b   9.93762502
_cell_length_c   9.93757400
_cell_angle_alpha   60.00016983
_cell_angle_beta   60.00016854
_cell_angle_gamma   59.99966049
_symmetry_Int_Tables_number   1
_chemical_formula_structural   LaTbNd2CdIr
_chemical_formula_sum   'La4 Tb4 Nd8 Cd4 Ir4'
_cell_volume   693.95381504
_cell_formula_units_Z   4
loop_
 _symmetry_equiv_pos_site_id
 _symmetry_equiv_pos_as_xyz
  1  'x, y, z'
loop_
 _atom_site_type_symbol
 _atom_site_label
 _atom_site_symmetry_multiplicity
 _atom_site_fract_x
 _atom_site_fract_y
 _atom_site_fract_z
 _atom_site_occupancy
  La  La0  1  0.349195  0.349195  0.347489  1
  La  La1  1  0.349195  0.349195  0.954121  1
  La  La2  1  0.347489  0.954121  0.349195  1
  La  La3  1  0.954121  0.347489  0.349195  1
  Tb  Tb4  1  0.812040  0.187960  0.187960  1
  Tb  Tb5  1  0.187960  0.812040  0.812040  1
  Tb  Tb6  1  0.187960  0.812040  0.187960  1
  Tb  Tb7  1  0.812040  0.187960  0.812040  1
  Nd  Nd8  1  0.187407  0.187407  0.812593  1
  Nd  Nd9  1  0.812593  0.812593  0.187407  1
  Nd  Nd10  1  0.937745  0.562255  0.562255  1
  Nd  Nd11  1  0.562255  0.937745  0.937745  1
  Nd  Nd12  1  0.562255  0.937745  0.562255  1
  Nd  Nd13  1  0.937745  0.562255  0.937745  1
  Nd  Nd14  1  0.562246  0.562246  0.937754  1
  Nd  Nd15  1  0.937754  0.937754  0.562246  1
  Cd  Cd16  1  0.579704  0.579704  0.580957  1
  Cd  Cd17  1  0.579704  0.579704  0.259633  1
  Cd  Cd18  1  0.580957  0.259633  0.579704  1
  Cd  Cd19  1  0.259633  0.580957  0.579704  1
  Ir  Ir20  1  0.139287  0.139287  0.142842  1
  Ir  Ir21  1  0.139287  0.139287  0.578582  1
  Ir  Ir22  1  0.142842  0.578582  0.139287  1
  Ir  Ir23  1  0.578582  0.142842  0.139287  1
