# generated using pymatgen
data_Pr8Dy2Ir5Ru
_symmetry_space_group_name_H-M   'P 1'
_cell_length_a   11.25105600
_cell_length_b   11.25105600
_cell_length_c   6.59128000
_cell_angle_alpha   90.00000000
_cell_angle_beta   90.00000000
_cell_angle_gamma   90.00000000
_symmetry_Int_Tables_number   1
_chemical_formula_structural   Pr8Dy2Ir5Ru
_chemical_formula_sum   'Pr16 Dy4 Ir10 Ru2'
_cell_volume   834.36549116
_cell_formula_units_Z   2
loop_
 _symmetry_equiv_pos_site_id
 _symmetry_equiv_pos_as_xyz
  1  'x, y, z'
loop_
 _atom_site_type_symbol
 _atom_site_label
 _atom_site_symmetry_multiplicity
 _atom_site_fract_x
 _atom_site_fract_y
 _atom_site_fract_z
 _atom_site_occupancy
  Pr  Pr0  1  0.291740  0.086427  0.383030  1
  Pr  Pr1  1  0.291740  0.913573  0.883030  1
  Pr  Pr2  1  0.708260  0.086427  0.883030  1
  Pr  Pr3  1  0.708260  0.913573  0.383030  1
  Pr  Pr4  1  0.586427  0.791740  0.883030  1
  Pr  Pr5  1  0.586427  0.208260  0.383030  1
  Pr  Pr6  1  0.413573  0.791740  0.383030  1
  Pr  Pr7  1  0.413573  0.208260  0.883030  1
  Pr  Pr8  1  0.211358  0.412213  0.617298  1
  Pr  Pr9  1  0.211358  0.587787  0.117298  1
  Pr  Pr10  1  0.788642  0.412213  0.117298  1
  Pr  Pr11  1  0.788642  0.587787  0.617298  1
  Pr  Pr12  1  0.912213  0.711358  0.117298  1
  Pr  Pr13  1  0.912213  0.288642  0.617298  1
  Pr  Pr14  1  0.087787  0.711358  0.617298  1
  Pr  Pr15  1  0.087787  0.288642  0.117298  1
  Dy  Dy16  1  0.000000  0.000000  0.499015  1
  Dy  Dy17  1  0.000000  0.000000  0.999015  1
  Dy  Dy18  1  0.500000  0.500000  0.999015  1
  Dy  Dy19  1  0.500000  0.500000  0.499015  1
  Ir  Ir20  1  0.852805  0.148405  0.249990  1
  Ir  Ir21  1  0.852805  0.851595  0.749990  1
  Ir  Ir22  1  0.147195  0.148405  0.749990  1
  Ir  Ir23  1  0.147195  0.851595  0.249990  1
  Ir  Ir24  1  0.648405  0.352805  0.749990  1
  Ir  Ir25  1  0.648405  0.647195  0.249990  1
  Ir  Ir26  1  0.351595  0.352805  0.249990  1
  Ir  Ir27  1  0.351595  0.647195  0.749990  1
  Ir  Ir28  1  0.000000  0.500000  0.881620  1
  Ir  Ir29  1  0.000000  0.500000  0.381620  1
  Ru  Ru30  1  0.500000  0.000000  0.119077  1
  Ru  Ru31  1  0.500000  0.000000  0.619077  1
