# generated using pymatgen
data_Sc4Co16Si5Tc4P7
_symmetry_space_group_name_H-M   'P 1'
_cell_length_a   3.67114100
_cell_length_b   10.25779818
_cell_length_c   11.74039621
_cell_angle_alpha   90.02154872
_cell_angle_beta   90.00000000
_cell_angle_gamma   90.00000000
_symmetry_Int_Tables_number   1
_chemical_formula_structural   Sc4Co16Si5Tc4P7
_chemical_formula_sum   'Sc4 Co16 Si5 Tc4 P7'
_cell_volume   442.11773662
_cell_formula_units_Z   1
loop_
 _symmetry_equiv_pos_site_id
 _symmetry_equiv_pos_as_xyz
  1  'x, y, z'
loop_
 _atom_site_type_symbol
 _atom_site_label
 _atom_site_symmetry_multiplicity
 _atom_site_fract_x
 _atom_site_fract_y
 _atom_site_fract_z
 _atom_site_occupancy
  Sc  Sc0  1  0.250000  0.581154  0.702909  1
  Sc  Sc1  1  0.250000  0.917531  0.202427  1
  Sc  Sc2  1  0.750000  0.417519  0.297000  1
  Sc  Sc3  1  0.750000  0.079486  0.797443  1
  Co  Co4  1  0.250000  0.408731  0.484007  1
  Co  Co5  1  0.250000  0.087710  0.989588  1
  Co  Co6  1  0.750000  0.591745  0.513928  1
  Co  Co7  1  0.750000  0.906882  0.014812  1
  Co  Co8  1  0.250000  0.213901  0.177592  1
  Co  Co9  1  0.250000  0.288109  0.672104  1
  Co  Co10  1  0.750000  0.786098  0.823295  1
  Co  Co11  1  0.750000  0.714295  0.323417  1
  Co  Co12  1  0.250000  0.882350  0.701865  1
  Co  Co13  1  0.250000  0.617376  0.202562  1
  Co  Co14  1  0.750000  0.116413  0.297750  1
  Co  Co15  1  0.750000  0.385147  0.796795  1
  Co  Co16  1  0.250000  0.467888  0.931834  1
  Co  Co17  1  0.250000  0.035886  0.430586  1
  Co  Co18  1  0.750000  0.537376  0.070473  1
  Co  Co19  1  0.750000  0.963815  0.569754  1
  Si  Si20  1  0.250000  0.418017  0.117151  1
  Si  Si21  1  0.250000  0.082453  0.618152  1
  Si  Si22  1  0.750000  0.581977  0.882717  1
  Si  Si23  1  0.750000  0.918222  0.382573  1
  Si  Si24  1  0.250000  0.264700  0.863803  1
  Tc  Tc25  1  0.250000  0.711443  0.989407  1
  Tc  Tc26  1  0.250000  0.789450  0.488749  1
  Tc  Tc27  1  0.750000  0.289979  0.011832  1
  Tc  Tc28  1  0.750000  0.210542  0.509771  1
  P  P29  1  0.250000  0.234216  0.363654  1
  P  P30  1  0.750000  0.734655  0.136506  1
  P  P31  1  0.750000  0.765266  0.636339  1
  P  P32  1  0.250000  0.594740  0.388696  1
  P  P33  1  0.250000  0.905202  0.889232  1
  P  P34  1  0.750000  0.405130  0.610735  1
  P  P35  1  0.750000  0.094597  0.110539  1
