# generated using pymatgen
data_Tb24CoTc7
_symmetry_space_group_name_H-M   'P 1'
_cell_length_a   6.31769015
_cell_length_b   9.24727500
_cell_length_c   14.78751728
_cell_angle_alpha   90.00000000
_cell_angle_beta   90.27719966
_cell_angle_gamma   90.00000000
_symmetry_Int_Tables_number   1
_chemical_formula_structural   Tb24CoTc7
_chemical_formula_sum   'Tb24 Co1 Tc7'
_cell_volume   863.89761977
_cell_formula_units_Z   1
loop_
 _symmetry_equiv_pos_site_id
 _symmetry_equiv_pos_as_xyz
  1  'x, y, z'
loop_
 _atom_site_type_symbol
 _atom_site_label
 _atom_site_symmetry_multiplicity
 _atom_site_fract_x
 _atom_site_fract_y
 _atom_site_fract_z
 _atom_site_occupancy
  Tb  Tb0  1  0.539713  0.750000  0.357602  1
  Tb  Tb1  1  0.035726  0.250000  0.145172  1
  Tb  Tb2  1  0.464428  0.250000  0.644074  1
  Tb  Tb3  1  0.964087  0.750000  0.849459  1
  Tb  Tb4  1  0.776884  0.750000  0.104218  1
  Tb  Tb5  1  0.277161  0.250000  0.394862  1
  Tb  Tb6  1  0.223562  0.250000  0.892005  1
  Tb  Tb7  1  0.730943  0.750000  0.608363  1
  Tb  Tb8  1  0.430607  0.933530  0.784410  1
  Tb  Tb9  1  0.925722  0.068513  0.712915  1
  Tb  Tb10  1  0.567578  0.434681  0.211684  1
  Tb  Tb11  1  0.066361  0.566625  0.286876  1
  Tb  Tb12  1  0.567578  0.065319  0.211684  1
  Tb  Tb13  1  0.066361  0.933375  0.286876  1
  Tb  Tb14  1  0.430607  0.566470  0.784410  1
  Tb  Tb15  1  0.925722  0.431487  0.712915  1
  Tb  Tb16  1  0.239650  0.933083  0.540080  1
  Tb  Tb17  1  0.738392  0.064812  0.963996  1
  Tb  Tb18  1  0.761082  0.434614  0.465421  1
  Tb  Tb19  1  0.259122  0.566581  0.034908  1
  Tb  Tb20  1  0.761082  0.065386  0.465421  1
  Tb  Tb21  1  0.259122  0.933419  0.034908  1
  Tb  Tb22  1  0.239650  0.566917  0.540080  1
  Tb  Tb23  1  0.738392  0.435188  0.963996  1
  Co  Co24  1  0.134369  0.750000  0.684259  1
  Tc  Tc25  1  0.936732  0.750000  0.442624  1
  Tc  Tc26  1  0.430016  0.250000  0.061391  1
  Tc  Tc27  1  0.068025  0.250000  0.564364  1
  Tc  Tc28  1  0.571184  0.750000  0.933485  1
  Tc  Tc29  1  0.367211  0.750000  0.184771  1
  Tc  Tc30  1  0.868067  0.250000  0.317152  1
  Tc  Tc31  1  0.634863  0.250000  0.815615  1
