# generated using pymatgen
data_La6Pr4Bi6AsBr
_symmetry_space_group_name_H-M   'P 1'
_cell_length_a   9.74943500
_cell_length_b   9.74943578
_cell_length_c   6.92191500
_cell_angle_alpha   90.00000000
_cell_angle_beta   90.00000000
_cell_angle_gamma   120.00000073
_symmetry_Int_Tables_number   1
_chemical_formula_structural   La6Pr4Bi6AsBr
_chemical_formula_sum   'La6 Pr4 Bi6 As1 Br1'
_cell_volume   569.79131034
_cell_formula_units_Z   1
loop_
 _symmetry_equiv_pos_site_id
 _symmetry_equiv_pos_as_xyz
  1  'x, y, z'
loop_
 _atom_site_type_symbol
 _atom_site_label
 _atom_site_symmetry_multiplicity
 _atom_site_fract_x
 _atom_site_fract_y
 _atom_site_fract_z
 _atom_site_occupancy
  La  La0  1  0.257028  0.000000  0.737764  1
  La  La1  1  0.742972  0.000000  0.262236  1
  La  La2  1  0.000000  0.257028  0.737764  1
  La  La3  1  0.000000  0.742972  0.262236  1
  La  La4  1  0.742972  0.742972  0.737764  1
  La  La5  1  0.257028  0.257028  0.262236  1
  Pr  Pr6  1  0.333333  0.666667  0.500000  1
  Pr  Pr7  1  0.666667  0.333333  0.500000  1
  Pr  Pr8  1  0.666667  0.333333  0.000000  1
  Pr  Pr9  1  0.333333  0.666667  0.000000  1
  Bi  Bi10  1  0.608735  0.000000  0.751017  1
  Bi  Bi11  1  0.391265  0.000000  0.248983  1
  Bi  Bi12  1  0.000000  0.608735  0.751017  1
  Bi  Bi13  1  0.000000  0.391265  0.248983  1
  Bi  Bi14  1  0.391265  0.391265  0.751017  1
  Bi  Bi15  1  0.608735  0.608735  0.248983  1
  As  As16  1  0.000000  0.000000  0.500000  1
  Br  Br17  1  0.000000  0.000000  0.000000  1
