# generated using pymatgen
data_Pr20Si15Ni
_symmetry_space_group_name_H-M   'P 1'
_cell_length_a   7.92559828
_cell_length_b   7.93950655
_cell_length_c   15.34734639
_cell_angle_alpha   90.02710987
_cell_angle_beta   89.79572583
_cell_angle_gamma   90.37911684
_symmetry_Int_Tables_number   1
_chemical_formula_structural   Pr20Si15Ni
_chemical_formula_sum   'Pr20 Si15 Ni1'
_cell_volume   965.70960504
_cell_formula_units_Z   1
loop_
 _symmetry_equiv_pos_site_id
 _symmetry_equiv_pos_as_xyz
  1  'x, y, z'
loop_
 _atom_site_type_symbol
 _atom_site_label
 _atom_site_symmetry_multiplicity
 _atom_site_fract_x
 _atom_site_fract_y
 _atom_site_fract_z
 _atom_site_occupancy
  Pr  Pr0  1  0.305794  0.306243  0.998185  1
  Pr  Pr1  1  0.191787  0.808736  0.249671  1
  Pr  Pr2  1  0.815922  0.187513  0.750398  1
  Pr  Pr3  1  0.693552  0.687645  0.500652  1
  Pr  Pr4  1  0.375484  0.009830  0.447468  1
  Pr  Pr5  1  0.489454  0.873231  0.698656  1
  Pr  Pr6  1  0.510570  0.123758  0.197203  1
  Pr  Pr7  1  0.876137  0.488435  0.300913  1
  Pr  Pr8  1  0.122943  0.511230  0.799720  1
  Pr  Pr9  1  0.625661  0.989353  0.947932  1
  Pr  Pr10  1  0.004488  0.378198  0.552307  1
  Pr  Pr11  1  0.988812  0.625338  0.051695  1
  Pr  Pr12  1  0.133301  0.985511  0.874555  1
  Pr  Pr13  1  0.517308  0.630962  0.125659  1
  Pr  Pr14  1  0.470653  0.361688  0.628153  1
  Pr  Pr15  1  0.627349  0.516387  0.873220  1
  Pr  Pr16  1  0.371659  0.483168  0.373631  1
  Pr  Pr17  1  0.873046  0.020437  0.377072  1
  Pr  Pr18  1  0.982161  0.126275  0.123703  1
  Pr  Pr19  1  0.024655  0.881111  0.625002  1
  Si  Si20  1  0.333225  0.695689  0.950466  1
  Si  Si21  1  0.663582  0.303957  0.452835  1
  Si  Si22  1  0.697025  0.335070  0.049109  1
  Si  Si23  1  0.304196  0.668697  0.548523  1
  Si  Si24  1  0.805640  0.832483  0.203404  1
  Si  Si25  1  0.167815  0.197092  0.297389  1
  Si  Si26  1  0.834258  0.803145  0.797726  1
  Si  Si27  1  0.288104  0.921425  0.058751  1
  Si  Si28  1  0.579740  0.786927  0.310239  1
  Si  Si29  1  0.423950  0.207377  0.809894  1
  Si  Si30  1  0.785246  0.580078  0.689987  1
  Si  Si31  1  0.212737  0.422233  0.189931  1
  Si  Si32  1  0.706830  0.076218  0.559393  1
  Si  Si33  1  0.919753  0.288837  0.940912  1
  Si  Si34  1  0.079606  0.715014  0.441491  1
  Ni  Ni35  1  0.197557  0.170710  0.704155  1
