# generated using pymatgen
data_Y4MgZn3IrPt3
_symmetry_space_group_name_H-M   'P 1'
_cell_length_a   4.23254900
_cell_length_b   6.95824792
_cell_length_c   8.17220462
_cell_angle_alpha   90.30378887
_cell_angle_beta   90.00000000
_cell_angle_gamma   90.00000000
_symmetry_Int_Tables_number   1
_chemical_formula_structural   Y4MgZn3IrPt3
_chemical_formula_sum   'Y4 Mg1 Zn3 Ir1 Pt3'
_cell_volume   240.67723882
_cell_formula_units_Z   1
loop_
 _symmetry_equiv_pos_site_id
 _symmetry_equiv_pos_as_xyz
  1  'x, y, z'
loop_
 _atom_site_type_symbol
 _atom_site_label
 _atom_site_symmetry_multiplicity
 _atom_site_fract_x
 _atom_site_fract_y
 _atom_site_fract_z
 _atom_site_occupancy
  Y  Y0  1  0.250000  0.542171  0.175259  1
  Y  Y1  1  0.750000  0.472563  0.820013  1
  Y  Y2  1  0.750000  0.955755  0.693376  1
  Y  Y3  1  0.250000  0.029749  0.308402  1
  Mg  Mg4  1  0.750000  0.361738  0.436443  1
  Zn  Zn5  1  0.250000  0.644025  0.567883  1
  Zn  Zn6  1  0.750000  0.854096  0.062737  1
  Zn  Zn7  1  0.250000  0.140641  0.935528  1
  Ir  Ir8  1  0.250000  0.757808  0.881943  1
  Pt  Pt9  1  0.750000  0.240913  0.117659  1
  Pt  Pt10  1  0.750000  0.746457  0.381299  1
  Pt  Pt11  1  0.250000  0.254084  0.619460  1
