# generated using pymatgen
data_YTh3Ni4
_symmetry_space_group_name_H-M   'P 1'
_cell_length_a   4.19995500
_cell_length_b   5.67150253
_cell_length_c   14.18721603
_cell_angle_alpha   89.48062684
_cell_angle_beta   90.00000000
_cell_angle_gamma   90.00000000
_symmetry_Int_Tables_number   1
_chemical_formula_structural   YTh3Ni4
_chemical_formula_sum   'Y2 Th6 Ni8'
_cell_volume   337.92638773
_cell_formula_units_Z   2
loop_
 _symmetry_equiv_pos_site_id
 _symmetry_equiv_pos_as_xyz
  1  'x, y, z'
loop_
 _atom_site_type_symbol
 _atom_site_label
 _atom_site_symmetry_multiplicity
 _atom_site_fract_x
 _atom_site_fract_y
 _atom_site_fract_z
 _atom_site_occupancy
  Y  Y0  1  0.250000  0.539331  0.283052  1
  Y  Y1  1  0.750000  0.460669  0.716948  1
  Th  Th2  1  0.250000  0.961658  0.780560  1
  Th  Th3  1  0.250000  0.751004  0.534754  1
  Th  Th4  1  0.250000  0.753122  0.037023  1
  Th  Th5  1  0.750000  0.246878  0.962977  1
  Th  Th6  1  0.750000  0.038342  0.219440  1
  Th  Th7  1  0.750000  0.248996  0.465246  1
  Ni  Ni8  1  0.250000  0.041798  0.355931  1
  Ni  Ni9  1  0.750000  0.528563  0.142818  1
  Ni  Ni10  1  0.750000  0.756357  0.398631  1
  Ni  Ni11  1  0.250000  0.471437  0.857182  1
  Ni  Ni12  1  0.750000  0.958202  0.644069  1
  Ni  Ni13  1  0.750000  0.741176  0.896798  1
  Ni  Ni14  1  0.250000  0.258824  0.103202  1
  Ni  Ni15  1  0.250000  0.243643  0.601369  1
