# generated using pymatgen
data_Tb3TaPt12
_symmetry_space_group_name_H-M   'P 1'
_cell_length_a   5.80066390
_cell_length_b   5.80066357
_cell_length_c   8.17565000
_cell_angle_alpha   90.00000000
_cell_angle_beta   90.00000000
_cell_angle_gamma   90.00182733
_symmetry_Int_Tables_number   1
_chemical_formula_structural   Tb3TaPt12
_chemical_formula_sum   'Tb3 Ta1 Pt12'
_cell_volume   275.09181650
_cell_formula_units_Z   1
loop_
 _symmetry_equiv_pos_site_id
 _symmetry_equiv_pos_as_xyz
  1  'x, y, z'
loop_
 _atom_site_type_symbol
 _atom_site_label
 _atom_site_symmetry_multiplicity
 _atom_site_fract_x
 _atom_site_fract_y
 _atom_site_fract_z
 _atom_site_occupancy
  Tb  Tb0  1  0.500000  0.000000  0.249951  1
  Tb  Tb1  1  0.000000  0.500000  0.250069  1
  Tb  Tb2  1  0.500000  0.000000  0.749969  1
  Ta  Ta3  1  0.000000  0.500000  0.750003  1
  Pt  Pt4  1  0.243801  0.256199  0.991160  1
  Pt  Pt5  1  0.756093  0.256093  0.508921  1
  Pt  Pt6  1  0.755830  0.255830  0.991661  1
  Pt  Pt7  1  0.756199  0.743801  0.991160  1
  Pt  Pt8  1  0.500000  0.500000  0.750019  1
  Pt  Pt9  1  0.244116  0.255884  0.508255  1
  Pt  Pt10  1  0.755884  0.744116  0.508255  1
  Pt  Pt11  1  0.243907  0.743907  0.508921  1
  Pt  Pt12  1  0.500000  0.500000  0.249988  1
  Pt  Pt13  1  0.000000  0.000000  0.750019  1
  Pt  Pt14  1  0.000000  0.000000  0.249988  1
  Pt  Pt15  1  0.244170  0.744170  0.991661  1
