# generated using pymatgen
data_PmPr(ZnSi)2
_symmetry_space_group_name_H-M   'P 1'
_cell_length_a   5.94713495
_cell_length_b   5.94713427
_cell_length_c   5.94713600
_cell_angle_alpha   139.23039367
_cell_angle_beta   105.20570633
_cell_angle_gamma   88.87538782
_symmetry_Int_Tables_number   1
_chemical_formula_structural   PmPr(ZnSi)2
_chemical_formula_sum   'Pm1 Pr1 Zn2 Si2'
_cell_volume   127.08695324
_cell_formula_units_Z   1
loop_
 _symmetry_equiv_pos_site_id
 _symmetry_equiv_pos_as_xyz
  1  'x, y, z'
loop_
 _atom_site_type_symbol
 _atom_site_label
 _atom_site_symmetry_multiplicity
 _atom_site_fract_x
 _atom_site_fract_y
 _atom_site_fract_z
 _atom_site_occupancy
  Pm  Pm0  1  0.502487  0.499987  0.002475  1
  Pr  Pr1  1  0.998049  0.999995  0.998044  1
  Zn  Zn2  1  0.576276  0.242805  0.333485  1
  Zn  Zn3  1  0.090679  0.757209  0.333485  1
  Si  Si4  1  0.916246  0.249995  0.666255  1
  Si  Si5  1  0.416261  0.750009  0.666255  1
