# generated using pymatgen
data_TbY5Sc2(Co4P3)4
_symmetry_space_group_name_H-M   'P 1'
_cell_length_a   3.72915700
_cell_length_b   10.67879500
_cell_length_c   12.37906000
_cell_angle_alpha   90.00000000
_cell_angle_beta   90.00000000
_cell_angle_gamma   90.00000000
_symmetry_Int_Tables_number   1
_chemical_formula_structural   TbY5Sc2(Co4P3)4
_chemical_formula_sum   'Tb1 Y5 Sc2 Co16 P12'
_cell_volume   492.97010717
_cell_formula_units_Z   1
loop_
 _symmetry_equiv_pos_site_id
 _symmetry_equiv_pos_as_xyz
  1  'x, y, z'
loop_
 _atom_site_type_symbol
 _atom_site_label
 _atom_site_symmetry_multiplicity
 _atom_site_fract_x
 _atom_site_fract_y
 _atom_site_fract_z
 _atom_site_occupancy
  Tb  Tb0  1  0.000000  0.500000  0.527511  1
  Y  Y1  1  0.500000  0.000000  0.472634  1
  Y  Y2  1  0.500000  0.822284  0.205775  1
  Y  Y3  1  0.500000  0.177716  0.205775  1
  Y  Y4  1  0.000000  0.677740  0.794251  1
  Y  Y5  1  0.000000  0.322260  0.794251  1
  Sc  Sc6  1  0.500000  0.500000  0.156895  1
  Sc  Sc7  1  0.000000  0.000000  0.843101  1
  Co  Co8  1  0.500000  0.500000  0.704574  1
  Co  Co9  1  0.000000  0.000000  0.295435  1
  Co  Co10  1  0.000000  0.500000  0.987523  1
  Co  Co11  1  0.500000  0.000000  0.012486  1
  Co  Co12  1  0.500000  0.331384  0.994325  1
  Co  Co13  1  0.500000  0.668616  0.994325  1
  Co  Co14  1  0.000000  0.168617  0.005677  1
  Co  Co15  1  0.000000  0.831383  0.005677  1
  Co  Co16  1  0.500000  0.295453  0.432945  1
  Co  Co17  1  0.500000  0.704547  0.432945  1
  Co  Co18  1  0.000000  0.204492  0.567043  1
  Co  Co19  1  0.000000  0.795508  0.567043  1
  Co  Co20  1  0.500000  0.878032  0.702605  1
  Co  Co21  1  0.500000  0.121968  0.702605  1
  Co  Co22  1  0.000000  0.621969  0.297370  1
  Co  Co23  1  0.000000  0.378031  0.297370  1
  P  P24  1  0.500000  0.500000  0.885357  1
  P  P25  1  0.000000  0.000000  0.114658  1
  P  P26  1  0.500000  0.500000  0.359416  1
  P  P27  1  0.000000  0.000000  0.640481  1
  P  P28  1  0.500000  0.309158  0.615205  1
  P  P29  1  0.500000  0.690842  0.615205  1
  P  P30  1  0.000000  0.190763  0.384772  1
  P  P31  1  0.000000  0.809237  0.384772  1
  P  P32  1  0.500000  0.839690  0.893194  1
  P  P33  1  0.500000  0.160310  0.893194  1
  P  P34  1  0.000000  0.660308  0.106802  1
  P  P35  1  0.000000  0.339692  0.106802  1
