# generated using pymatgen
data_Ac2UAlGa2Ir3
_symmetry_space_group_name_H-M   'P 1'
_cell_length_a   7.61503907
_cell_length_b   7.35409637
_cell_length_c   4.04044600
_cell_angle_alpha   90.00000000
_cell_angle_beta   90.00000000
_cell_angle_gamma   118.87280410
_symmetry_Int_Tables_number   1
_chemical_formula_structural   Ac2UAlGa2Ir3
_chemical_formula_sum   'Ac2 U1 Al1 Ga2 Ir3'
_cell_volume   198.14496683
_cell_formula_units_Z   1
loop_
 _symmetry_equiv_pos_site_id
 _symmetry_equiv_pos_as_xyz
  1  'x, y, z'
loop_
 _atom_site_type_symbol
 _atom_site_label
 _atom_site_symmetry_multiplicity
 _atom_site_fract_x
 _atom_site_fract_y
 _atom_site_fract_z
 _atom_site_occupancy
  Ac  Ac0  1  0.420583  0.421150  0.500000  1
  Ac  Ac1  1  0.579417  0.000568  0.500000  1
  U  U2  1  0.000000  0.582515  0.500000  1
  Al  Al3  1  0.000000  0.228008  0.000000  1
  Ga  Ga4  1  0.784895  0.767217  0.000000  1
  Ga  Ga5  1  0.215105  0.982322  0.000000  1
  Ir  Ir6  1  0.737143  0.381920  0.000000  1
  Ir  Ir7  1  0.262857  0.644779  0.000000  1
  Ir  Ir8  1  0.000000  0.991521  0.500000  1
