# generated using pymatgen
data_Th6IrPdAu6
_symmetry_space_group_name_H-M   'P 1'
_cell_length_a   8.25205859
_cell_length_b   8.25205944
_cell_length_c   8.25205929
_cell_angle_alpha   114.01133243
_cell_angle_beta   114.01134221
_cell_angle_gamma   114.01132056
_symmetry_Int_Tables_number   1
_chemical_formula_structural   Th6IrPdAu6
_chemical_formula_sum   'Th6 Ir1 Pd1 Au6'
_cell_volume   341.11829982
_cell_formula_units_Z   1
loop_
 _symmetry_equiv_pos_site_id
 _symmetry_equiv_pos_as_xyz
  1  'x, y, z'
loop_
 _atom_site_type_symbol
 _atom_site_label
 _atom_site_symmetry_multiplicity
 _atom_site_fract_x
 _atom_site_fract_y
 _atom_site_fract_z
 _atom_site_occupancy
  Th  Th0  1  0.027638  0.387877  0.275683  1
  Th  Th1  1  0.387877  0.275683  0.027638  1
  Th  Th2  1  0.724317  0.972362  0.612123  1
  Th  Th3  1  0.275683  0.027638  0.387877  1
  Th  Th4  1  0.612123  0.724317  0.972362  1
  Th  Th5  1  0.972362  0.612123  0.724317  1
  Ir  Ir6  1  0.000000  0.000000  0.000000  1
  Pd  Pd7  1  0.500000  0.500000  0.500000  1
  Au  Au8  1  0.429947  0.931231  0.766427  1
  Au  Au9  1  0.931231  0.766427  0.429947  1
  Au  Au10  1  0.233573  0.570053  0.068769  1
  Au  Au11  1  0.766427  0.429947  0.931231  1
  Au  Au12  1  0.068769  0.233573  0.570053  1
  Au  Au13  1  0.570053  0.068769  0.233573  1
