# generated using pymatgen
data_Ca2Hf3Mn9As7
_symmetry_space_group_name_H-M   'P 1'
_cell_length_a   3.78339200
_cell_length_b   10.08090614
_cell_length_c   10.08090700
_cell_angle_alpha   119.99999780
_cell_angle_beta   90.00000000
_cell_angle_gamma   90.00000000
_symmetry_Int_Tables_number   1
_chemical_formula_structural   Ca2Hf3Mn9As7
_chemical_formula_sum   'Ca2 Hf3 Mn9 As7'
_cell_volume   332.97464283
_cell_formula_units_Z   1
loop_
 _symmetry_equiv_pos_site_id
 _symmetry_equiv_pos_as_xyz
  1  'x, y, z'
loop_
 _atom_site_type_symbol
 _atom_site_label
 _atom_site_symmetry_multiplicity
 _atom_site_fract_x
 _atom_site_fract_y
 _atom_site_fract_z
 _atom_site_occupancy
  Ca  Ca0  1  0.000000  0.666667  0.333333  1
  Ca  Ca1  1  0.500000  0.333333  0.666667  1
  Hf  Hf2  1  0.500000  0.770782  0.901698  1
  Hf  Hf3  1  0.500000  0.130915  0.229218  1
  Hf  Hf4  1  0.500000  0.098302  0.869085  1
  Mn  Mn5  1  0.000000  0.577478  0.956198  1
  Mn  Mn6  1  0.000000  0.378720  0.422522  1
  Mn  Mn7  1  0.000000  0.043802  0.621280  1
  Mn  Mn8  1  0.000000  0.880549  0.168492  1
  Mn  Mn9  1  0.000000  0.287943  0.119451  1
  Mn  Mn10  1  0.000000  0.831508  0.712057  1
  Mn  Mn11  1  0.500000  0.950484  0.385076  1
  Mn  Mn12  1  0.500000  0.434591  0.049516  1
  Mn  Mn13  1  0.500000  0.614924  0.565409  1
  As  As14  1  0.000000  0.000000  0.000000  1
  As  As15  1  0.500000  0.707525  0.138575  1
  As  As16  1  0.500000  0.431050  0.292475  1
  As  As17  1  0.500000  0.861425  0.568950  1
  As  As18  1  0.000000  0.574816  0.697540  1
  As  As19  1  0.000000  0.122724  0.425184  1
  As  As20  1  0.000000  0.302460  0.877276  1
