# generated using pymatgen
data_Nd5YAl18(Si3Os4)2
_symmetry_space_group_name_H-M   'P 1'
_cell_length_a   8.79255728
_cell_length_b   8.76127188
_cell_length_c   9.66152200
_cell_angle_alpha   90.00000000
_cell_angle_beta   90.00000000
_cell_angle_gamma   120.14720413
_symmetry_Int_Tables_number   1
_chemical_formula_structural   Nd5YAl18(Si3Os4)2
_chemical_formula_sum   'Nd5 Y1 Al18 Si6 Os8'
_cell_volume   643.59465577
_cell_formula_units_Z   1
loop_
 _symmetry_equiv_pos_site_id
 _symmetry_equiv_pos_as_xyz
  1  'x, y, z'
loop_
 _atom_site_type_symbol
 _atom_site_label
 _atom_site_symmetry_multiplicity
 _atom_site_fract_x
 _atom_site_fract_y
 _atom_site_fract_z
 _atom_site_occupancy
  Nd  Nd0  1  0.191306  0.382520  0.250000  1
  Nd  Nd1  1  0.808688  0.617040  0.750000  1
  Nd  Nd2  1  0.614347  0.809623  0.250000  1
  Nd  Nd3  1  0.385932  0.190404  0.750000  1
  Nd  Nd4  1  0.195755  0.809274  0.250000  1
  Y  Y5  1  0.801960  0.192610  0.750000  1
  Al  Al6  1  0.164277  0.330085  0.577661  1
  Al  Al7  1  0.834404  0.668896  0.423468  1
  Al  Al8  1  0.670513  0.835353  0.575934  1
  Al  Al9  1  0.834404  0.668896  0.076532  1
  Al  Al10  1  0.330463  0.166005  0.425288  1
  Al  Al11  1  0.164277  0.330085  0.922339  1
  Al  Al12  1  0.164425  0.834042  0.575490  1
  Al  Al13  1  0.330463  0.166005  0.074712  1
  Al  Al14  1  0.835609  0.165849  0.426567  1
  Al  Al15  1  0.670513  0.835353  0.924066  1
  Al  Al16  1  0.835609  0.165849  0.073433  1
  Al  Al17  1  0.164425  0.834042  0.924510  1
  Al  Al18  1  0.870552  0.431361  0.250000  1
  Al  Al19  1  0.128082  0.566475  0.750000  1
  Al  Al20  1  0.561285  0.431675  0.250000  1
  Al  Al21  1  0.438609  0.568497  0.750000  1
  Al  Al22  1  0.999322  0.998251  0.250000  1
  Al  Al23  1  0.998704  0.003427  0.750000  1
  Si  Si24  1  0.332239  0.663608  0.033814  1
  Si  Si25  1  0.668765  0.335211  0.964039  1
  Si  Si26  1  0.668765  0.335211  0.535961  1
  Si  Si27  1  0.332239  0.663608  0.466186  1
  Si  Si28  1  0.564820  0.129042  0.250000  1
  Si  Si29  1  0.437740  0.872497  0.750000  1
  Os  Os30  1  0.501282  0.000710  0.998820  1
  Os  Os31  1  0.999395  0.498861  0.999082  1
  Os  Os32  1  0.501282  0.000710  0.501180  1
  Os  Os33  1  0.500241  0.499864  0.999726  1
  Os  Os34  1  0.999395  0.498861  0.500918  1
  Os  Os35  1  0.500241  0.499864  0.500274  1
  Os  Os36  1  0.999836  0.000167  0.999749  1
  Os  Os37  1  0.999836  0.000167  0.500251  1
