# generated using pymatgen
data_SmThSi2(Ru2C)2
_symmetry_space_group_name_H-M   'P 1'
_cell_length_a   5.92434831
_cell_length_b   5.92434923
_cell_length_c   7.19219600
_cell_angle_alpha   90.00000000
_cell_angle_beta   90.00000000
_cell_angle_gamma   141.22517896
_symmetry_Int_Tables_number   1
_chemical_formula_structural   SmThSi2(Ru2C)2
_chemical_formula_sum   'Sm1 Th1 Si2 Ru4 C2'
_cell_volume   158.08778022
_cell_formula_units_Z   1
loop_
 _symmetry_equiv_pos_site_id
 _symmetry_equiv_pos_as_xyz
  1  'x, y, z'
loop_
 _atom_site_type_symbol
 _atom_site_label
 _atom_site_symmetry_multiplicity
 _atom_site_fract_x
 _atom_site_fract_y
 _atom_site_fract_z
 _atom_site_occupancy
  Sm  Sm0  1  0.551239  0.448761  0.250000  1
  Th  Th1  1  0.447190  0.552810  0.750000  1
  Si  Si2  1  0.270910  0.729090  0.250000  1
  Si  Si3  1  0.726234  0.273766  0.750000  1
  Ru  Ru4  1  0.835789  0.164211  0.057229  1
  Ru  Ru5  1  0.165323  0.834677  0.943389  1
  Ru  Ru6  1  0.165323  0.834677  0.556611  1
  Ru  Ru7  1  0.835789  0.164211  0.442771  1
  C  C8  1  0.001101  0.998899  0.002431  1
  C  C9  1  0.001101  0.998899  0.497569  1
