# generated using pymatgen
data_BaDyTi4N7
_symmetry_space_group_name_H-M   'P 1'
_cell_length_a   6.47322700
_cell_length_b   6.47322709
_cell_length_c   10.49885900
_cell_angle_alpha   90.00000000
_cell_angle_beta   90.00000000
_cell_angle_gamma   119.99998419
_symmetry_Int_Tables_number   1
_chemical_formula_structural   BaDyTi4N7
_chemical_formula_sum   'Ba2 Dy2 Ti8 N14'
_cell_volume   380.99079602
_cell_formula_units_Z   2
loop_
 _symmetry_equiv_pos_site_id
 _symmetry_equiv_pos_as_xyz
  1  'x, y, z'
loop_
 _atom_site_type_symbol
 _atom_site_label
 _atom_site_symmetry_multiplicity
 _atom_site_fract_x
 _atom_site_fract_y
 _atom_site_fract_z
 _atom_site_occupancy
  Ba  Ba0  1  0.666667  0.333333  0.582071  1
  Ba  Ba1  1  0.333333  0.666667  0.082071  1
  Dy  Dy2  1  0.666667  0.333333  0.948939  1
  Dy  Dy3  1  0.333333  0.666667  0.448939  1
  Ti  Ti4  1  0.169440  0.338878  0.763587  1
  Ti  Ti5  1  0.830560  0.169440  0.263587  1
  Ti  Ti6  1  0.338878  0.169440  0.263587  1
  Ti  Ti7  1  0.661122  0.830560  0.763587  1
  Ti  Ti8  1  0.169440  0.830560  0.763587  1
  Ti  Ti9  1  0.830560  0.661122  0.263587  1
  Ti  Ti10  1  0.000000  0.000000  0.023385  1
  Ti  Ti11  1  0.000000  0.000000  0.523385  1
  N  N12  1  0.000000  0.000000  0.830348  1
  N  N13  1  0.000000  0.000000  0.330348  1
  N  N14  1  0.840317  0.680634  0.083235  1
  N  N15  1  0.159683  0.840317  0.583235  1
  N  N16  1  0.680634  0.840317  0.583235  1
  N  N17  1  0.319366  0.159683  0.083235  1
  N  N18  1  0.840317  0.159683  0.083235  1
  N  N19  1  0.159683  0.319366  0.583235  1
  N  N20  1  0.494424  0.505576  0.815871  1
  N  N21  1  0.988849  0.494424  0.315871  1
  N  N22  1  0.505576  0.011151  0.315871  1
  N  N23  1  0.494424  0.988849  0.815871  1
  N  N24  1  0.505576  0.494424  0.315871  1
  N  N25  1  0.011151  0.505576  0.815871  1
