# generated using pymatgen
data_Nd2Dy2Y2IrI10
_symmetry_space_group_name_H-M   'P 1'
_cell_length_a   7.81752443
_cell_length_b   9.85099108
_cell_length_c   9.87179368
_cell_angle_alpha   106.90211400
_cell_angle_beta   96.46088219
_cell_angle_gamma   104.94419933
_symmetry_Int_Tables_number   1
_chemical_formula_structural   Nd2Dy2Y2IrI10
_chemical_formula_sum   'Nd2 Dy2 Y2 Ir1 I10'
_cell_volume   688.18098017
_cell_formula_units_Z   1
loop_
 _symmetry_equiv_pos_site_id
 _symmetry_equiv_pos_as_xyz
  1  'x, y, z'
loop_
 _atom_site_type_symbol
 _atom_site_label
 _atom_site_symmetry_multiplicity
 _atom_site_fract_x
 _atom_site_fract_y
 _atom_site_fract_z
 _atom_site_occupancy
  Nd  Nd0  1  0.116367  0.043348  0.761832  1
  Nd  Nd1  1  0.883633  0.956652  0.238168  1
  Dy  Dy2  1  0.970100  0.286436  0.086093  1
  Dy  Dy3  1  0.029900  0.713564  0.913907  1
  Y  Y4  1  0.348858  0.125688  0.166040  1
  Y  Y5  1  0.651142  0.874312  0.833960  1
  Ir  Ir6  1  0.000000  0.000000  0.000000  1
  I  I7  1  0.348497  0.448129  0.270644  1
  I  I8  1  0.651503  0.551871  0.729356  1
  I  I9  1  0.265214  0.089467  0.458482  1
  I  I10  1  0.734786  0.910533  0.541518  1
  I  I11  1  0.084231  0.377362  0.824132  1
  I  I12  1  0.915769  0.622638  0.175868  1
  I  I13  1  0.449615  0.816982  0.088865  1
  I  I14  1  0.550385  0.183018  0.911135  1
  I  I15  1  0.776304  0.260533  0.343282  1
  I  I16  1  0.223696  0.739467  0.656718  1
