# generated using pymatgen
data_CeTh(UH4)6
_symmetry_space_group_name_H-M   'P 1'
_cell_length_a   6.67821600
_cell_length_b   6.65287000
_cell_length_c   6.65287000
_cell_angle_alpha   90.00000000
_cell_angle_beta   90.00000000
_cell_angle_gamma   90.00000000
_symmetry_Int_Tables_number   1
_chemical_formula_structural   CeTh(UH4)6
_chemical_formula_sum   'Ce1 Th1 U6 H24'
_cell_volume   295.58237625
_cell_formula_units_Z   1
loop_
 _symmetry_equiv_pos_site_id
 _symmetry_equiv_pos_as_xyz
  1  'x, y, z'
loop_
 _atom_site_type_symbol
 _atom_site_label
 _atom_site_symmetry_multiplicity
 _atom_site_fract_x
 _atom_site_fract_y
 _atom_site_fract_z
 _atom_site_occupancy
  Ce  Ce0  1  0.250000  0.000000  0.500000  1
  Th  Th1  1  0.750000  0.000000  0.500000  1
  U  U2  1  0.001138  0.000000  0.000000  1
  U  U3  1  0.498862  0.500000  0.500000  1
  U  U4  1  0.000168  0.500000  0.249015  1
  U  U5  1  0.000168  0.500000  0.750985  1
  U  U6  1  0.499832  0.749015  0.000000  1
  U  U7  1  0.499832  0.250985  0.000000  1
  H  H8  1  0.996783  0.159198  0.297162  1
  H  H9  1  0.503217  0.202838  0.659198  1
  H  H10  1  0.503217  0.797162  0.340802  1
  H  H11  1  0.807146  0.648789  0.500000  1
  H  H12  1  0.192360  0.648940  0.500000  1
  H  H13  1  0.344705  0.500000  0.803868  1
  H  H14  1  0.655038  0.500000  0.804136  1
  H  H15  1  0.307640  0.000000  0.148940  1
  H  H16  1  0.155295  0.303868  0.000000  1
  H  H17  1  0.844962  0.695864  0.000000  1
  H  H18  1  0.307640  0.000000  0.851060  1
  H  H19  1  0.844962  0.304136  0.000000  1
  H  H20  1  0.692854  0.000000  0.148789  1
  H  H21  1  0.692854  0.000000  0.851211  1
  H  H22  1  0.155295  0.696132  0.000000  1
  H  H23  1  0.996783  0.840802  0.702838  1
  H  H24  1  0.996783  0.159198  0.702838  1
  H  H25  1  0.996783  0.840802  0.297162  1
  H  H26  1  0.655038  0.500000  0.195864  1
  H  H27  1  0.344705  0.500000  0.196132  1
  H  H28  1  0.807146  0.351211  0.500000  1
  H  H29  1  0.192360  0.351060  0.500000  1
  H  H30  1  0.503217  0.797162  0.659198  1
  H  H31  1  0.503217  0.202838  0.340802  1
