# generated using pymatgen
data_Lu20Al3GaBi8
_symmetry_space_group_name_H-M   'P 1'
_cell_length_a   8.00760489
_cell_length_b   9.26324300
_cell_length_c   11.64512832
_cell_angle_alpha   90.00000000
_cell_angle_beta   90.05435025
_cell_angle_gamma   90.00000000
_symmetry_Int_Tables_number   1
_chemical_formula_structural   Lu20Al3GaBi8
_chemical_formula_sum   'Lu20 Al3 Ga1 Bi8'
_cell_volume   863.79319098
_cell_formula_units_Z   1
loop_
 _symmetry_equiv_pos_site_id
 _symmetry_equiv_pos_as_xyz
  1  'x, y, z'
loop_
 _atom_site_type_symbol
 _atom_site_label
 _atom_site_symmetry_multiplicity
 _atom_site_fract_x
 _atom_site_fract_y
 _atom_site_fract_z
 _atom_site_occupancy
  Lu  Lu0  1  0.037020  0.250000  0.508701  1
  Lu  Lu1  1  0.966105  0.750000  0.491916  1
  Lu  Lu2  1  0.464978  0.750000  0.008805  1
  Lu  Lu3  1  0.535682  0.250000  0.991459  1
  Lu  Lu4  1  0.344123  0.250000  0.295809  1
  Lu  Lu5  1  0.656845  0.750000  0.704976  1
  Lu  Lu6  1  0.153399  0.750000  0.795052  1
  Lu  Lu7  1  0.845703  0.250000  0.204305  1
  Lu  Lu8  1  0.191027  0.250000  0.783962  1
  Lu  Lu9  1  0.811370  0.750000  0.216338  1
  Lu  Lu10  1  0.311391  0.750000  0.284441  1
  Lu  Lu11  1  0.682978  0.250000  0.713503  1
  Lu  Lu12  1  0.186334  0.060003  0.054449  1
  Lu  Lu13  1  0.813788  0.939983  0.945673  1
  Lu  Lu14  1  0.315083  0.943168  0.555095  1
  Lu  Lu15  1  0.813788  0.560017  0.945673  1
  Lu  Lu16  1  0.685310  0.060557  0.445720  1
  Lu  Lu17  1  0.186334  0.439997  0.054449  1
  Lu  Lu18  1  0.685310  0.439443  0.445720  1
  Lu  Lu19  1  0.315083  0.556832  0.555095  1
  Al  Al20  1  0.591021  0.750000  0.456261  1
  Al  Al21  1  0.091544  0.750000  0.045027  1
  Al  Al22  1  0.908534  0.250000  0.954056  1
  Ga  Ga23  1  0.408909  0.250000  0.540428  1
  Bi  Bi24  1  0.053042  0.000912  0.320368  1
  Bi  Bi25  1  0.946263  0.000761  0.679980  1
  Bi  Bi26  1  0.447069  0.998213  0.820447  1
  Bi  Bi27  1  0.946263  0.499239  0.679980  1
  Bi  Bi28  1  0.552795  0.001122  0.180747  1
  Bi  Bi29  1  0.053042  0.499088  0.320368  1
  Bi  Bi30  1  0.552795  0.498878  0.180747  1
  Bi  Bi31  1  0.447069  0.501787  0.820447  1
