# generated using pymatgen
data_Hf3Ga3Ni3H2
_symmetry_space_group_name_H-M   'P 1'
_cell_length_a   6.82119600
_cell_length_b   6.82119598
_cell_length_c   3.57681500
_cell_angle_alpha   90.00000000
_cell_angle_beta   90.00000000
_cell_angle_gamma   120.00000008
_symmetry_Int_Tables_number   1
_chemical_formula_structural   Hf3Ga3Ni3H2
_chemical_formula_sum   'Hf3 Ga3 Ni3 H2'
_cell_volume   144.12793549
_cell_formula_units_Z   1
loop_
 _symmetry_equiv_pos_site_id
 _symmetry_equiv_pos_as_xyz
  1  'x, y, z'
loop_
 _atom_site_type_symbol
 _atom_site_label
 _atom_site_symmetry_multiplicity
 _atom_site_fract_x
 _atom_site_fract_y
 _atom_site_fract_z
 _atom_site_occupancy
  Hf  Hf0  1  0.399651  0.399651  0.500000  1
  Hf  Hf1  1  0.600349  0.000000  0.500000  1
  Hf  Hf2  1  0.000000  0.600349  0.500000  1
  Ga  Ga3  1  0.741585  0.741585  0.000000  1
  Ga  Ga4  1  0.258415  0.000000  0.000000  1
  Ga  Ga5  1  0.000000  0.258415  0.000000  1
  Ni  Ni6  1  0.000000  0.000000  0.500000  1
  Ni  Ni7  1  0.666667  0.333333  0.000000  1
  Ni  Ni8  1  0.333333  0.666667  0.000000  1
  H  H9  1  0.333333  0.666667  0.500000  1
  H  H10  1  0.666667  0.333333  0.500000  1
