# generated using pymatgen
data_La3Pr4Pa(ZnRh)8
_symmetry_space_group_name_H-M   'P 1'
_cell_length_a   4.01152300
_cell_length_b   7.41040236
_cell_length_c   16.70681388
_cell_angle_alpha   89.40343032
_cell_angle_beta   90.00000000
_cell_angle_gamma   90.00000000
_symmetry_Int_Tables_number   1
_chemical_formula_structural   La3Pr4Pa(ZnRh)8
_chemical_formula_sum   'La3 Pr4 Pa1 Zn8 Rh8'
_cell_volume   496.61652692
_cell_formula_units_Z   1
loop_
 _symmetry_equiv_pos_site_id
 _symmetry_equiv_pos_as_xyz
  1  'x, y, z'
loop_
 _atom_site_type_symbol
 _atom_site_label
 _atom_site_symmetry_multiplicity
 _atom_site_fract_x
 _atom_site_fract_y
 _atom_site_fract_z
 _atom_site_occupancy
  La  La0  1  0.250000  0.048596  0.715139  1
  La  La1  1  0.250000  0.169080  0.940507  1
  La  La2  1  0.250000  0.549218  0.784027  1
  Pr  Pr3  1  0.750000  0.948833  0.282752  1
  Pr  Pr4  1  0.750000  0.822080  0.061077  1
  Pr  Pr5  1  0.750000  0.333706  0.439493  1
  Pr  Pr6  1  0.250000  0.671395  0.559506  1
  Pa  Pa7  1  0.750000  0.445574  0.215001  1
  Zn  Zn8  1  0.250000  0.002775  0.439149  1
  Zn  Zn9  1  0.750000  0.503985  0.941008  1
  Zn  Zn10  1  0.750000  0.003270  0.558895  1
  Zn  Zn11  1  0.250000  0.623652  0.350679  1
  Zn  Zn12  1  0.750000  0.377384  0.649514  1
  Zn  Zn13  1  0.750000  0.877867  0.849678  1
  Zn  Zn14  1  0.250000  0.499597  0.058000  1
  Zn  Zn15  1  0.250000  0.118969  0.151845  1
  Rh  Rh16  1  0.250000  0.244399  0.565378  1
  Rh  Rh17  1  0.750000  0.268568  0.075602  1
  Rh  Rh18  1  0.250000  0.268282  0.299917  1
  Rh  Rh19  1  0.750000  0.254251  0.817018  1
  Rh  Rh20  1  0.250000  0.747731  0.934140  1
  Rh  Rh21  1  0.750000  0.754085  0.687014  1
  Rh  Rh22  1  0.750000  0.763477  0.434116  1
  Rh  Rh23  1  0.250000  0.703225  0.190544  1
