# generated using pymatgen
data_Ho8Ta11Ge16Mo
_symmetry_space_group_name_H-M   'P 1'
_cell_length_a   6.96971280
_cell_length_b   7.13864617
_cell_length_c   13.47762774
_cell_angle_alpha   90.01278105
_cell_angle_beta   89.98754688
_cell_angle_gamma   89.99236790
_symmetry_Int_Tables_number   1
_chemical_formula_structural   Ho8Ta11Ge16Mo
_chemical_formula_sum   'Ho8 Ta11 Ge16 Mo1'
_cell_volume   670.57007837
_cell_formula_units_Z   1
loop_
 _symmetry_equiv_pos_site_id
 _symmetry_equiv_pos_as_xyz
  1  'x, y, z'
loop_
 _atom_site_type_symbol
 _atom_site_label
 _atom_site_symmetry_multiplicity
 _atom_site_fract_x
 _atom_site_fract_y
 _atom_site_fract_z
 _atom_site_occupancy
  Ho  Ho0  1  0.498224  0.327265  0.094347  1
  Ho  Ho1  1  0.997167  0.173910  0.405598  1
  Ho  Ho2  1  0.501309  0.674082  0.594035  1
  Ho  Ho3  1  0.002353  0.827256  0.905619  1
  Ho  Ho4  1  0.502112  0.672959  0.905108  1
  Ho  Ho5  1  0.003140  0.827102  0.594737  1
  Ho  Ho6  1  0.497715  0.326820  0.406948  1
  Ho  Ho7  1  0.998078  0.173668  0.094786  1
  Ta  Ta8  1  0.839361  0.330079  0.625364  1
  Ta  Ta9  1  0.338518  0.170359  0.872789  1
  Ta  Ta10  1  0.162154  0.669894  0.126102  1
  Ta  Ta11  1  0.660395  0.830762  0.374336  1
  Ta  Ta12  1  0.164759  0.669887  0.375258  1
  Ta  Ta13  1  0.662641  0.829900  0.126123  1
  Ta  Ta14  1  0.837511  0.330078  0.872777  1
  Ta  Ta15  1  0.660994  0.013562  0.748862  1
  Ta  Ta16  1  0.160176  0.486386  0.749482  1
  Ta  Ta17  1  0.339205  0.987770  0.250431  1
  Ta  Ta18  1  0.838735  0.513158  0.250181  1
  Ge  Ge19  1  0.671565  0.038442  0.542598  1
  Ge  Ge20  1  0.173996  0.462110  0.957636  1
  Ge  Ge21  1  0.326112  0.962815  0.042129  1
  Ge  Ge22  1  0.826219  0.538742  0.457885  1
  Ge  Ge23  1  0.324960  0.963542  0.459422  1
  Ge  Ge24  1  0.825762  0.537392  0.041713  1
  Ge  Ge25  1  0.673728  0.037771  0.958060  1
  Ge  Ge26  1  0.174680  0.458239  0.543453  1
  Ge  Ge27  1  0.535133  0.377450  0.747504  1
  Ge  Ge28  1  0.038789  0.121114  0.749374  1
  Ge  Ge29  1  0.463636  0.620543  0.250118  1
  Ge  Ge30  1  0.963519  0.878473  0.250665  1
  Ge  Ge31  1  0.800850  0.640165  0.749819  1
  Ge  Ge32  1  0.303072  0.860585  0.750006  1
  Ge  Ge33  1  0.198728  0.359708  0.250549  1
  Ge  Ge34  1  0.697572  0.141132  0.249943  1
  Mo  Mo35  1  0.337134  0.166880  0.626239  1
