# generated using pymatgen
data_Li8Sm8In3Sb5
_symmetry_space_group_name_H-M   'P 1'
_cell_length_a   9.49582431
_cell_length_b   9.48918081
_cell_length_c   7.45214655
_cell_angle_alpha   90.00000338
_cell_angle_beta   89.89184526
_cell_angle_gamma   119.97686472
_symmetry_Int_Tables_number   1
_chemical_formula_structural   Li8Sm8In3Sb5
_chemical_formula_sum   'Li8 Sm8 In3 Sb5'
_cell_volume   581.66586513
_cell_formula_units_Z   1
loop_
 _symmetry_equiv_pos_site_id
 _symmetry_equiv_pos_as_xyz
  1  'x, y, z'
loop_
 _atom_site_type_symbol
 _atom_site_label
 _atom_site_symmetry_multiplicity
 _atom_site_fract_x
 _atom_site_fract_y
 _atom_site_fract_z
 _atom_site_occupancy
  Li  Li0  1  0.833170  0.166914  0.726538  1
  Li  Li1  1  0.833170  0.666255  0.726538  1
  Li  Li2  1  0.333566  0.166783  0.723659  1
  Li  Li3  1  0.166756  0.833177  0.224871  1
  Li  Li4  1  0.166756  0.333579  0.224871  1
  Li  Li5  1  0.666144  0.833071  0.224354  1
  Li  Li6  1  0.667119  0.333559  0.311666  1
  Li  Li7  1  0.333376  0.666688  0.810404  1
  Sm  Sm8  1  0.491999  0.511085  0.506611  1
  Sm  Sm9  1  0.491999  0.980915  0.506611  1
  Sm  Sm10  1  0.017833  0.508918  0.504947  1
  Sm  Sm11  1  0.510310  0.492887  0.002570  1
  Sm  Sm12  1  0.510310  0.017421  0.002570  1
  Sm  Sm13  1  0.982357  0.491178  0.004874  1
  Sm  Sm14  1  0.997061  0.998530  0.502188  1
  Sm  Sm15  1  0.997857  0.998928  0.996511  1
  In  In16  1  0.667388  0.833695  0.765697  1
  In  In17  1  0.667425  0.333711  0.738867  1
  In  In18  1  0.332183  0.666091  0.238632  1
  Sb  Sb19  1  0.834140  0.166233  0.262856  1
  Sb  Sb20  1  0.834140  0.667906  0.262856  1
  Sb  Sb21  1  0.332033  0.166016  0.263635  1
  Sb  Sb22  1  0.166457  0.833445  0.762844  1
  Sb  Sb23  1  0.166457  0.333013  0.762844  1
