# generated using pymatgen
data_Rb6TmInBi4
_symmetry_space_group_name_H-M   'P 1'
_cell_length_a   10.34773847
_cell_length_b   10.34773878
_cell_length_c   10.34774036
_cell_angle_alpha   128.71894332
_cell_angle_beta   69.05004585
_cell_angle_gamma   137.05867522
_symmetry_Int_Tables_number   1
_chemical_formula_structural   Rb6TmInBi4
_chemical_formula_sum   'Rb6 Tm1 In1 Bi4'
_cell_volume   578.33666193
_cell_formula_units_Z   1
loop_
 _symmetry_equiv_pos_site_id
 _symmetry_equiv_pos_as_xyz
  1  'x, y, z'
loop_
 _atom_site_type_symbol
 _atom_site_label
 _atom_site_symmetry_multiplicity
 _atom_site_fract_x
 _atom_site_fract_y
 _atom_site_fract_z
 _atom_site_occupancy
  Rb  Rb0  1  0.250000  0.250000  0.000000  1
  Rb  Rb1  1  0.750000  0.750000  0.000000  1
  Rb  Rb2  1  0.828657  0.315560  0.123882  1
  Rb  Rb3  1  0.671342  0.795226  0.486903  1
  Rb  Rb4  1  0.308322  0.184440  0.513097  1
  Rb  Rb5  1  0.191677  0.704775  0.876118  1
  Tm  Tm6  1  0.750000  0.250000  0.500000  1
  In  In7  1  0.250000  0.750000  0.500000  1
  Bi  Bi8  1  0.395982  0.803288  0.205680  1
  Bi  Bi9  1  0.104018  0.309698  0.407307  1
  Bi  Bi10  1  0.902392  0.696712  0.592694  1
  Bi  Bi11  1  0.597608  0.190302  0.794320  1
