# generated using pymatgen
data_Ti2MnNb4Co(BRu2)4
_symmetry_space_group_name_H-M   'P 1'
_cell_length_a   9.23455600
_cell_length_b   9.23455600
_cell_length_c   2.99610100
_cell_angle_alpha   90.00000000
_cell_angle_beta   90.00000000
_cell_angle_gamma   90.00000000
_symmetry_Int_Tables_number   1
_chemical_formula_structural   Ti2MnNb4Co(BRu2)4
_chemical_formula_sum   'Ti2 Mn1 Nb4 Co1 B4 Ru8'
_cell_volume   255.49857843
_cell_formula_units_Z   1
loop_
 _symmetry_equiv_pos_site_id
 _symmetry_equiv_pos_as_xyz
  1  'x, y, z'
loop_
 _atom_site_type_symbol
 _atom_site_label
 _atom_site_symmetry_multiplicity
 _atom_site_fract_x
 _atom_site_fract_y
 _atom_site_fract_z
 _atom_site_occupancy
  Ti  Ti0  1  0.500000  0.500000  0.000000  1
  Ti  Ti1  1  0.000000  0.000000  0.000000  1
  Mn  Mn2  1  0.500000  0.000000  0.500000  1
  Nb  Nb3  1  0.824339  0.675661  0.000000  1
  Nb  Nb4  1  0.175661  0.324339  0.000000  1
  Nb  Nb5  1  0.327968  0.827968  0.000000  1
  Nb  Nb6  1  0.672032  0.172032  0.000000  1
  Co  Co7  1  0.000000  0.500000  0.500000  1
  B  B8  1  0.615338  0.884662  0.000000  1
  B  B9  1  0.384662  0.115338  0.000000  1
  B  B10  1  0.114550  0.614550  0.000000  1
  B  B11  1  0.885450  0.385450  0.000000  1
  Ru  Ru12  1  0.567205  0.718493  0.500000  1
  Ru  Ru13  1  0.432795  0.281507  0.500000  1
  Ru  Ru14  1  0.066217  0.778319  0.500000  1
  Ru  Ru15  1  0.933783  0.221681  0.500000  1
  Ru  Ru16  1  0.278319  0.566217  0.500000  1
  Ru  Ru17  1  0.721681  0.433783  0.500000  1
  Ru  Ru18  1  0.218493  0.067205  0.500000  1
  Ru  Ru19  1  0.781507  0.932795  0.500000  1
