# generated using pymatgen
data_Tm3FeSi3Pt
_symmetry_space_group_name_H-M   'P 1'
_cell_length_a   5.53651562
_cell_length_b   5.53651502
_cell_length_c   13.68403384
_cell_angle_alpha   89.87243776
_cell_angle_beta   90.12756379
_cell_angle_gamma   135.93820612
_symmetry_Int_Tables_number   1
_chemical_formula_structural   Tm3FeSi3Pt
_chemical_formula_sum   'Tm6 Fe2 Si6 Pt2'
_cell_volume   291.70352745
_cell_formula_units_Z   2
loop_
 _symmetry_equiv_pos_site_id
 _symmetry_equiv_pos_as_xyz
  1  'x, y, z'
loop_
 _atom_site_type_symbol
 _atom_site_label
 _atom_site_symmetry_multiplicity
 _atom_site_fract_x
 _atom_site_fract_y
 _atom_site_fract_z
 _atom_site_occupancy
  Tm  Tm0  1  0.637325  0.362675  0.245744  1
  Tm  Tm1  1  0.362675  0.637325  0.754256  1
  Tm  Tm2  1  0.922022  0.077978  0.107950  1
  Tm  Tm3  1  0.077978  0.922022  0.892050  1
  Tm  Tm4  1  0.086063  0.913937  0.616418  1
  Tm  Tm5  1  0.913937  0.086063  0.383582  1
  Fe  Fe6  1  0.212541  0.787459  0.078769  1
  Fe  Fe7  1  0.787459  0.212541  0.921231  1
  Si  Si8  1  0.334026  0.665974  0.237007  1
  Si  Si9  1  0.665974  0.334026  0.762993  1
  Si  Si10  1  0.623870  0.376130  0.039235  1
  Si  Si11  1  0.376130  0.623870  0.960765  1
  Si  Si12  1  0.389420  0.610580  0.534690  1
  Si  Si13  1  0.610580  0.389420  0.465310  1
  Pt  Pt14  1  0.798701  0.201299  0.603278  1
  Pt  Pt15  1  0.201299  0.798701  0.396722  1
