# generated using pymatgen
data_Pr3TlCd3AgPt
_symmetry_space_group_name_H-M   'P 1'
_cell_length_a   8.21137700
_cell_length_b   8.21137754
_cell_length_c   3.96743500
_cell_angle_alpha   90.00000000
_cell_angle_beta   90.00000000
_cell_angle_gamma   119.99999378
_symmetry_Int_Tables_number   1
_chemical_formula_structural   Pr3TlCd3AgPt
_chemical_formula_sum   'Pr3 Tl1 Cd3 Ag1 Pt1'
_cell_volume   231.67143662
_cell_formula_units_Z   1
loop_
 _symmetry_equiv_pos_site_id
 _symmetry_equiv_pos_as_xyz
  1  'x, y, z'
loop_
 _atom_site_type_symbol
 _atom_site_label
 _atom_site_symmetry_multiplicity
 _atom_site_fract_x
 _atom_site_fract_y
 _atom_site_fract_z
 _atom_site_occupancy
  Pr  Pr0  1  0.576485  0.969925  0.000000  1
  Pr  Pr1  1  0.030075  0.606560  0.000000  1
  Pr  Pr2  1  0.393440  0.423515  0.000000  1
  Tl  Tl3  1  0.666667  0.333333  0.500000  1
  Cd  Cd4  1  0.254591  0.997623  0.500000  1
  Cd  Cd5  1  0.002377  0.256968  0.500000  1
  Cd  Cd6  1  0.743032  0.745409  0.500000  1
  Ag  Ag7  1  0.000000  0.000000  0.000000  1
  Pt  Pt8  1  0.333333  0.666667  0.500000  1
