# generated using pymatgen
data_Pr17Tm3Si15Rh
_symmetry_space_group_name_H-M   'P 1'
_cell_length_a   7.89403533
_cell_length_b   7.84432740
_cell_length_c   15.16898106
_cell_angle_alpha   90.09342455
_cell_angle_beta   89.70449550
_cell_angle_gamma   90.18721690
_symmetry_Int_Tables_number   1
_chemical_formula_structural   Pr17Tm3Si15Rh
_chemical_formula_sum   'Pr17 Tm3 Si15 Rh1'
_cell_volume   939.29611561
_cell_formula_units_Z   1
loop_
 _symmetry_equiv_pos_site_id
 _symmetry_equiv_pos_as_xyz
  1  'x, y, z'
loop_
 _atom_site_type_symbol
 _atom_site_label
 _atom_site_symmetry_multiplicity
 _atom_site_fract_x
 _atom_site_fract_y
 _atom_site_fract_z
 _atom_site_occupancy
  Pr  Pr0  1  0.694952  0.687798  0.500130  1
  Pr  Pr1  1  0.373803  0.010471  0.447965  1
  Pr  Pr2  1  0.489253  0.875591  0.699650  1
  Pr  Pr3  1  0.510943  0.124727  0.197269  1
  Pr  Pr4  1  0.875263  0.486989  0.299804  1
  Pr  Pr5  1  0.125305  0.505379  0.799645  1
  Pr  Pr6  1  0.626881  0.988700  0.949050  1
  Pr  Pr7  1  0.003282  0.374927  0.552153  1
  Pr  Pr8  1  0.988705  0.626380  0.051755  1
  Pr  Pr9  1  0.134540  0.986122  0.873447  1
  Pr  Pr10  1  0.518119  0.631338  0.125705  1
  Pr  Pr11  1  0.471981  0.363329  0.630556  1
  Pr  Pr12  1  0.628698  0.517232  0.874381  1
  Pr  Pr13  1  0.372459  0.481058  0.372167  1
  Pr  Pr14  1  0.873521  0.021250  0.377009  1
  Pr  Pr15  1  0.981323  0.126916  0.123067  1
  Pr  Pr16  1  0.025814  0.881647  0.625039  1
  Tm  Tm17  1  0.309130  0.308864  0.999221  1
  Tm  Tm18  1  0.188240  0.810010  0.250186  1
  Tm  Tm19  1  0.817662  0.188949  0.750087  1
  Si  Si20  1  0.330081  0.690806  0.952621  1
  Si  Si21  1  0.663268  0.303560  0.453593  1
  Si  Si22  1  0.693099  0.331729  0.047451  1
  Si  Si23  1  0.306018  0.669109  0.546581  1
  Si  Si24  1  0.810034  0.830615  0.204272  1
  Si  Si25  1  0.170007  0.191386  0.294922  1
  Si  Si26  1  0.832045  0.808050  0.797409  1
  Si  Si27  1  0.286905  0.924203  0.061779  1
  Si  Si28  1  0.574065  0.787985  0.309205  1
  Si  Si29  1  0.431239  0.208803  0.816158  1
  Si  Si30  1  0.784878  0.576868  0.691066  1
  Si  Si31  1  0.213089  0.424535  0.186315  1
  Si  Si32  1  0.706567  0.076476  0.563019  1
  Si  Si33  1  0.922288  0.285967  0.938640  1
  Si  Si34  1  0.083233  0.716991  0.436667  1
  Rh  Rh35  1  0.183307  0.175240  0.702013  1
