# generated using pymatgen
data_NdSm(AgTe)6
_symmetry_space_group_name_H-M   'P 1'
_cell_length_a   7.28857500
_cell_length_b   8.30627600
_cell_length_c   13.89155700
_cell_angle_alpha   90.00000000
_cell_angle_beta   90.00028173
_cell_angle_gamma   89.99998524
_symmetry_Int_Tables_number   1
_chemical_formula_structural   NdSm(AgTe)6
_chemical_formula_sum   'Nd2 Sm2 Ag12 Te12'
_cell_volume   841.00757984
_cell_formula_units_Z   2
loop_
 _symmetry_equiv_pos_site_id
 _symmetry_equiv_pos_as_xyz
  1  'x, y, z'
loop_
 _atom_site_type_symbol
 _atom_site_label
 _atom_site_symmetry_multiplicity
 _atom_site_fract_x
 _atom_site_fract_y
 _atom_site_fract_z
 _atom_site_occupancy
  Nd  Nd0  1  0.243053  0.749300  0.834693  1
  Nd  Nd1  1  0.743053  0.250700  0.334693  1
  Sm  Sm2  1  0.743019  0.250711  0.665064  1
  Sm  Sm3  1  0.243019  0.749289  0.165064  1
  Ag  Ag4  1  0.381734  0.121628  0.831741  1
  Ag  Ag5  1  0.624690  0.608761  0.999970  1
  Ag  Ag6  1  0.881479  0.878792  0.668222  1
  Ag  Ag7  1  0.606094  0.624129  0.671197  1
  Ag  Ag8  1  0.868805  0.887100  0.999979  1
  Ag  Ag9  1  0.124690  0.391239  0.499970  1
  Ag  Ag10  1  0.605854  0.624544  0.328744  1
  Ag  Ag11  1  0.368805  0.112900  0.499979  1
  Ag  Ag12  1  0.881734  0.878372  0.331741  1
  Ag  Ag13  1  0.381479  0.121208  0.168222  1
  Ag  Ag14  1  0.105854  0.375456  0.828744  1
  Ag  Ag15  1  0.106094  0.375871  0.171197  1
  Te  Te16  1  0.009539  0.561734  0.332723  1
  Te  Te17  1  0.508215  0.439588  0.166910  1
  Te  Te18  1  0.978036  0.058541  0.167395  1
  Te  Te19  1  0.008215  0.560412  0.666910  1
  Te  Te20  1  0.019701  0.568487  0.000569  1
  Te  Te21  1  0.509539  0.438266  0.832723  1
  Te  Te22  1  0.476719  0.940149  0.332236  1
  Te  Te23  1  0.478037  0.941459  0.667395  1
  Te  Te24  1  0.971062  0.073264  0.500557  1
  Te  Te25  1  0.471062  0.926736  0.000557  1
  Te  Te26  1  0.976719  0.059851  0.832236  1
  Te  Te27  1  0.519701  0.431513  0.500569  1
