# generated using pymatgen
data_Y6InFeSi
_symmetry_space_group_name_H-M   'P 1'
_cell_length_a   8.52871633
_cell_length_b   8.52871686
_cell_length_c   8.52871588
_cell_angle_alpha   113.05725396
_cell_angle_beta   110.30827930
_cell_angle_gamma   105.14591044
_symmetry_Int_Tables_number   1
_chemical_formula_structural   Y6InFeSi
_chemical_formula_sum   'Y12 In2 Fe2 Si2'
_cell_volume   475.24320683
_cell_formula_units_Z   2
loop_
 _symmetry_equiv_pos_site_id
 _symmetry_equiv_pos_as_xyz
  1  'x, y, z'
loop_
 _atom_site_type_symbol
 _atom_site_label
 _atom_site_symmetry_multiplicity
 _atom_site_fract_x
 _atom_site_fract_y
 _atom_site_fract_z
 _atom_site_occupancy
  Y  Y0  1  0.442535  0.239990  0.202546  1
  Y  Y1  1  0.557465  0.760010  0.797454  1
  Y  Y2  1  0.037444  0.239990  0.797454  1
  Y  Y3  1  0.962556  0.760010  0.202546  1
  Y  Y4  1  0.187769  0.288040  0.475809  1
  Y  Y5  1  0.812231  0.711960  0.524191  1
  Y  Y6  1  0.187769  0.711960  0.899729  1
  Y  Y7  1  0.812231  0.288040  0.100271  1
  Y  Y8  1  0.305536  0.615606  0.310070  1
  Y  Y9  1  0.694464  0.384394  0.689930  1
  Y  Y10  1  0.305536  0.995466  0.689930  1
  Y  Y11  1  0.694464  0.004534  0.310070  1
  In  In12  1  0.500000  0.500000  0.000000  1
  In  In13  1  0.000000  0.000000  0.000000  1
  Fe  Fe14  1  0.103275  0.603275  0.500000  1
  Fe  Fe15  1  0.896725  0.396725  0.500000  1
  Si  Si16  1  0.364085  0.000000  0.364085  1
  Si  Si17  1  0.635915  0.000000  0.635915  1
