# generated using pymatgen
data_Pr3Nd3DyIrBr12
_symmetry_space_group_name_H-M   'P 1'
_cell_length_a   9.65324661
_cell_length_b   9.65324560
_cell_length_c   9.65324637
_cell_angle_alpha   107.27274246
_cell_angle_beta   107.27273696
_cell_angle_gamma   107.27272189
_symmetry_Int_Tables_number   1
_chemical_formula_structural   Pr3Nd3DyIrBr12
_chemical_formula_sum   'Pr3 Nd3 Dy1 Ir1 Br12'
_cell_volume   743.50099653
_cell_formula_units_Z   1
loop_
 _symmetry_equiv_pos_site_id
 _symmetry_equiv_pos_as_xyz
  1  'x, y, z'
loop_
 _atom_site_type_symbol
 _atom_site_label
 _atom_site_symmetry_multiplicity
 _atom_site_fract_x
 _atom_site_fract_y
 _atom_site_fract_z
 _atom_site_occupancy
  Pr  Pr0  1  0.975931  0.896316  0.685657  1
  Pr  Pr1  1  0.685657  0.975931  0.896316  1
  Pr  Pr2  1  0.896315  0.685657  0.975931  1
  Nd  Nd3  1  0.104035  0.312997  0.024616  1
  Nd  Nd4  1  0.312997  0.024617  0.104034  1
  Nd  Nd5  1  0.024617  0.104034  0.312998  1
  Dy  Dy6  1  0.499908  0.499908  0.499908  1
  Ir  Ir7  1  0.000540  0.000540  0.000540  1
  Br  Br8  1  0.222299  0.685484  0.074454  1
  Br  Br9  1  0.464616  0.389100  0.180488  1
  Br  Br10  1  0.685485  0.074454  0.222299  1
  Br  Br11  1  0.926313  0.780400  0.315540  1
  Br  Br12  1  0.180488  0.464616  0.389100  1
  Br  Br13  1  0.389100  0.180488  0.464616  1
  Br  Br14  1  0.609332  0.818490  0.533487  1
  Br  Br15  1  0.818491  0.533486  0.609332  1
  Br  Br16  1  0.074454  0.222299  0.685485  1
  Br  Br17  1  0.315540  0.926313  0.780400  1
  Br  Br18  1  0.533486  0.609332  0.818491  1
  Br  Br19  1  0.780400  0.315540  0.926312  1
