# generated using pymatgen
data_CuOsF6
_symmetry_space_group_name_H-M   'P 1'
_cell_length_a   5.58931272
_cell_length_b   5.58931337
_cell_length_c   5.58931313
_cell_angle_alpha   55.71007981
_cell_angle_beta   55.71007447
_cell_angle_gamma   55.71007909
_symmetry_Int_Tables_number   1
_chemical_formula_structural   CuOsF6
_chemical_formula_sum   'Cu1 Os1 F6'
_cell_volume   111.18279650
_cell_formula_units_Z   1
loop_
 _symmetry_equiv_pos_site_id
 _symmetry_equiv_pos_as_xyz
  1  'x, y, z'
loop_
 _atom_site_type_symbol
 _atom_site_label
 _atom_site_symmetry_multiplicity
 _atom_site_fract_x
 _atom_site_fract_y
 _atom_site_fract_z
 _atom_site_occupancy
  Cu  Cu0  1  0.500000  0.500000  0.500000  1
  Os  Os1  1  0.000000  0.000000  0.000000  1
  F  F2  1  0.365908  0.112090  0.761378  1
  F  F3  1  0.761378  0.365908  0.112090  1
  F  F4  1  0.112090  0.761378  0.365908  1
  F  F5  1  0.634092  0.887910  0.238622  1
  F  F6  1  0.238622  0.634092  0.887910  1
  F  F7  1  0.887910  0.238622  0.634092  1
