# generated using pymatgen
data_Li4CaNd2HoSi6
_symmetry_space_group_name_H-M   'P 1'
_cell_length_a   9.44992410
_cell_length_b   9.44992426
_cell_length_c   6.86774300
_cell_angle_alpha   90.00000000
_cell_angle_beta   90.00000000
_cell_angle_gamma   153.59861451
_symmetry_Int_Tables_number   1
_chemical_formula_structural   Li4CaNd2HoSi6
_chemical_formula_sum   'Li4 Ca1 Nd2 Ho1 Si6'
_cell_volume   272.70660633
_cell_formula_units_Z   1
loop_
 _symmetry_equiv_pos_site_id
 _symmetry_equiv_pos_as_xyz
  1  'x, y, z'
loop_
 _atom_site_type_symbol
 _atom_site_label
 _atom_site_symmetry_multiplicity
 _atom_site_fract_x
 _atom_site_fract_y
 _atom_site_fract_z
 _atom_site_occupancy
  Li  Li0  1  0.189460  0.810540  0.059499  1
  Li  Li1  1  0.189460  0.810540  0.440501  1
  Li  Li2  1  0.809707  0.190293  0.943151  1
  Li  Li3  1  0.809707  0.190293  0.556849  1
  Ca  Ca4  1  0.341736  0.658264  0.250000  1
  Nd  Nd5  1  0.553603  0.446397  0.250000  1
  Nd  Nd6  1  0.447060  0.552940  0.750000  1
  Ho  Ho7  1  0.657552  0.342448  0.750000  1
  Si  Si8  1  0.718571  0.281429  0.250000  1
  Si  Si9  1  0.274000  0.726000  0.750000  1
  Si  Si10  1  0.060317  0.939683  0.923055  1
  Si  Si11  1  0.944255  0.055745  0.075512  1
  Si  Si12  1  0.944255  0.055745  0.424488  1
  Si  Si13  1  0.060317  0.939683  0.576945  1
