# generated using pymatgen
data_YTm5(Ir7Rh2)2
_symmetry_space_group_name_H-M   'P 1'
_cell_length_a   5.28771000
_cell_length_b   5.28773349
_cell_length_c   17.40849800
_cell_angle_alpha   90.00000000
_cell_angle_beta   90.00000000
_cell_angle_gamma   119.99996812
_symmetry_Int_Tables_number   1
_chemical_formula_structural   YTm5(Ir7Rh2)2
_chemical_formula_sum   'Y1 Tm5 Ir14 Rh4'
_cell_volume   421.53074834
_cell_formula_units_Z   1
loop_
 _symmetry_equiv_pos_site_id
 _symmetry_equiv_pos_as_xyz
  1  'x, y, z'
loop_
 _atom_site_type_symbol
 _atom_site_label
 _atom_site_symmetry_multiplicity
 _atom_site_fract_x
 _atom_site_fract_y
 _atom_site_fract_z
 _atom_site_occupancy
  Y  Y0  1  0.666666  0.333337  0.250000  1
  Tm  Tm1  1  0.333331  0.666666  0.958699  1
  Tm  Tm2  1  0.666666  0.333334  0.040841  1
  Tm  Tm3  1  0.666666  0.333334  0.459159  1
  Tm  Tm4  1  0.333331  0.666666  0.541301  1
  Tm  Tm5  1  0.333332  0.666666  0.750000  1
  Ir  Ir6  1  0.167879  0.832123  0.375096  1
  Ir  Ir7  1  0.167880  0.335758  0.375096  1
  Ir  Ir8  1  0.664245  0.832124  0.375096  1
  Ir  Ir9  1  0.832157  0.167841  0.625276  1
  Ir  Ir10  1  0.832157  0.664310  0.625277  1
  Ir  Ir11  1  0.335689  0.167842  0.625276  1
  Ir  Ir12  1  0.832157  0.167841  0.874724  1
  Ir  Ir13  1  0.832157  0.664310  0.874723  1
  Ir  Ir14  1  0.335689  0.167842  0.874724  1
  Ir  Ir15  1  0.167879  0.832123  0.124904  1
  Ir  Ir16  1  0.167880  0.335758  0.124904  1
  Ir  Ir17  1  0.664245  0.832124  0.124904  1
  Ir  Ir18  1  0.999998  0.999999  0.500123  1
  Ir  Ir19  1  0.999998  0.999999  0.999877  1
  Rh  Rh20  1  0.333339  0.666669  0.250000  1
  Rh  Rh21  1  0.666668  0.333327  0.750000  1
  Rh  Rh22  1  0.999995  0.999998  0.250000  1
  Rh  Rh23  1  0.999998  0.000008  0.750000  1
