# generated using pymatgen
data_Ce3Pr(TaN2)4
_symmetry_space_group_name_H-M   'P 1'
_cell_length_a   3.34853900
_cell_length_b   5.79134014
_cell_length_c   11.04939290
_cell_angle_alpha   90.13008628
_cell_angle_beta   90.00000000
_cell_angle_gamma   90.00000000
_symmetry_Int_Tables_number   1
_chemical_formula_structural   Ce3Pr(TaN2)4
_chemical_formula_sum   'Ce3 Pr1 Ta4 N8'
_cell_volume   214.27511253
_cell_formula_units_Z   1
loop_
 _symmetry_equiv_pos_site_id
 _symmetry_equiv_pos_as_xyz
  1  'x, y, z'
loop_
 _atom_site_type_symbol
 _atom_site_label
 _atom_site_symmetry_multiplicity
 _atom_site_fract_x
 _atom_site_fract_y
 _atom_site_fract_z
 _atom_site_occupancy
  Ce  Ce0  1  0.250000  0.579986  0.861901  1
  Ce  Ce1  1  0.750000  0.420965  0.137059  1
  Ce  Ce2  1  0.750000  0.919451  0.362227  1
  Pr  Pr3  1  0.250000  0.081886  0.638865  1
  Ta  Ta4  1  0.250000  0.921649  0.106962  1
  Ta  Ta5  1  0.750000  0.078654  0.894165  1
  Ta  Ta6  1  0.750000  0.577865  0.607144  1
  Ta  Ta7  1  0.250000  0.421313  0.391033  1
  N  N8  1  0.250000  0.663374  0.245301  1
  N  N9  1  0.750000  0.339746  0.755672  1
  N  N10  1  0.750000  0.830969  0.750637  1
  N  N11  1  0.250000  0.162793  0.253327  1
  N  N12  1  0.250000  0.729996  0.508923  1
  N  N13  1  0.750000  0.271834  0.486219  1
  N  N14  1  0.750000  0.765804  0.011085  1
  N  N15  1  0.250000  0.233716  0.989480  1
