# generated using pymatgen
data_Ba2LiSmO4
_symmetry_space_group_name_H-M   'P 1'
_cell_length_a   12.07687700
_cell_length_b   12.29150300
_cell_length_c   3.65136300
_cell_angle_alpha   90.00000000
_cell_angle_beta   90.00000000
_cell_angle_gamma   90.00000000
_symmetry_Int_Tables_number   1
_chemical_formula_structural   Ba2LiSmO4
_chemical_formula_sum   'Ba8 Li4 Sm4 O16'
_cell_volume   542.01916782
_cell_formula_units_Z   4
loop_
 _symmetry_equiv_pos_site_id
 _symmetry_equiv_pos_as_xyz
  1  'x, y, z'
loop_
 _atom_site_type_symbol
 _atom_site_label
 _atom_site_symmetry_multiplicity
 _atom_site_fract_x
 _atom_site_fract_y
 _atom_site_fract_z
 _atom_site_occupancy
  Ba  Ba0  1  0.426305  0.137293  0.249999  1
  Ba  Ba1  1  0.618218  0.405591  0.249999  1
  Ba  Ba2  1  0.073695  0.637293  0.249999  1
  Ba  Ba3  1  0.881782  0.905591  0.249999  1
  Ba  Ba4  1  0.118218  0.094410  0.749999  1
  Ba  Ba5  1  0.926305  0.362707  0.749999  1
  Ba  Ba6  1  0.381781  0.594410  0.749999  1
  Ba  Ba7  1  0.573694  0.862706  0.749999  1
  Li  Li8  1  0.907019  0.157772  0.249999  1
  Li  Li9  1  0.592981  0.657771  0.249999  1
  Li  Li10  1  0.407019  0.342228  0.749999  1
  Li  Li11  1  0.092981  0.842228  0.749999  1
  Sm  Sm12  1  0.205997  0.356337  0.249999  1
  Sm  Sm13  1  0.294003  0.856337  0.249999  1
  Sm  Sm14  1  0.705996  0.143662  0.749999  1
  Sm  Sm15  1  0.794003  0.643663  0.749999  1
  O  O16  1  0.638691  0.034025  0.249999  1
  O  O17  1  0.046708  0.245802  0.249999  1
  O  O18  1  0.778000  0.252878  0.249999  1
  O  O19  1  0.388483  0.425868  0.249999  1
  O  O20  1  0.861311  0.534026  0.249999  1
  O  O21  1  0.453292  0.745802  0.249999  1
  O  O22  1  0.722000  0.752879  0.249999  1
  O  O23  1  0.111517  0.925868  0.249999  1
  O  O24  1  0.888482  0.074131  0.749999  1
  O  O25  1  0.278000  0.247121  0.749999  1
  O  O26  1  0.546708  0.254198  0.749999  1
  O  O27  1  0.138691  0.465974  0.749999  1
  O  O28  1  0.611517  0.574132  0.749999  1
  O  O29  1  0.222000  0.747122  0.749999  1
  O  O30  1  0.953292  0.754198  0.749999  1
  O  O31  1  0.361309  0.965974  0.749999  1
