# generated using pymatgen
data_HfZr(Pa3Sb5)2
_symmetry_space_group_name_H-M   'P 1'
_cell_length_a   9.28403500
_cell_length_b   9.28403634
_cell_length_c   6.18774100
_cell_angle_alpha   90.00000000
_cell_angle_beta   90.00000000
_cell_angle_gamma   119.99999165
_symmetry_Int_Tables_number   1
_chemical_formula_structural   HfZr(Pa3Sb5)2
_chemical_formula_sum   'Hf1 Zr1 Pa6 Sb10'
_cell_volume   461.88769909
_cell_formula_units_Z   1
loop_
 _symmetry_equiv_pos_site_id
 _symmetry_equiv_pos_as_xyz
  1  'x, y, z'
loop_
 _atom_site_type_symbol
 _atom_site_label
 _atom_site_symmetry_multiplicity
 _atom_site_fract_x
 _atom_site_fract_y
 _atom_site_fract_z
 _atom_site_occupancy
  Hf  Hf0  1  0.000000  0.000000  0.500000  1
  Zr  Zr1  1  0.000000  0.000000  0.000000  1
  Pa  Pa2  1  0.615359  0.000000  0.249298  1
  Pa  Pa3  1  0.384641  0.000000  0.750702  1
  Pa  Pa4  1  0.000000  0.615359  0.249298  1
  Pa  Pa5  1  0.000000  0.384641  0.750702  1
  Pa  Pa6  1  0.384641  0.384641  0.249298  1
  Pa  Pa7  1  0.615359  0.615359  0.750702  1
  Sb  Sb8  1  0.271859  0.000000  0.251735  1
  Sb  Sb9  1  0.728141  0.000000  0.748265  1
  Sb  Sb10  1  0.000000  0.271859  0.251735  1
  Sb  Sb11  1  0.000000  0.728141  0.748265  1
  Sb  Sb12  1  0.728141  0.728141  0.251735  1
  Sb  Sb13  1  0.271859  0.271859  0.748265  1
  Sb  Sb14  1  0.333333  0.666667  0.000000  1
  Sb  Sb15  1  0.666667  0.333333  0.000000  1
  Sb  Sb16  1  0.666667  0.333333  0.500000  1
  Sb  Sb17  1  0.333333  0.666667  0.500000  1
