# generated using pymatgen
data_NdSm4Mn2O12
_symmetry_space_group_name_H-M   'P 1'
_cell_length_a   6.97410231
_cell_length_b   6.97410107
_cell_length_c   7.46109000
_cell_angle_alpha   74.55057141
_cell_angle_beta   74.55057489
_cell_angle_gamma   49.70902582
_symmetry_Int_Tables_number   1
_chemical_formula_structural   NdSm4Mn2O12
_chemical_formula_sum   'Nd1 Sm4 Mn2 O12'
_cell_volume   264.60664223
_cell_formula_units_Z   1
loop_
 _symmetry_equiv_pos_site_id
 _symmetry_equiv_pos_as_xyz
  1  'x, y, z'
loop_
 _atom_site_type_symbol
 _atom_site_label
 _atom_site_symmetry_multiplicity
 _atom_site_fract_x
 _atom_site_fract_y
 _atom_site_fract_z
 _atom_site_occupancy
  Nd  Nd0  1  0.000000  0.000000  0.500000  1
  Sm  Sm1  1  0.306986  0.306986  0.355236  1
  Sm  Sm2  1  0.693014  0.693014  0.644764  1
  Sm  Sm3  1  0.693490  0.693490  0.162875  1
  Sm  Sm4  1  0.306510  0.306510  0.837125  1
  Mn  Mn5  1  0.753829  0.246171  0.000000  1
  Mn  Mn6  1  0.246171  0.753829  0.000000  1
  O  O7  1  0.095749  0.593366  0.578010  1
  O  O8  1  0.999288  0.999288  0.172283  1
  O  O9  1  0.406634  0.904251  0.421990  1
  O  O10  1  0.500324  0.500324  0.174172  1
  O  O11  1  0.100343  0.583272  0.078115  1
  O  O12  1  0.904251  0.406634  0.421990  1
  O  O13  1  0.000712  0.000712  0.827717  1
  O  O14  1  0.593366  0.095748  0.578010  1
  O  O15  1  0.499676  0.499676  0.825828  1
  O  O16  1  0.583272  0.100343  0.078115  1
  O  O17  1  0.416728  0.899657  0.921885  1
  O  O18  1  0.899657  0.416728  0.921885  1
