# generated using pymatgen
data_Pr12Si8(IrRh3)3
_symmetry_space_group_name_H-M   'P 1'
_cell_length_a   5.78198203
_cell_length_b   7.82983004
_cell_length_c   15.02997300
_cell_angle_alpha   90.00000000
_cell_angle_beta   90.00000000
_cell_angle_gamma   90.01231302
_symmetry_Int_Tables_number   1
_chemical_formula_structural   Pr12Si8(IrRh3)3
_chemical_formula_sum   'Pr12 Si8 Ir3 Rh9'
_cell_volume   680.43596973
_cell_formula_units_Z   1
loop_
 _symmetry_equiv_pos_site_id
 _symmetry_equiv_pos_as_xyz
  1  'x, y, z'
loop_
 _atom_site_type_symbol
 _atom_site_label
 _atom_site_symmetry_multiplicity
 _atom_site_fract_x
 _atom_site_fract_y
 _atom_site_fract_z
 _atom_site_occupancy
  Pr  Pr0  1  0.138776  0.473433  0.890249  1
  Pr  Pr1  1  0.361639  0.973432  0.889841  1
  Pr  Pr2  1  0.605645  0.331991  0.750000  1
  Pr  Pr3  1  0.384179  0.667131  0.250000  1
  Pr  Pr4  1  0.639154  0.027560  0.390838  1
  Pr  Pr5  1  0.860573  0.524801  0.109360  1
  Pr  Pr6  1  0.860573  0.524801  0.390640  1
  Pr  Pr7  1  0.361639  0.973432  0.610159  1
  Pr  Pr8  1  0.894166  0.832635  0.750000  1
  Pr  Pr9  1  0.138776  0.473433  0.609751  1
  Pr  Pr10  1  0.639154  0.027560  0.109162  1
  Pr  Pr11  1  0.107491  0.165289  0.250000  1
  Si  Si12  1  0.368900  0.372099  0.098382  1
  Si  Si13  1  0.630357  0.628009  0.901449  1
  Si  Si14  1  0.869802  0.128190  0.901360  1
  Si  Si15  1  0.368900  0.372099  0.401618  1
  Si  Si16  1  0.869802  0.128190  0.598640  1
  Si  Si17  1  0.630357  0.628009  0.598551  1
  Si  Si18  1  0.131998  0.872054  0.403644  1
  Si  Si19  1  0.131998  0.872054  0.096356  1
  Ir  Ir20  1  0.573427  0.320325  0.250000  1
  Ir  Ir21  1  0.075262  0.180586  0.750000  1
  Ir  Ir22  1  0.426338  0.679830  0.750000  1
  Rh  Rh23  1  0.606669  0.339836  0.961953  1
  Rh  Rh24  1  0.397161  0.660367  0.038083  1
  Rh  Rh25  1  0.397161  0.660367  0.461917  1
  Rh  Rh26  1  0.105289  0.161053  0.462382  1
  Rh  Rh27  1  0.927747  0.819989  0.250000  1
  Rh  Rh28  1  0.105289  0.161053  0.037618  1
  Rh  Rh29  1  0.606669  0.339836  0.538047  1
  Rh  Rh30  1  0.892554  0.840278  0.538231  1
  Rh  Rh31  1  0.892554  0.840278  0.961769  1
