# generated using pymatgen
data_Dy4Lu6Si7Sn
_symmetry_space_group_name_H-M   'P 1'
_cell_length_a   7.43114000
_cell_length_b   7.62016026
_cell_length_c   14.49558036
_cell_angle_alpha   90.02762962
_cell_angle_beta   90.00000000
_cell_angle_gamma   90.00000000
_symmetry_Int_Tables_number   1
_chemical_formula_structural   Dy4Lu6Si7Sn
_chemical_formula_sum   'Dy8 Lu12 Si14 Sn2'
_cell_volume   820.83356236
_cell_formula_units_Z   2
loop_
 _symmetry_equiv_pos_site_id
 _symmetry_equiv_pos_as_xyz
  1  'x, y, z'
loop_
 _atom_site_type_symbol
 _atom_site_label
 _atom_site_symmetry_multiplicity
 _atom_site_fract_x
 _atom_site_fract_y
 _atom_site_fract_z
 _atom_site_occupancy
  Dy  Dy0  1  0.503064  0.315405  0.899289  1
  Dy  Dy1  1  0.003064  0.184595  0.600711  1
  Dy  Dy2  1  0.489121  0.671483  0.401083  1
  Dy  Dy3  1  0.989121  0.828517  0.098917  1
  Dy  Dy4  1  0.481338  0.685927  0.099975  1
  Dy  Dy5  1  0.981338  0.814073  0.400025  1
  Dy  Dy6  1  0.514111  0.324536  0.600545  1
  Dy  Dy7  1  0.014111  0.175464  0.899455  1
  Lu  Lu8  1  0.363824  0.830048  0.879392  1
  Lu  Lu9  1  0.863824  0.669952  0.620608  1
  Lu  Lu10  1  0.649134  0.171559  0.376653  1
  Lu  Lu11  1  0.149134  0.328441  0.123347  1
  Lu  Lu12  1  0.632069  0.158374  0.122778  1
  Lu  Lu13  1  0.132069  0.341626  0.377222  1
  Lu  Lu14  1  0.367735  0.818222  0.628188  1
  Lu  Lu15  1  0.867735  0.681778  0.871812  1
  Lu  Lu16  1  0.196864  0.496076  0.749223  1
  Lu  Lu17  1  0.696864  0.003924  0.750777  1
  Lu  Lu18  1  0.801779  0.502657  0.252448  1
  Lu  Lu19  1  0.301779  0.997343  0.247552  1
  Si  Si20  1  0.300879  0.035946  0.041170  1
  Si  Si21  1  0.800879  0.464054  0.458830  1
  Si  Si22  1  0.691622  0.963876  0.541901  1
  Si  Si23  1  0.191622  0.536124  0.958099  1
  Si  Si24  1  0.699275  0.965221  0.956881  1
  Si  Si25  1  0.199275  0.534779  0.543119  1
  Si  Si26  1  0.570682  0.608902  0.752070  1
  Si  Si27  1  0.070682  0.891098  0.747930  1
  Si  Si28  1  0.433515  0.386905  0.250419  1
  Si  Si29  1  0.933515  0.113095  0.249581  1
  Si  Si30  1  0.310045  0.128018  0.748980  1
  Si  Si31  1  0.810045  0.371982  0.751020  1
  Si  Si32  1  0.687984  0.868008  0.250352  1
  Si  Si33  1  0.187984  0.631992  0.249648  1
  Sn  Sn34  1  0.306960  0.037802  0.463736  1
  Sn  Sn35  1  0.806960  0.462198  0.036264  1
