# generated using pymatgen
data_RbCoP2Ru
_symmetry_space_group_name_H-M   'P 1'
_cell_length_a   7.48110045
_cell_length_b   7.48110018
_cell_length_c   7.48110067
_cell_angle_alpha   150.14211089
_cell_angle_beta   150.14211018
_cell_angle_gamma   42.73284403
_symmetry_Int_Tables_number   1
_chemical_formula_structural   RbCoP2Ru
_chemical_formula_sum   'Rb1 Co1 P2 Ru1'
_cell_volume   103.51283272
_cell_formula_units_Z   1
loop_
 _symmetry_equiv_pos_site_id
 _symmetry_equiv_pos_as_xyz
  1  'x, y, z'
loop_
 _atom_site_type_symbol
 _atom_site_label
 _atom_site_symmetry_multiplicity
 _atom_site_fract_x
 _atom_site_fract_y
 _atom_site_fract_z
 _atom_site_occupancy
  Rb  Rb0  1  0.000000  0.000000  0.000000  1
  Co  Co1  1  0.250000  0.750000  0.500000  1
  P  P2  1  0.336877  0.336877  0.000000  1
  P  P3  1  0.663123  0.663123  0.000000  1
  Ru  Ru4  1  0.750000  0.250000  0.500000  1
