# generated using pymatgen
data_Ca5Lu3(CdIn)4
_symmetry_space_group_name_H-M   'P 1'
_cell_length_a   7.42091884
_cell_length_b   5.38965900
_cell_length_c   10.78977706
_cell_angle_alpha   90.00000000
_cell_angle_beta   89.94729513
_cell_angle_gamma   90.00000000
_symmetry_Int_Tables_number   1
_chemical_formula_structural   Ca5Lu3(CdIn)4
_chemical_formula_sum   'Ca5 Lu3 Cd4 In4'
_cell_volume   431.55013636
_cell_formula_units_Z   1
loop_
 _symmetry_equiv_pos_site_id
 _symmetry_equiv_pos_as_xyz
  1  'x, y, z'
loop_
 _atom_site_type_symbol
 _atom_site_label
 _atom_site_symmetry_multiplicity
 _atom_site_fract_x
 _atom_site_fract_y
 _atom_site_fract_z
 _atom_site_occupancy
  Ca  Ca0  1  0.998816  0.250000  0.372731  1
  Ca  Ca1  1  0.999635  0.750000  0.628299  1
  Ca  Ca2  1  0.500776  0.750000  0.628097  1
  Ca  Ca3  1  0.001854  0.250000  0.870971  1
  Ca  Ca4  1  0.499888  0.250000  0.871244  1
  Lu  Lu5  1  0.497668  0.750000  0.128364  1
  Lu  Lu6  1  0.001824  0.750000  0.126849  1
  Lu  Lu7  1  0.499194  0.250000  0.373205  1
  Cd  Cd8  1  0.747462  0.250000  0.122750  1
  Cd  Cd9  1  0.255776  0.750000  0.375282  1
  Cd  Cd10  1  0.746358  0.250000  0.615541  1
  Cd  Cd11  1  0.250625  0.750000  0.886202  1
  In  In12  1  0.252802  0.250000  0.124976  1
  In  In13  1  0.742975  0.750000  0.372415  1
  In  In14  1  0.254159  0.250000  0.616292  1
  In  In15  1  0.750190  0.750000  0.886785  1
