# generated using pymatgen
data_Ca2Zr(AsPd)3
_symmetry_space_group_name_H-M   'P 1'
_cell_length_a   7.04777124
_cell_length_b   7.04776907
_cell_length_c   3.98895900
_cell_angle_alpha   90.00000000
_cell_angle_beta   90.00000000
_cell_angle_gamma   119.70071919
_symmetry_Int_Tables_number   1
_chemical_formula_structural   Ca2Zr(AsPd)3
_chemical_formula_sum   'Ca2 Zr1 As3 Pd3'
_cell_volume   172.10580106
_cell_formula_units_Z   1
loop_
 _symmetry_equiv_pos_site_id
 _symmetry_equiv_pos_as_xyz
  1  'x, y, z'
loop_
 _atom_site_type_symbol
 _atom_site_label
 _atom_site_symmetry_multiplicity
 _atom_site_fract_x
 _atom_site_fract_y
 _atom_site_fract_z
 _atom_site_occupancy
  Ca  Ca0  1  0.589357  0.995704  0.000000  1
  Ca  Ca1  1  0.995704  0.589357  0.000000  1
  Zr  Zr2  1  0.406869  0.406869  0.000000  1
  As  As3  1  0.336629  0.646166  0.500000  1
  As  As4  1  0.646166  0.336629  0.500000  1
  As  As5  1  0.024735  0.024735  0.000000  1
  Pd  Pd6  1  0.251184  0.992029  0.500000  1
  Pd  Pd7  1  0.992029  0.251184  0.500000  1
  Pd  Pd8  1  0.757326  0.757326  0.500000  1
