# generated using pymatgen
data_CsK9Rb2Al3FeSe12
_symmetry_space_group_name_H-M   'P 1'
_cell_length_a   13.73990557
_cell_length_b   8.23512197
_cell_length_c   10.53297200
_cell_angle_alpha   52.98653154
_cell_angle_beta   89.39793291
_cell_angle_gamma   89.57759351
_symmetry_Int_Tables_number   1
_chemical_formula_structural   CsK9Rb2Al3FeSe12
_chemical_formula_sum   'Cs1 K9 Rb2 Al3 Fe1 Se12'
_cell_volume   951.59473575
_cell_formula_units_Z   1
loop_
 _symmetry_equiv_pos_site_id
 _symmetry_equiv_pos_as_xyz
  1  'x, y, z'
loop_
 _atom_site_type_symbol
 _atom_site_label
 _atom_site_symmetry_multiplicity
 _atom_site_fract_x
 _atom_site_fract_y
 _atom_site_fract_z
 _atom_site_occupancy
  Cs  Cs0  1  0.311615  0.170563  0.056541  1
  K  K1  1  0.900404  0.318204  0.402702  1
  K  K2  1  0.619839  0.372246  0.474614  1
  K  K3  1  0.113974  0.629027  0.024870  1
  K  K4  1  0.383615  0.630557  0.526569  1
  K  K5  1  0.885303  0.365918  0.975640  1
  K  K6  1  0.610244  0.310873  0.905614  1
  K  K7  1  0.103817  0.683048  0.595663  1
  K  K8  1  0.395047  0.690241  0.094691  1
  K  K9  1  0.184337  0.161638  0.565737  1
  Rb  Rb10  1  0.686518  0.832816  0.940323  1
  Rb  Rb11  1  0.814005  0.835115  0.441167  1
  Al  Al12  1  0.564675  0.050461  0.346680  1
  Al  Al13  1  0.435627  0.961425  0.651667  1
  Al  Al14  1  0.935953  0.047306  0.845243  1
  Fe  Fe15  1  0.061291  0.939798  0.155825  1
  Se  Se16  1  0.410807  0.193282  0.362014  1
  Se  Se17  1  0.903377  0.816735  0.134766  1
  Se  Se18  1  0.589414  0.816202  0.637888  1
  Se  Se19  1  0.091584  0.175315  0.862340  1
  Se  Se20  1  0.690759  0.303106  0.211201  1
  Se  Se21  1  0.181951  0.676358  0.297800  1
  Se  Se22  1  0.306047  0.717668  0.780552  1
  Se  Se23  1  0.813248  0.306344  0.709410  1
  Se  Se24  1  0.548803  0.864027  0.241663  1
  Se  Se25  1  0.048765  0.128917  0.258812  1
  Se  Se26  1  0.456490  0.139563  0.762342  1
  Se  Se27  1  0.952493  0.863248  0.737665  1
