# generated using pymatgen
data_Dy2Ho3SiPb3
_symmetry_space_group_name_H-M   'P 1'
_cell_length_a   9.31864401
_cell_length_b   9.31864396
_cell_length_c   6.51801500
_cell_angle_alpha   90.00000000
_cell_angle_beta   90.00000000
_cell_angle_gamma   119.99612516
_symmetry_Int_Tables_number   1
_chemical_formula_structural   Dy2Ho3SiPb3
_chemical_formula_sum   'Dy4 Ho6 Si2 Pb6'
_cell_volume   490.19444239
_cell_formula_units_Z   2
loop_
 _symmetry_equiv_pos_site_id
 _symmetry_equiv_pos_as_xyz
  1  'x, y, z'
loop_
 _atom_site_type_symbol
 _atom_site_label
 _atom_site_symmetry_multiplicity
 _atom_site_fract_x
 _atom_site_fract_y
 _atom_site_fract_z
 _atom_site_occupancy
  Dy  Dy0  1  0.999944  0.249018  0.250000  1
  Dy  Dy1  1  0.750982  0.000056  0.750000  1
  Dy  Dy2  1  0.248980  0.248973  0.750000  1
  Dy  Dy3  1  0.751027  0.751020  0.250000  1
  Ho  Ho4  1  0.248550  0.999966  0.250000  1
  Ho  Ho5  1  0.000034  0.751450  0.750000  1
  Ho  Ho6  1  0.333281  0.666719  0.500000  1
  Ho  Ho7  1  0.666669  0.333331  0.500000  1
  Ho  Ho8  1  0.333281  0.666719  0.000000  1
  Ho  Ho9  1  0.666669  0.333331  0.000000  1
  Si  Si10  1  0.000297  0.999703  0.000000  1
  Si  Si11  1  0.000297  0.999703  0.500000  1
  Pb  Pb12  1  0.606837  0.999978  0.250000  1
  Pb  Pb13  1  0.392873  0.999878  0.750000  1
  Pb  Pb14  1  0.000122  0.607127  0.250000  1
  Pb  Pb15  1  0.607135  0.606999  0.750000  1
  Pb  Pb16  1  0.393001  0.392865  0.250000  1
  Pb  Pb17  1  0.000022  0.393163  0.750000  1
