# generated using pymatgen
data_YbTh3P4Pt3Rh
_symmetry_space_group_name_H-M   'P 1'
_cell_length_a   4.22088200
_cell_length_b   4.22088160
_cell_length_c   15.23887900
_cell_angle_alpha   90.00000000
_cell_angle_beta   90.00000000
_cell_angle_gamma   120.00001880
_symmetry_Int_Tables_number   1
_chemical_formula_structural   YbTh3P4Pt3Rh
_chemical_formula_sum   'Yb1 Th3 P4 Pt3 Rh1'
_cell_volume   235.12020470
_cell_formula_units_Z   1
loop_
 _symmetry_equiv_pos_site_id
 _symmetry_equiv_pos_as_xyz
  1  'x, y, z'
loop_
 _atom_site_type_symbol
 _atom_site_label
 _atom_site_symmetry_multiplicity
 _atom_site_fract_x
 _atom_site_fract_y
 _atom_site_fract_z
 _atom_site_occupancy
  Yb  Yb0  1  0.000000  0.000000  0.747991  1
  Th  Th1  1  0.000000  0.000000  0.503125  1
  Th  Th2  1  0.000000  0.000000  0.993759  1
  Th  Th3  1  0.000000  0.000000  0.256611  1
  P  P4  1  0.333333  0.666667  0.876620  1
  P  P5  1  0.666667  0.333333  0.123534  1
  P  P6  1  0.666667  0.333333  0.382804  1
  P  P7  1  0.333333  0.666667  0.621198  1
  Pt  Pt8  1  0.666667  0.333333  0.635262  1
  Pt  Pt9  1  0.666667  0.333333  0.864110  1
  Pt  Pt10  1  0.333333  0.666667  0.125552  1
  Rh  Rh11  1  0.333333  0.666667  0.369432  1
