# generated using pymatgen
data_Tb4GdRu2
_symmetry_space_group_name_H-M   'P 1'
_cell_length_a   8.53989818
_cell_length_b   8.53989790
_cell_length_c   7.28757500
_cell_angle_alpha   83.36725935
_cell_angle_beta   83.36725957
_cell_angle_gamma   43.90582709
_symmetry_Int_Tables_number   1
_chemical_formula_structural   Tb4GdRu2
_chemical_formula_sum   'Tb8 Gd2 Ru4'
_cell_volume   365.70019178
_cell_formula_units_Z   2
loop_
 _symmetry_equiv_pos_site_id
 _symmetry_equiv_pos_as_xyz
  1  'x, y, z'
loop_
 _atom_site_type_symbol
 _atom_site_label
 _atom_site_symmetry_multiplicity
 _atom_site_fract_x
 _atom_site_fract_y
 _atom_site_fract_z
 _atom_site_occupancy
  Tb  Tb0  1  0.206808  0.979448  0.584861  1
  Tb  Tb1  1  0.020552  0.793192  0.915139  1
  Tb  Tb2  1  0.206118  0.359556  0.314267  1
  Tb  Tb3  1  0.640444  0.793882  0.185733  1
  Tb  Tb4  1  0.793882  0.640444  0.685733  1
  Tb  Tb5  1  0.359556  0.206118  0.814267  1
  Tb  Tb6  1  0.979448  0.206808  0.084861  1
  Tb  Tb7  1  0.793192  0.020552  0.415139  1
  Gd  Gd8  1  0.578451  0.421549  0.750000  1
  Gd  Gd9  1  0.421549  0.578451  0.250000  1
  Ru  Ru10  1  0.174745  0.603582  0.575489  1
  Ru  Ru11  1  0.396418  0.825255  0.924511  1
  Ru  Ru12  1  0.825255  0.396418  0.424511  1
  Ru  Ru13  1  0.603582  0.174745  0.075489  1
