# generated using pymatgen
data_Tb5As2BrO10
_symmetry_space_group_name_H-M   'P 1'
_cell_length_a   5.60150771
_cell_length_b   6.71830293
_cell_length_c   8.74030600
_cell_angle_alpha   68.83980774
_cell_angle_beta   71.31351014
_cell_angle_gamma   65.36073913
_symmetry_Int_Tables_number   1
_chemical_formula_structural   Tb5As2BrO10
_chemical_formula_sum   'Tb5 As2 Br1 O10'
_cell_volume   273.15669341
_cell_formula_units_Z   1
loop_
 _symmetry_equiv_pos_site_id
 _symmetry_equiv_pos_as_xyz
  1  'x, y, z'
loop_
 _atom_site_type_symbol
 _atom_site_label
 _atom_site_symmetry_multiplicity
 _atom_site_fract_x
 _atom_site_fract_y
 _atom_site_fract_z
 _atom_site_occupancy
  Tb  Tb0  1  0.502112  0.707388  0.288484  1
  Tb  Tb1  1  0.257519  0.365330  0.119672  1
  Tb  Tb2  1  0.000000  0.000000  0.000000  1
  Tb  Tb3  1  0.742481  0.634670  0.880328  1
  Tb  Tb4  1  0.497888  0.292612  0.711516  1
  As  As5  1  0.215583  0.961065  0.607531  1
  As  As6  1  0.784417  0.038935  0.392469  1
  Br  Br7  1  0.000000  0.500000  0.500000  1
  O  O8  1  0.868770  0.672277  0.086315  1
  O  O9  1  0.899575  0.961014  0.759620  1
  O  O10  1  0.366119  0.673622  0.594165  1
  O  O11  1  0.633881  0.326378  0.405835  1
  O  O12  1  0.372662  0.672292  0.086306  1
  O  O13  1  0.627338  0.327708  0.913694  1
  O  O14  1  0.379705  0.961071  0.759532  1
  O  O15  1  0.131230  0.327723  0.913685  1
  O  O16  1  0.620295  0.038929  0.240468  1
  O  O17  1  0.100425  0.038986  0.240380  1
