# generated using pymatgen
data_DyHo8Er11(CoBi2)4
_symmetry_space_group_name_H-M   'P 1'
_cell_length_a   7.92494469
_cell_length_b   8.85398300
_cell_length_c   12.33517818
_cell_angle_alpha   90.00000000
_cell_angle_beta   90.03365963
_cell_angle_gamma   90.00000000
_symmetry_Int_Tables_number   1
_chemical_formula_structural   DyHo8Er11(CoBi2)4
_chemical_formula_sum   'Dy1 Ho8 Er11 Co4 Bi8'
_cell_volume   865.52631362
_cell_formula_units_Z   1
loop_
 _symmetry_equiv_pos_site_id
 _symmetry_equiv_pos_as_xyz
  1  'x, y, z'
loop_
 _atom_site_type_symbol
 _atom_site_label
 _atom_site_symmetry_multiplicity
 _atom_site_fract_x
 _atom_site_fract_y
 _atom_site_fract_z
 _atom_site_occupancy
  Dy  Dy0  1  0.115280  0.250000  0.188933  1
  Ho  Ho1  1  0.153006  0.750000  0.199891  1
  Ho  Ho2  1  0.885158  0.750000  0.811363  1
  Ho  Ho3  1  0.385044  0.250000  0.688620  1
  Ho  Ho4  1  0.615141  0.750000  0.311401  1
  Ho  Ho5  1  0.053449  0.750000  0.498101  1
  Ho  Ho6  1  0.946400  0.250000  0.502181  1
  Ho  Ho7  1  0.553526  0.250000  0.001955  1
  Ho  Ho8  1  0.446871  0.750000  0.997834  1
  Er  Er9  1  0.347297  0.750000  0.699459  1
  Er  Er10  1  0.652533  0.250000  0.300514  1
  Er  Er11  1  0.847136  0.250000  0.800391  1
  Er  Er12  1  0.674485  0.538107  0.563198  1
  Er  Er13  1  0.325551  0.461849  0.436879  1
  Er  Er14  1  0.174412  0.461925  0.936654  1
  Er  Er15  1  0.325551  0.038151  0.436879  1
  Er  Er16  1  0.825270  0.538077  0.062927  1
  Er  Er17  1  0.674485  0.961893  0.563198  1
  Er  Er18  1  0.825270  0.961923  0.062927  1
  Er  Er19  1  0.174412  0.038075  0.936654  1
  Co  Co20  1  0.065511  0.750000  0.992132  1
  Co  Co21  1  0.934284  0.250000  0.007481  1
  Co  Co22  1  0.565425  0.250000  0.507775  1
  Co  Co23  1  0.434368  0.750000  0.492228  1
  Bi  Bi24  1  0.571394  0.509500  0.826511  1
  Bi  Bi25  1  0.429183  0.490485  0.173361  1
  Bi  Bi26  1  0.071494  0.490471  0.673509  1
  Bi  Bi27  1  0.429183  0.009515  0.173361  1
  Bi  Bi28  1  0.927997  0.509437  0.326833  1
  Bi  Bi29  1  0.571394  0.990500  0.826511  1
  Bi  Bi30  1  0.927997  0.990563  0.326833  1
  Bi  Bi31  1  0.071494  0.009529  0.673509  1
