# generated using pymatgen
data_Ti8Tc4Os3Au
_symmetry_space_group_name_H-M   'P 1'
_cell_length_a   6.24384300
_cell_length_b   4.40693300
_cell_length_c   8.81155400
_cell_angle_alpha   90.00000000
_cell_angle_beta   89.99985506
_cell_angle_gamma   90.00000000
_symmetry_Int_Tables_number   1
_chemical_formula_structural   Ti8Tc4Os3Au
_chemical_formula_sum   'Ti8 Tc4 Os3 Au1'
_cell_volume   242.46046247
_cell_formula_units_Z   1
loop_
 _symmetry_equiv_pos_site_id
 _symmetry_equiv_pos_as_xyz
  1  'x, y, z'
loop_
 _atom_site_type_symbol
 _atom_site_label
 _atom_site_symmetry_multiplicity
 _atom_site_fract_x
 _atom_site_fract_y
 _atom_site_fract_z
 _atom_site_occupancy
  Ti  Ti0  1  0.986131  0.749999  0.125000  1
  Ti  Ti1  1  0.513895  0.749999  0.125004  1
  Ti  Ti2  1  0.994762  0.249999  0.382628  1
  Ti  Ti3  1  0.505260  0.249999  0.382629  1
  Ti  Ti4  1  0.497832  0.749999  0.625001  1
  Ti  Ti5  1  0.002145  0.749999  0.625005  1
  Ti  Ti6  1  0.505239  0.249999  0.867369  1
  Ti  Ti7  1  0.994737  0.249999  0.867375  1
  Tc  Tc8  1  0.750001  0.249999  0.125004  1
  Tc  Tc9  1  0.250018  0.749999  0.373334  1
  Tc  Tc10  1  0.749986  0.249999  0.625003  1
  Tc  Tc11  1  0.249994  0.749999  0.876645  1
  Os  Os12  1  0.750007  0.749999  0.375408  1
  Os  Os13  1  0.249994  0.249999  0.625007  1
  Os  Os14  1  0.749984  0.749999  0.874587  1
  Au  Au15  1  0.250013  0.249999  0.125002  1
