# generated using pymatgen
data_Ba6TbHo(BO3)6
_symmetry_space_group_name_H-M   'P 1'
_cell_length_a   8.22631290
_cell_length_b   8.22631395
_cell_length_c   8.22631328
_cell_angle_alpha   105.60319709
_cell_angle_beta   105.60319144
_cell_angle_gamma   105.60318878
_symmetry_Int_Tables_number   1
_chemical_formula_structural   Ba6TbHo(BO3)6
_chemical_formula_sum   'Ba6 Tb1 Ho1 B6 O18'
_cell_volume   480.19121175
_cell_formula_units_Z   1
loop_
 _symmetry_equiv_pos_site_id
 _symmetry_equiv_pos_as_xyz
  1  'x, y, z'
loop_
 _atom_site_type_symbol
 _atom_site_label
 _atom_site_symmetry_multiplicity
 _atom_site_fract_x
 _atom_site_fract_y
 _atom_site_fract_z
 _atom_site_occupancy
  Ba  Ba0  1  0.350608  0.734182  0.842573  1
  Ba  Ba1  1  0.842573  0.350608  0.734182  1
  Ba  Ba2  1  0.734182  0.842573  0.350608  1
  Ba  Ba3  1  0.649392  0.265818  0.157427  1
  Ba  Ba4  1  0.157427  0.649392  0.265818  1
  Ba  Ba5  1  0.265818  0.157427  0.649392  1
  Tb  Tb6  1  0.000000  0.000000  0.000000  1
  Ho  Ho7  1  0.500000  0.500000  0.500000  1
  B  B8  1  0.709984  0.622235  0.956138  1
  B  B9  1  0.956138  0.709984  0.622235  1
  B  B10  1  0.622235  0.956138  0.709984  1
  B  B11  1  0.043862  0.290016  0.377765  1
  B  B12  1  0.377765  0.043862  0.290016  1
  B  B13  1  0.290016  0.377765  0.043862  1
  O  O14  1  0.061702  0.805322  0.548786  1
  O  O15  1  0.548786  0.061702  0.805322  1
  O  O16  1  0.427709  0.490878  0.212817  1
  O  O17  1  0.490878  0.212817  0.427709  1
  O  O18  1  0.212817  0.427709  0.490878  1
  O  O19  1  0.787183  0.572291  0.509122  1
  O  O20  1  0.572291  0.509122  0.787183  1
  O  O21  1  0.509122  0.787183  0.572291  1
  O  O22  1  0.256174  0.191534  0.983596  1
  O  O23  1  0.191534  0.983596  0.256174  1
  O  O24  1  0.983596  0.256174  0.191534  1
  O  O25  1  0.743826  0.808466  0.016404  1
  O  O26  1  0.808466  0.016404  0.743826  1
  O  O27  1  0.016404  0.743826  0.808466  1
  O  O28  1  0.194678  0.451214  0.938298  1
  O  O29  1  0.451214  0.938298  0.194678  1
  O  O30  1  0.938298  0.194678  0.451214  1
  O  O31  1  0.805322  0.548786  0.061702  1
