# generated using pymatgen
data_Ge2Mo12Ir5RhN4
_symmetry_space_group_name_H-M   'P 1'
_cell_length_a   6.86719869
_cell_length_b   6.86128952
_cell_length_c   6.85288781
_cell_angle_alpha   89.16388317
_cell_angle_beta   90.08037668
_cell_angle_gamma   90.00665069
_symmetry_Int_Tables_number   1
_chemical_formula_structural   Ge2Mo12Ir5RhN4
_chemical_formula_sum   'Ge2 Mo12 Ir5 Rh1 N4'
_cell_volume   322.85856138
_cell_formula_units_Z   1
loop_
 _symmetry_equiv_pos_site_id
 _symmetry_equiv_pos_as_xyz
  1  'x, y, z'
loop_
 _atom_site_type_symbol
 _atom_site_label
 _atom_site_symmetry_multiplicity
 _atom_site_fract_x
 _atom_site_fract_y
 _atom_site_fract_z
 _atom_site_occupancy
  Ge  Ge0  1  0.687651  0.176909  0.935418  1
  Ge  Ge1  1  0.184586  0.821628  0.062951  1
  Mo  Mo2  1  0.620826  0.044557  0.544036  1
  Mo  Mo3  1  0.121021  0.955960  0.454075  1
  Mo  Mo4  1  0.867233  0.538744  0.944009  1
  Mo  Mo5  1  0.367415  0.460519  0.056173  1
  Mo  Mo6  1  0.201383  0.623401  0.696272  1
  Mo  Mo7  1  0.300437  0.124976  0.784813  1
  Mo  Mo8  1  0.799634  0.874987  0.215450  1
  Mo  Mo9  1  0.700777  0.377537  0.304260  1
  Mo  Mo10  1  0.050324  0.211517  0.131571  1
  Mo  Mo11  1  0.963027  0.307499  0.620406  1
  Mo  Mo12  1  0.550010  0.788083  0.868318  1
  Mo  Mo13  1  0.462722  0.693074  0.379062  1
  Ir  Ir14  1  0.812018  0.688759  0.567639  1
  Ir  Ir15  1  0.311983  0.311835  0.433050  1
  Ir  Ir16  1  0.059802  0.569684  0.301498  1
  Ir  Ir17  1  0.436024  0.062075  0.174905  1
  Ir  Ir18  1  0.560251  0.429794  0.698954  1
  Rh  Rh19  1  0.936655  0.939090  0.826658  1
  N  N20  1  0.374761  0.872464  0.620655  1
  N  N21  1  0.875483  0.127595  0.379935  1
  N  N22  1  0.127918  0.375478  0.874639  1
  N  N23  1  0.628062  0.623835  0.125252  1
