# generated using pymatgen
data_Cs13Zr2Tl5SnAs10
_symmetry_space_group_name_H-M   'P 1'
_cell_length_a   9.99460663
_cell_length_b   10.08839231
_cell_length_c   14.38203921
_cell_angle_alpha   81.53952401
_cell_angle_beta   78.86092559
_cell_angle_gamma   63.45379161
_symmetry_Int_Tables_number   1
_chemical_formula_structural   Cs13Zr2Tl5SnAs10
_chemical_formula_sum   'Cs13 Zr2 Tl5 Sn1 As10'
_cell_volume   1269.75773020
_cell_formula_units_Z   1
loop_
 _symmetry_equiv_pos_site_id
 _symmetry_equiv_pos_as_xyz
  1  'x, y, z'
loop_
 _atom_site_type_symbol
 _atom_site_label
 _atom_site_symmetry_multiplicity
 _atom_site_fract_x
 _atom_site_fract_y
 _atom_site_fract_z
 _atom_site_occupancy
  Cs  Cs0  1  0.500493  0.864641  0.355689  1
  Cs  Cs1  1  0.500784  0.133600  0.643150  1
  Cs  Cs2  1  0.851305  0.583770  0.885272  1
  Cs  Cs3  1  0.146097  0.414264  0.116501  1
  Cs  Cs4  1  0.093603  0.784083  0.429034  1
  Cs  Cs5  1  0.906447  0.215991  0.568387  1
  Cs  Cs6  1  0.748881  0.681880  0.594025  1
  Cs  Cs7  1  0.253309  0.316285  0.406041  1
  Cs  Cs8  1  0.499846  0.498753  0.002717  1
  Cs  Cs9  1  0.318828  0.928815  0.090606  1
  Cs  Cs10  1  0.678143  0.072597  0.912911  1
  Cs  Cs11  1  0.895002  0.854568  0.163723  1
  Cs  Cs12  1  0.105027  0.146227  0.839662  1
  Zr  Zr13  1  0.375474  0.739906  0.775067  1
  Zr  Zr14  1  0.624784  0.259763  0.224995  1
  Tl  Tl15  1  0.016938  0.819558  0.705776  1
  Tl  Tl16  1  0.983068  0.181462  0.291797  1
  Tl  Tl17  1  0.608487  0.441189  0.403047  1
  Tl  Tl18  1  0.400564  0.558751  0.584411  1
  Tl  Tl19  1  0.724230  0.567598  0.165724  1
  Sn  Sn20  1  0.274412  0.453363  0.822622  1
  As  As21  1  0.433113  0.549937  0.252277  1
  As  As22  1  0.556653  0.449664  0.750445  1
  As  As23  1  0.135935  0.736533  0.893065  1
  As  As24  1  0.867492  0.252005  0.105756  1
  As  As25  1  0.713711  0.125593  0.392602  1
  As  As26  1  0.286264  0.874336  0.609372  1
  As  As27  1  0.856914  0.508920  0.355645  1
  As  As28  1  0.144883  0.486756  0.658749  1
  As  As29  1  0.499439  0.867197  0.843288  1
  As  As30  1  0.499874  0.131995  0.157644  1
