# generated using pymatgen
data_Gd3CI5
_symmetry_space_group_name_H-M   'P 1'
_cell_length_a   9.33660914
_cell_length_b   9.42869532
_cell_length_c   7.69159700
_cell_angle_alpha   97.34350276
_cell_angle_beta   105.19479903
_cell_angle_gamma   107.49283231
_symmetry_Int_Tables_number   1
_chemical_formula_structural   Gd3CI5
_chemical_formula_sum   'Gd6 C2 I10'
_cell_volume   607.31369687
_cell_formula_units_Z   2
loop_
 _symmetry_equiv_pos_site_id
 _symmetry_equiv_pos_as_xyz
  1  'x, y, z'
loop_
 _atom_site_type_symbol
 _atom_site_label
 _atom_site_symmetry_multiplicity
 _atom_site_fract_x
 _atom_site_fract_y
 _atom_site_fract_z
 _atom_site_occupancy
  Gd  Gd0  1  0.731964  0.921994  0.026644  1
  Gd  Gd1  1  0.038959  0.775466  0.105680  1
  Gd  Gd2  1  0.139133  0.185106  0.382281  1
  Gd  Gd3  1  0.860865  0.814893  0.617717  1
  Gd  Gd4  1  0.961042  0.224535  0.894320  1
  Gd  Gd5  1  0.268037  0.078006  0.973356  1
  C  C6  1  0.032092  0.043525  0.091926  1
  C  C7  1  0.967908  0.956475  0.908074  1
  I  I8  1  0.373101  0.816398  0.090431  1
  I  I9  1  0.724731  0.634996  0.181487  1
  I  I10  1  0.087703  0.468971  0.262029  1
  I  I11  1  0.469421  0.280990  0.357081  1
  I  I12  1  0.805790  0.093287  0.454176  1
  I  I13  1  0.194211  0.906713  0.545825  1
  I  I14  1  0.530580  0.719010  0.642920  1
  I  I15  1  0.912297  0.531030  0.737973  1
  I  I16  1  0.275269  0.365004  0.818513  1
  I  I17  1  0.626898  0.183602  0.909570  1
