# generated using pymatgen
data_Tb16Al4OsRh3
_symmetry_space_group_name_H-M   'P 1'
_cell_length_a   9.55125466
_cell_length_b   9.55125470
_cell_length_c   9.60853195
_cell_angle_alpha   60.19699969
_cell_angle_beta   60.19699841
_cell_angle_gamma   59.99999890
_symmetry_Int_Tables_number   1
_chemical_formula_structural   Tb16Al4OsRh3
_chemical_formula_sum   'Tb16 Al4 Os1 Rh3'
_cell_volume   621.65533268
_cell_formula_units_Z   1
loop_
 _symmetry_equiv_pos_site_id
 _symmetry_equiv_pos_as_xyz
  1  'x, y, z'
loop_
 _atom_site_type_symbol
 _atom_site_label
 _atom_site_symmetry_multiplicity
 _atom_site_fract_x
 _atom_site_fract_y
 _atom_site_fract_z
 _atom_site_occupancy
  Tb  Tb0  1  0.306224  0.898001  0.897773  1
  Tb  Tb1  1  0.691786  0.311854  0.684506  1
  Tb  Tb2  1  0.314378  0.686462  0.312697  1
  Tb  Tb3  1  0.058165  0.440054  0.443616  1
  Tb  Tb4  1  0.686462  0.314378  0.312697  1
  Tb  Tb5  1  0.440054  0.058165  0.443616  1
  Tb  Tb6  1  0.442198  0.058537  0.057066  1
  Tb  Tb7  1  0.898001  0.898001  0.897773  1
  Tb  Tb8  1  0.058537  0.442198  0.057066  1
  Tb  Tb9  1  0.898001  0.306224  0.897773  1
  Tb  Tb10  1  0.311854  0.691786  0.684506  1
  Tb  Tb11  1  0.897445  0.897445  0.307666  1
  Tb  Tb12  1  0.442198  0.442198  0.057066  1
  Tb  Tb13  1  0.311854  0.311854  0.684506  1
  Tb  Tb14  1  0.686462  0.686462  0.312697  1
  Tb  Tb15  1  0.058165  0.058165  0.443616  1
  Al  Al16  1  0.981202  0.673225  0.672348  1
  Al  Al17  1  0.673225  0.981202  0.672348  1
  Al  Al18  1  0.672842  0.672842  0.981473  1
  Al  Al19  1  0.673225  0.673225  0.672348  1
  Os  Os20  1  0.107222  0.107222  0.678333  1
  Rh  Rh21  1  0.107012  0.676475  0.109502  1
  Rh  Rh22  1  0.107012  0.107012  0.109502  1
  Rh  Rh23  1  0.676475  0.107012  0.109502  1
