# generated using pymatgen
data_Hg3BiSb3PtO14
_symmetry_space_group_name_H-M   'P 1'
_cell_length_a   7.36992947
_cell_length_b   7.55402446
_cell_length_c   7.48759900
_cell_angle_alpha   60.29046342
_cell_angle_beta   59.47042739
_cell_angle_gamma   59.78648253
_symmetry_Int_Tables_number   1
_chemical_formula_structural   Hg3BiSb3PtO14
_chemical_formula_sum   'Hg3 Bi1 Sb3 Pt1 O14'
_cell_volume   293.72044982
_cell_formula_units_Z   1
loop_
 _symmetry_equiv_pos_site_id
 _symmetry_equiv_pos_as_xyz
  1  'x, y, z'
loop_
 _atom_site_type_symbol
 _atom_site_label
 _atom_site_symmetry_multiplicity
 _atom_site_fract_x
 _atom_site_fract_y
 _atom_site_fract_z
 _atom_site_occupancy
  Hg  Hg0  1  0.125000  0.125000  0.625000  1
  Hg  Hg1  1  0.625000  0.125000  0.125000  1
  Hg  Hg2  1  0.125000  0.125000  0.125000  1
  Bi  Bi3  1  0.125000  0.625000  0.125000  1
  Sb  Sb4  1  0.625000  0.625000  0.125000  1
  Sb  Sb5  1  0.625000  0.125000  0.625000  1
  Sb  Sb6  1  0.625000  0.625000  0.625000  1
  Pt  Pt7  1  0.125000  0.625000  0.625000  1
  O  O8  1  0.258907  0.242639  0.249227  1
  O  O9  1  0.991093  0.007361  0.000773  1
  O  O10  1  0.557068  0.941073  0.556140  1
  O  O11  1  0.295054  0.695575  0.297233  1
  O  O12  1  0.542701  0.562548  0.947376  1
  O  O13  1  0.954946  0.554425  0.537862  1
  O  O14  1  0.557068  0.941073  0.945719  1
  O  O15  1  0.954638  0.950924  0.547219  1
  O  O16  1  0.954946  0.554425  0.952767  1
  O  O17  1  0.692932  0.308927  0.304281  1
  O  O18  1  0.295054  0.695575  0.712138  1
  O  O19  1  0.692932  0.308927  0.693860  1
  O  O20  1  0.295362  0.299076  0.702781  1
  O  O21  1  0.707299  0.687452  0.302624  1
