# generated using pymatgen
data_Yb2DyAl3Si2Pt
_symmetry_space_group_name_H-M   'P 1'
_cell_length_a   6.91301079
_cell_length_b   6.89622162
_cell_length_c   4.28806400
_cell_angle_alpha   90.00000000
_cell_angle_beta   90.00000000
_cell_angle_gamma   119.91969833
_symmetry_Int_Tables_number   1
_chemical_formula_structural   Yb2DyAl3Si2Pt
_chemical_formula_sum   'Yb2 Dy1 Al3 Si2 Pt1'
_cell_volume   177.18264700
_cell_formula_units_Z   1
loop_
 _symmetry_equiv_pos_site_id
 _symmetry_equiv_pos_as_xyz
  1  'x, y, z'
loop_
 _atom_site_type_symbol
 _atom_site_label
 _atom_site_symmetry_multiplicity
 _atom_site_fract_x
 _atom_site_fract_y
 _atom_site_fract_z
 _atom_site_occupancy
  Yb  Yb0  1  0.578594  0.000391  0.000000  1
  Yb  Yb1  1  0.421406  0.421796  0.000000  1
  Dy  Dy2  1  0.000000  0.578328  0.000000  1
  Al  Al3  1  0.236168  0.999390  0.499999  1
  Al  Al4  1  0.000000  0.236209  0.499999  1
  Al  Al5  1  0.763832  0.763220  0.499999  1
  Si  Si6  1  0.671942  0.337882  0.499999  1
  Si  Si7  1  0.328057  0.665940  0.499999  1
  Pt  Pt8  1  0.000000  0.996843  0.000000  1
