# generated using pymatgen
data_Sr4Yb2NbRuO12
_symmetry_space_group_name_H-M   'P 1'
_cell_length_a   5.81544289
_cell_length_b   5.94780368
_cell_length_c   8.23293422
_cell_angle_alpha   90.12657850
_cell_angle_beta   90.34584534
_cell_angle_gamma   90.11770286
_symmetry_Int_Tables_number   1
_chemical_formula_structural   Sr4Yb2NbRuO12
_chemical_formula_sum   'Sr4 Yb2 Nb1 Ru1 O12'
_cell_volume   284.76339779
_cell_formula_units_Z   1
loop_
 _symmetry_equiv_pos_site_id
 _symmetry_equiv_pos_as_xyz
  1  'x, y, z'
loop_
 _atom_site_type_symbol
 _atom_site_label
 _atom_site_symmetry_multiplicity
 _atom_site_fract_x
 _atom_site_fract_y
 _atom_site_fract_z
 _atom_site_occupancy
  Sr  Sr0  1  0.013481  0.047201  0.244837  1
  Sr  Sr1  1  0.490576  0.545098  0.243283  1
  Sr  Sr2  1  0.509424  0.454902  0.756717  1
  Sr  Sr3  1  0.986519  0.952799  0.755163  1
  Yb  Yb4  1  0.500000  0.000000  0.999999  1
  Yb  Yb5  1  0.999999  0.500001  0.500000  1
  Nb  Nb6  1  0.000000  0.500001  0.000000  1
  Ru  Ru7  1  0.499999  0.000000  0.500001  1
  O  O8  1  0.277645  0.305376  0.044674  1
  O  O9  1  0.190618  0.777608  0.053200  1
  O  O10  1  0.908668  0.467465  0.235841  1
  O  O11  1  0.579302  0.978604  0.275855  1
  O  O12  1  0.313244  0.264069  0.454793  1
  O  O13  1  0.236219  0.809940  0.458877  1
  O  O14  1  0.763782  0.190059  0.541122  1
  O  O15  1  0.686757  0.735931  0.545209  1
  O  O16  1  0.420696  0.021396  0.724145  1
  O  O17  1  0.091333  0.532535  0.764159  1
  O  O18  1  0.809383  0.222392  0.946800  1
  O  O19  1  0.722354  0.694623  0.955326  1
