# generated using pymatgen
data_Ti11Al8V(PtC)4
_symmetry_space_group_name_H-M   'P 1'
_cell_length_a   8.21729713
_cell_length_b   8.21729729
_cell_length_c   8.21875200
_cell_angle_alpha   59.99414373
_cell_angle_beta   59.99414306
_cell_angle_gamma   59.80376825
_symmetry_Int_Tables_number   1
_chemical_formula_structural   Ti11Al8V(PtC)4
_chemical_formula_sum   'Ti11 Al8 V1 Pt4 C4'
_cell_volume   391.79809693
_cell_formula_units_Z   1
loop_
 _symmetry_equiv_pos_site_id
 _symmetry_equiv_pos_as_xyz
  1  'x, y, z'
loop_
 _atom_site_type_symbol
 _atom_site_label
 _atom_site_symmetry_multiplicity
 _atom_site_fract_x
 _atom_site_fract_y
 _atom_site_fract_z
 _atom_site_occupancy
  Ti  Ti0  1  0.686943  0.313706  0.314534  1
  Ti  Ti1  1  0.313706  0.686943  0.684818  1
  Ti  Ti2  1  0.685364  0.685364  0.314636  1
  Ti  Ti3  1  0.686943  0.313706  0.684818  1
  Ti  Ti4  1  0.313706  0.686943  0.314534  1
  Ti  Ti5  1  0.566952  0.933734  0.565405  1
  Ti  Ti6  1  0.566952  0.933734  0.933909  1
  Ti  Ti7  1  0.933734  0.566952  0.565405  1
  Ti  Ti8  1  0.933734  0.566952  0.933909  1
  Ti  Ti9  1  0.315780  0.315780  0.684220  1
  Ti  Ti10  1  0.563955  0.563955  0.936045  1
  Al  Al11  1  0.914211  0.257654  0.914068  1
  Al  Al12  1  0.335857  0.335857  0.992317  1
  Al  Al13  1  0.992939  0.334532  0.336264  1
  Al  Al14  1  0.335857  0.335857  0.335967  1
  Al  Al15  1  0.257654  0.914211  0.914068  1
  Al  Al16  1  0.915010  0.915010  0.909676  1
  Al  Al17  1  0.915010  0.915010  0.260304  1
  Al  Al18  1  0.334532  0.992939  0.336264  1
  V  V19  1  0.929094  0.929094  0.570906  1
  Pt  Pt20  1  0.123706  0.626277  0.125009  1
  Pt  Pt21  1  0.125116  0.125116  0.624634  1
  Pt  Pt22  1  0.626277  0.123706  0.125009  1
  Pt  Pt23  1  0.125116  0.125116  0.125133  1
  C  C24  1  0.629681  0.122353  0.623983  1
  C  C25  1  0.624908  0.624908  0.124756  1
  C  C26  1  0.122353  0.629681  0.623983  1
  C  C27  1  0.624908  0.624908  0.625428  1
