# generated using pymatgen
data_CaSmAl2(Ni3B)2
_symmetry_space_group_name_H-M   'P 1'
_cell_length_a   5.22553500
_cell_length_b   5.22553470
_cell_length_c   6.76232200
_cell_angle_alpha   90.00000000
_cell_angle_beta   90.00000000
_cell_angle_gamma   119.99999557
_symmetry_Int_Tables_number   1
_chemical_formula_structural   CaSmAl2(Ni3B)2
_chemical_formula_sum   'Ca1 Sm1 Al2 Ni6 B2'
_cell_volume   159.91455526
_cell_formula_units_Z   1
loop_
 _symmetry_equiv_pos_site_id
 _symmetry_equiv_pos_as_xyz
  1  'x, y, z'
loop_
 _atom_site_type_symbol
 _atom_site_label
 _atom_site_symmetry_multiplicity
 _atom_site_fract_x
 _atom_site_fract_y
 _atom_site_fract_z
 _atom_site_occupancy
  Ca  Ca0  1  0.000000  0.000000  0.500000  1
  Sm  Sm1  1  0.000000  0.000000  0.000000  1
  Al  Al2  1  0.333333  0.666667  0.500000  1
  Al  Al3  1  0.666667  0.333333  0.500000  1
  Ni  Ni4  1  0.500000  0.500000  0.798163  1
  Ni  Ni5  1  0.000000  0.500000  0.798163  1
  Ni  Ni6  1  0.500000  0.000000  0.798163  1
  Ni  Ni7  1  0.000000  0.500000  0.201837  1
  Ni  Ni8  1  0.500000  0.500000  0.201837  1
  Ni  Ni9  1  0.500000  0.000000  0.201837  1
  B  B10  1  0.666667  0.333333  0.000000  1
  B  B11  1  0.333333  0.666667  0.000000  1
