# generated using pymatgen
data_La17Tm3Si15Pd
_symmetry_space_group_name_H-M   'P 1'
_cell_length_a   7.95505367
_cell_length_b   7.91071941
_cell_length_c   15.19243600
_cell_angle_alpha   89.96998582
_cell_angle_beta   89.65685220
_cell_angle_gamma   90.21603627
_symmetry_Int_Tables_number   1
_chemical_formula_structural   La17Tm3Si15Pd
_chemical_formula_sum   'La17 Tm3 Si15 Pd1'
_cell_volume   956.03891283
_cell_formula_units_Z   1
loop_
 _symmetry_equiv_pos_site_id
 _symmetry_equiv_pos_as_xyz
  1  'x, y, z'
loop_
 _atom_site_type_symbol
 _atom_site_label
 _atom_site_symmetry_multiplicity
 _atom_site_fract_x
 _atom_site_fract_y
 _atom_site_fract_z
 _atom_site_occupancy
  La  La0  1  0.696632  0.687377  0.498498  1
  La  La1  1  0.373324  0.009599  0.448674  1
  La  La2  1  0.491400  0.870711  0.701933  1
  La  La3  1  0.509635  0.124886  0.198009  1
  La  La4  1  0.874672  0.486770  0.298578  1
  La  La5  1  0.124079  0.509500  0.799877  1
  La  La6  1  0.629248  0.988057  0.951425  1
  La  La7  1  0.001013  0.376291  0.549850  1
  La  La8  1  0.988990  0.627716  0.050642  1
  La  La9  1  0.135693  0.986942  0.873762  1
  La  La10  1  0.518307  0.631648  0.125179  1
  La  La11  1  0.474728  0.367364  0.629686  1
  La  La12  1  0.629487  0.519843  0.874989  1
  La  La13  1  0.371189  0.479480  0.372432  1
  La  La14  1  0.871906  0.019562  0.377220  1
  La  La15  1  0.981406  0.126875  0.122961  1
  La  La16  1  0.022502  0.878603  0.623708  1
  Tm  Tm17  1  0.310836  0.309239  0.999470  1
  Tm  Tm18  1  0.188112  0.810047  0.250427  1
  Tm  Tm19  1  0.805605  0.189384  0.751445  1
  Si  Si20  1  0.329083  0.692269  0.952506  1
  Si  Si21  1  0.661687  0.301170  0.454197  1
  Si  Si22  1  0.694885  0.332259  0.046975  1
  Si  Si23  1  0.303713  0.667647  0.546753  1
  Si  Si24  1  0.808342  0.830200  0.204096  1
  Si  Si25  1  0.168586  0.191181  0.294456  1
  Si  Si26  1  0.834350  0.808402  0.796925  1
  Si  Si27  1  0.286991  0.925394  0.062228  1
  Si  Si28  1  0.572128  0.789319  0.308505  1
  Si  Si29  1  0.438548  0.207927  0.817907  1
  Si  Si30  1  0.789152  0.575299  0.691345  1
  Si  Si31  1  0.212370  0.424937  0.185786  1
  Si  Si32  1  0.706232  0.078892  0.564915  1
  Si  Si33  1  0.923377  0.287399  0.937663  1
  Si  Si34  1  0.083213  0.714499  0.435917  1
  Pd  Pd35  1  0.188577  0.173312  0.701057  1
