# generated using pymatgen
data_Pa2Co3Ni5B2
_symmetry_space_group_name_H-M   'P 1'
_cell_length_a   4.91883800
_cell_length_b   4.91883742
_cell_length_c   7.00700700
_cell_angle_alpha   90.00000000
_cell_angle_beta   90.00000000
_cell_angle_gamma   120.00000387
_symmetry_Int_Tables_number   1
_chemical_formula_structural   Pa2Co3Ni5B2
_chemical_formula_sum   'Pa2 Co3 Ni5 B2'
_cell_volume   146.82099204
_cell_formula_units_Z   1
loop_
 _symmetry_equiv_pos_site_id
 _symmetry_equiv_pos_as_xyz
  1  'x, y, z'
loop_
 _atom_site_type_symbol
 _atom_site_label
 _atom_site_symmetry_multiplicity
 _atom_site_fract_x
 _atom_site_fract_y
 _atom_site_fract_z
 _atom_site_occupancy
  Pa  Pa0  1  0.000000  0.000000  0.986501  1
  Pa  Pa1  1  0.000000  0.000000  0.509168  1
  Co  Co2  1  0.500000  0.500000  0.709290  1
  Co  Co3  1  0.500000  0.000000  0.709290  1
  Co  Co4  1  0.000000  0.500000  0.709290  1
  Ni  Ni5  1  0.666667  0.333333  0.999404  1
  Ni  Ni6  1  0.333333  0.666667  0.999404  1
  Ni  Ni7  1  0.500000  0.500000  0.289990  1
  Ni  Ni8  1  0.500000  0.000000  0.289990  1
  Ni  Ni9  1  0.000000  0.500000  0.289990  1
  B  B10  1  0.666667  0.333333  0.503842  1
  B  B11  1  0.333333  0.666667  0.503842  1
