# generated using pymatgen
data_Dy7Ho3Si5Sn
_symmetry_space_group_name_H-M   'P 1'
_cell_length_a   8.51360700
_cell_length_b   8.53881754
_cell_length_c   6.38249700
_cell_angle_alpha   89.99760955
_cell_angle_beta   89.99992375
_cell_angle_gamma   119.90526508
_symmetry_Int_Tables_number   1
_chemical_formula_structural   Dy7Ho3Si5Sn
_chemical_formula_sum   'Dy7 Ho3 Si5 Sn1'
_cell_volume   402.20399017
_cell_formula_units_Z   1
loop_
 _symmetry_equiv_pos_site_id
 _symmetry_equiv_pos_as_xyz
  1  'x, y, z'
loop_
 _atom_site_type_symbol
 _atom_site_label
 _atom_site_symmetry_multiplicity
 _atom_site_fract_x
 _atom_site_fract_y
 _atom_site_fract_z
 _atom_site_occupancy
  Dy  Dy0  1  0.989511  0.749078  0.750022  1
  Dy  Dy1  1  0.998880  0.242600  0.249967  1
  Dy  Dy2  1  0.756308  0.757370  0.249974  1
  Dy  Dy3  1  0.765158  0.000024  0.750026  1
  Dy  Dy4  1  0.240464  0.250894  0.750036  1
  Dy  Dy5  1  0.241195  0.000026  0.249972  1
  Dy  Dy6  1  0.331594  0.658164  0.496861  1
  Ho  Ho7  1  0.673430  0.341828  0.003114  1
  Ho  Ho8  1  0.673430  0.341832  0.496885  1
  Ho  Ho9  1  0.331598  0.658173  0.003123  1
  Si  Si10  1  0.393795  0.392423  0.249916  1
  Si  Si11  1  0.001184  0.607488  0.249929  1
  Si  Si12  1  0.998680  0.394423  0.750078  1
  Si  Si13  1  0.604356  0.605498  0.750080  1
  Si  Si14  1  0.605531  0.000081  0.249938  1
  Sn  Sn15  1  0.394886  0.000100  0.750078  1
