# generated using pymatgen
data_NdEu9Si5Rh
_symmetry_space_group_name_H-M   'P 1'
_cell_length_a   9.11852095
_cell_length_b   9.11852118
_cell_length_c   9.15025805
_cell_angle_alpha   129.01013002
_cell_angle_beta   129.01013253
_cell_angle_gamma   74.54495678
_symmetry_Int_Tables_number   1
_chemical_formula_structural   NdEu9Si5Rh
_chemical_formula_sum   'Nd1 Eu9 Si5 Rh1'
_cell_volume   448.64064825
_cell_formula_units_Z   1
loop_
 _symmetry_equiv_pos_site_id
 _symmetry_equiv_pos_as_xyz
  1  'x, y, z'
loop_
 _atom_site_type_symbol
 _atom_site_label
 _atom_site_symmetry_multiplicity
 _atom_site_fract_x
 _atom_site_fract_y
 _atom_site_fract_z
 _atom_site_occupancy
  Nd  Nd0  1  0.546317  0.046317  0.869069  1
  Eu  Eu1  1  0.176179  0.676179  0.142527  1
  Eu  Eu2  1  0.029946  0.179346  0.496978  1
  Eu  Eu3  1  0.679346  0.529946  0.496978  1
  Eu  Eu4  1  0.466443  0.966443  0.146774  1
  Eu  Eu5  1  0.821228  0.321228  0.858689  1
  Eu  Eu6  1  0.968061  0.817222  0.496357  1
  Eu  Eu7  1  0.317222  0.468061  0.496357  1
  Eu  Eu8  1  0.501510  0.504100  0.001557  1
  Eu  Eu9  1  0.004100  0.001510  0.001557  1
  Si  Si10  1  0.111827  0.611827  0.723558  1
  Si  Si11  1  0.388476  0.109236  0.503154  1
  Si  Si12  1  0.609236  0.888476  0.503154  1
  Si  Si13  1  0.252580  0.244980  0.994296  1
  Si  Si14  1  0.744980  0.752580  0.994296  1
  Rh  Rh15  1  0.882549  0.382549  0.274701  1
