# generated using pymatgen
data_La4Ir3
_symmetry_space_group_name_H-M   'P 1'
_cell_length_a   7.81309315
_cell_length_b   7.81309213
_cell_length_c   7.81309200
_cell_angle_alpha   109.47122030
_cell_angle_beta   109.47121765
_cell_angle_gamma   109.47122259
_symmetry_Int_Tables_number   1
_chemical_formula_structural   La4Ir3
_chemical_formula_sum   'La8 Ir6'
_cell_volume   367.15293330
_cell_formula_units_Z   2
loop_
 _symmetry_equiv_pos_site_id
 _symmetry_equiv_pos_as_xyz
  1  'x, y, z'
loop_
 _atom_site_type_symbol
 _atom_site_label
 _atom_site_symmetry_multiplicity
 _atom_site_fract_x
 _atom_site_fract_y
 _atom_site_fract_z
 _atom_site_occupancy
  La  La0  1  0.113643  0.500000  0.000000  1
  La  La1  1  0.500000  0.000000  0.613643  1
  La  La2  1  0.386357  0.386357  0.386357  1
  La  La3  1  0.000000  0.113643  0.500000  1
  La  La4  1  0.886357  0.886357  0.886357  1
  La  La5  1  0.000000  0.613643  0.500000  1
  La  La6  1  0.613643  0.500000  0.000000  1
  La  La7  1  0.500000  0.000000  0.113643  1
  Ir  Ir8  1  0.875000  0.250000  0.125000  1
  Ir  Ir9  1  0.125000  0.875000  0.250000  1
  Ir  Ir10  1  0.375000  0.625000  0.750000  1
  Ir  Ir11  1  0.250000  0.125000  0.875000  1
  Ir  Ir12  1  0.750000  0.375000  0.625000  1
  Ir  Ir13  1  0.625000  0.750000  0.375000  1
