# generated using pymatgen
data_Tb9Dy6Lu5Sn16
_symmetry_space_group_name_H-M   'P 1'
_cell_length_a   7.99433601
_cell_length_b   8.14830509
_cell_length_c   15.43228301
_cell_angle_alpha   90.02888166
_cell_angle_beta   89.95825094
_cell_angle_gamma   90.06405019
_symmetry_Int_Tables_number   1
_chemical_formula_structural   Tb9Dy6Lu5Sn16
_chemical_formula_sum   'Tb9 Dy6 Lu5 Sn16'
_cell_volume   1005.26234892
_cell_formula_units_Z   1
loop_
 _symmetry_equiv_pos_site_id
 _symmetry_equiv_pos_as_xyz
  1  'x, y, z'
loop_
 _atom_site_type_symbol
 _atom_site_label
 _atom_site_symmetry_multiplicity
 _atom_site_fract_x
 _atom_site_fract_y
 _atom_site_fract_z
 _atom_site_occupancy
  Tb  Tb0  1  0.866110  0.662216  0.878059  1
  Tb  Tb1  1  0.518886  0.320144  0.903489  1
  Tb  Tb2  1  0.019940  0.178961  0.597435  1
  Tb  Tb3  1  0.480872  0.679701  0.403669  1
  Tb  Tb4  1  0.980054  0.820390  0.096556  1
  Tb  Tb5  1  0.481315  0.680380  0.095105  1
  Tb  Tb6  1  0.980898  0.820639  0.403294  1
  Tb  Tb7  1  0.519261  0.320813  0.597429  1
  Tb  Tb8  1  0.018954  0.178457  0.903007  1
  Dy  Dy9  1  0.865233  0.662462  0.623220  1
  Dy  Dy10  1  0.634468  0.162162  0.377564  1
  Dy  Dy11  1  0.135553  0.337536  0.120966  1
  Dy  Dy12  1  0.634419  0.162969  0.122770  1
  Dy  Dy13  1  0.134130  0.337280  0.377597  1
  Dy  Dy14  1  0.365945  0.837562  0.622949  1
  Lu  Lu15  1  0.364495  0.838509  0.876003  1
  Lu  Lu16  1  0.197417  0.503624  0.750773  1
  Lu  Lu17  1  0.696299  0.996312  0.750498  1
  Lu  Lu18  1  0.803674  0.496581  0.250076  1
  Lu  Lu19  1  0.303356  0.003003  0.249485  1
  Sn  Sn20  1  0.295315  0.035144  0.040526  1
  Sn  Sn21  1  0.794145  0.463516  0.457669  1
  Sn  Sn22  1  0.706323  0.963619  0.542843  1
  Sn  Sn23  1  0.208015  0.539960  0.956492  1
  Sn  Sn24  1  0.700920  0.962610  0.957156  1
  Sn  Sn25  1  0.205626  0.536313  0.543157  1
  Sn  Sn26  1  0.293985  0.036301  0.457262  1
  Sn  Sn27  1  0.794078  0.463306  0.042944  1
  Sn  Sn28  1  0.561334  0.618851  0.750985  1
  Sn  Sn29  1  0.062926  0.881955  0.750947  1
  Sn  Sn30  1  0.437753  0.383113  0.250112  1
  Sn  Sn31  1  0.938286  0.117396  0.249334  1
  Sn  Sn32  1  0.328779  0.148982  0.750618  1
  Sn  Sn33  1  0.828309  0.350041  0.750476  1
  Sn  Sn34  1  0.671475  0.849917  0.249868  1
  Sn  Sn35  1  0.171453  0.649274  0.249665  1
