# generated using pymatgen
data_Pu4V3TcN8
_symmetry_space_group_name_H-M   'P 1'
_cell_length_a   3.21455100
_cell_length_b   5.48384367
_cell_length_c   10.59181619
_cell_angle_alpha   89.91081725
_cell_angle_beta   90.00000000
_cell_angle_gamma   90.00000000
_symmetry_Int_Tables_number   1
_chemical_formula_structural   Pu4V3TcN8
_chemical_formula_sum   'Pu4 V3 Tc1 N8'
_cell_volume   186.71331746
_cell_formula_units_Z   1
loop_
 _symmetry_equiv_pos_site_id
 _symmetry_equiv_pos_as_xyz
  1  'x, y, z'
loop_
 _atom_site_type_symbol
 _atom_site_label
 _atom_site_symmetry_multiplicity
 _atom_site_fract_x
 _atom_site_fract_y
 _atom_site_fract_z
 _atom_site_occupancy
  Pu  Pu0  1  0.750000  0.080880  0.858727  1
  Pu  Pu1  1  0.750000  0.576807  0.642711  1
  Pu  Pu2  1  0.250000  0.919915  0.142602  1
  Pu  Pu3  1  0.250000  0.419961  0.355238  1
  V  V4  1  0.750000  0.420935  0.098408  1
  V  V5  1  0.250000  0.579009  0.903372  1
  V  V6  1  0.750000  0.923121  0.400654  1
  Tc  Tc7  1  0.250000  0.074334  0.602345  1
  N  N8  1  0.250000  0.342292  0.751507  1
  N  N9  1  0.750000  0.162281  0.243290  1
  N  N10  1  0.250000  0.267959  0.011472  1
  N  N11  1  0.750000  0.665232  0.254049  1
  N  N12  1  0.250000  0.835309  0.757456  1
  N  N13  1  0.750000  0.730738  0.989873  1
  N  N14  1  0.750000  0.242383  0.501195  1
  N  N15  1  0.250000  0.758844  0.487100  1
