# generated using pymatgen
data_Tb13Lu3(AgRh)4
_symmetry_space_group_name_H-M   'P 1'
_cell_length_a   9.53469779
_cell_length_b   9.51135686
_cell_length_c   9.52513045
_cell_angle_alpha   60.11435866
_cell_angle_beta   60.15599539
_cell_angle_gamma   60.01446943
_symmetry_Int_Tables_number   1
_chemical_formula_structural   Tb13Lu3(AgRh)4
_chemical_formula_sum   'Tb13 Lu3 Ag4 Rh4'
_cell_volume   612.12092462
_cell_formula_units_Z   1
loop_
 _symmetry_equiv_pos_site_id
 _symmetry_equiv_pos_as_xyz
  1  'x, y, z'
loop_
 _atom_site_type_symbol
 _atom_site_label
 _atom_site_symmetry_multiplicity
 _atom_site_fract_x
 _atom_site_fract_y
 _atom_site_fract_z
 _atom_site_occupancy
  Tb  Tb0  1  0.646530  0.059709  0.647513  1
  Tb  Tb1  1  0.064024  0.065130  0.436144  1
  Tb  Tb2  1  0.436144  0.434702  0.064024  1
  Tb  Tb3  1  0.647513  0.646248  0.646530  1
  Tb  Tb4  1  0.813590  0.186445  0.185489  1
  Tb  Tb5  1  0.185489  0.814476  0.813590  1
  Tb  Tb6  1  0.059232  0.646366  0.647290  1
  Tb  Tb7  1  0.436587  0.064416  0.063489  1
  Tb  Tb8  1  0.435969  0.064031  0.435969  1
  Tb  Tb9  1  0.064357  0.435643  0.064357  1
  Tb  Tb10  1  0.647290  0.647111  0.059232  1
  Tb  Tb11  1  0.187003  0.812997  0.187003  1
  Tb  Tb12  1  0.063489  0.435507  0.436587  1
  Lu  Lu13  1  0.812971  0.813812  0.186142  1
  Lu  Lu14  1  0.813973  0.186027  0.813973  1
  Lu  Lu15  1  0.186142  0.187075  0.812971  1
  Ag  Ag16  1  0.417748  0.417855  0.418263  1
  Ag  Ag17  1  0.418214  0.417798  0.745959  1
  Ag  Ag18  1  0.418263  0.746134  0.417748  1
  Ag  Ag19  1  0.745959  0.418029  0.418214  1
  Rh  Rh20  1  0.858243  0.427550  0.855960  1
  Rh  Rh21  1  0.855960  0.858247  0.858243  1
  Rh  Rh22  1  0.855894  0.856143  0.429413  1
  Rh  Rh23  1  0.429413  0.858550  0.855894  1
