# generated using pymatgen
data_YEr15(In3Tc)2
_symmetry_space_group_name_H-M   'P 1'
_cell_length_a   10.32501300
_cell_length_b   10.33233990
_cell_length_c   7.02503001
_cell_angle_alpha   90.02294445
_cell_angle_beta   90.00000000
_cell_angle_gamma   119.97653556
_symmetry_Int_Tables_number   1
_chemical_formula_structural   YEr15(In3Tc)2
_chemical_formula_sum   'Y1 Er15 In6 Tc2'
_cell_volume   649.18832083
_cell_formula_units_Z   1
loop_
 _symmetry_equiv_pos_site_id
 _symmetry_equiv_pos_as_xyz
  1  'x, y, z'
loop_
 _atom_site_type_symbol
 _atom_site_label
 _atom_site_symmetry_multiplicity
 _atom_site_fract_x
 _atom_site_fract_y
 _atom_site_fract_z
 _atom_site_occupancy
  Y  Y0  1  0.531563  0.063125  0.795748  1
  Er  Er1  1  0.935400  0.467474  0.796599  1
  Er  Er2  1  0.532076  0.467474  0.796599  1
  Er  Er3  1  0.467321  0.934642  0.296224  1
  Er  Er4  1  0.064754  0.532561  0.297135  1
  Er  Er5  1  0.467809  0.532561  0.297135  1
  Er  Er6  1  0.823304  0.646609  0.498361  1
  Er  Er7  1  0.354083  0.177616  0.496690  1
  Er  Er8  1  0.823534  0.177616  0.496690  1
  Er  Er9  1  0.177163  0.354325  0.998941  1
  Er  Er10  1  0.646161  0.822240  0.999066  1
  Er  Er11  1  0.176080  0.822240  0.999066  1
  Er  Er12  1  0.666916  0.333830  0.170925  1
  Er  Er13  1  0.332890  0.665780  0.671237  1
  Er  Er14  1  0.000090  0.000178  0.776033  1
  Er  Er15  1  0.999867  0.999734  0.276191  1
  In  In16  1  0.836606  0.673213  0.039130  1
  In  In17  1  0.325705  0.162703  0.039461  1
  In  In18  1  0.836997  0.162703  0.039461  1
  In  In19  1  0.163389  0.326778  0.540522  1
  In  In20  1  0.673845  0.837291  0.540270  1
  In  In21  1  0.163447  0.837291  0.540270  1
  Tc  Tc22  1  0.667563  0.335125  0.566025  1
  Tc  Tc23  1  0.333442  0.666887  0.068127  1
