# generated using pymatgen
data_LiLa16Cd(HgRu2)2
_symmetry_space_group_name_H-M   'P 1'
_cell_length_a   10.08243437
_cell_length_b   10.08243316
_cell_length_c   10.10555315
_cell_angle_alpha   59.71512567
_cell_angle_beta   59.71513107
_cell_angle_gamma   60.05841266
_symmetry_Int_Tables_number   1
_chemical_formula_structural   LiLa16Cd(HgRu2)2
_chemical_formula_sum   'Li1 La16 Cd1 Hg2 Ru4'
_cell_volume   723.57249264
_cell_formula_units_Z   1
loop_
 _symmetry_equiv_pos_site_id
 _symmetry_equiv_pos_as_xyz
  1  'x, y, z'
loop_
 _atom_site_type_symbol
 _atom_site_label
 _atom_site_symmetry_multiplicity
 _atom_site_fract_x
 _atom_site_fract_y
 _atom_site_fract_z
 _atom_site_occupancy
  Li  Li0  1  0.681438  0.681438  0.957921  1
  La  La1  1  0.905053  0.905053  0.903563  1
  La  La2  1  0.436706  0.436706  0.061113  1
  La  La3  1  0.059316  0.059316  0.440561  1
  La  La4  1  0.437480  0.062318  0.062001  1
  La  La5  1  0.304847  0.690547  0.312031  1
  La  La6  1  0.689881  0.689881  0.313639  1
  La  La7  1  0.690547  0.304847  0.312031  1
  La  La8  1  0.287014  0.904859  0.904498  1
  La  La9  1  0.904859  0.287014  0.904498  1
  La  La10  1  0.309407  0.690820  0.688399  1
  La  La11  1  0.904062  0.904062  0.290958  1
  La  La12  1  0.062318  0.437480  0.062001  1
  La  La13  1  0.307541  0.307541  0.691737  1
  La  La14  1  0.059913  0.439235  0.438470  1
  La  La15  1  0.439235  0.059913  0.438470  1
  La  La16  1  0.690820  0.309407  0.688399  1
  Cd  Cd17  1  0.669703  0.669703  0.674114  1
  Hg  Hg18  1  0.994540  0.665948  0.672525  1
  Hg  Hg19  1  0.665948  0.994540  0.672525  1
  Ru  Ru20  1  0.112847  0.112847  0.665051  1
  Ru  Ru21  1  0.112759  0.112759  0.113917  1
  Ru  Ru22  1  0.112859  0.660904  0.115789  1
  Ru  Ru23  1  0.660904  0.112859  0.115789  1
