# generated using pymatgen
data_Sc4Nb2Re5Si6Ru
_symmetry_space_group_name_H-M   'P 1'
_cell_length_a   7.69168955
_cell_length_b   7.71527366
_cell_length_c   7.69184386
_cell_angle_alpha   126.37623801
_cell_angle_beta   128.12904378
_cell_angle_gamma   77.77898624
_symmetry_Int_Tables_number   1
_chemical_formula_structural   Sc4Nb2Re5Si6Ru
_chemical_formula_sum   'Sc4 Nb2 Re5 Si6 Ru1'
_cell_volume   280.36057200
_cell_formula_units_Z   1
loop_
 _symmetry_equiv_pos_site_id
 _symmetry_equiv_pos_as_xyz
  1  'x, y, z'
loop_
 _atom_site_type_symbol
 _atom_site_label
 _atom_site_symmetry_multiplicity
 _atom_site_fract_x
 _atom_site_fract_y
 _atom_site_fract_z
 _atom_site_occupancy
  Sc  Sc0  1  0.550038  0.093731  0.044392  1
  Sc  Sc1  1  0.449090  0.495607  0.545570  1
  Sc  Sc2  1  0.950105  0.495685  0.046231  1
  Sc  Sc3  1  0.049098  0.093525  0.543402  1
  Nb  Nb4  1  0.753265  0.903547  0.653279  1
  Nb  Nb5  1  0.249996  0.903331  0.150218  1
  Re  Re6  1  0.499964  0.234335  0.734084  1
  Re  Re7  1  0.000368  0.233238  0.233311  1
  Re  Re8  1  0.126822  0.754148  0.627817  1
  Re  Re9  1  0.873437  0.503226  0.629525  1
  Re  Re10  1  0.625313  0.755477  0.130067  1
  Si  Si11  1  0.748099  0.497057  0.246811  1
  Si  Si12  1  0.250040  0.496900  0.749022  1
  Si  Si13  1  0.334522  0.829258  0.494724  1
  Si  Si14  1  0.666932  0.163475  0.496386  1
  Si  Si15  1  0.833062  0.828384  0.995424  1
  Si  Si16  1  0.166623  0.161293  0.994702  1
  Ru  Ru17  1  0.373226  0.499979  0.127234  1
