# generated using pymatgen
data_EuSbIO2
_symmetry_space_group_name_H-M   'P 1'
_cell_length_a   7.42227426
_cell_length_b   7.42227386
_cell_length_c   5.60922400
_cell_angle_alpha   90.00010417
_cell_angle_beta   89.99989489
_cell_angle_gamma   133.91076085
_symmetry_Int_Tables_number   1
_chemical_formula_structural   EuSbIO2
_chemical_formula_sum   'Eu2 Sb2 I2 O4'
_cell_volume   222.61941711
_cell_formula_units_Z   2
loop_
 _symmetry_equiv_pos_site_id
 _symmetry_equiv_pos_as_xyz
  1  'x, y, z'
loop_
 _atom_site_type_symbol
 _atom_site_label
 _atom_site_symmetry_multiplicity
 _atom_site_fract_x
 _atom_site_fract_y
 _atom_site_fract_z
 _atom_site_occupancy
  Eu  Eu0  1  0.400022  0.599978  0.249999  1
  Eu  Eu1  1  0.599978  0.400022  0.750000  1
  Sb  Sb2  1  0.069781  0.930219  0.250000  1
  Sb  Sb3  1  0.930219  0.069781  0.749999  1
  I  I4  1  0.744452  0.255547  0.249999  1
  I  I5  1  0.255547  0.744452  0.750000  1
  O  O6  1  0.226059  0.226059  0.000000  1
  O  O7  1  0.773941  0.773941  0.000000  1
  O  O8  1  0.226061  0.226061  0.500000  1
  O  O9  1  0.773939  0.773939  0.500000  1
