# generated using pymatgen
data_Na20HfZr(SnAs6)2
_symmetry_space_group_name_H-M   'P 1'
_cell_length_a   7.65391617
_cell_length_b   8.56976003
_cell_length_c   16.15571194
_cell_angle_alpha   58.68378292
_cell_angle_beta   90.00888535
_cell_angle_gamma   90.00041483
_symmetry_Int_Tables_number   1
_chemical_formula_structural   Na20HfZr(SnAs6)2
_chemical_formula_sum   'Na20 Hf1 Zr1 Sn2 As12'
_cell_volume   905.30482782
_cell_formula_units_Z   1
loop_
 _symmetry_equiv_pos_site_id
 _symmetry_equiv_pos_as_xyz
  1  'x, y, z'
loop_
 _atom_site_type_symbol
 _atom_site_label
 _atom_site_symmetry_multiplicity
 _atom_site_fract_x
 _atom_site_fract_y
 _atom_site_fract_z
 _atom_site_occupancy
  Na  Na0  1  0.514966  0.565557  0.755110  1
  Na  Na1  1  0.015376  0.434757  0.744698  1
  Na  Na2  1  0.487070  0.438276  0.239829  1
  Na  Na3  1  0.986675  0.561404  0.260939  1
  Na  Na4  1  0.975924  0.249793  0.582395  1
  Na  Na5  1  0.476254  0.750448  0.917350  1
  Na  Na6  1  0.033340  0.757062  0.415448  1
  Na  Na7  1  0.532512  0.242238  0.084340  1
  Na  Na8  1  0.478175  0.074546  0.589746  1
  Na  Na9  1  0.977971  0.926170  0.909965  1
  Na  Na10  1  0.515102  0.924684  0.409787  1
  Na  Na11  1  0.015658  0.074762  0.090282  1
  Na  Na12  1  0.340750  0.155644  0.917666  1
  Na  Na13  1  0.840407  0.844585  0.581953  1
  Na  Na14  1  0.657123  0.845809  0.083439  1
  Na  Na15  1  0.156695  0.154445  0.416951  1
  Na  Na16  1  0.149277  0.830447  0.742360  1
  Na  Na17  1  0.649418  0.170007  0.757258  1
  Na  Na18  1  0.849122  0.161827  0.259852  1
  Na  Na19  1  0.350049  0.837565  0.240703  1
  Hf  Hf20  1  0.638237  0.511704  0.418969  1
  Zr  Zr21  1  0.138137  0.488362  0.081157  1
  Sn  Sn22  1  0.860048  0.513539  0.915460  1
  Sn  Sn23  1  0.360145  0.486522  0.584429  1
  As  As24  1  0.234611  0.779042  0.579447  1
  As  As25  1  0.734571  0.220957  0.920411  1
  As  As26  1  0.760321  0.225819  0.421463  1
  As  As27  1  0.260871  0.776531  0.078704  1
  As  As28  1  0.260503  0.169351  0.732869  1
  As  As29  1  0.760494  0.830715  0.766884  1
  As  As30  1  0.736795  0.819499  0.270074  1
  As  As31  1  0.237010  0.178118  0.231424  1
  As  As32  1  0.215560  0.476591  0.924188  1
  As  As33  1  0.715412  0.523548  0.574604  1
  As  As34  1  0.791129  0.520686  0.077382  1
  As  As35  1  0.294289  0.478990  0.422467  1
