# generated using pymatgen
data_Pr12Ir2RhAuI12
_symmetry_space_group_name_H-M   'P 1'
_cell_length_a   11.03357641
_cell_length_b   11.03357710
_cell_length_c   11.04375348
_cell_angle_alpha   109.91144730
_cell_angle_beta   109.91144816
_cell_angle_gamma   109.78738868
_symmetry_Int_Tables_number   1
_chemical_formula_structural   Pr12Ir2RhAuI12
_chemical_formula_sum   'Pr12 Ir2 Rh1 Au1 I12'
_cell_volume   1019.39741363
_cell_formula_units_Z   1
loop_
 _symmetry_equiv_pos_site_id
 _symmetry_equiv_pos_as_xyz
  1  'x, y, z'
loop_
 _atom_site_type_symbol
 _atom_site_label
 _atom_site_symmetry_multiplicity
 _atom_site_fract_x
 _atom_site_fract_y
 _atom_site_fract_z
 _atom_site_occupancy
  Pr  Pr0  1  0.459459  0.487594  0.223194  1
  Pr  Pr1  1  0.751469  0.228709  0.272623  1
  Pr  Pr2  1  0.750937  0.020900  0.480160  1
  Pr  Pr3  1  0.223397  0.459609  0.487616  1
  Pr  Pr4  1  0.271291  0.748531  0.227377  1
  Pr  Pr5  1  0.040391  0.276603  0.012384  1
  Pr  Pr6  1  0.012406  0.040541  0.276806  1
  Pr  Pr7  1  0.479100  0.749063  0.019840  1
  Pr  Pr8  1  0.487342  0.223733  0.459770  1
  Pr  Pr9  1  0.020619  0.479381  0.750000  1
  Pr  Pr10  1  0.276267  0.012658  0.040230  1
  Pr  Pr11  1  0.227752  0.272248  0.750000  1
  Ir  Ir12  1  0.997424  0.249415  0.500768  1
  Ir  Ir13  1  0.250585  0.502576  0.999232  1
  Rh  Rh14  1  0.501089  0.998911  0.250000  1
  Au  Au15  1  0.250433  0.249567  0.250000  1
  I  I16  1  0.250140  0.759996  0.740344  1
  I  I17  1  0.515121  0.506465  0.756431  1
  I  I18  1  0.985241  0.743804  0.993636  1
  I  I19  1  0.740004  0.249860  0.759656  1
  I  I20  1  0.993535  0.984879  0.743569  1
  I  I21  1  0.250214  0.993645  0.506420  1
  I  I22  1  0.756196  0.514759  0.506364  1
  I  I23  1  0.506355  0.249786  0.993580  1
  I  I24  1  0.759801  0.740199  0.250000  1
  I  I25  1  0.743629  0.993690  0.985205  1
  I  I26  1  0.993491  0.506509  0.250000  1
  I  I27  1  0.506310  0.756371  0.514795  1
