# generated using pymatgen
data_Cs7Nb(SeO4)6
_symmetry_space_group_name_H-M   'P 1'
_cell_length_a   10.54327253
_cell_length_b   10.54327112
_cell_length_c   10.54327248
_cell_angle_alpha   109.76817266
_cell_angle_beta   109.76817521
_cell_angle_gamma   109.76817968
_symmetry_Int_Tables_number   1
_chemical_formula_structural   Cs7Nb(SeO4)6
_chemical_formula_sum   'Cs7 Nb1 Se6 O24'
_cell_volume   892.14610264
_cell_formula_units_Z   1
loop_
 _symmetry_equiv_pos_site_id
 _symmetry_equiv_pos_as_xyz
  1  'x, y, z'
loop_
 _atom_site_type_symbol
 _atom_site_label
 _atom_site_symmetry_multiplicity
 _atom_site_fract_x
 _atom_site_fract_y
 _atom_site_fract_z
 _atom_site_occupancy
  Cs  Cs0  1  0.500000  0.500000  0.500000  1
  Cs  Cs1  1  0.833827  0.333271  0.675050  1
  Cs  Cs2  1  0.333271  0.675050  0.833827  1
  Cs  Cs3  1  0.675050  0.833827  0.333271  1
  Cs  Cs4  1  0.166173  0.666729  0.324950  1
  Cs  Cs5  1  0.666729  0.324950  0.166173  1
  Cs  Cs6  1  0.324950  0.166173  0.666729  1
  Nb  Nb7  1  0.000000  0.000000  0.000000  1
  Se  Se8  1  0.971730  0.756242  0.636586  1
  Se  Se9  1  0.756242  0.636586  0.971730  1
  Se  Se10  1  0.636586  0.971730  0.756242  1
  Se  Se11  1  0.028270  0.243758  0.363414  1
  Se  Se12  1  0.243758  0.363414  0.028270  1
  Se  Se13  1  0.363414  0.028270  0.243758  1
  O  O14  1  0.402483  0.900692  0.148375  1
  O  O15  1  0.900692  0.148375  0.402483  1
  O  O16  1  0.148375  0.402483  0.900692  1
  O  O17  1  0.597517  0.099308  0.851625  1
  O  O18  1  0.099308  0.851625  0.597517  1
  O  O19  1  0.851625  0.597517  0.099308  1
  O  O20  1  0.301557  0.984603  0.356239  1
  O  O21  1  0.984603  0.356239  0.301557  1
  O  O22  1  0.356239  0.301557  0.984603  1
  O  O23  1  0.698443  0.015397  0.643761  1
  O  O24  1  0.015397  0.643761  0.698443  1
  O  O25  1  0.643761  0.698443  0.015397  1
  O  O26  1  0.788810  0.978832  0.900804  1
  O  O27  1  0.978832  0.900804  0.788810  1
  O  O28  1  0.658057  0.487462  0.788885  1
  O  O29  1  0.788885  0.658057  0.487462  1
  O  O30  1  0.487462  0.788885  0.658057  1
  O  O31  1  0.341943  0.512538  0.211115  1
  O  O32  1  0.211115  0.341943  0.512538  1
  O  O33  1  0.512538  0.211115  0.341943  1
  O  O34  1  0.099196  0.211190  0.021168  1
  O  O35  1  0.021168  0.099196  0.211190  1
  O  O36  1  0.211190  0.021168  0.099196  1
  O  O37  1  0.900804  0.788810  0.978832  1
