# generated using pymatgen
data_Tb5Cu(As2Ru3)6
_symmetry_space_group_name_H-M   'P 1'
_cell_length_a   12.97904600
_cell_length_b   12.97904639
_cell_length_c   4.07151800
_cell_angle_alpha   90.00000000
_cell_angle_beta   90.00000000
_cell_angle_gamma   119.99999901
_symmetry_Int_Tables_number   1
_chemical_formula_structural   Tb5Cu(As2Ru3)6
_chemical_formula_sum   'Tb5 Cu1 As12 Ru18'
_cell_volume   593.98099756
_cell_formula_units_Z   1
loop_
 _symmetry_equiv_pos_site_id
 _symmetry_equiv_pos_as_xyz
  1  'x, y, z'
loop_
 _atom_site_type_symbol
 _atom_site_label
 _atom_site_symmetry_multiplicity
 _atom_site_fract_x
 _atom_site_fract_y
 _atom_site_fract_z
 _atom_site_occupancy
  Tb  Tb0  1  0.333333  0.666667  0.000000  1
  Tb  Tb1  1  0.666667  0.333333  0.000000  1
  Tb  Tb2  1  0.193977  0.000000  0.500000  1
  Tb  Tb3  1  0.000000  0.193977  0.500000  1
  Tb  Tb4  1  0.806023  0.806023  0.500000  1
  Cu  Cu5  1  0.000000  0.000000  0.000000  1
  As  As6  1  0.373157  0.000000  0.000000  1
  As  As7  1  0.000000  0.373157  0.000000  1
  As  As8  1  0.626843  0.626843  0.000000  1
  As  As9  1  0.310236  0.479117  0.500000  1
  As  As10  1  0.520883  0.831119  0.500000  1
  As  As11  1  0.168881  0.689764  0.500000  1
  As  As12  1  0.831119  0.520883  0.500000  1
  As  As13  1  0.689764  0.168881  0.500000  1
  As  As14  1  0.479117  0.310236  0.500000  1
  As  As15  1  0.821195  0.000000  0.000000  1
  As  As16  1  0.000000  0.821195  0.000000  1
  As  As17  1  0.178805  0.178805  0.000000  1
  Ru  Ru18  1  0.191475  0.374416  0.000000  1
  Ru  Ru19  1  0.625584  0.817059  0.000000  1
  Ru  Ru20  1  0.182941  0.808525  0.000000  1
  Ru  Ru21  1  0.817059  0.625584  0.000000  1
  Ru  Ru22  1  0.808525  0.182941  0.000000  1
  Ru  Ru23  1  0.374416  0.191475  0.000000  1
  Ru  Ru24  1  0.559807  0.000000  0.000000  1
  Ru  Ru25  1  0.000000  0.559807  0.000000  1
  Ru  Ru26  1  0.440193  0.440193  0.000000  1
  Ru  Ru27  1  0.124177  0.487352  0.500000  1
  Ru  Ru28  1  0.512648  0.636824  0.500000  1
  Ru  Ru29  1  0.363176  0.875823  0.500000  1
  Ru  Ru30  1  0.636824  0.512648  0.500000  1
  Ru  Ru31  1  0.875823  0.363176  0.500000  1
  Ru  Ru32  1  0.487352  0.124177  0.500000  1
  Ru  Ru33  1  0.719461  0.000000  0.500000  1
  Ru  Ru34  1  0.000000  0.719461  0.500000  1
  Ru  Ru35  1  0.280539  0.280539  0.500000  1
