# generated using pymatgen
data_La2Er3Sn4
_symmetry_space_group_name_H-M   'P 1'
_cell_length_a   7.95197900
_cell_length_b   8.43658200
_cell_length_c   15.84584400
_cell_angle_alpha   90.00000000
_cell_angle_beta   90.00000000
_cell_angle_gamma   90.00000000
_symmetry_Int_Tables_number   1
_chemical_formula_structural   La2Er3Sn4
_chemical_formula_sum   'La8 Er12 Sn16'
_cell_volume   1063.05842215
_cell_formula_units_Z   4
loop_
 _symmetry_equiv_pos_site_id
 _symmetry_equiv_pos_as_xyz
  1  'x, y, z'
loop_
 _atom_site_type_symbol
 _atom_site_label
 _atom_site_symmetry_multiplicity
 _atom_site_fract_x
 _atom_site_fract_y
 _atom_site_fract_z
 _atom_site_occupancy
  La  La0  1  0.006333  0.178190  0.094384  1
  La  La1  1  0.506333  0.321810  0.405616  1
  La  La2  1  0.493667  0.678190  0.905616  1
  La  La3  1  0.993667  0.821810  0.594384  1
  La  La4  1  0.993667  0.821810  0.905616  1
  La  La5  1  0.493667  0.678190  0.594384  1
  La  La6  1  0.506333  0.321810  0.094384  1
  La  La7  1  0.006333  0.178190  0.405616  1
  Er  Er8  1  0.837256  0.660470  0.124948  1
  Er  Er9  1  0.337256  0.839530  0.375052  1
  Er  Er10  1  0.662744  0.160470  0.875052  1
  Er  Er11  1  0.162744  0.339530  0.624948  1
  Er  Er12  1  0.162744  0.339530  0.875052  1
  Er  Er13  1  0.662744  0.160470  0.624948  1
  Er  Er14  1  0.337256  0.839530  0.124948  1
  Er  Er15  1  0.837256  0.660470  0.375052  1
  Er  Er16  1  0.675756  0.999434  0.250000  1
  Er  Er17  1  0.175756  0.500566  0.250000  1
  Er  Er18  1  0.824244  0.499434  0.750000  1
  Er  Er19  1  0.324244  0.000566  0.750000  1
  Sn  Sn20  1  0.034484  0.866603  0.250000  1
  Sn  Sn21  1  0.534484  0.633397  0.250000  1
  Sn  Sn22  1  0.465516  0.366603  0.750000  1
  Sn  Sn23  1  0.965516  0.133397  0.750000  1
  Sn  Sn24  1  0.809876  0.355855  0.250000  1
  Sn  Sn25  1  0.309876  0.144145  0.250000  1
  Sn  Sn26  1  0.690124  0.855855  0.750000  1
  Sn  Sn27  1  0.190124  0.644145  0.750000  1
  Sn  Sn28  1  0.819493  0.457634  0.956664  1
  Sn  Sn29  1  0.319493  0.042366  0.543336  1
  Sn  Sn30  1  0.680507  0.957634  0.043336  1
  Sn  Sn31  1  0.180507  0.542366  0.456664  1
  Sn  Sn32  1  0.180507  0.542366  0.043336  1
  Sn  Sn33  1  0.680507  0.957634  0.456664  1
  Sn  Sn34  1  0.319493  0.042366  0.956664  1
  Sn  Sn35  1  0.819493  0.457634  0.543336  1
