# generated using pymatgen
data_Y5Er7Tc4
_symmetry_space_group_name_H-M   'P 1'
_cell_length_a   6.22071283
_cell_length_b   7.49575953
_cell_length_c   9.07420615
_cell_angle_alpha   89.97343486
_cell_angle_beta   90.13264085
_cell_angle_gamma   90.06410440
_symmetry_Int_Tables_number   1
_chemical_formula_structural   Y5Er7Tc4
_chemical_formula_sum   'Y5 Er7 Tc4'
_cell_volume   423.11941977
_cell_formula_units_Z   1
loop_
 _symmetry_equiv_pos_site_id
 _symmetry_equiv_pos_as_xyz
  1  'x, y, z'
loop_
 _atom_site_type_symbol
 _atom_site_label
 _atom_site_symmetry_multiplicity
 _atom_site_fract_x
 _atom_site_fract_y
 _atom_site_fract_z
 _atom_site_occupancy
  Y  Y0  1  0.344368  0.674851  0.062510  1
  Y  Y1  1  0.875711  0.539338  0.251124  1
  Y  Y2  1  0.624279  0.040513  0.250478  1
  Y  Y3  1  0.123512  0.460345  0.748955  1
  Y  Y4  1  0.376685  0.960631  0.749018  1
  Er  Er5  1  0.155549  0.174210  0.437486  1
  Er  Er6  1  0.655655  0.325505  0.562369  1
  Er  Er7  1  0.843282  0.826690  0.937064  1
  Er  Er8  1  0.656688  0.325439  0.936895  1
  Er  Er9  1  0.844852  0.826249  0.562545  1
  Er  Er10  1  0.344087  0.673686  0.437939  1
  Er  Er11  1  0.156191  0.173453  0.062397  1
  Tc  Tc12  1  0.046495  0.884454  0.251357  1
  Tc  Tc13  1  0.450961  0.382402  0.251328  1
  Tc  Tc14  1  0.950397  0.116252  0.750213  1
  Tc  Tc15  1  0.551286  0.615986  0.748322  1
