# generated using pymatgen
data_Al20Ni2OsRh5
_symmetry_space_group_name_H-M   'P 1'
_cell_length_a   7.89918000
_cell_length_b   7.90712627
_cell_length_c   7.78711600
_cell_angle_alpha   90.00000000
_cell_angle_beta   90.00000000
_cell_angle_gamma   119.96677043
_symmetry_Int_Tables_number   1
_chemical_formula_structural   Al20Ni2OsRh5
_chemical_formula_sum   'Al20 Ni2 Os1 Rh5'
_cell_volume   421.35997887
_cell_formula_units_Z   1
loop_
 _symmetry_equiv_pos_site_id
 _symmetry_equiv_pos_as_xyz
  1  'x, y, z'
loop_
 _atom_site_type_symbol
 _atom_site_label
 _atom_site_symmetry_multiplicity
 _atom_site_fract_x
 _atom_site_fract_y
 _atom_site_fract_z
 _atom_site_occupancy
  Al  Al0  1  0.000234  0.000467  0.999626  1
  Al  Al1  1  0.000234  0.000467  0.500374  1
  Al  Al2  1  0.473548  0.947095  0.250000  1
  Al  Al3  1  0.528231  0.472393  0.750000  1
  Al  Al4  1  0.944162  0.472393  0.750000  1
  Al  Al5  1  0.056449  0.528661  0.250000  1
  Al  Al6  1  0.472212  0.528661  0.250000  1
  Al  Al7  1  0.528237  0.056474  0.750000  1
  Al  Al8  1  0.195356  0.390711  0.939313  1
  Al  Al9  1  0.808044  0.197852  0.437111  1
  Al  Al10  1  0.389807  0.197852  0.437111  1
  Al  Al11  1  0.607984  0.804453  0.938999  1
  Al  Al12  1  0.196471  0.804453  0.938999  1
  Al  Al13  1  0.802479  0.604959  0.059829  1
  Al  Al14  1  0.808044  0.197852  0.062889  1
  Al  Al15  1  0.802479  0.604959  0.440171  1
  Al  Al16  1  0.389807  0.197852  0.062889  1
  Al  Al17  1  0.607984  0.804453  0.561001  1
  Al  Al18  1  0.195356  0.390711  0.560687  1
  Al  Al19  1  0.196471  0.804453  0.561001  1
  Ni  Ni20  1  0.332876  0.665753  0.750000  1
  Ni  Ni21  1  0.666075  0.332149  0.250000  1
  Os  Os22  1  0.128767  0.257535  0.250000  1
  Rh  Rh23  1  0.868678  0.130047  0.750000  1
  Rh  Rh24  1  0.261370  0.130047  0.750000  1
  Rh  Rh25  1  0.739336  0.868104  0.250000  1
  Rh  Rh26  1  0.128768  0.868104  0.250000  1
  Rh  Rh27  1  0.870544  0.741087  0.750000  1
