# generated using pymatgen
data_Dy3ErAl17SiIr6
_symmetry_space_group_name_H-M   'P 1'
_cell_length_a   7.56020362
_cell_length_b   7.55925351
_cell_length_c   9.38618100
_cell_angle_alpha   90.00000000
_cell_angle_beta   90.00000000
_cell_angle_gamma   119.64286033
_symmetry_Int_Tables_number   1
_chemical_formula_structural   Dy3ErAl17SiIr6
_chemical_formula_sum   'Dy3 Er1 Al17 Si1 Ir6'
_cell_volume   466.21223387
_cell_formula_units_Z   1
loop_
 _symmetry_equiv_pos_site_id
 _symmetry_equiv_pos_as_xyz
  1  'x, y, z'
loop_
 _atom_site_type_symbol
 _atom_site_label
 _atom_site_symmetry_multiplicity
 _atom_site_fract_x
 _atom_site_fract_y
 _atom_site_fract_z
 _atom_site_occupancy
  Dy  Dy0  1  0.005146  0.324071  0.250000  1
  Dy  Dy1  1  0.671964  0.995323  0.750000  1
  Dy  Dy2  1  0.324121  0.004998  0.250000  1
  Er  Er3  1  0.995454  0.672099  0.750000  1
  Al  Al4  1  0.127326  0.127068  0.750000  1
  Al  Al5  1  0.001164  0.335766  0.575985  1
  Al  Al6  1  0.998758  0.662526  0.423298  1
  Al  Al7  1  0.998758  0.662526  0.076702  1
  Al  Al8  1  0.335027  0.000969  0.924158  1
  Al  Al9  1  0.001164  0.335766  0.924015  1
  Al  Al10  1  0.662535  0.998717  0.077332  1
  Al  Al11  1  0.662535  0.998717  0.422668  1
  Al  Al12  1  0.335027  0.000969  0.575842  1
  Al  Al13  1  0.335303  0.335290  0.050724  1
  Al  Al14  1  0.667041  0.666776  0.944363  1
  Al  Al15  1  0.667041  0.666776  0.555637  1
  Al  Al16  1  0.335303  0.335290  0.449276  1
  Al  Al17  1  0.339584  0.549805  0.750000  1
  Al  Al18  1  0.663643  0.450866  0.250000  1
  Al  Al19  1  0.550359  0.340463  0.750000  1
  Al  Al20  1  0.450672  0.663291  0.250000  1
  Si  Si21  1  0.869703  0.869393  0.250000  1
  Ir  Ir22  1  0.672957  0.329252  0.499649  1
  Ir  Ir23  1  0.329120  0.672915  0.499647  1
  Ir  Ir24  1  0.329120  0.672915  0.000353  1
  Ir  Ir25  1  0.672957  0.329252  0.000351  1
  Ir  Ir26  1  0.999110  0.999101  0.493967  1
  Ir  Ir27  1  0.999110  0.999101  0.006033  1
