# generated using pymatgen
data_Ac2Ge3Ir
_symmetry_space_group_name_H-M   'P 1'
_cell_length_a   4.51693000
_cell_length_b   4.45161805
_cell_length_c   7.55884901
_cell_angle_alpha   89.99393429
_cell_angle_beta   90.00000000
_cell_angle_gamma   90.00000000
_symmetry_Int_Tables_number   1
_chemical_formula_structural   Ac2Ge3Ir
_chemical_formula_sum   'Ac2 Ge3 Ir1'
_cell_volume   151.99066740
_cell_formula_units_Z   1
loop_
 _symmetry_equiv_pos_site_id
 _symmetry_equiv_pos_as_xyz
  1  'x, y, z'
loop_
 _atom_site_type_symbol
 _atom_site_label
 _atom_site_symmetry_multiplicity
 _atom_site_fract_x
 _atom_site_fract_y
 _atom_site_fract_z
 _atom_site_occupancy
  Ac  Ac0  1  0.000000  0.999958  0.014378  1
  Ac  Ac1  1  0.000000  0.500099  0.495300  1
  Ge  Ge2  1  0.500000  0.499991  0.835454  1
  Ge  Ge3  1  0.500000  0.499885  0.177544  1
  Ge  Ge4  1  0.500000  0.000024  0.653282  1
  Ir  Ir5  1  0.500000  0.999844  0.324042  1
