# generated using pymatgen
data_Tb2B4Ir2Rh3
_symmetry_space_group_name_H-M   'P 1'
_cell_length_a   7.51732204
_cell_length_b   6.31935073
_cell_length_c   5.61159451
_cell_angle_alpha   77.86096163
_cell_angle_beta   55.26962172
_cell_angle_gamma   46.86940455
_symmetry_Int_Tables_number   1
_chemical_formula_structural   Tb2B4Ir2Rh3
_chemical_formula_sum   'Tb2 B4 Ir2 Rh3'
_cell_volume   152.58286746
_cell_formula_units_Z   1
loop_
 _symmetry_equiv_pos_site_id
 _symmetry_equiv_pos_as_xyz
  1  'x, y, z'
loop_
 _atom_site_type_symbol
 _atom_site_label
 _atom_site_symmetry_multiplicity
 _atom_site_fract_x
 _atom_site_fract_y
 _atom_site_fract_z
 _atom_site_occupancy
  Tb  Tb0  1  0.857472  0.857472  0.142528  1
  Tb  Tb1  1  0.142528  0.142528  0.857472  1
  B  B2  1  0.783553  0.485093  0.523107  1
  B  B3  1  0.208245  0.523107  0.485093  1
  B  B4  1  0.523107  0.208245  0.783553  1
  B  B5  1  0.485093  0.783553  0.208245  1
  Ir  Ir6  1  0.750000  0.750000  0.750000  1
  Ir  Ir7  1  0.500000  0.500000  0.500000  1
  Rh  Rh8  1  0.499033  0.499033  0.000967  1
  Rh  Rh9  1  0.000967  0.000967  0.499033  1
  Rh  Rh10  1  0.250000  0.250000  0.250000  1
