# generated using pymatgen
data_Tm5TlSb2
_symmetry_space_group_name_H-M   'P 1'
_cell_length_a   8.86608900
_cell_length_b   8.85878420
_cell_length_c   6.39811000
_cell_angle_alpha   90.00000000
_cell_angle_beta   90.00000000
_cell_angle_gamma   120.02728447
_symmetry_Int_Tables_number   1
_chemical_formula_structural   Tm5TlSb2
_chemical_formula_sum   'Tm10 Tl2 Sb4'
_cell_volume   435.07995408
_cell_formula_units_Z   2
loop_
 _symmetry_equiv_pos_site_id
 _symmetry_equiv_pos_as_xyz
  1  'x, y, z'
loop_
 _atom_site_type_symbol
 _atom_site_label
 _atom_site_symmetry_multiplicity
 _atom_site_fract_x
 _atom_site_fract_y
 _atom_site_fract_z
 _atom_site_occupancy
  Tm  Tm0  1  0.334879  0.669760  0.000000  1
  Tm  Tm1  1  0.665121  0.330240  0.500000  1
  Tm  Tm2  1  0.665121  0.330240  0.000000  1
  Tm  Tm3  1  0.334879  0.669760  0.500000  1
  Tm  Tm4  1  0.236141  0.000000  0.250000  1
  Tm  Tm5  1  0.763859  0.000000  0.750000  1
  Tm  Tm6  1  0.993420  0.237660  0.250000  1
  Tm  Tm7  1  0.755760  0.762340  0.250000  1
  Tm  Tm8  1  0.244240  0.237660  0.750000  1
  Tm  Tm9  1  0.006580  0.762340  0.750000  1
  Tl  Tl10  1  0.602048  0.000000  0.250000  1
  Tl  Tl11  1  0.397952  0.000000  0.750000  1
  Sb  Sb12  1  0.997621  0.607748  0.250000  1
  Sb  Sb13  1  0.389874  0.392252  0.250000  1
  Sb  Sb14  1  0.610126  0.607748  0.750000  1
  Sb  Sb15  1  0.002379  0.392252  0.750000  1
