# generated using pymatgen
data_Sr12La8Sn7Sb9
_symmetry_space_group_name_H-M   'P 1'
_cell_length_a   8.66875537
_cell_length_b   8.66482507
_cell_length_c   16.73792800
_cell_angle_alpha   90.00000000
_cell_angle_beta   90.00000000
_cell_angle_gamma   90.62278273
_symmetry_Int_Tables_number   1
_chemical_formula_structural   Sr12La8Sn7Sb9
_chemical_formula_sum   'Sr12 La8 Sn7 Sb9'
_cell_volume   1257.16588192
_cell_formula_units_Z   1
loop_
 _symmetry_equiv_pos_site_id
 _symmetry_equiv_pos_as_xyz
  1  'x, y, z'
loop_
 _atom_site_type_symbol
 _atom_site_label
 _atom_site_symmetry_multiplicity
 _atom_site_fract_x
 _atom_site_fract_y
 _atom_site_fract_z
 _atom_site_occupancy
  Sr  Sr0  1  0.962998  0.824874  0.898789  1
  Sr  Sr1  1  0.469295  0.676474  0.601147  1
  Sr  Sr2  1  0.532882  0.321822  0.099246  1
  Sr  Sr3  1  0.032562  0.178100  0.400375  1
  Sr  Sr4  1  0.962998  0.824874  0.601211  1
  Sr  Sr5  1  0.469295  0.676474  0.898853  1
  Sr  Sr6  1  0.532882  0.321822  0.400754  1
  Sr  Sr7  1  0.032562  0.178100  0.099625  1
  Sr  Sr8  1  0.281954  0.994727  0.750000  1
  Sr  Sr9  1  0.781497  0.504909  0.750000  1
  Sr  Sr10  1  0.218134  0.494551  0.250000  1
  Sr  Sr11  1  0.718142  0.005374  0.250000  1
  La  La12  1  0.883909  0.658680  0.385679  1
  La  La13  1  0.383265  0.841841  0.114337  1
  La  La14  1  0.615796  0.159453  0.615499  1
  La  La15  1  0.119131  0.341343  0.883462  1
  La  La16  1  0.119131  0.341343  0.616538  1
  La  La17  1  0.615796  0.159453  0.884501  1
  La  La18  1  0.383265  0.841841  0.385663  1
  La  La19  1  0.883909  0.658680  0.114321  1
  Sn  Sn20  1  0.668304  0.878902  0.750000  1
  Sn  Sn21  1  0.332499  0.120492  0.250000  1
  Sn  Sn22  1  0.831750  0.380569  0.250000  1
  Sn  Sn23  1  0.910004  0.123445  0.750000  1
  Sn  Sn24  1  0.416262  0.367693  0.750000  1
  Sn  Sn25  1  0.591505  0.622820  0.250000  1
  Sn  Sn26  1  0.091062  0.876432  0.250000  1
  Sb  Sb27  1  0.784273  0.465574  0.545162  1
  Sb  Sb28  1  0.279914  0.035043  0.955127  1
  Sb  Sb29  1  0.717883  0.964197  0.455731  1
  Sb  Sb30  1  0.219534  0.533614  0.043837  1
  Sb  Sb31  1  0.219534  0.533614  0.456163  1
  Sb  Sb32  1  0.717883  0.964197  0.044269  1
  Sb  Sb33  1  0.279914  0.035043  0.544873  1
  Sb  Sb34  1  0.784273  0.465574  0.954838  1
  Sb  Sb35  1  0.156007  0.628059  0.750000  1
