# generated using pymatgen
data_Zr9Ti4Be2(Al3Rh2)3
_symmetry_space_group_name_H-M   'P 1'
_cell_length_a   8.93886895
_cell_length_b   8.93886699
_cell_length_c   8.93749711
_cell_angle_alpha   60.28857974
_cell_angle_beta   60.28858793
_cell_angle_gamma   60.24195514
_symmetry_Int_Tables_number   1
_chemical_formula_structural   Zr9Ti4Be2(Al3Rh2)3
_chemical_formula_sum   'Zr9 Ti4 Be2 Al9 Rh6'
_cell_volume   508.09082862
_cell_formula_units_Z   1
loop_
 _symmetry_equiv_pos_site_id
 _symmetry_equiv_pos_as_xyz
  1  'x, y, z'
loop_
 _atom_site_type_symbol
 _atom_site_label
 _atom_site_symmetry_multiplicity
 _atom_site_fract_x
 _atom_site_fract_y
 _atom_site_fract_z
 _atom_site_occupancy
  Zr  Zr0  1  0.198502  0.198502  0.803601  1
  Zr  Zr1  1  0.805855  0.191612  0.193467  1
  Zr  Zr2  1  0.191612  0.805855  0.193467  1
  Zr  Zr3  1  0.808516  0.808516  0.186617  1
  Zr  Zr4  1  0.190050  0.800114  0.806407  1
  Zr  Zr5  1  0.800114  0.190050  0.806407  1
  Zr  Zr6  1  0.385335  0.385335  0.381363  1
  Zr  Zr7  1  0.386142  0.846728  0.382606  1
  Zr  Zr8  1  0.846728  0.386142  0.382606  1
  Ti  Ti9  1  0.382479  0.382479  0.853262  1
  Ti  Ti10  1  0.833662  0.502945  0.833744  1
  Ti  Ti11  1  0.502945  0.833662  0.833744  1
  Ti  Ti12  1  0.832692  0.832692  0.505828  1
  Be  Be13  1  0.494275  0.494275  0.515425  1
  Be  Be14  1  0.004944  0.004944  0.991420  1
  Al  Al15  1  0.166288  0.166288  0.162157  1
  Al  Al16  1  0.167631  0.501775  0.162386  1
  Al  Al17  1  0.501775  0.167631  0.162386  1
  Al  Al18  1  0.163171  0.163171  0.510277  1
  Al  Al19  1  0.615166  0.615166  0.623349  1
  Al  Al20  1  0.615152  0.150191  0.622064  1
  Al  Al21  1  0.150191  0.615152  0.622064  1
  Al  Al22  1  0.619430  0.619430  0.146991  1
  Al  Al23  1  0.831167  0.831167  0.831168  1
  Rh  Rh24  1  0.999506  0.999506  0.495386  1
  Rh  Rh25  1  0.495270  0.005397  0.995287  1
  Rh  Rh26  1  0.005397  0.495270  0.995287  1
  Rh  Rh27  1  0.503118  0.503118  0.993694  1
  Rh  Rh28  1  0.997584  0.505304  0.503770  1
  Rh  Rh29  1  0.505304  0.997584  0.503770  1
