# generated using pymatgen
data_Sr10VTcN10
_symmetry_space_group_name_H-M   'P 1'
_cell_length_a   7.68281581
_cell_length_b   7.68281652
_cell_length_c   9.04532593
_cell_angle_alpha   76.28682936
_cell_angle_beta   76.28683185
_cell_angle_gamma   96.74623640
_symmetry_Int_Tables_number   1
_chemical_formula_structural   Sr10VTcN10
_chemical_formula_sum   'Sr10 V1 Tc1 N10'
_cell_volume   495.29725957
_cell_formula_units_Z   1
loop_
 _symmetry_equiv_pos_site_id
 _symmetry_equiv_pos_as_xyz
  1  'x, y, z'
loop_
 _atom_site_type_symbol
 _atom_site_label
 _atom_site_symmetry_multiplicity
 _atom_site_fract_x
 _atom_site_fract_y
 _atom_site_fract_z
 _atom_site_occupancy
  Sr  Sr0  1  0.388868  0.393857  0.387519  1
  Sr  Sr1  1  0.606143  0.611132  0.612481  1
  Sr  Sr2  1  0.663127  0.666265  0.011355  1
  Sr  Sr3  1  0.333735  0.336873  0.988645  1
  Sr  Sr4  1  0.928895  0.914707  0.198143  1
  Sr  Sr5  1  0.085293  0.071105  0.801857  1
  Sr  Sr6  1  0.551083  0.089338  0.756696  1
  Sr  Sr7  1  0.910662  0.448917  0.243304  1
  Sr  Sr8  1  0.431338  0.894529  0.244610  1
  Sr  Sr9  1  0.105471  0.568662  0.755390  1
  V  V10  1  0.243456  0.756544  0.000000  1
  Tc  Tc11  1  0.756353  0.243647  0.000000  1
  N  N12  1  0.657920  0.657923  0.313918  1
  N  N13  1  0.342077  0.342080  0.686082  1
  N  N14  1  0.714849  0.010187  0.985027  1
  N  N15  1  0.989813  0.285151  0.014973  1
  N  N16  1  0.283444  0.990751  0.013839  1
  N  N17  1  0.009249  0.716556  0.986161  1
  N  N18  1  0.403451  0.733676  0.822819  1
  N  N19  1  0.266324  0.596549  0.177180  1
  N  N20  1  0.596299  0.267849  0.176296  1
  N  N21  1  0.732151  0.403701  0.823703  1
