# generated using pymatgen
data_Li2TaNi9P7Ru2
_symmetry_space_group_name_H-M   'P 1'
_cell_length_a   9.14278836
_cell_length_b   9.12140508
_cell_length_c   3.60391400
_cell_angle_alpha   90.00000000
_cell_angle_beta   90.00000000
_cell_angle_gamma   120.31404517
_symmetry_Int_Tables_number   1
_chemical_formula_structural   Li2TaNi9P7Ru2
_chemical_formula_sum   'Li2 Ta1 Ni9 P7 Ru2'
_cell_volume   259.45521651
_cell_formula_units_Z   1
loop_
 _symmetry_equiv_pos_site_id
 _symmetry_equiv_pos_as_xyz
  1  'x, y, z'
loop_
 _atom_site_type_symbol
 _atom_site_label
 _atom_site_symmetry_multiplicity
 _atom_site_fract_x
 _atom_site_fract_y
 _atom_site_fract_z
 _atom_site_occupancy
  Li  Li0  1  0.332041  0.666843  0.000000  1
  Li  Li1  1  0.668186  0.334499  0.500000  1
  Ta  Ta2  1  0.876256  0.778798  0.500000  1
  Ni  Ni3  1  0.705971  0.874371  0.000000  1
  Ni  Ni4  1  0.167197  0.291532  0.000000  1
  Ni  Ni5  1  0.127572  0.837211  0.000000  1
  Ni  Ni6  1  0.623013  0.561741  0.000000  1
  Ni  Ni7  1  0.937574  0.372518  0.000000  1
  Ni  Ni8  1  0.440190  0.064929  0.000000  1
  Ni  Ni9  1  0.557279  0.947904  0.500000  1
  Ni  Ni10  1  0.386504  0.438985  0.500000  1
  Ni  Ni11  1  0.061381  0.613967  0.500000  1
  P  P12  1  0.575544  0.707852  0.500000  1
  P  P13  1  0.124458  0.413534  0.500000  1
  P  P14  1  0.292051  0.877680  0.500000  1
  P  P15  1  0.002201  0.008457  0.000000  1
  P  P16  1  0.877862  0.577534  0.000000  1
  P  P17  1  0.705991  0.122484  0.000000  1
  P  P18  1  0.414469  0.292683  0.000000  1
  Ru  Ru19  1  0.905164  0.123746  0.500000  1
  Ru  Ru20  1  0.219099  0.092733  0.500000  1
