# generated using pymatgen
data_Dy2Si7Rh12
_symmetry_space_group_name_H-M   'P 1'
_cell_length_a   9.75330300
_cell_length_b   9.75330310
_cell_length_c   3.86265900
_cell_angle_alpha   90.00000000
_cell_angle_beta   90.00000000
_cell_angle_gamma   120.00000304
_symmetry_Int_Tables_number   1
_chemical_formula_structural   Dy2Si7Rh12
_chemical_formula_sum   'Dy2 Si7 Rh12'
_cell_volume   318.21483739
_cell_formula_units_Z   1
loop_
 _symmetry_equiv_pos_site_id
 _symmetry_equiv_pos_as_xyz
  1  'x, y, z'
loop_
 _atom_site_type_symbol
 _atom_site_label
 _atom_site_symmetry_multiplicity
 _atom_site_fract_x
 _atom_site_fract_y
 _atom_site_fract_z
 _atom_site_occupancy
  Dy  Dy0  1  0.333333  0.666667  0.749212  1
  Dy  Dy1  1  0.666667  0.333333  0.250788  1
  Si  Si2  1  0.000000  0.000000  0.500000  1
  Si  Si3  1  0.400397  0.289609  0.751223  1
  Si  Si4  1  0.710391  0.110789  0.751223  1
  Si  Si5  1  0.889211  0.599603  0.751223  1
  Si  Si6  1  0.599603  0.710391  0.248777  1
  Si  Si7  1  0.289609  0.889211  0.248777  1
  Si  Si8  1  0.110789  0.400397  0.248777  1
  Rh  Rh9  1  0.443892  0.062978  0.751338  1
  Rh  Rh10  1  0.937022  0.380914  0.751338  1
  Rh  Rh11  1  0.619086  0.556108  0.751338  1
  Rh  Rh12  1  0.556108  0.937022  0.248662  1
  Rh  Rh13  1  0.062978  0.619086  0.248662  1
  Rh  Rh14  1  0.380914  0.443892  0.248662  1
  Rh  Rh15  1  0.143465  0.261922  0.745251  1
  Rh  Rh16  1  0.738078  0.881544  0.745251  1
  Rh  Rh17  1  0.118456  0.856535  0.745251  1
  Rh  Rh18  1  0.856535  0.738078  0.254749  1
  Rh  Rh19  1  0.261922  0.118456  0.254749  1
  Rh  Rh20  1  0.881544  0.143465  0.254749  1
