# generated using pymatgen
data_Tb9Nd(Sn3O)2
_symmetry_space_group_name_H-M   'P 1'
_cell_length_a   9.10240066
_cell_length_b   9.10240019
_cell_length_c   9.10240190
_cell_angle_alpha   125.95865043
_cell_angle_beta   125.95864095
_cell_angle_gamma   79.95612406
_symmetry_Int_Tables_number   1
_chemical_formula_structural   Tb9Nd(Sn3O)2
_chemical_formula_sum   'Tb9 Nd1 Sn6 O2'
_cell_volume   477.12236127
_cell_formula_units_Z   1
loop_
 _symmetry_equiv_pos_site_id
 _symmetry_equiv_pos_as_xyz
  1  'x, y, z'
loop_
 _atom_site_type_symbol
 _atom_site_label
 _atom_site_symmetry_multiplicity
 _atom_site_fract_x
 _atom_site_fract_y
 _atom_site_fract_z
 _atom_site_occupancy
  Tb  Tb0  1  0.499547  0.302092  0.498729  1
  Tb  Tb1  1  0.803363  0.000818  0.501271  1
  Tb  Tb2  1  0.000818  0.499547  0.197455  1
  Tb  Tb3  1  0.302092  0.803363  0.802545  1
  Tb  Tb4  1  0.502487  0.700031  0.501213  1
  Tb  Tb5  1  0.198818  0.001274  0.498787  1
  Tb  Tb6  1  0.001274  0.502487  0.802456  1
  Tb  Tb7  1  0.700031  0.198818  0.197544  1
  Tb  Tb8  1  0.002648  0.002648  0.000000  1
  Nd  Nd9  1  0.502741  0.502741  0.000000  1
  Sn  Sn10  1  0.141357  0.356690  0.496168  1
  Sn  Sn11  1  0.860522  0.645189  0.503832  1
  Sn  Sn12  1  0.645189  0.141357  0.784666  1
  Sn  Sn13  1  0.356690  0.860522  0.215334  1
  Sn  Sn14  1  0.753073  0.753073  0.000000  1
  Sn  Sn15  1  0.250359  0.250359  0.000000  1
  O  O16  1  0.750915  0.250915  0.500000  1
  O  O17  1  0.250915  0.750915  0.500000  1
