# generated using pymatgen
data_Hf8In4Rh3Au5
_symmetry_space_group_name_H-M   'P 1'
_cell_length_a   7.56341443
_cell_length_b   7.56341419
_cell_length_c   6.92496902
_cell_angle_alpha   90.04390988
_cell_angle_beta   90.04390971
_cell_angle_gamma   90.33873766
_symmetry_Int_Tables_number   1
_chemical_formula_structural   Hf8In4Rh3Au5
_chemical_formula_sum   'Hf8 In4 Rh3 Au5'
_cell_volume   396.13733046
_cell_formula_units_Z   1
loop_
 _symmetry_equiv_pos_site_id
 _symmetry_equiv_pos_as_xyz
  1  'x, y, z'
loop_
 _atom_site_type_symbol
 _atom_site_label
 _atom_site_symmetry_multiplicity
 _atom_site_fract_x
 _atom_site_fract_y
 _atom_site_fract_z
 _atom_site_occupancy
  Hf  Hf0  1  0.149624  0.149624  0.007463  1
  Hf  Hf1  1  0.836145  0.836145  0.997323  1
  Hf  Hf2  1  0.645587  0.359092  0.491370  1
  Hf  Hf3  1  0.359092  0.645587  0.491370  1
  Hf  Hf4  1  0.681658  0.333355  0.006592  1
  Hf  Hf5  1  0.333355  0.681658  0.006592  1
  Hf  Hf6  1  0.801595  0.801595  0.501614  1
  Hf  Hf7  1  0.196766  0.196766  0.490033  1
  In  In8  1  0.500804  0.004995  0.244949  1
  In  In9  1  0.499808  0.995387  0.752195  1
  In  In10  1  0.004995  0.500804  0.244949  1
  In  In11  1  0.995387  0.499808  0.752195  1
  Rh  Rh12  1  0.368095  0.368095  0.218074  1
  Rh  Rh13  1  0.629355  0.629355  0.776826  1
  Rh  Rh14  1  0.633460  0.633460  0.220859  1
  Au  Au15  1  0.868316  0.131154  0.714747  1
  Au  Au16  1  0.868263  0.129053  0.287248  1
  Au  Au17  1  0.367486  0.367486  0.793606  1
  Au  Au18  1  0.129053  0.868263  0.287248  1
  Au  Au19  1  0.131154  0.868316  0.714747  1
