# generated using pymatgen
data_Hf16Co4Ir3Pd
_symmetry_space_group_name_H-M   'P 1'
_cell_length_a   8.59775891
_cell_length_b   8.59775917
_cell_length_c   8.59775896
_cell_angle_alpha   59.95290927
_cell_angle_beta   59.95290438
_cell_angle_gamma   59.95291445
_symmetry_Int_Tables_number   1
_chemical_formula_structural   Hf16Co4Ir3Pd
_chemical_formula_sum   'Hf16 Co4 Ir3 Pd1'
_cell_volume   448.92804969
_cell_formula_units_Z   1
loop_
 _symmetry_equiv_pos_site_id
 _symmetry_equiv_pos_as_xyz
  1  'x, y, z'
loop_
 _atom_site_type_symbol
 _atom_site_label
 _atom_site_symmetry_multiplicity
 _atom_site_fract_x
 _atom_site_fract_y
 _atom_site_fract_z
 _atom_site_occupancy
  Hf  Hf0  1  0.066955  0.644645  0.644645  1
  Hf  Hf1  1  0.644645  0.066955  0.644645  1
  Hf  Hf2  1  0.644645  0.644645  0.066955  1
  Hf  Hf3  1  0.645519  0.645519  0.645519  1
  Hf  Hf4  1  0.805225  0.805225  0.194680  1
  Hf  Hf5  1  0.193116  0.193116  0.808037  1
  Hf  Hf6  1  0.805225  0.194680  0.805225  1
  Hf  Hf7  1  0.193116  0.808037  0.193116  1
  Hf  Hf8  1  0.194680  0.805225  0.805225  1
  Hf  Hf9  1  0.808037  0.193116  0.193116  1
  Hf  Hf10  1  0.436852  0.436852  0.058128  1
  Hf  Hf11  1  0.062531  0.062531  0.437488  1
  Hf  Hf12  1  0.436852  0.058128  0.436852  1
  Hf  Hf13  1  0.062531  0.437488  0.062531  1
  Hf  Hf14  1  0.058128  0.436852  0.436852  1
  Hf  Hf15  1  0.437488  0.062531  0.062531  1
  Co  Co16  1  0.429099  0.857531  0.857531  1
  Co  Co17  1  0.857531  0.429099  0.857531  1
  Co  Co18  1  0.857531  0.857531  0.429099  1
  Co  Co19  1  0.856563  0.856563  0.856563  1
  Ir  Ir20  1  0.755640  0.415714  0.415714  1
  Ir  Ir21  1  0.415714  0.755640  0.415714  1
  Ir  Ir22  1  0.415714  0.415714  0.755640  1
  Pd  Pd23  1  0.416662  0.416662  0.416662  1
