# generated using pymatgen
data_Nd3V(Co4P3)2
_symmetry_space_group_name_H-M   'P 1'
_cell_length_a   3.76922300
_cell_length_b   10.68907600
_cell_length_c   12.42969500
_cell_angle_alpha   90.00000000
_cell_angle_beta   90.00000000
_cell_angle_gamma   90.00000000
_symmetry_Int_Tables_number   1
_chemical_formula_structural   Nd3V(Co4P3)2
_chemical_formula_sum   'Nd6 V2 Co16 P12'
_cell_volume   500.78633477
_cell_formula_units_Z   2
loop_
 _symmetry_equiv_pos_site_id
 _symmetry_equiv_pos_as_xyz
  1  'x, y, z'
loop_
 _atom_site_type_symbol
 _atom_site_label
 _atom_site_symmetry_multiplicity
 _atom_site_fract_x
 _atom_site_fract_y
 _atom_site_fract_z
 _atom_site_occupancy
  Nd  Nd0  1  0.000000  0.500000  0.522169  1
  Nd  Nd1  1  0.500000  0.000000  0.477831  1
  Nd  Nd2  1  0.500000  0.818535  0.204873  1
  Nd  Nd3  1  0.500000  0.181465  0.204873  1
  Nd  Nd4  1  0.000000  0.681465  0.795127  1
  Nd  Nd5  1  0.000000  0.318535  0.795127  1
  V  V6  1  0.500000  0.500000  0.151915  1
  V  V7  1  0.000000  0.000000  0.848085  1
  Co  Co8  1  0.500000  0.500000  0.703696  1
  Co  Co9  1  0.000000  0.000000  0.296304  1
  Co  Co10  1  0.000000  0.500000  0.988306  1
  Co  Co11  1  0.500000  0.000000  0.011694  1
  Co  Co12  1  0.500000  0.332439  0.994319  1
  Co  Co13  1  0.500000  0.667561  0.994319  1
  Co  Co14  1  0.000000  0.167561  0.005681  1
  Co  Co15  1  0.000000  0.832439  0.005681  1
  Co  Co16  1  0.500000  0.295522  0.430786  1
  Co  Co17  1  0.500000  0.704478  0.430786  1
  Co  Co18  1  0.000000  0.204478  0.569214  1
  Co  Co19  1  0.000000  0.795522  0.569214  1
  Co  Co20  1  0.500000  0.880829  0.708910  1
  Co  Co21  1  0.500000  0.119171  0.708910  1
  Co  Co22  1  0.000000  0.619171  0.291090  1
  Co  Co23  1  0.000000  0.380829  0.291090  1
  P  P24  1  0.500000  0.500000  0.886559  1
  P  P25  1  0.000000  0.000000  0.113441  1
  P  P26  1  0.500000  0.500000  0.342114  1
  P  P27  1  0.000000  0.000000  0.657886  1
  P  P28  1  0.500000  0.307000  0.614317  1
  P  P29  1  0.500000  0.693000  0.614317  1
  P  P30  1  0.000000  0.193000  0.385683  1
  P  P31  1  0.000000  0.807000  0.385683  1
  P  P32  1  0.500000  0.847535  0.894240  1
  P  P33  1  0.500000  0.152465  0.894240  1
  P  P34  1  0.000000  0.652465  0.105760  1
  P  P35  1  0.000000  0.347535  0.105760  1
