# generated using pymatgen
data_Dy8CoAg2Rh
_symmetry_space_group_name_H-M   'P 1'
_cell_length_a   9.39654500
_cell_length_b   9.47825107
_cell_length_c   9.47828713
_cell_angle_alpha   60.23179539
_cell_angle_beta   60.27271860
_cell_angle_gamma   60.27256827
_symmetry_Int_Tables_number   1
_chemical_formula_structural   Dy8CoAg2Rh
_chemical_formula_sum   'Dy16 Co2 Ag4 Rh2'
_cell_volume   600.41289953
_cell_formula_units_Z   2
loop_
 _symmetry_equiv_pos_site_id
 _symmetry_equiv_pos_as_xyz
  1  'x, y, z'
loop_
 _atom_site_type_symbol
 _atom_site_label
 _atom_site_symmetry_multiplicity
 _atom_site_fract_x
 _atom_site_fract_y
 _atom_site_fract_z
 _atom_site_occupancy
  Dy  Dy0  1  0.148915  0.544042  0.157904  1
  Dy  Dy1  1  0.692748  0.312759  0.682473  1
  Dy  Dy2  1  0.685749  0.314366  0.314364  1
  Dy  Dy3  1  0.935010  0.565002  0.565003  1
  Dy  Dy4  1  0.555582  0.151710  0.151714  1
  Dy  Dy5  1  0.148918  0.157905  0.544034  1
  Dy  Dy6  1  0.936434  0.935789  0.565086  1
  Dy  Dy7  1  0.311990  0.682627  0.312744  1
  Dy  Dy8  1  0.562364  0.937630  0.937627  1
  Dy  Dy9  1  0.562669  0.935821  0.565078  1
  Dy  Dy10  1  0.692748  0.682475  0.312758  1
  Dy  Dy11  1  0.562668  0.565077  0.935822  1
  Dy  Dy12  1  0.936435  0.565087  0.935790  1
  Dy  Dy13  1  0.310930  0.689070  0.689067  1
  Dy  Dy14  1  0.140904  0.151841  0.151845  1
  Dy  Dy15  1  0.311989  0.312747  0.682624  1
  Co  Co16  1  0.925514  0.357754  0.357752  1
  Co  Co17  1  0.358990  0.357772  0.357771  1
  Ag  Ag18  1  0.918872  0.244547  0.917707  1
  Ag  Ag19  1  0.919568  0.917363  0.917361  1
  Ag  Ag20  1  0.918872  0.917709  0.244546  1
  Ag  Ag21  1  0.245695  0.917369  0.917367  1
  Rh  Rh22  1  0.358220  0.355564  0.927982  1
  Rh  Rh23  1  0.358216  0.927974  0.355581  1
