# generated using pymatgen
data_Ho3Mg3CuAgIr
_symmetry_space_group_name_H-M   'P 1'
_cell_length_a   7.71555200
_cell_length_b   7.71555147
_cell_length_c   3.81494800
_cell_angle_alpha   90.00000000
_cell_angle_beta   90.00000000
_cell_angle_gamma   119.99999370
_symmetry_Int_Tables_number   1
_chemical_formula_structural   Ho3Mg3CuAgIr
_chemical_formula_sum   'Ho3 Mg3 Cu1 Ag1 Ir1'
_cell_volume   196.67685598
_cell_formula_units_Z   1
loop_
 _symmetry_equiv_pos_site_id
 _symmetry_equiv_pos_as_xyz
  1  'x, y, z'
loop_
 _atom_site_type_symbol
 _atom_site_label
 _atom_site_symmetry_multiplicity
 _atom_site_fract_x
 _atom_site_fract_y
 _atom_site_fract_z
 _atom_site_occupancy
  Ho  Ho0  1  0.574488  0.969384  0.000000  1
  Ho  Ho1  1  0.030616  0.605103  0.000000  1
  Ho  Ho2  1  0.394897  0.425512  0.000000  1
  Mg  Mg3  1  0.248340  0.002499  0.500000  1
  Mg  Mg4  1  0.997501  0.245842  0.500000  1
  Mg  Mg5  1  0.754158  0.751660  0.500000  1
  Cu  Cu6  1  0.000000  0.000000  0.000000  1
  Ag  Ag7  1  0.666667  0.333333  0.500000  1
  Ir  Ir8  1  0.333333  0.666667  0.500000  1
