# generated using pymatgen
data_CaHf7Zr(In2Co)7
_symmetry_space_group_name_H-M   'P 1'
_cell_length_a   9.45228998
_cell_length_b   9.45229047
_cell_length_c   9.45004604
_cell_angle_alpha   59.99953811
_cell_angle_beta   59.99953596
_cell_angle_gamma   59.99151446
_symmetry_Int_Tables_number   1
_chemical_formula_structural   CaHf7Zr(In2Co)7
_chemical_formula_sum   'Ca1 Hf7 Zr1 In14 Co7'
_cell_volume   596.98322026
_cell_formula_units_Z   1
loop_
 _symmetry_equiv_pos_site_id
 _symmetry_equiv_pos_as_xyz
  1  'x, y, z'
loop_
 _atom_site_type_symbol
 _atom_site_label
 _atom_site_symmetry_multiplicity
 _atom_site_fract_x
 _atom_site_fract_y
 _atom_site_fract_z
 _atom_site_occupancy
  Ca  Ca0  1  0.500038  0.500038  0.499926  1
  Hf  Hf1  1  0.119039  0.642592  0.119412  1
  Hf  Hf2  1  0.357357  0.880466  0.881607  1
  Hf  Hf3  1  0.880568  0.880568  0.881486  1
  Hf  Hf4  1  0.642592  0.119039  0.119412  1
  Hf  Hf5  1  0.880743  0.880743  0.357836  1
  Hf  Hf6  1  0.118938  0.118938  0.119503  1
  Hf  Hf7  1  0.880466  0.357357  0.881607  1
  Zr  Zr8  1  0.121264  0.121264  0.636153  1
  In  In9  1  0.500406  0.845040  0.154256  1
  In  In10  1  0.500592  0.844815  0.500330  1
  In  In11  1  0.500531  0.154270  0.500368  1
  In  In12  1  0.499688  0.499688  0.845798  1
  In  In13  1  0.154270  0.500531  0.500368  1
  In  In14  1  0.844822  0.154277  0.500347  1
  In  In15  1  0.154277  0.844822  0.500347  1
  In  In16  1  0.499722  0.154776  0.845787  1
  In  In17  1  0.154776  0.499722  0.845787  1
  In  In18  1  0.500412  0.500412  0.154203  1
  In  In19  1  0.844815  0.500592  0.500330  1
  In  In20  1  0.845040  0.500406  0.154256  1
  In  In21  1  0.251358  0.251358  0.245972  1
  In  In22  1  0.750010  0.750010  0.749929  1
  Co  Co23  1  0.782404  0.782404  0.217570  1
  Co  Co24  1  0.999420  0.999420  0.001663  1
  Co  Co25  1  0.217774  0.782242  0.217730  1
  Co  Co26  1  0.217540  0.781593  0.783349  1
  Co  Co27  1  0.217302  0.217302  0.783592  1
  Co  Co28  1  0.781593  0.217540  0.783349  1
  Co  Co29  1  0.782242  0.217774  0.217730  1
