# generated using pymatgen
data_TbHo3Cu4(PbS3)4
_symmetry_space_group_name_H-M   'P 1'
_cell_length_a   3.91994800
_cell_length_b   10.24322064
_cell_length_c   13.08314594
_cell_angle_alpha   89.89086802
_cell_angle_beta   90.00000000
_cell_angle_gamma   90.00000000
_symmetry_Int_Tables_number   1
_chemical_formula_structural   TbHo3Cu4(PbS3)4
_chemical_formula_sum   'Tb1 Ho3 Cu4 Pb4 S12'
_cell_volume   525.32519644
_cell_formula_units_Z   1
loop_
 _symmetry_equiv_pos_site_id
 _symmetry_equiv_pos_as_xyz
  1  'x, y, z'
loop_
 _atom_site_type_symbol
 _atom_site_label
 _atom_site_symmetry_multiplicity
 _atom_site_fract_x
 _atom_site_fract_y
 _atom_site_fract_z
 _atom_site_occupancy
  Tb  Tb0  1  0.750000  0.006556  0.251112  1
  Ho  Ho1  1  0.250000  0.993400  0.748894  1
  Ho  Ho2  1  0.750000  0.506592  0.248898  1
  Ho  Ho3  1  0.250000  0.493422  0.751098  1
  Cu  Cu4  1  0.750000  0.744261  0.718970  1
  Cu  Cu5  1  0.250000  0.255993  0.281090  1
  Cu  Cu6  1  0.750000  0.244350  0.781028  1
  Cu  Cu7  1  0.250000  0.755387  0.218935  1
  Pb  Pb8  1  0.750000  0.757361  0.003425  1
  Pb  Pb9  1  0.250000  0.242907  0.995952  1
  Pb  Pb10  1  0.750000  0.257400  0.496609  1
  Pb  Pb11  1  0.250000  0.742343  0.504008  1
  S  S12  1  0.750000  0.257856  0.174534  1
  S  S13  1  0.250000  0.744002  0.824731  1
  S  S14  1  0.750000  0.754039  0.325444  1
  S  S15  1  0.250000  0.244104  0.675275  1
  S  S16  1  0.750000  0.060748  0.885585  1
  S  S17  1  0.250000  0.937416  0.112329  1
  S  S18  1  0.750000  0.560821  0.614413  1
  S  S19  1  0.250000  0.439172  0.385555  1
  S  S20  1  0.750000  0.425605  0.886617  1
  S  S21  1  0.250000  0.574436  0.113457  1
  S  S22  1  0.750000  0.925675  0.613394  1
  S  S23  1  0.250000  0.076153  0.388647  1
