# generated using pymatgen
data_Y2Ti2SiO9
_symmetry_space_group_name_H-M   'P 1'
_cell_length_a   11.26429300
_cell_length_b   4.91412979
_cell_length_c   12.41814228
_cell_angle_alpha   84.30677098
_cell_angle_beta   90.00000000
_cell_angle_gamma   90.00000000
_symmetry_Int_Tables_number   1
_chemical_formula_structural   Y2Ti2SiO9
_chemical_formula_sum   'Y8 Ti8 Si4 O36'
_cell_volume   684.00558483
_cell_formula_units_Z   4
loop_
 _symmetry_equiv_pos_site_id
 _symmetry_equiv_pos_as_xyz
  1  'x, y, z'
loop_
 _atom_site_type_symbol
 _atom_site_label
 _atom_site_symmetry_multiplicity
 _atom_site_fract_x
 _atom_site_fract_y
 _atom_site_fract_z
 _atom_site_occupancy
  Y  Y0  1  0.359164  0.696443  0.930940  1
  Y  Y1  1  0.859164  0.303557  0.069060  1
  Y  Y2  1  0.637752  0.736006  0.421958  1
  Y  Y3  1  0.137752  0.263994  0.578042  1
  Y  Y4  1  0.362248  0.763979  0.577919  1
  Y  Y5  1  0.862248  0.236021  0.422081  1
  Y  Y6  1  0.640950  0.804006  0.069111  1
  Y  Y7  1  0.140950  0.195994  0.930889  1
  Ti  Ti8  1  0.836803  0.949555  0.849835  1
  Ti  Ti9  1  0.336803  0.050445  0.150165  1
  Ti  Ti10  1  0.163211  0.550333  0.150018  1
  Ti  Ti11  1  0.663211  0.449667  0.849982  1
  Ti  Ti12  1  0.835951  0.583508  0.639438  1
  Ti  Ti13  1  0.335951  0.416492  0.360562  1
  Ti  Ti14  1  0.163967  0.916408  0.360566  1
  Ti  Ti15  1  0.663967  0.083592  0.639434  1
  Si  Si16  1  0.594433  0.320895  0.247596  1
  Si  Si17  1  0.094433  0.679105  0.752404  1
  Si  Si18  1  0.405542  0.179037  0.752353  1
  Si  Si19  1  0.905542  0.820963  0.247647  1
  O  O20  1  0.840989  0.754016  0.134364  1
  O  O21  1  0.340989  0.245984  0.865636  1
  O  O22  1  0.158896  0.746634  0.865658  1
  O  O23  1  0.658896  0.253366  0.134342  1
  O  O24  1  0.788267  0.916028  0.553338  1
  O  O25  1  0.288267  0.083972  0.446662  1
  O  O26  1  0.211681  0.584004  0.446674  1
  O  O27  1  0.711681  0.415996  0.553326  1
  O  O28  1  0.948290  0.078710  0.933417  1
  O  O29  1  0.448290  0.921290  0.066583  1
  O  O30  1  0.051815  0.421024  0.066380  1
  O  O31  1  0.551815  0.578976  0.933620  1
  O  O32  1  0.599123  0.655768  0.246357  1
  O  O33  1  0.099123  0.344232  0.753643  1
  O  O34  1  0.400982  0.844077  0.753471  1
  O  O35  1  0.900982  0.155923  0.246529  1
  O  O36  1  0.949935  0.770487  0.746007  1
  O  O37  1  0.449935  0.229513  0.253993  1
  O  O38  1  0.049989  0.729326  0.253921  1
  O  O39  1  0.549989  0.270674  0.746079  1
  O  O40  1  0.788563  0.618047  0.935036  1
  O  O41  1  0.288563  0.381953  0.064964  1
  O  O42  1  0.211542  0.881968  0.064932  1
  O  O43  1  0.711542  0.118032  0.935068  1
  O  O44  1  0.951949  0.445760  0.562715  1
  O  O45  1  0.451949  0.554240  0.437285  1
  O  O46  1  0.048052  0.054141  0.437393  1
  O  O47  1  0.548052  0.945859  0.562607  1
  O  O48  1  0.836192  0.685752  0.356395  1
  O  O49  1  0.336192  0.314248  0.643605  1
  O  O50  1  0.163775  0.814208  0.643623  1
  O  O51  1  0.663775  0.185792  0.356377  1
  O  O52  1  0.707749  0.767686  0.744458  1
  O  O53  1  0.207749  0.232314  0.255542  1
  O  O54  1  0.292188  0.732241  0.255575  1
  O  O55  1  0.792188  0.267759  0.744425  1
