# generated using pymatgen
data_Pr5TlBiPbBr
_symmetry_space_group_name_H-M   'P 1'
_cell_length_a   9.71768602
_cell_length_b   9.69880659
_cell_length_c   6.89739800
_cell_angle_alpha   90.00000000
_cell_angle_beta   90.00000000
_cell_angle_gamma   120.33296049
_symmetry_Int_Tables_number   1
_chemical_formula_structural   Pr5TlBiPbBr
_chemical_formula_sum   'Pr10 Tl2 Bi2 Pb2 Br2'
_cell_volume   561.08694722
_cell_formula_units_Z   2
loop_
 _symmetry_equiv_pos_site_id
 _symmetry_equiv_pos_as_xyz
  1  'x, y, z'
loop_
 _atom_site_type_symbol
 _atom_site_label
 _atom_site_symmetry_multiplicity
 _atom_site_fract_x
 _atom_site_fract_y
 _atom_site_fract_z
 _atom_site_occupancy
  Pr  Pr0  1  0.267821  0.996611  0.750000  1
  Pr  Pr1  1  0.732179  0.003389  0.250000  1
  Pr  Pr2  1  0.997144  0.265501  0.750000  1
  Pr  Pr3  1  0.002856  0.734499  0.250000  1
  Pr  Pr4  1  0.735799  0.735620  0.750000  1
  Pr  Pr5  1  0.264201  0.264380  0.250000  1
  Pr  Pr6  1  0.332991  0.671619  0.499322  1
  Pr  Pr7  1  0.667009  0.328381  0.500678  1
  Pr  Pr8  1  0.667009  0.328381  0.999322  1
  Pr  Pr9  1  0.332991  0.671619  0.000678  1
  Tl  Tl10  1  0.610370  0.998781  0.750000  1
  Tl  Tl11  1  0.389630  0.001219  0.250000  1
  Bi  Bi12  1  0.384433  0.384576  0.750000  1
  Bi  Bi13  1  0.615567  0.615424  0.250000  1
  Pb  Pb14  1  0.999079  0.613635  0.750000  1
  Pb  Pb15  1  0.000921  0.386365  0.250000  1
  Br  Br16  1  0.000000  0.000000  0.500000  1
  Br  Br17  1  0.000000  0.000000  0.000000  1
