# generated using pymatgen
data_Er6Th2MgCo2Cu
_symmetry_space_group_name_H-M   'P 1'
_cell_length_a   9.42425616
_cell_length_b   9.42425696
_cell_length_c   9.43807100
_cell_angle_alpha   59.95150350
_cell_angle_beta   59.95150069
_cell_angle_gamma   59.90843704
_symmetry_Int_Tables_number   1
_chemical_formula_structural   Er6Th2MgCo2Cu
_chemical_formula_sum   'Er12 Th4 Mg2 Co4 Cu2'
_cell_volume   591.89232628
_cell_formula_units_Z   2
loop_
 _symmetry_equiv_pos_site_id
 _symmetry_equiv_pos_as_xyz
  1  'x, y, z'
loop_
 _atom_site_type_symbol
 _atom_site_label
 _atom_site_symmetry_multiplicity
 _atom_site_fract_x
 _atom_site_fract_y
 _atom_site_fract_z
 _atom_site_occupancy
  Er  Er0  1  0.062341  0.437062  0.437975  1
  Er  Er1  1  0.437062  0.062341  0.062622  1
  Er  Er2  1  0.437062  0.062341  0.437975  1
  Er  Er3  1  0.062341  0.437062  0.062622  1
  Er  Er4  1  0.436605  0.436605  0.063395  1
  Er  Er5  1  0.057903  0.057903  0.442097  1
  Er  Er6  1  0.176753  0.814290  0.817432  1
  Er  Er7  1  0.814290  0.176753  0.191525  1
  Er  Er8  1  0.814290  0.176753  0.817432  1
  Er  Er9  1  0.176753  0.814290  0.191525  1
  Er  Er10  1  0.814319  0.814319  0.185681  1
  Er  Er11  1  0.183373  0.183373  0.816627  1
  Th  Th12  1  0.596699  0.596699  0.596050  1
  Th  Th13  1  0.596699  0.596699  0.210554  1
  Th  Th14  1  0.599189  0.206383  0.597214  1
  Th  Th15  1  0.206383  0.599189  0.597214  1
  Mg  Mg16  1  0.832365  0.525317  0.821159  1
  Mg  Mg17  1  0.525317  0.832365  0.821159  1
  Co  Co18  1  0.393850  0.393850  0.394325  1
  Co  Co19  1  0.393850  0.393850  0.817976  1
  Co  Co20  1  0.393319  0.816914  0.394883  1
  Co  Co21  1  0.816914  0.393319  0.394883  1
  Cu  Cu22  1  0.836162  0.836162  0.837033  1
  Cu  Cu23  1  0.836162  0.836162  0.490644  1
