# generated using pymatgen
data_Ta8In2Pb4O25
_symmetry_space_group_name_H-M   'P 1'
_cell_length_a   7.54580715
_cell_length_b   7.54580685
_cell_length_c   10.62816473
_cell_angle_alpha   89.99441543
_cell_angle_beta   89.99441928
_cell_angle_gamma   89.97101273
_symmetry_Int_Tables_number   1
_chemical_formula_structural   Ta8In2Pb4O25
_chemical_formula_sum   'Ta8 In2 Pb4 O25'
_cell_volume   605.15914858
_cell_formula_units_Z   1
loop_
 _symmetry_equiv_pos_site_id
 _symmetry_equiv_pos_as_xyz
  1  'x, y, z'
loop_
 _atom_site_type_symbol
 _atom_site_label
 _atom_site_symmetry_multiplicity
 _atom_site_fract_x
 _atom_site_fract_y
 _atom_site_fract_z
 _atom_site_occupancy
  Ta  Ta0  1  0.748023  0.000983  0.126470  1
  Ta  Ta1  1  0.498435  0.249666  0.377995  1
  Ta  Ta2  1  0.248178  0.001095  0.126050  1
  Ta  Ta3  1  0.245328  0.503777  0.622250  1
  Ta  Ta4  1  0.999017  0.251977  0.873530  1
  Ta  Ta5  1  0.998905  0.751822  0.873950  1
  Ta  Ta6  1  0.750334  0.501565  0.622005  1
  Ta  Ta7  1  0.496223  0.754672  0.377750  1
  In  In8  1  0.020163  0.206943  0.397110  1
  In  In9  1  0.793057  0.979837  0.602890  1
  Pb  Pb10  1  0.746928  0.509270  0.132382  1
  Pb  Pb11  1  0.490730  0.253072  0.867618  1
  Pb  Pb12  1  0.489680  0.751152  0.866494  1
  Pb  Pb13  1  0.248848  0.510320  0.133506  1
  O  O14  1  0.310920  0.315642  0.498464  1
  O  O15  1  0.999048  0.003334  0.178948  1
  O  O16  1  0.996666  0.000952  0.821052  1
  O  O17  1  0.810536  0.315752  0.751863  1
  O  O18  1  0.805680  0.194320  0.000000  1
  O  O19  1  0.805223  0.805427  0.000206  1
  O  O20  1  0.679976  0.320024  0.500000  1
  O  O21  1  0.500099  0.501110  0.698249  1
  O  O22  1  0.497942  0.003107  0.056594  1
  O  O23  1  0.498890  0.499901  0.301751  1
  O  O24  1  0.495359  0.504641  0.000000  1
  O  O25  1  0.306660  0.187875  0.251632  1
  O  O26  1  0.314400  0.811094  0.246155  1
  O  O27  1  0.319326  0.680674  0.500000  1
  O  O28  1  0.194573  0.194777  0.999794  1
  O  O29  1  0.190466  0.317611  0.755548  1
  O  O30  1  0.194558  0.805442  0.000000  1
  O  O31  1  0.999019  0.494012  0.566836  1
  O  O32  1  0.996893  0.502058  0.943406  1
  O  O33  1  0.812125  0.693340  0.748368  1
  O  O34  1  0.684248  0.189464  0.248137  1
  O  O35  1  0.682389  0.809534  0.244452  1
  O  O36  1  0.684358  0.689080  0.501536  1
  O  O37  1  0.505988  0.000981  0.433164  1
  O  O38  1  0.188906  0.685600  0.753845  1
