# generated using pymatgen
data_Tm8Be3Si13Mo12
_symmetry_space_group_name_H-M   'P 1'
_cell_length_a   6.67482701
_cell_length_b   6.82995820
_cell_length_c   12.83642400
_cell_angle_alpha   90.00000000
_cell_angle_beta   90.00000000
_cell_angle_gamma   90.10118690
_symmetry_Int_Tables_number   1
_chemical_formula_structural   Tm8Be3Si13Mo12
_chemical_formula_sum   'Tm8 Be3 Si13 Mo12'
_cell_volume   585.19611858
_cell_formula_units_Z   1
loop_
 _symmetry_equiv_pos_site_id
 _symmetry_equiv_pos_as_xyz
  1  'x, y, z'
loop_
 _atom_site_type_symbol
 _atom_site_label
 _atom_site_symmetry_multiplicity
 _atom_site_fract_x
 _atom_site_fract_y
 _atom_site_fract_z
 _atom_site_occupancy
  Tm  Tm0  1  0.498470  0.333847  0.093256  1
  Tm  Tm1  1  0.000240  0.170213  0.405514  1
  Tm  Tm2  1  0.498822  0.668032  0.596736  1
  Tm  Tm3  1  0.999480  0.832565  0.903331  1
  Tm  Tm4  1  0.498822  0.668032  0.903264  1
  Tm  Tm5  1  0.999480  0.832565  0.596669  1
  Tm  Tm6  1  0.498470  0.333847  0.406744  1
  Tm  Tm7  1  0.000240  0.170213  0.094486  1
  Be  Be8  1  0.540500  0.368627  0.750000  1
  Be  Be9  1  0.041489  0.131736  0.750000  1
  Be  Be10  1  0.458426  0.634358  0.250000  1
  Si  Si11  1  0.661987  0.043024  0.544086  1
  Si  Si12  1  0.161478  0.455712  0.954605  1
  Si  Si13  1  0.338157  0.957079  0.043693  1
  Si  Si14  1  0.837393  0.541333  0.457251  1
  Si  Si15  1  0.338157  0.957079  0.456307  1
  Si  Si16  1  0.837393  0.541333  0.042749  1
  Si  Si17  1  0.661987  0.043024  0.955914  1
  Si  Si18  1  0.161478  0.455712  0.545395  1
  Si  Si19  1  0.964235  0.868474  0.250000  1
  Si  Si20  1  0.794503  0.620989  0.750000  1
  Si  Si21  1  0.294612  0.878539  0.750000  1
  Si  Si22  1  0.205214  0.377339  0.250000  1
  Si  Si23  1  0.697351  0.131981  0.250000  1
  Mo  Mo24  1  0.836281  0.329360  0.628235  1
  Mo  Mo25  1  0.337011  0.169311  0.871997  1
  Mo  Mo26  1  0.168033  0.665054  0.125003  1
  Mo  Mo27  1  0.665493  0.829923  0.373230  1
  Mo  Mo28  1  0.168033  0.665054  0.374997  1
  Mo  Mo29  1  0.665493  0.829923  0.126770  1
  Mo  Mo30  1  0.836281  0.329360  0.871765  1
  Mo  Mo31  1  0.337011  0.169311  0.628003  1
  Mo  Mo32  1  0.665173  0.011704  0.750000  1
  Mo  Mo33  1  0.163905  0.488240  0.750000  1
  Mo  Mo34  1  0.335509  0.994204  0.250000  1
  Mo  Mo35  1  0.833391  0.502900  0.250000  1
