# generated using pymatgen
data_Pr18Y2Si15Ag
_symmetry_space_group_name_H-M   'P 1'
_cell_length_a   7.90601969
_cell_length_b   7.90137755
_cell_length_c   15.32740500
_cell_angle_alpha   89.93547008
_cell_angle_beta   89.65335421
_cell_angle_gamma   89.97850125
_symmetry_Int_Tables_number   1
_chemical_formula_structural   Pr18Y2Si15Ag
_chemical_formula_sum   'Pr18 Y2 Si15 Ag1'
_cell_volume   957.46098346
_cell_formula_units_Z   1
loop_
 _symmetry_equiv_pos_site_id
 _symmetry_equiv_pos_as_xyz
  1  'x, y, z'
loop_
 _atom_site_type_symbol
 _atom_site_label
 _atom_site_symmetry_multiplicity
 _atom_site_fract_x
 _atom_site_fract_y
 _atom_site_fract_z
 _atom_site_occupancy
  Pr  Pr0  1  0.799063  0.187121  0.752341  1
  Pr  Pr1  1  0.694203  0.690069  0.497244  1
  Pr  Pr2  1  0.374343  0.011421  0.446133  1
  Pr  Pr3  1  0.491495  0.869020  0.698068  1
  Pr  Pr4  1  0.511183  0.123049  0.196000  1
  Pr  Pr5  1  0.878281  0.486725  0.301187  1
  Pr  Pr6  1  0.119708  0.519616  0.804357  1
  Pr  Pr7  1  0.626712  0.986255  0.951083  1
  Pr  Pr8  1  0.001089  0.384064  0.547975  1
  Pr  Pr9  1  0.988555  0.625568  0.053851  1
  Pr  Pr10  1  0.130984  0.980231  0.881025  1
  Pr  Pr11  1  0.520888  0.629332  0.127038  1
  Pr  Pr12  1  0.480330  0.376074  0.627199  1
  Pr  Pr13  1  0.629508  0.522192  0.875703  1
  Pr  Pr14  1  0.373330  0.479547  0.370583  1
  Pr  Pr15  1  0.871624  0.021933  0.375526  1
  Pr  Pr16  1  0.980641  0.126805  0.123903  1
  Pr  Pr17  1  0.015759  0.866225  0.620266  1
  Y  Y18  1  0.309838  0.310096  0.000280  1
  Y  Y19  1  0.189935  0.809458  0.249727  1
  Si  Si20  1  0.330201  0.689956  0.955924  1
  Si  Si21  1  0.662926  0.304271  0.452795  1
  Si  Si22  1  0.694019  0.331216  0.046774  1
  Si  Si23  1  0.307326  0.670583  0.543232  1
  Si  Si24  1  0.810301  0.829024  0.205467  1
  Si  Si25  1  0.171075  0.190589  0.294691  1
  Si  Si26  1  0.835539  0.805972  0.796556  1
  Si  Si27  1  0.286764  0.921570  0.063897  1
  Si  Si28  1  0.575356  0.787348  0.309046  1
  Si  Si29  1  0.426763  0.213752  0.820233  1
  Si  Si30  1  0.786983  0.578422  0.690480  1
  Si  Si31  1  0.213797  0.422714  0.187488  1
  Si  Si32  1  0.708073  0.078403  0.559340  1
  Si  Si33  1  0.926995  0.289468  0.941735  1
  Si  Si34  1  0.081997  0.715070  0.434971  1
  Ag  Ag35  1  0.194416  0.166840  0.697879  1
