# generated using pymatgen
data_Dy3Tm(Sc3Ga4)2
_symmetry_space_group_name_H-M   'P 1'
_cell_length_a   7.26326009
_cell_length_b   7.56162646
_cell_length_c   14.46193680
_cell_angle_alpha   89.96306735
_cell_angle_beta   90.00936318
_cell_angle_gamma   90.01519009
_symmetry_Int_Tables_number   1
_chemical_formula_structural   Dy3Tm(Sc3Ga4)2
_chemical_formula_sum   'Dy6 Tm2 Sc12 Ga16'
_cell_volume   794.27915220
_cell_formula_units_Z   2
loop_
 _symmetry_equiv_pos_site_id
 _symmetry_equiv_pos_as_xyz
  1  'x, y, z'
loop_
 _atom_site_type_symbol
 _atom_site_label
 _atom_site_symmetry_multiplicity
 _atom_site_fract_x
 _atom_site_fract_y
 _atom_site_fract_z
 _atom_site_occupancy
  Dy  Dy0  1  0.010615  0.179279  0.094732  1
  Dy  Dy1  1  0.989385  0.820721  0.905268  1
  Dy  Dy2  1  0.489318  0.679284  0.905350  1
  Dy  Dy3  1  0.989378  0.820665  0.594738  1
  Dy  Dy4  1  0.510682  0.320716  0.094650  1
  Dy  Dy5  1  0.010622  0.179335  0.405262  1
  Tm  Tm6  1  0.510657  0.320512  0.405280  1
  Tm  Tm7  1  0.489343  0.679488  0.594720  1
  Sc  Sc8  1  0.162801  0.503563  0.749871  1
  Sc  Sc9  1  0.837199  0.496437  0.250129  1
  Sc  Sc10  1  0.337604  0.003492  0.250078  1
  Sc  Sc11  1  0.662396  0.996508  0.749922  1
  Sc  Sc12  1  0.330345  0.173851  0.624438  1
  Sc  Sc13  1  0.669655  0.826149  0.375562  1
  Sc  Sc14  1  0.170123  0.673661  0.375461  1
  Sc  Sc15  1  0.669832  0.826254  0.124617  1
  Sc  Sc16  1  0.829877  0.326339  0.624539  1
  Sc  Sc17  1  0.330168  0.173746  0.875383  1
  Sc  Sc18  1  0.830182  0.326219  0.875426  1
  Sc  Sc19  1  0.169818  0.673781  0.124574  1
  Ga  Ga20  1  0.031266  0.116266  0.749983  1
  Ga  Ga21  1  0.968734  0.883734  0.250017  1
  Ga  Ga22  1  0.468832  0.616078  0.250107  1
  Ga  Ga23  1  0.531168  0.383922  0.749893  1
  Ga  Ga24  1  0.284053  0.870475  0.749861  1
  Ga  Ga25  1  0.715947  0.129525  0.250139  1
  Ga  Ga26  1  0.216416  0.370638  0.250202  1
  Ga  Ga27  1  0.783584  0.629362  0.749798  1
  Ga  Ga28  1  0.162561  0.465703  0.540350  1
  Ga  Ga29  1  0.837439  0.534297  0.459650  1
  Ga  Ga30  1  0.338390  0.965636  0.459776  1
  Ga  Ga31  1  0.838091  0.534500  0.040252  1
  Ga  Ga32  1  0.661610  0.034364  0.540224  1
  Ga  Ga33  1  0.161909  0.465500  0.959748  1
  Ga  Ga34  1  0.661867  0.034575  0.959736  1
  Ga  Ga35  1  0.338133  0.965425  0.040264  1
