# generated using pymatgen
data_Er2CoSiBr2
_symmetry_space_group_name_H-M   'P 1'
_cell_length_a   3.96890300
_cell_length_b   3.96890254
_cell_length_c   11.21538000
_cell_angle_alpha   90.00000000
_cell_angle_beta   90.00000000
_cell_angle_gamma   120.00001219
_symmetry_Int_Tables_number   1
_chemical_formula_structural   Er2CoSiBr2
_chemical_formula_sum   'Er2 Co1 Si1 Br2'
_cell_volume   152.99790723
_cell_formula_units_Z   1
loop_
 _symmetry_equiv_pos_site_id
 _symmetry_equiv_pos_as_xyz
  1  'x, y, z'
loop_
 _atom_site_type_symbol
 _atom_site_label
 _atom_site_symmetry_multiplicity
 _atom_site_fract_x
 _atom_site_fract_y
 _atom_site_fract_z
 _atom_site_occupancy
  Er  Er0  1  0.000000  0.000000  0.835454  1
  Er  Er1  1  0.000000  0.000000  0.164199  1
  Co  Co2  1  0.333333  0.666667  0.997486  1
  Si  Si3  1  0.666667  0.333333  0.002903  1
  Br  Br4  1  0.333333  0.666667  0.331940  1
  Br  Br5  1  0.666667  0.333333  0.668020  1
