# generated using pymatgen
data_DyErTm3Sn4
_symmetry_space_group_name_H-M   'P 1'
_cell_length_a   7.97353900
_cell_length_b   8.10352300
_cell_length_c   15.31647000
_cell_angle_alpha   90.00000000
_cell_angle_beta   90.00000000
_cell_angle_gamma   90.00000000
_symmetry_Int_Tables_number   1
_chemical_formula_structural   DyErTm3Sn4
_chemical_formula_sum   'Dy4 Er4 Tm12 Sn16'
_cell_volume   989.65466574
_cell_formula_units_Z   4
loop_
 _symmetry_equiv_pos_site_id
 _symmetry_equiv_pos_as_xyz
  1  'x, y, z'
loop_
 _atom_site_type_symbol
 _atom_site_label
 _atom_site_symmetry_multiplicity
 _atom_site_fract_x
 _atom_site_fract_y
 _atom_site_fract_z
 _atom_site_occupancy
  Dy  Dy0  1  0.478481  0.679455  0.097141  1
  Dy  Dy1  1  0.978481  0.820545  0.402859  1
  Dy  Dy2  1  0.521519  0.320545  0.597141  1
  Dy  Dy3  1  0.021519  0.179455  0.902859  1
  Er  Er4  1  0.521578  0.320525  0.902696  1
  Er  Er5  1  0.021578  0.179475  0.597304  1
  Er  Er6  1  0.478422  0.679475  0.402696  1
  Er  Er7  1  0.978422  0.820525  0.097304  1
  Tm  Tm8  1  0.367571  0.836497  0.877406  1
  Tm  Tm9  1  0.867571  0.663503  0.622594  1
  Tm  Tm10  1  0.632429  0.163503  0.377406  1
  Tm  Tm11  1  0.132429  0.336497  0.122594  1
  Tm  Tm12  1  0.632428  0.163496  0.122556  1
  Tm  Tm13  1  0.132428  0.336504  0.377444  1
  Tm  Tm14  1  0.367572  0.836504  0.622556  1
  Tm  Tm15  1  0.867572  0.663496  0.877444  1
  Tm  Tm16  1  0.198242  0.503876  0.750039  1
  Tm  Tm17  1  0.698242  0.996124  0.749961  1
  Tm  Tm18  1  0.801758  0.496124  0.250039  1
  Tm  Tm19  1  0.301758  0.003876  0.249961  1
  Sn  Sn20  1  0.293409  0.036472  0.041755  1
  Sn  Sn21  1  0.793409  0.463528  0.458245  1
  Sn  Sn22  1  0.706591  0.963528  0.541755  1
  Sn  Sn23  1  0.206591  0.536472  0.958245  1
  Sn  Sn24  1  0.706407  0.963383  0.958384  1
  Sn  Sn25  1  0.206407  0.536617  0.541616  1
  Sn  Sn26  1  0.293593  0.036617  0.458384  1
  Sn  Sn27  1  0.793593  0.463383  0.041616  1
  Sn  Sn28  1  0.564506  0.620183  0.750002  1
  Sn  Sn29  1  0.064506  0.879817  0.749998  1
  Sn  Sn30  1  0.435494  0.379817  0.250002  1
  Sn  Sn31  1  0.935494  0.120183  0.249998  1
  Sn  Sn32  1  0.330525  0.147843  0.750097  1
  Sn  Sn33  1  0.830525  0.352157  0.749903  1
  Sn  Sn34  1  0.669475  0.852157  0.250097  1
  Sn  Sn35  1  0.169475  0.647843  0.249903  1
