# generated using pymatgen
data_RbTi6AsSe7
_symmetry_space_group_name_H-M   'P 1'
_cell_length_a   3.61747000
_cell_length_b   9.98639563
_cell_length_c   9.99440806
_cell_angle_alpha   120.09339364
_cell_angle_beta   89.99307127
_cell_angle_gamma   90.00643432
_symmetry_Int_Tables_number   1
_chemical_formula_structural   RbTi6AsSe7
_chemical_formula_sum   'Rb1 Ti6 As1 Se7'
_cell_volume   312.38626354
_cell_formula_units_Z   1
loop_
 _symmetry_equiv_pos_site_id
 _symmetry_equiv_pos_as_xyz
  1  'x, y, z'
loop_
 _atom_site_type_symbol
 _atom_site_label
 _atom_site_symmetry_multiplicity
 _atom_site_fract_x
 _atom_site_fract_y
 _atom_site_fract_z
 _atom_site_occupancy
  Rb  Rb0  1  0.500001  0.999991  0.999978  1
  Ti  Ti1  1  0.749020  0.358491  0.866404  1
  Ti  Ti2  1  0.748997  0.133605  0.492308  1
  Ti  Ti3  1  0.749021  0.507944  0.641744  1
  Ti  Ti4  1  0.250539  0.641662  0.134730  1
  Ti  Ti5  1  0.250558  0.865069  0.506585  1
  Ti  Ti6  1  0.250547  0.493193  0.358300  1
  As  As7  1  0.750156  0.666755  0.333336  1
  Se  Se8  1  0.249582  0.333396  0.666856  1
  Se  Se9  1  0.753193  0.049906  0.695596  1
  Se  Se10  1  0.753256  0.304191  0.354312  1
  Se  Se11  1  0.753287  0.645712  0.950023  1
  Se  Se12  1  0.247306  0.950229  0.304672  1
  Se  Se13  1  0.247290  0.695570  0.645538  1
  Se  Se14  1  0.247247  0.354284  0.049618  1
