# generated using pymatgen
data_CsNpPdSe3
_symmetry_space_group_name_H-M   'P 1'
_cell_length_a   8.43672337
_cell_length_b   8.43672350
_cell_length_c   10.58133800
_cell_angle_alpha   90.00000000
_cell_angle_beta   90.00000000
_cell_angle_gamma   151.56166221
_symmetry_Int_Tables_number   1
_chemical_formula_structural   CsNpPdSe3
_chemical_formula_sum   'Cs2 Np2 Pd2 Se6'
_cell_volume   358.66515003
_cell_formula_units_Z   2
loop_
 _symmetry_equiv_pos_site_id
 _symmetry_equiv_pos_as_xyz
  1  'x, y, z'
loop_
 _atom_site_type_symbol
 _atom_site_label
 _atom_site_symmetry_multiplicity
 _atom_site_fract_x
 _atom_site_fract_y
 _atom_site_fract_z
 _atom_site_occupancy
  Cs  Cs0  1  0.749496  0.250504  0.250000  1
  Cs  Cs1  1  0.250504  0.749496  0.750000  1
  Np  Np2  1  0.000000  0.000000  0.000000  1
  Np  Np3  1  0.000000  0.000000  0.500000  1
  Pd  Pd4  1  0.474337  0.525663  0.250000  1
  Pd  Pd5  1  0.525663  0.474337  0.750000  1
  Se  Se6  1  0.386786  0.613214  0.050006  1
  Se  Se7  1  0.064258  0.935742  0.250000  1
  Se  Se8  1  0.386786  0.613214  0.449994  1
  Se  Se9  1  0.613214  0.386786  0.550007  1
  Se  Se10  1  0.935742  0.064258  0.750000  1
  Se  Se11  1  0.613214  0.386786  0.949993  1
