# generated using pymatgen
data_Ba2DyTm3(Si3O10)2
_symmetry_space_group_name_H-M   'P 1'
_cell_length_a   12.30997660
_cell_length_b   5.43232973
_cell_length_c   6.87450754
_cell_angle_alpha   73.47083106
_cell_angle_beta   89.89906418
_cell_angle_gamma   89.93100250
_symmetry_Int_Tables_number   1
_chemical_formula_structural   Ba2DyTm3(Si3O10)2
_chemical_formula_sum   'Ba2 Dy1 Tm3 Si6 O20'
_cell_volume   440.71269754
_cell_formula_units_Z   1
loop_
 _symmetry_equiv_pos_site_id
 _symmetry_equiv_pos_as_xyz
  1  'x, y, z'
loop_
 _atom_site_type_symbol
 _atom_site_label
 _atom_site_symmetry_multiplicity
 _atom_site_fract_x
 _atom_site_fract_y
 _atom_site_fract_z
 _atom_site_occupancy
  Ba  Ba0  1  0.750867  0.760662  0.983788  1
  Ba  Ba1  1  0.249495  0.239167  0.016036  1
  Dy  Dy2  1  0.599314  0.154258  0.318164  1
  Tm  Tm3  1  0.900975  0.155964  0.318091  1
  Tm  Tm4  1  0.099812  0.843991  0.681949  1
  Tm  Tm5  1  0.398956  0.843960  0.682749  1
  Si  Si6  1  0.059611  0.695992  0.213141  1
  Si  Si7  1  0.250002  0.420768  0.487669  1
  Si  Si8  1  0.751170  0.578693  0.512598  1
  Si  Si9  1  0.439430  0.695969  0.212899  1
  Si  Si10  1  0.559281  0.305305  0.785701  1
  Si  Si11  1  0.940956  0.303814  0.787383  1
  O  O12  1  0.449227  0.895076  0.355309  1
  O  O13  1  0.143719  0.456222  0.336155  1
  O  O14  1  0.856636  0.543875  0.665875  1
  O  O15  1  0.356598  0.453341  0.335848  1
  O  O16  1  0.379756  0.840774  0.999277  1
  O  O17  1  0.881525  0.159153  0.001520  1
  O  O18  1  0.055246  0.443189  0.805070  1
  O  O19  1  0.953065  0.103373  0.646360  1
  O  O20  1  0.545417  0.101390  0.648321  1
  O  O21  1  0.249769  0.632538  0.615160  1
  O  O22  1  0.118779  0.840579  0.998703  1
  O  O23  1  0.555490  0.563482  0.193134  1
  O  O24  1  0.249629  0.124036  0.633517  1
  O  O25  1  0.643166  0.544810  0.660896  1
  O  O26  1  0.752476  0.875123  0.366585  1
  O  O27  1  0.945338  0.556766  0.194609  1
  O  O28  1  0.751682  0.366785  0.385647  1
  O  O29  1  0.444932  0.444081  0.806176  1
  O  O30  1  0.620208  0.160360  0.997581  1
  O  O31  1  0.047472  0.896503  0.354088  1
