# generated using pymatgen
data_LiNdTlPt3
_symmetry_space_group_name_H-M   'P 1'
_cell_length_a   5.50028991
_cell_length_b   5.50029019
_cell_length_c   5.27156500
_cell_angle_alpha   58.55401773
_cell_angle_beta   58.55402815
_cell_angle_gamma   59.99998669
_symmetry_Int_Tables_number   1
_chemical_formula_structural   LiNdTlPt3
_chemical_formula_sum   'Li1 Nd1 Tl1 Pt3'
_cell_volume   110.24265581
_cell_formula_units_Z   1
loop_
 _symmetry_equiv_pos_site_id
 _symmetry_equiv_pos_as_xyz
  1  'x, y, z'
loop_
 _atom_site_type_symbol
 _atom_site_label
 _atom_site_symmetry_multiplicity
 _atom_site_fract_x
 _atom_site_fract_y
 _atom_site_fract_z
 _atom_site_occupancy
  Li  Li0  1  0.621484  0.621484  0.135549  1
  Nd  Nd1  1  0.004967  0.004967  0.985099  1
  Tl  Tl2  1  0.252996  0.252996  0.241012  1
  Pt  Pt3  1  0.623801  0.122953  0.629447  1
  Pt  Pt4  1  0.122953  0.623801  0.629447  1
  Pt  Pt5  1  0.623801  0.623801  0.629447  1
