# generated using pymatgen
data_DyPuAsCl2
_symmetry_space_group_name_H-M   'P 1'
_cell_length_a   4.04870900
_cell_length_b   4.04871025
_cell_length_c   9.65899400
_cell_angle_alpha   90.00000000
_cell_angle_beta   90.00000000
_cell_angle_gamma   119.99999797
_symmetry_Int_Tables_number   1
_chemical_formula_structural   DyPuAsCl2
_chemical_formula_sum   'Dy1 Pu1 As1 Cl2'
_cell_volume   137.11841897
_cell_formula_units_Z   1
loop_
 _symmetry_equiv_pos_site_id
 _symmetry_equiv_pos_as_xyz
  1  'x, y, z'
loop_
 _atom_site_type_symbol
 _atom_site_label
 _atom_site_symmetry_multiplicity
 _atom_site_fract_x
 _atom_site_fract_y
 _atom_site_fract_z
 _atom_site_occupancy
  Dy  Dy0  1  0.666666  0.333332  0.170895  1
  Pu  Pu1  1  0.333334  0.666667  0.828277  1
  As  As2  1  0.000000  0.000000  0.005857  1
  Cl  Cl3  1  0.333334  0.666667  0.333369  1
  Cl  Cl4  1  0.666666  0.333332  0.661600  1
