# generated using pymatgen
data_YTm19Zn3Cd3Ru2
_symmetry_space_group_name_H-M   'P 1'
_cell_length_a   9.39916810
_cell_length_b   9.39676817
_cell_length_c   9.56739400
_cell_angle_alpha   90.00000000
_cell_angle_beta   90.00000000
_cell_angle_gamma   119.99155057
_symmetry_Int_Tables_number   1
_chemical_formula_structural   YTm19Zn3Cd3Ru2
_chemical_formula_sum   'Y1 Tm19 Zn3 Cd3 Ru2'
_cell_volume   731.86198763
_cell_formula_units_Z   1
loop_
 _symmetry_equiv_pos_site_id
 _symmetry_equiv_pos_as_xyz
  1  'x, y, z'
loop_
 _atom_site_type_symbol
 _atom_site_label
 _atom_site_symmetry_multiplicity
 _atom_site_fract_x
 _atom_site_fract_y
 _atom_site_fract_z
 _atom_site_occupancy
  Y  Y0  1  0.082413  0.541207  0.750000  1
  Tm  Tm1  1  0.999939  0.999970  0.474819  1
  Tm  Tm2  1  0.999939  0.999970  0.025181  1
  Tm  Tm3  1  0.208340  0.792198  0.438595  1
  Tm  Tm4  1  0.208340  0.416141  0.438595  1
  Tm  Tm5  1  0.583702  0.791851  0.438915  1
  Tm  Tm6  1  0.790538  0.208610  0.556440  1
  Tm  Tm7  1  0.790538  0.581928  0.556440  1
  Tm  Tm8  1  0.418106  0.209053  0.556627  1
  Tm  Tm9  1  0.790538  0.208610  0.943560  1
  Tm  Tm10  1  0.790538  0.581928  0.943560  1
  Tm  Tm11  1  0.418106  0.209053  0.943373  1
  Tm  Tm12  1  0.208340  0.792198  0.061405  1
  Tm  Tm13  1  0.208340  0.416141  0.061405  1
  Tm  Tm14  1  0.583702  0.791851  0.061085  1
  Tm  Tm15  1  0.541505  0.458523  0.250000  1
  Tm  Tm16  1  0.541505  0.082982  0.250000  1
  Tm  Tm17  1  0.917072  0.458536  0.250000  1
  Tm  Tm18  1  0.459448  0.540980  0.750000  1
  Tm  Tm19  1  0.459448  0.918468  0.750000  1
  Zn  Zn20  1  0.878160  0.121760  0.250000  1
  Zn  Zn21  1  0.878160  0.756402  0.250000  1
  Zn  Zn22  1  0.243629  0.121815  0.250000  1
  Cd  Cd23  1  0.110658  0.889884  0.750000  1
  Cd  Cd24  1  0.110658  0.220773  0.750000  1
  Cd  Cd25  1  0.778744  0.889371  0.750000  1
  Ru  Ru26  1  0.333218  0.666609  0.250000  1
  Ru  Ru27  1  0.666376  0.333187  0.750000  1
