# generated using pymatgen
data_Tb4Mn4Al3CoO20
_symmetry_space_group_name_H-M   'P 1'
_cell_length_a   5.68872400
_cell_length_b   7.29501777
_cell_length_c   8.47949720
_cell_angle_alpha   89.71757228
_cell_angle_beta   90.00000000
_cell_angle_gamma   90.00000000
_symmetry_Int_Tables_number   1
_chemical_formula_structural   Tb4Mn4Al3CoO20
_chemical_formula_sum   'Tb4 Mn4 Al3 Co1 O20'
_cell_volume   351.88928514
_cell_formula_units_Z   1
loop_
 _symmetry_equiv_pos_site_id
 _symmetry_equiv_pos_as_xyz
  1  'x, y, z'
loop_
 _atom_site_type_symbol
 _atom_site_label
 _atom_site_symmetry_multiplicity
 _atom_site_fract_x
 _atom_site_fract_y
 _atom_site_fract_z
 _atom_site_occupancy
  Tb  Tb0  1  0.000000  0.370762  0.670272  1
  Tb  Tb1  1  0.000000  0.633104  0.329527  1
  Tb  Tb2  1  0.000000  0.863605  0.830733  1
  Tb  Tb3  1  0.000000  0.138111  0.169054  1
  Mn  Mn4  1  0.255635  0.500404  0.000791  1
  Mn  Mn5  1  0.746478  0.999760  0.498633  1
  Mn  Mn6  1  0.744365  0.500404  0.000791  1
  Mn  Mn7  1  0.253522  0.999760  0.498633  1
  Al  Al8  1  0.500000  0.892719  0.143333  1
  Al  Al9  1  0.500000  0.607144  0.641788  1
  Al  Al10  1  0.500000  0.393594  0.359021  1
  Co  Co11  1  0.500000  0.088705  0.850617  1
  O  O12  1  0.251573  0.896596  0.288945  1
  O  O13  1  0.242458  0.104423  0.707706  1
  O  O14  1  0.748558  0.396754  0.211944  1
  O  O15  1  0.747842  0.605059  0.789295  1
  O  O16  1  0.757542  0.104423  0.707706  1
  O  O17  1  0.748427  0.896596  0.288945  1
  O  O18  1  0.252158  0.605059  0.789295  1
  O  O19  1  0.251442  0.396754  0.211944  1
  O  O20  1  0.500000  0.343434  0.934092  1
  O  O21  1  0.500000  0.659639  0.070670  1
  O  O22  1  0.500000  0.843327  0.572133  1
  O  O23  1  0.500000  0.158404  0.429956  1
  O  O24  1  0.278875  0.998664  0.002181  1
  O  O25  1  0.718768  0.500700  0.500353  1
  O  O26  1  0.721125  0.998664  0.002181  1
  O  O27  1  0.281232  0.500700  0.500353  1
  O  O28  1  0.000000  0.162881  0.443725  1
  O  O29  1  0.000000  0.836593  0.554510  1
  O  O30  1  0.000000  0.664684  0.056079  1
  O  O31  1  0.000000  0.338574  0.944795  1
