# generated using pymatgen
data_Y4TmLu(Sb4Au3)2
_symmetry_space_group_name_H-M   'P 1'
_cell_length_a   8.59648993
_cell_length_b   8.59603251
_cell_length_c   8.59572639
_cell_angle_alpha   109.58398855
_cell_angle_beta   109.39032654
_cell_angle_gamma   109.44080208
_symmetry_Int_Tables_number   1
_chemical_formula_structural   Y4TmLu(Sb4Au3)2
_chemical_formula_sum   'Y4 Tm1 Lu1 Sb8 Au6'
_cell_volume   488.95748442
_cell_formula_units_Z   1
loop_
 _symmetry_equiv_pos_site_id
 _symmetry_equiv_pos_as_xyz
  1  'x, y, z'
loop_
 _atom_site_type_symbol
 _atom_site_label
 _atom_site_symmetry_multiplicity
 _atom_site_fract_x
 _atom_site_fract_y
 _atom_site_fract_z
 _atom_site_occupancy
  Y  Y0  1  0.624661  0.750010  0.374861  1
  Y  Y1  1  0.250118  0.125080  0.874913  1
  Y  Y2  1  0.750194  0.375087  0.625246  1
  Y  Y3  1  0.124735  0.874893  0.249976  1
  Tm  Tm4  1  0.375082  0.625153  0.749869  1
  Lu  Lu5  1  0.875117  0.249753  0.125132  1
  Sb  Sb6  1  0.679173  0.501443  0.001122  1
  Sb  Sb7  1  0.499129  0.999954  0.678298  1
  Sb  Sb8  1  0.999342  0.677397  0.499324  1
  Sb  Sb9  1  0.822790  0.821423  0.821372  1
  Sb  Sb10  1  0.499364  0.999679  0.177530  1
  Sb  Sb11  1  0.178984  0.500892  0.001710  1
  Sb  Sb12  1  0.998744  0.177929  0.499173  1
  Sb  Sb13  1  0.322448  0.321182  0.321339  1
  Au  Au14  1  0.375563  0.254450  0.627334  1
  Au  Au15  1  0.127087  0.748251  0.872723  1
  Au  Au16  1  0.247614  0.620794  0.376685  1
  Au  Au17  1  0.747277  0.876587  0.120779  1
  Au  Au18  1  0.627088  0.372933  0.248396  1
  Au  Au19  1  0.875490  0.127109  0.754218  1
