# generated using pymatgen
data_Dy4MgPd4Pb
_symmetry_space_group_name_H-M   'P 1'
_cell_length_a   3.64237300
_cell_length_b   7.88596100
_cell_length_c   7.88596100
_cell_angle_alpha   90.00000000
_cell_angle_beta   90.00000000
_cell_angle_gamma   90.00000000
_symmetry_Int_Tables_number   1
_chemical_formula_structural   Dy4MgPd4Pb
_chemical_formula_sum   'Dy4 Mg1 Pd4 Pb1'
_cell_volume   226.51327948
_cell_formula_units_Z   1
loop_
 _symmetry_equiv_pos_site_id
 _symmetry_equiv_pos_as_xyz
  1  'x, y, z'
loop_
 _atom_site_type_symbol
 _atom_site_label
 _atom_site_symmetry_multiplicity
 _atom_site_fract_x
 _atom_site_fract_y
 _atom_site_fract_z
 _atom_site_occupancy
  Dy  Dy0  1  0.500000  0.159801  0.676089  1
  Dy  Dy1  1  0.500000  0.840199  0.323911  1
  Dy  Dy2  1  0.500000  0.323911  0.159801  1
  Dy  Dy3  1  0.500000  0.676089  0.840199  1
  Mg  Mg4  1  0.000000  0.500000  0.500000  1
  Pd  Pd5  1  0.000000  0.615736  0.142208  1
  Pd  Pd6  1  0.000000  0.384264  0.857792  1
  Pd  Pd7  1  0.000000  0.857792  0.615736  1
  Pd  Pd8  1  0.000000  0.142208  0.384264  1
  Pb  Pb9  1  0.000000  0.000000  0.000000  1
