# generated using pymatgen
data_Y2Er18Cd6RuPt
_symmetry_space_group_name_H-M   'P 1'
_cell_length_a   9.55630900
_cell_length_b   9.55630949
_cell_length_c   9.75802800
_cell_angle_alpha   90.00000000
_cell_angle_beta   90.00000000
_cell_angle_gamma   119.99680172
_symmetry_Int_Tables_number   1
_chemical_formula_structural   Y2Er18Cd6RuPt
_chemical_formula_sum   'Y2 Er18 Cd6 Ru1 Pt1'
_cell_volume   771.76855156
_cell_formula_units_Z   1
loop_
 _symmetry_equiv_pos_site_id
 _symmetry_equiv_pos_as_xyz
  1  'x, y, z'
loop_
 _atom_site_type_symbol
 _atom_site_label
 _atom_site_symmetry_multiplicity
 _atom_site_fract_x
 _atom_site_fract_y
 _atom_site_fract_z
 _atom_site_occupancy
  Y  Y0  1  0.542267  0.084862  0.250000  1
  Y  Y1  1  0.915138  0.457733  0.250000  1
  Er  Er2  1  0.000014  0.999986  0.499341  1
  Er  Er3  1  0.000014  0.999986  0.000659  1
  Er  Er4  1  0.208271  0.791729  0.442888  1
  Er  Er5  1  0.208537  0.416534  0.442771  1
  Er  Er6  1  0.583466  0.791463  0.442771  1
  Er  Er7  1  0.790366  0.209634  0.560337  1
  Er  Er8  1  0.790167  0.580651  0.560188  1
  Er  Er9  1  0.419349  0.209833  0.560188  1
  Er  Er10  1  0.790366  0.209634  0.939663  1
  Er  Er11  1  0.790167  0.580651  0.939812  1
  Er  Er12  1  0.419349  0.209833  0.939812  1
  Er  Er13  1  0.208271  0.791729  0.057112  1
  Er  Er14  1  0.208537  0.416534  0.057229  1
  Er  Er15  1  0.583466  0.791463  0.057229  1
  Er  Er16  1  0.542214  0.457786  0.250000  1
  Er  Er17  1  0.458746  0.541254  0.750000  1
  Er  Er18  1  0.458745  0.917544  0.750000  1
  Er  Er19  1  0.082456  0.541255  0.750000  1
  Cd  Cd20  1  0.885583  0.114417  0.250000  1
  Cd  Cd21  1  0.885168  0.770780  0.250000  1
  Cd  Cd22  1  0.229220  0.114832  0.250000  1
  Cd  Cd23  1  0.114650  0.885350  0.750000  1
  Cd  Cd24  1  0.114694  0.229310  0.750000  1
  Cd  Cd25  1  0.770690  0.885306  0.750000  1
  Ru  Ru26  1  0.666697  0.333303  0.750000  1
  Pt  Pt27  1  0.333391  0.666609  0.250000  1
