# generated using pymatgen
data_Li2NdDy2Al7
_symmetry_space_group_name_H-M   'P 1'
_cell_length_a   9.33755130
_cell_length_b   9.33755156
_cell_length_c   9.33755145
_cell_angle_alpha   34.64753611
_cell_angle_beta   34.64753345
_cell_angle_gamma   34.64753541
_symmetry_Int_Tables_number   1
_chemical_formula_structural   Li2NdDy2Al7
_chemical_formula_sum   'Li2 Nd1 Dy2 Al7'
_cell_volume   234.81912158
_cell_formula_units_Z   1
loop_
 _symmetry_equiv_pos_site_id
 _symmetry_equiv_pos_as_xyz
  1  'x, y, z'
loop_
 _atom_site_type_symbol
 _atom_site_label
 _atom_site_symmetry_multiplicity
 _atom_site_fract_x
 _atom_site_fract_y
 _atom_site_fract_z
 _atom_site_occupancy
  Li  Li0  1  0.335285  0.335285  0.335285  1
  Li  Li1  1  0.664715  0.664715  0.664715  1
  Nd  Nd2  1  0.000000  0.000000  0.000000  1
  Dy  Dy3  1  0.141138  0.141138  0.141138  1
  Dy  Dy4  1  0.858862  0.858862  0.858862  1
  Al  Al5  1  0.585818  0.585818  0.076640  1
  Al  Al6  1  0.414182  0.923360  0.414182  1
  Al  Al7  1  0.585818  0.076640  0.585818  1
  Al  Al8  1  0.076640  0.585818  0.585818  1
  Al  Al9  1  0.414182  0.414182  0.923360  1
  Al  Al10  1  0.500000  0.500000  0.500000  1
  Al  Al11  1  0.923360  0.414182  0.414182  1
