# generated using pymatgen
data_Sc2MnOs2Ru
_symmetry_space_group_name_H-M   'P 1'
_cell_length_a   5.13502964
_cell_length_b   5.06757474
_cell_length_c   8.62013800
_cell_angle_alpha   90.00000000
_cell_angle_beta   90.00000000
_cell_angle_gamma   119.56641815
_symmetry_Int_Tables_number   1
_chemical_formula_structural   Sc2MnOs2Ru
_chemical_formula_sum   'Sc4 Mn2 Os4 Ru2'
_cell_volume   195.10522160
_cell_formula_units_Z   2
loop_
 _symmetry_equiv_pos_site_id
 _symmetry_equiv_pos_as_xyz
  1  'x, y, z'
loop_
 _atom_site_type_symbol
 _atom_site_label
 _atom_site_symmetry_multiplicity
 _atom_site_fract_x
 _atom_site_fract_y
 _atom_site_fract_z
 _atom_site_occupancy
  Sc  Sc0  1  0.332668  0.664935  0.065258  1
  Sc  Sc1  1  0.667332  0.332266  0.565258  1
  Sc  Sc2  1  0.332668  0.664935  0.434742  1
  Sc  Sc3  1  0.667332  0.332266  0.934742  1
  Mn  Mn4  1  0.834565  0.173410  0.250000  1
  Mn  Mn5  1  0.165435  0.338845  0.750000  1
  Os  Os6  1  0.831974  0.659974  0.250000  1
  Os  Os7  1  0.168026  0.828003  0.750000  1
  Os  Os8  1  0.648225  0.825023  0.750000  1
  Os  Os9  1  0.351775  0.176796  0.250000  1
  Ru  Ru10  1  0.000000  0.001775  0.500000  1
  Ru  Ru11  1  0.000000  0.001775  0.000000  1
