# generated using pymatgen
data_Ta2Ti2Pb4O13
_symmetry_space_group_name_H-M   'P 1'
_cell_length_a   7.45896195
_cell_length_b   7.45896206
_cell_length_c   7.45896226
_cell_angle_alpha   120.37074671
_cell_angle_beta   119.65995169
_cell_angle_gamma   89.97451918
_symmetry_Int_Tables_number   1
_chemical_formula_structural   Ta2Ti2Pb4O13
_chemical_formula_sum   'Ta2 Ti2 Pb4 O13'
_cell_volume   293.35837230
_cell_formula_units_Z   1
loop_
 _symmetry_equiv_pos_site_id
 _symmetry_equiv_pos_as_xyz
  1  'x, y, z'
loop_
 _atom_site_type_symbol
 _atom_site_label
 _atom_site_symmetry_multiplicity
 _atom_site_fract_x
 _atom_site_fract_y
 _atom_site_fract_z
 _atom_site_occupancy
  Ta  Ta0  1  0.625254  0.375096  0.250158  1
  Ta  Ta1  1  0.124937  0.375096  0.749842  1
  Ti  Ti2  1  0.625879  0.877269  0.251390  1
  Ti  Ti3  1  0.625879  0.374489  0.748610  1
  Pb  Pb4  1  0.126310  0.379081  0.252772  1
  Pb  Pb5  1  0.126310  0.873538  0.747228  1
  Pb  Pb6  1  0.126066  0.873470  0.252598  1
  Pb  Pb7  1  0.620872  0.873470  0.747402  1
  O  O8  1  0.559629  0.440803  0.500880  1
  O  O9  1  0.939922  0.440803  0.881174  1
  O  O10  1  0.942758  0.442758  0.500000  1
  O  O11  1  0.939922  0.058749  0.499120  1
  O  O12  1  0.559629  0.058749  0.118826  1
  O  O13  1  0.561853  0.061853  0.500000  1
  O  O14  1  0.000564  0.000564  0.000000  1
  O  O15  1  0.305996  0.694028  0.000749  1
  O  O16  1  0.693279  0.694028  0.388031  1
  O  O17  1  0.692073  0.692073  0.000000  1
  O  O18  1  0.693279  0.305248  0.999251  1
  O  O19  1  0.305996  0.305248  0.611969  1
  O  O20  1  0.303878  0.303878  0.000000  1
