# generated using pymatgen
data_Ho8CdSn2HgAu8
_symmetry_space_group_name_H-M   'P 1'
_cell_length_a   8.00639300
_cell_length_b   8.00632200
_cell_length_c   7.32440000
_cell_angle_alpha   90.00000000
_cell_angle_beta   90.00000000
_cell_angle_gamma   90.00113069
_symmetry_Int_Tables_number   1
_chemical_formula_structural   Ho8CdSn2HgAu8
_chemical_formula_sum   'Ho8 Cd1 Sn2 Hg1 Au8'
_cell_volume   469.50693395
_cell_formula_units_Z   1
loop_
 _symmetry_equiv_pos_site_id
 _symmetry_equiv_pos_as_xyz
  1  'x, y, z'
loop_
 _atom_site_type_symbol
 _atom_site_label
 _atom_site_symmetry_multiplicity
 _atom_site_fract_x
 _atom_site_fract_y
 _atom_site_fract_z
 _atom_site_occupancy
  Ho  Ho0  1  0.841333  0.158361  0.500030  1
  Ho  Ho1  1  0.158667  0.841639  0.500030  1
  Ho  Ho2  1  0.341633  0.341323  0.999977  1
  Ho  Ho3  1  0.658367  0.658677  0.999977  1
  Ho  Ho4  1  0.682511  0.683202  0.499670  1
  Ho  Ho5  1  0.317489  0.316798  0.499670  1
  Ho  Ho6  1  0.183201  0.817492  0.000334  1
  Ho  Ho7  1  0.816799  0.182508  0.000334  1
  Cd  Cd8  1  0.000000  0.500000  0.750000  1
  Sn  Sn9  1  0.500000  0.000000  0.749995  1
  Sn  Sn10  1  0.000000  0.500000  0.249993  1
  Hg  Hg11  1  0.500000  0.000000  0.249999  1
  Au  Au12  1  0.626007  0.370531  0.274316  1
  Au  Au13  1  0.373993  0.629469  0.274316  1
  Au  Au14  1  0.125106  0.131540  0.774074  1
  Au  Au15  1  0.874894  0.868460  0.774074  1
  Au  Au16  1  0.368459  0.625105  0.725923  1
  Au  Au17  1  0.631541  0.374895  0.725923  1
  Au  Au18  1  0.870538  0.873989  0.225682  1
  Au  Au19  1  0.129462  0.126011  0.225682  1
