# generated using pymatgen
data_Tb4Co19P12Ru
_symmetry_space_group_name_H-M   'P 1'
_cell_length_a   3.66560000
_cell_length_b   10.31286407
_cell_length_c   11.75086181
_cell_angle_alpha   90.13086895
_cell_angle_beta   90.00000000
_cell_angle_gamma   90.00000000
_symmetry_Int_Tables_number   1
_chemical_formula_structural   Tb4Co19P12Ru
_chemical_formula_sum   'Tb4 Co19 P12 Ru1'
_cell_volume   444.21472575
_cell_formula_units_Z   1
loop_
 _symmetry_equiv_pos_site_id
 _symmetry_equiv_pos_as_xyz
  1  'x, y, z'
loop_
 _atom_site_type_symbol
 _atom_site_label
 _atom_site_symmetry_multiplicity
 _atom_site_fract_x
 _atom_site_fract_y
 _atom_site_fract_z
 _atom_site_occupancy
  Tb  Tb0  1  0.250000  0.583228  0.702614  1
  Tb  Tb1  1  0.250000  0.918457  0.201822  1
  Tb  Tb2  1  0.750000  0.416674  0.297601  1
  Tb  Tb3  1  0.750000  0.085198  0.795527  1
  Co  Co4  1  0.250000  0.783317  0.492652  1
  Co  Co5  1  0.750000  0.284769  0.008943  1
  Co  Co6  1  0.750000  0.215943  0.508059  1
  Co  Co7  1  0.250000  0.406295  0.488581  1
  Co  Co8  1  0.250000  0.093842  0.987781  1
  Co  Co9  1  0.750000  0.592953  0.511599  1
  Co  Co10  1  0.750000  0.908758  0.010099  1
  Co  Co11  1  0.250000  0.221016  0.176935  1
  Co  Co12  1  0.250000  0.278276  0.675648  1
  Co  Co13  1  0.750000  0.778867  0.822879  1
  Co  Co14  1  0.750000  0.722405  0.324491  1
  Co  Co15  1  0.250000  0.883186  0.698577  1
  Co  Co16  1  0.250000  0.614927  0.201751  1
  Co  Co17  1  0.750000  0.116766  0.301625  1
  Co  Co18  1  0.750000  0.382080  0.800528  1
  Co  Co19  1  0.250000  0.464116  0.932452  1
  Co  Co20  1  0.250000  0.032026  0.432050  1
  Co  Co21  1  0.750000  0.532884  0.068690  1
  Co  Co22  1  0.750000  0.967749  0.568327  1
  P  P23  1  0.250000  0.417930  0.112486  1
  P  P24  1  0.250000  0.081292  0.611319  1
  P  P25  1  0.750000  0.578560  0.886878  1
  P  P26  1  0.750000  0.919464  0.388414  1
  P  P27  1  0.250000  0.270337  0.868910  1
  P  P28  1  0.250000  0.228311  0.370016  1
  P  P29  1  0.750000  0.728454  0.133714  1
  P  P30  1  0.750000  0.771411  0.629263  1
  P  P31  1  0.250000  0.601738  0.393466  1
  P  P32  1  0.250000  0.903627  0.889219  1
  P  P33  1  0.750000  0.397250  0.607886  1
  P  P34  1  0.750000  0.103681  0.108426  1
  Ru  Ru35  1  0.250000  0.714215  0.990773  1
