# generated using pymatgen
data_Tb2YAl12Ir3Ru
_symmetry_space_group_name_H-M   'P 1'
_cell_length_a   8.84605000
_cell_length_b   8.84425390
_cell_length_c   9.50966000
_cell_angle_alpha   90.00000000
_cell_angle_beta   90.00000000
_cell_angle_gamma   120.00671808
_symmetry_Int_Tables_number   1
_chemical_formula_structural   Tb2YAl12Ir3Ru
_chemical_formula_sum   'Tb4 Y2 Al24 Ir6 Ru2'
_cell_volume   644.28320345
_cell_formula_units_Z   2
loop_
 _symmetry_equiv_pos_site_id
 _symmetry_equiv_pos_as_xyz
  1  'x, y, z'
loop_
 _atom_site_type_symbol
 _atom_site_label
 _atom_site_symmetry_multiplicity
 _atom_site_fract_x
 _atom_site_fract_y
 _atom_site_fract_z
 _atom_site_occupancy
  Tb  Tb0  1  0.807777  0.615553  0.250000  1
  Tb  Tb1  1  0.616176  0.808020  0.750000  1
  Tb  Tb2  1  0.191843  0.808020  0.750000  1
  Tb  Tb3  1  0.191894  0.383789  0.750000  1
  Y  Y4  1  0.384713  0.192374  0.250000  1
  Y  Y5  1  0.807663  0.192374  0.250000  1
  Al  Al6  1  0.437798  0.875594  0.250000  1
  Al  Al7  1  0.124532  0.562191  0.250000  1
  Al  Al8  1  0.437660  0.562191  0.250000  1
  Al  Al9  1  0.562349  0.124699  0.750000  1
  Al  Al10  1  0.875357  0.437697  0.750000  1
  Al  Al11  1  0.562339  0.437697  0.750000  1
  Al  Al12  1  0.163164  0.836951  0.424172  1
  Al  Al13  1  0.163109  0.326220  0.424204  1
  Al  Al14  1  0.673786  0.836951  0.424172  1
  Al  Al15  1  0.836946  0.163109  0.575868  1
  Al  Al16  1  0.836903  0.673805  0.575874  1
  Al  Al17  1  0.326164  0.163109  0.575868  1
  Al  Al18  1  0.836946  0.163109  0.924132  1
  Al  Al19  1  0.836903  0.673805  0.924126  1
  Al  Al20  1  0.326164  0.163109  0.924132  1
  Al  Al21  1  0.163164  0.836951  0.075828  1
  Al  Al22  1  0.163109  0.326220  0.075796  1
  Al  Al23  1  0.673786  0.836951  0.075828  1
  Al  Al24  1  0.333302  0.666604  0.528795  1
  Al  Al25  1  0.666609  0.333216  0.470982  1
  Al  Al26  1  0.666609  0.333216  0.029018  1
  Al  Al27  1  0.333302  0.666604  0.971205  1
  Al  Al28  1  0.999937  0.999874  0.250000  1
  Al  Al29  1  0.000036  0.000071  0.750000  1
  Ir  Ir30  1  0.500020  0.000039  0.499957  1
  Ir  Ir31  1  0.999870  0.499927  0.499834  1
  Ir  Ir32  1  0.500057  0.499927  0.499834  1
  Ir  Ir33  1  0.500020  0.000039  0.000043  1
  Ir  Ir34  1  0.999870  0.499927  0.000166  1
  Ir  Ir35  1  0.500057  0.499927  0.000166  1
  Ru  Ru36  1  0.000035  0.000069  0.499534  1
  Ru  Ru37  1  0.000035  0.000069  0.000466  1
