# generated using pymatgen
data_Dy3YCdPt
_symmetry_space_group_name_H-M   'P 1'
_cell_length_a   9.70541703
_cell_length_b   9.70574012
_cell_length_c   9.70574001
_cell_angle_alpha   59.99780154
_cell_angle_beta   60.00110744
_cell_angle_gamma   60.00110459
_symmetry_Int_Tables_number   1
_chemical_formula_structural   Dy3YCdPt
_chemical_formula_sum   'Dy12 Y4 Cd4 Pt4'
_cell_volume   646.48218105
_cell_formula_units_Z   4
loop_
 _symmetry_equiv_pos_site_id
 _symmetry_equiv_pos_as_xyz
  1  'x, y, z'
loop_
 _atom_site_type_symbol
 _atom_site_label
 _atom_site_symmetry_multiplicity
 _atom_site_fract_x
 _atom_site_fract_y
 _atom_site_fract_z
 _atom_site_occupancy
  Dy  Dy0  1  0.352069  0.352352  0.352352  1
  Dy  Dy1  1  0.352352  0.352069  0.943227  1
  Dy  Dy2  1  0.352352  0.943227  0.352069  1
  Dy  Dy3  1  0.943227  0.352352  0.352352  1
  Dy  Dy4  1  0.810244  0.189756  0.189756  1
  Dy  Dy5  1  0.189756  0.810244  0.810244  1
  Dy  Dy6  1  0.189790  0.810210  0.189790  1
  Dy  Dy7  1  0.810210  0.189790  0.810210  1
  Dy  Dy8  1  0.189790  0.189790  0.810210  1
  Dy  Dy9  1  0.810210  0.810210  0.189790  1
  Dy  Dy10  1  0.935842  0.564158  0.564158  1
  Dy  Dy11  1  0.564158  0.935842  0.935842  1
  Y  Y12  1  0.564460  0.935540  0.564460  1
  Y  Y13  1  0.935540  0.564460  0.935540  1
  Y  Y14  1  0.564460  0.564460  0.935540  1
  Y  Y15  1  0.935540  0.935540  0.564460  1
  Cd  Cd16  1  0.581857  0.581902  0.581902  1
  Cd  Cd17  1  0.581902  0.581857  0.254340  1
  Cd  Cd18  1  0.581902  0.254340  0.581857  1
  Cd  Cd19  1  0.254340  0.581902  0.581902  1
  Pt  Pt20  1  0.143564  0.143557  0.143557  1
  Pt  Pt21  1  0.143557  0.143564  0.569323  1
  Pt  Pt22  1  0.143557  0.569323  0.143564  1
  Pt  Pt23  1  0.569323  0.143557  0.143557  1
