# generated using pymatgen
data_Gd2CoH6
_symmetry_space_group_name_H-M   'P 1'
_cell_length_a   7.06951402
_cell_length_b   7.06951411
_cell_length_c   5.08596700
_cell_angle_alpha   90.00000000
_cell_angle_beta   90.00000000
_cell_angle_gamma   138.03314333
_symmetry_Int_Tables_number   1
_chemical_formula_structural   Gd2CoH6
_chemical_formula_sum   'Gd4 Co2 H12'
_cell_volume   169.97474012
_cell_formula_units_Z   2
loop_
 _symmetry_equiv_pos_site_id
 _symmetry_equiv_pos_as_xyz
  1  'x, y, z'
loop_
 _atom_site_type_symbol
 _atom_site_label
 _atom_site_symmetry_multiplicity
 _atom_site_fract_x
 _atom_site_fract_y
 _atom_site_fract_z
 _atom_site_occupancy
  Gd  Gd0  1  0.137695  0.862305  0.500000  1
  Gd  Gd1  1  0.637695  0.362305  0.000000  1
  Gd  Gd2  1  0.862305  0.137695  0.500000  1
  Gd  Gd3  1  0.362305  0.637695  0.000000  1
  Co  Co4  1  0.500000  0.500000  0.500000  1
  Co  Co5  1  0.000000  0.000000  0.000000  1
  H  H6  1  0.999997  0.499997  0.750000  1
  H  H7  1  0.500003  0.000003  0.250000  1
  H  H8  1  0.000003  0.500003  0.250000  1
  H  H9  1  0.499997  0.999997  0.750000  1
  H  H10  1  0.378003  0.621997  0.500000  1
  H  H11  1  0.878003  0.121997  0.000000  1
  H  H12  1  0.621997  0.378003  0.500000  1
  H  H13  1  0.121997  0.878003  0.000000  1
  H  H14  1  0.251958  0.251958  0.748178  1
  H  H15  1  0.748042  0.748042  0.251822  1
  H  H16  1  0.248042  0.248042  0.248178  1
  H  H17  1  0.751958  0.751958  0.751822  1
