# generated using pymatgen
data_LaMnSb12OsRu2
_symmetry_space_group_name_H-M   'P 1'
_cell_length_a   8.14874358
_cell_length_b   8.13884573
_cell_length_c   8.14973010
_cell_angle_alpha   109.44641846
_cell_angle_beta   109.50131156
_cell_angle_gamma   109.46127930
_symmetry_Int_Tables_number   1
_chemical_formula_structural   LaMnSb12OsRu2
_chemical_formula_sum   'La1 Mn1 Sb12 Os1 Ru2'
_cell_volume   416.10186079
_cell_formula_units_Z   1
loop_
 _symmetry_equiv_pos_site_id
 _symmetry_equiv_pos_as_xyz
  1  'x, y, z'
loop_
 _atom_site_type_symbol
 _atom_site_label
 _atom_site_symmetry_multiplicity
 _atom_site_fract_x
 _atom_site_fract_y
 _atom_site_fract_z
 _atom_site_occupancy
  La  La0  1  0.000000  0.000000  0.000000  1
  Mn  Mn1  1  0.000000  0.000000  0.500000  1
  Sb  Sb2  1  0.842169  0.660273  0.503439  1
  Sb  Sb3  1  0.157831  0.339727  0.496561  1
  Sb  Sb4  1  0.158477  0.661762  0.818910  1
  Sb  Sb5  1  0.841523  0.338238  0.181090  1
  Sb  Sb6  1  0.660556  0.503420  0.841603  1
  Sb  Sb7  1  0.339444  0.496580  0.158397  1
  Sb  Sb8  1  0.660294  0.818007  0.157041  1
  Sb  Sb9  1  0.339706  0.181993  0.842959  1
  Sb  Sb10  1  0.503437  0.841871  0.661675  1
  Sb  Sb11  1  0.496563  0.158129  0.338325  1
  Sb  Sb12  1  0.182741  0.843216  0.340090  1
  Sb  Sb13  1  0.817259  0.156784  0.659910  1
  Os  Os14  1  0.000000  0.500000  0.000000  1
  Ru  Ru15  1  0.500000  0.500000  0.500000  1
  Ru  Ru16  1  0.500000  0.000000  0.000000  1
