# generated using pymatgen
data_Pa2Ni5As6Ru5
_symmetry_space_group_name_H-M   'P 1'
_cell_length_a   3.92664700
_cell_length_b   11.10825700
_cell_length_c   12.46849000
_cell_angle_alpha   90.00000000
_cell_angle_beta   90.00000000
_cell_angle_gamma   90.00000000
_symmetry_Int_Tables_number   1
_chemical_formula_structural   Pa2Ni5As6Ru5
_chemical_formula_sum   'Pa4 Ni10 As12 Ru10'
_cell_volume   543.85314069
_cell_formula_units_Z   2
loop_
 _symmetry_equiv_pos_site_id
 _symmetry_equiv_pos_as_xyz
  1  'x, y, z'
loop_
 _atom_site_type_symbol
 _atom_site_label
 _atom_site_symmetry_multiplicity
 _atom_site_fract_x
 _atom_site_fract_y
 _atom_site_fract_z
 _atom_site_occupancy
  Pa  Pa0  1  0.250000  0.592643  0.698286  1
  Pa  Pa1  1  0.250000  0.907357  0.198286  1
  Pa  Pa2  1  0.750000  0.406497  0.300385  1
  Pa  Pa3  1  0.750000  0.093503  0.800385  1
  Ni  Ni4  1  0.750000  0.791414  0.818311  1
  Ni  Ni5  1  0.750000  0.708586  0.318311  1
  Ni  Ni6  1  0.250000  0.891776  0.695931  1
  Ni  Ni7  1  0.250000  0.608224  0.195931  1
  Ni  Ni8  1  0.750000  0.105788  0.305769  1
  Ni  Ni9  1  0.750000  0.394212  0.805769  1
  Ni  Ni10  1  0.250000  0.478446  0.928832  1
  Ni  Ni11  1  0.250000  0.021554  0.428832  1
  Ni  Ni12  1  0.750000  0.524495  0.065050  1
  Ni  Ni13  1  0.750000  0.975505  0.565050  1
  As  As14  1  0.250000  0.414293  0.111600  1
  As  As15  1  0.250000  0.085707  0.611600  1
  As  As16  1  0.750000  0.595245  0.884467  1
  As  As17  1  0.750000  0.904755  0.384467  1
  As  As18  1  0.250000  0.282186  0.877299  1
  As  As19  1  0.250000  0.217814  0.377299  1
  As  As20  1  0.750000  0.717048  0.128228  1
  As  As21  1  0.750000  0.782952  0.628228  1
  As  As22  1  0.250000  0.602268  0.382945  1
  As  As23  1  0.250000  0.897732  0.882945  1
  As  As24  1  0.750000  0.401755  0.616725  1
  As  As25  1  0.750000  0.098245  0.116725  1
  Ru  Ru26  1  0.250000  0.712887  0.990130  1
  Ru  Ru27  1  0.250000  0.787113  0.490130  1
  Ru  Ru28  1  0.750000  0.283803  0.012509  1
  Ru  Ru29  1  0.750000  0.216197  0.512509  1
  Ru  Ru30  1  0.250000  0.408965  0.478231  1
  Ru  Ru31  1  0.250000  0.091035  0.978231  1
  Ru  Ru32  1  0.750000  0.595317  0.523148  1
  Ru  Ru33  1  0.750000  0.904683  0.023148  1
  Ru  Ru34  1  0.250000  0.213950  0.182153  1
  Ru  Ru35  1  0.250000  0.286050  0.682153  1
