# generated using pymatgen
data_Yb2Ho6SbPd24
_symmetry_space_group_name_H-M   'P 1'
_cell_length_a   8.37498419
_cell_length_b   8.37403500
_cell_length_c   8.37498419
_cell_angle_alpha   90.00000000
_cell_angle_beta   90.10008823
_cell_angle_gamma   90.00000000
_symmetry_Int_Tables_number   1
_chemical_formula_structural   Yb2Ho6SbPd24
_chemical_formula_sum   'Yb2 Ho6 Sb1 Pd24'
_cell_volume   587.35693555
_cell_formula_units_Z   1
loop_
 _symmetry_equiv_pos_site_id
 _symmetry_equiv_pos_as_xyz
  1  'x, y, z'
loop_
 _atom_site_type_symbol
 _atom_site_label
 _atom_site_symmetry_multiplicity
 _atom_site_fract_x
 _atom_site_fract_y
 _atom_site_fract_z
 _atom_site_occupancy
  Yb  Yb0  1  0.252490  0.747226  0.252490  1
  Yb  Yb1  1  0.252490  0.252774  0.252490  1
  Ho  Ho2  1  0.745664  0.745952  0.253801  1
  Ho  Ho3  1  0.746316  0.253444  0.746316  1
  Ho  Ho4  1  0.253801  0.745952  0.745664  1
  Ho  Ho5  1  0.746316  0.746556  0.746316  1
  Ho  Ho6  1  0.745664  0.254048  0.253801  1
  Ho  Ho7  1  0.253801  0.254048  0.745664  1
  Sb  Sb8  1  0.002175  0.000000  0.002175  1
  Pd  Pd9  1  0.999352  0.000000  0.306742  1
  Pd  Pd10  1  0.735992  0.000000  0.500823  1
  Pd  Pd11  1  0.736064  0.500000  0.999004  1
  Pd  Pd12  1  0.500823  0.000000  0.735992  1
  Pd  Pd13  1  0.998334  0.735749  0.500910  1
  Pd  Pd14  1  0.501024  0.000000  0.264480  1
  Pd  Pd15  1  0.998334  0.264251  0.500910  1
  Pd  Pd16  1  0.500910  0.735749  0.998334  1
  Pd  Pd17  1  0.253299  0.500000  0.500810  1
  Pd  Pd18  1  0.500668  0.500000  0.745342  1
  Pd  Pd19  1  0.500810  0.500000  0.253299  1
  Pd  Pd20  1  0.500548  0.253968  0.500548  1
  Pd  Pd21  1  0.500548  0.746032  0.500548  1
  Pd  Pd22  1  0.745342  0.500000  0.500668  1
  Pd  Pd23  1  0.306742  0.000000  0.999352  1
  Pd  Pd24  1  0.000402  0.000000  0.695894  1
  Pd  Pd25  1  0.997438  0.500000  0.264476  1
  Pd  Pd26  1  0.999945  0.305408  0.999945  1
  Pd  Pd27  1  0.999945  0.694592  0.999945  1
  Pd  Pd28  1  0.695894  0.000000  0.000402  1
  Pd  Pd29  1  0.264476  0.500000  0.997438  1
  Pd  Pd30  1  0.264480  0.000000  0.501024  1
  Pd  Pd31  1  0.999004  0.500000  0.736064  1
  Pd  Pd32  1  0.500910  0.264251  0.998334  1
