# generated using pymatgen
data_Ta7Nb6Co8Os3N4
_symmetry_space_group_name_H-M   'P 1'
_cell_length_a   8.09701334
_cell_length_b   8.15211757
_cell_length_c   8.15211800
_cell_angle_alpha   60.00000636
_cell_angle_beta   59.77462576
_cell_angle_gamma   59.77462408
_symmetry_Int_Tables_number   1
_chemical_formula_structural   Ta7Nb6Co8Os3N4
_chemical_formula_sum   'Ta7 Nb6 Co8 Os3 N4'
_cell_volume   379.19525666
_cell_formula_units_Z   1
loop_
 _symmetry_equiv_pos_site_id
 _symmetry_equiv_pos_as_xyz
  1  'x, y, z'
loop_
 _atom_site_type_symbol
 _atom_site_label
 _atom_site_symmetry_multiplicity
 _atom_site_fract_x
 _atom_site_fract_y
 _atom_site_fract_z
 _atom_site_occupancy
  Ta  Ta0  1  0.125847  0.624718  0.624718  1
  Ta  Ta1  1  0.446181  0.444872  0.054474  1
  Ta  Ta2  1  0.055220  0.064806  0.439987  1
  Ta  Ta3  1  0.446181  0.054474  0.444872  1
  Ta  Ta4  1  0.055220  0.439987  0.064806  1
  Ta  Ta5  1  0.055220  0.439987  0.439987  1
  Ta  Ta6  1  0.446181  0.054474  0.054474  1
  Nb  Nb7  1  0.805500  0.806602  0.193949  1
  Nb  Nb8  1  0.193225  0.185878  0.810449  1
  Nb  Nb9  1  0.805500  0.193949  0.806602  1
  Nb  Nb10  1  0.193225  0.810449  0.185878  1
  Nb  Nb11  1  0.193225  0.810449  0.810449  1
  Nb  Nb12  1  0.805500  0.193949  0.193949  1
  Co  Co13  1  0.729779  0.423407  0.423407  1
  Co  Co14  1  0.421801  0.741436  0.418382  1
  Co  Co15  1  0.421801  0.418382  0.741436  1
  Co  Co16  1  0.421801  0.418382  0.418382  1
  Co  Co17  1  0.521881  0.826040  0.826040  1
  Co  Co18  1  0.827603  0.513747  0.829325  1
  Co  Co19  1  0.827603  0.829325  0.513747  1
  Co  Co20  1  0.827603  0.829325  0.829325  1
  Os  Os21  1  0.624587  0.124274  0.625570  1
  Os  Os22  1  0.624587  0.625570  0.124274  1
  Os  Os23  1  0.624587  0.625570  0.625570  1
  N  N24  1  0.619583  0.126806  0.126806  1
  N  N25  1  0.126855  0.620155  0.126495  1
  N  N26  1  0.126855  0.126495  0.620155  1
  N  N27  1  0.126855  0.126495  0.126495  1
