# generated using pymatgen
data_YTh5(CdHg2)6
_symmetry_space_group_name_H-M   'P 1'
_cell_length_a   5.15491700
_cell_length_b   7.42009600
_cell_length_c   15.68326300
_cell_angle_alpha   90.00000000
_cell_angle_beta   90.00013975
_cell_angle_gamma   90.00000000
_symmetry_Int_Tables_number   1
_chemical_formula_structural   YTh5(CdHg2)6
_chemical_formula_sum   'Y1 Th5 Cd6 Hg12'
_cell_volume   599.88448059
_cell_formula_units_Z   1
loop_
 _symmetry_equiv_pos_site_id
 _symmetry_equiv_pos_as_xyz
  1  'x, y, z'
loop_
 _atom_site_type_symbol
 _atom_site_label
 _atom_site_symmetry_multiplicity
 _atom_site_fract_x
 _atom_site_fract_y
 _atom_site_fract_z
 _atom_site_occupancy
  Y  Y0  1  0.500092  0.500000  0.833379  1
  Th  Th1  1  0.000001  0.000000  0.998479  1
  Th  Th2  1  0.499923  0.500000  0.165302  1
  Th  Th3  1  0.999926  0.000000  0.333386  1
  Th  Th4  1  0.499999  0.500000  0.501324  1
  Th  Th5  1  0.000067  0.000000  0.668130  1
  Cd  Cd6  1  0.999994  0.500000  0.999144  1
  Cd  Cd7  1  0.499914  0.000000  0.166206  1
  Cd  Cd8  1  0.999931  0.500000  0.333292  1
  Cd  Cd9  1  0.499997  0.000000  0.500495  1
  Cd  Cd10  1  0.000059  0.500000  0.667568  1
  Cd  Cd11  1  0.500086  0.000000  0.833296  1
  Hg  Hg12  1  0.499998  0.257192  0.996807  1
  Hg  Hg13  1  0.499998  0.742807  0.996807  1
  Hg  Hg14  1  0.999923  0.244971  0.166255  1
  Hg  Hg15  1  0.999923  0.755030  0.166255  1
  Hg  Hg16  1  0.499915  0.254809  0.333316  1
  Hg  Hg17  1  0.499915  0.745192  0.333316  1
  Hg  Hg18  1  0.999999  0.245014  0.500420  1
  Hg  Hg19  1  0.999999  0.754987  0.500420  1
  Hg  Hg20  1  0.500080  0.257254  0.669880  1
  Hg  Hg21  1  0.500080  0.742747  0.669880  1
  Hg  Hg22  1  0.000091  0.252918  0.833321  1
  Hg  Hg23  1  0.000091  0.747083  0.833321  1
