# generated using pymatgen
data_Tb8Tm7Th(InIr)4
_symmetry_space_group_name_H-M   'P 1'
_cell_length_a   9.68509378
_cell_length_b   9.65719323
_cell_length_c   9.68003455
_cell_angle_alpha   59.90539541
_cell_angle_beta   60.10336668
_cell_angle_gamma   59.90843522
_symmetry_Int_Tables_number   1
_chemical_formula_structural   Tb8Tm7Th(InIr)4
_chemical_formula_sum   'Tb8 Tm7 Th1 In4 Ir4'
_cell_volume   639.79574010
_cell_formula_units_Z   1
loop_
 _symmetry_equiv_pos_site_id
 _symmetry_equiv_pos_as_xyz
  1  'x, y, z'
loop_
 _atom_site_type_symbol
 _atom_site_label
 _atom_site_symmetry_multiplicity
 _atom_site_fract_x
 _atom_site_fract_y
 _atom_site_fract_z
 _atom_site_occupancy
  Tb  Tb0  1  0.100652  0.103003  0.697732  1
  Tb  Tb1  1  0.690198  0.309457  0.690378  1
  Tb  Tb2  1  0.689842  0.687765  0.310707  1
  Tb  Tb3  1  0.690096  0.310522  0.310583  1
  Tb  Tb4  1  0.309410  0.687318  0.689446  1
  Tb  Tb5  1  0.560560  0.938146  0.560458  1
  Tb  Tb6  1  0.698800  0.103060  0.100598  1
  Tb  Tb7  1  0.559559  0.938925  0.940706  1
  Tm  Tm8  1  0.943218  0.937947  0.558477  1
  Tm  Tm9  1  0.940197  0.558062  0.937125  1
  Tm  Tm10  1  0.309178  0.689338  0.311829  1
  Tm  Tm11  1  0.939888  0.559836  0.562663  1
  Tm  Tm12  1  0.306702  0.310079  0.692330  1
  Tm  Tm13  1  0.098134  0.099791  0.099508  1
  Tm  Tm14  1  0.562632  0.559457  0.938657  1
  Th  Th15  1  0.097906  0.707768  0.098086  1
  In  In16  1  0.333267  0.334557  0.334194  1
  In  In17  1  0.002102  0.331748  0.331754  1
  In  In18  1  0.331906  0.001329  0.332151  1
  In  In19  1  0.331985  0.331889  0.000781  1
  Ir  Ir20  1  0.892631  0.891407  0.890465  1
  Ir  Ir21  1  0.895559  0.890625  0.325094  1
  Ir  Ir22  1  0.323004  0.891415  0.894950  1
  Ir  Ir23  1  0.892575  0.326559  0.891328  1
