# generated using pymatgen
data_Dy11ErCo6Sn
_symmetry_space_group_name_H-M   'P 1'
_cell_length_a   8.33849212
_cell_length_b   8.33849274
_cell_length_c   8.34140138
_cell_angle_alpha   109.47203125
_cell_angle_beta   109.51080215
_cell_angle_gamma   109.41669339
_symmetry_Int_Tables_number   1
_chemical_formula_structural   Dy11ErCo6Sn
_chemical_formula_sum   'Dy11 Er1 Co6 Sn1'
_cell_volume   446.54756176
_cell_formula_units_Z   1
loop_
 _symmetry_equiv_pos_site_id
 _symmetry_equiv_pos_as_xyz
  1  'x, y, z'
loop_
 _atom_site_type_symbol
 _atom_site_label
 _atom_site_symmetry_multiplicity
 _atom_site_fract_x
 _atom_site_fract_y
 _atom_site_fract_z
 _atom_site_occupancy
  Dy  Dy0  1  0.194003  0.303248  0.497250  1
  Dy  Dy1  1  0.193714  0.696784  0.890498  1
  Dy  Dy2  1  0.805837  0.303582  0.109419  1
  Dy  Dy3  1  0.696795  0.502810  0.805779  1
  Dy  Dy4  1  0.303798  0.497470  0.194372  1
  Dy  Dy5  1  0.696901  0.890574  0.194372  1
  Dy  Dy6  1  0.302970  0.108984  0.805779  1
  Dy  Dy7  1  0.502866  0.805835  0.696669  1
  Dy  Dy8  1  0.497647  0.194577  0.303470  1
  Dy  Dy9  1  0.108893  0.805822  0.303470  1
  Dy  Dy10  1  0.890833  0.193803  0.696669  1
  Er  Er11  1  0.805932  0.695977  0.501911  1
  Co  Co12  1  0.886494  0.387149  0.499961  1
  Co  Co13  1  0.112811  0.613467  0.499961  1
  Co  Co14  1  0.386861  0.499968  0.886829  1
  Co  Co15  1  0.613582  0.500196  0.113778  1
  Co  Co16  1  0.500200  0.886694  0.386894  1
  Co  Co17  1  0.499988  0.113251  0.613239  1
  Sn  Sn18  1  0.999875  0.999807  0.999682  1
