# generated using pymatgen
data_AlZnAsO5
_symmetry_space_group_name_H-M   'P 1'
_cell_length_a   10.71502600
_cell_length_b   5.60612733
_cell_length_c   7.46239118
_cell_angle_alpha   80.94535911
_cell_angle_beta   90.00000000
_cell_angle_gamma   90.00000000
_symmetry_Int_Tables_number   1
_chemical_formula_structural   AlZnAsO5
_chemical_formula_sum   'Al4 Zn4 As4 O20'
_cell_volume   442.67839196
_cell_formula_units_Z   4
loop_
 _symmetry_equiv_pos_site_id
 _symmetry_equiv_pos_as_xyz
  1  'x, y, z'
loop_
 _atom_site_type_symbol
 _atom_site_label
 _atom_site_symmetry_multiplicity
 _atom_site_fract_x
 _atom_site_fract_y
 _atom_site_fract_z
 _atom_site_occupancy
  Al  Al0  1  0.320968  0.949473  0.854011  1
  Al  Al1  1  0.679032  0.050527  0.145989  1
  Al  Al2  1  0.179032  0.449473  0.854011  1
  Al  Al3  1  0.820968  0.550527  0.145989  1
  Zn  Zn4  1  0.642174  0.614979  0.477806  1
  Zn  Zn5  1  0.857826  0.114979  0.477806  1
  Zn  Zn6  1  0.357826  0.385021  0.522194  1
  Zn  Zn7  1  0.142174  0.885021  0.522194  1
  As  As8  1  0.397803  0.934721  0.271640  1
  As  As9  1  0.897803  0.565279  0.728360  1
  As  As10  1  0.102197  0.434721  0.271640  1
  As  As11  1  0.602197  0.065279  0.728360  1
  O  O12  1  0.805599  0.611820  0.906068  1
  O  O13  1  0.544616  0.335190  0.616914  1
  O  O14  1  0.781352  0.248960  0.234051  1
  O  O15  1  0.521688  0.117986  0.198457  1
  O  O16  1  0.281352  0.251040  0.765949  1
  O  O17  1  0.188237  0.572912  0.421761  1
  O  O18  1  0.455384  0.664810  0.383086  1
  O  O19  1  0.044616  0.164810  0.383086  1
  O  O20  1  0.811763  0.427088  0.578239  1
  O  O21  1  0.478312  0.882014  0.801543  1
  O  O22  1  0.694401  0.111820  0.906068  1
  O  O23  1  0.194401  0.388180  0.093932  1
  O  O24  1  0.311763  0.072912  0.421761  1
  O  O25  1  0.978312  0.617986  0.198457  1
  O  O26  1  0.305599  0.888180  0.093932  1
  O  O27  1  0.688237  0.927088  0.578239  1
  O  O28  1  0.218648  0.751040  0.765949  1
  O  O29  1  0.718648  0.748960  0.234051  1
  O  O30  1  0.955384  0.835190  0.616914  1
  O  O31  1  0.021688  0.382014  0.801543  1
