# generated using pymatgen
data_Nd2TcMoC3
_symmetry_space_group_name_H-M   'P 1'
_cell_length_a   6.27782249
_cell_length_b   6.27782326
_cell_length_c   5.88387926
_cell_angle_alpha   65.29033273
_cell_angle_beta   65.29034101
_cell_angle_gamma   31.95278391
_symmetry_Int_Tables_number   1
_chemical_formula_structural   Nd2TcMoC3
_chemical_formula_sum   'Nd2 Tc1 Mo1 C3'
_cell_volume   110.51254659
_cell_formula_units_Z   1
loop_
 _symmetry_equiv_pos_site_id
 _symmetry_equiv_pos_as_xyz
  1  'x, y, z'
loop_
 _atom_site_type_symbol
 _atom_site_label
 _atom_site_symmetry_multiplicity
 _atom_site_fract_x
 _atom_site_fract_y
 _atom_site_fract_z
 _atom_site_occupancy
  Nd  Nd0  1  0.393113  0.393113  0.812415  1
  Nd  Nd1  1  0.606187  0.606187  0.183233  1
  Tc  Tc2  1  0.161886  0.161886  0.682124  1
  Mo  Mo3  1  0.838525  0.838525  0.321416  1
  C  C4  1  0.002176  0.002176  0.998344  1
  C  C5  1  0.250448  0.250448  0.278563  1
  C  C6  1  0.747666  0.747666  0.723903  1
