# generated using pymatgen
data_Th3Al3Tc2Au
_symmetry_space_group_name_H-M   'P 1'
_cell_length_a   7.20556300
_cell_length_b   7.20556222
_cell_length_c   4.22984900
_cell_angle_alpha   90.00000000
_cell_angle_beta   90.00000000
_cell_angle_gamma   119.99999897
_symmetry_Int_Tables_number   1
_chemical_formula_structural   Th3Al3Tc2Au
_chemical_formula_sum   'Th3 Al3 Tc2 Au1'
_cell_volume   190.19158282
_cell_formula_units_Z   1
loop_
 _symmetry_equiv_pos_site_id
 _symmetry_equiv_pos_as_xyz
  1  'x, y, z'
loop_
 _atom_site_type_symbol
 _atom_site_label
 _atom_site_symmetry_multiplicity
 _atom_site_fract_x
 _atom_site_fract_y
 _atom_site_fract_z
 _atom_site_occupancy
  Th  Th0  1  0.433467  0.433467  0.500000  1
  Th  Th1  1  0.566533  0.000000  0.500000  1
  Th  Th2  1  0.000000  0.566533  0.500000  1
  Al  Al3  1  0.763004  0.763004  0.000000  1
  Al  Al4  1  0.236996  0.000000  0.000000  1
  Al  Al5  1  0.000000  0.236996  0.000000  1
  Tc  Tc6  1  0.666667  0.333333  0.000000  1
  Tc  Tc7  1  0.333333  0.666667  0.000000  1
  Au  Au8  1  0.000000  0.000000  0.500000  1
