# generated using pymatgen
data_LiYb2InSn2
_symmetry_space_group_name_H-M   'P 1'
_cell_length_a   7.47288600
_cell_length_b   4.70407000
_cell_length_c   17.76089500
_cell_angle_alpha   90.00000000
_cell_angle_beta   90.00000000
_cell_angle_gamma   90.00000000
_symmetry_Int_Tables_number   1
_chemical_formula_structural   LiYb2InSn2
_chemical_formula_sum   'Li4 Yb8 In4 Sn8'
_cell_volume   624.34836622
_cell_formula_units_Z   4
loop_
 _symmetry_equiv_pos_site_id
 _symmetry_equiv_pos_as_xyz
  1  'x, y, z'
loop_
 _atom_site_type_symbol
 _atom_site_label
 _atom_site_symmetry_multiplicity
 _atom_site_fract_x
 _atom_site_fract_y
 _atom_site_fract_z
 _atom_site_occupancy
  Li  Li0  1  0.491785  0.750000  0.069038  1
  Li  Li1  1  0.991785  0.750000  0.430962  1
  Li  Li2  1  0.008214  0.250001  0.569037  1
  Li  Li3  1  0.508214  0.250001  0.930963  1
  Yb  Yb4  1  0.162533  0.250001  0.061822  1
  Yb  Yb5  1  0.511664  0.250001  0.223756  1
  Yb  Yb6  1  0.011664  0.250001  0.276244  1
  Yb  Yb7  1  0.662533  0.250001  0.438178  1
  Yb  Yb8  1  0.337467  0.750000  0.561822  1
  Yb  Yb9  1  0.988337  0.750000  0.723756  1
  Yb  Yb10  1  0.488337  0.750000  0.776244  1
  Yb  Yb11  1  0.837466  0.750000  0.938178  1
  In  In12  1  0.838321  0.750000  0.153742  1
  In  In13  1  0.338322  0.750000  0.346259  1
  In  In14  1  0.661679  0.250001  0.653741  1
  In  In15  1  0.161678  0.250001  0.846259  1
  Sn  Sn16  1  0.723303  0.250001  0.061838  1
  Sn  Sn17  1  0.230246  0.750000  0.184999  1
  Sn  Sn18  1  0.730246  0.750000  0.315001  1
  Sn  Sn19  1  0.223303  0.250001  0.438162  1
  Sn  Sn20  1  0.776696  0.750000  0.561838  1
  Sn  Sn21  1  0.269754  0.250001  0.684999  1
  Sn  Sn22  1  0.769753  0.250001  0.815001  1
  Sn  Sn23  1  0.276697  0.750000  0.938162  1
