# generated using pymatgen
data_Sr2La9In9Pt4
_symmetry_space_group_name_H-M   'P 1'
_cell_length_a   13.68045200
_cell_length_b   13.68045913
_cell_length_c   3.89565400
_cell_angle_alpha   90.00000000
_cell_angle_beta   90.00000000
_cell_angle_gamma   111.80337634
_symmetry_Int_Tables_number   1
_chemical_formula_structural   Sr2La9In9Pt4
_chemical_formula_sum   'Sr2 La9 In9 Pt4'
_cell_volume   676.93432854
_cell_formula_units_Z   1
loop_
 _symmetry_equiv_pos_site_id
 _symmetry_equiv_pos_as_xyz
  1  'x, y, z'
loop_
 _atom_site_type_symbol
 _atom_site_label
 _atom_site_symmetry_multiplicity
 _atom_site_fract_x
 _atom_site_fract_y
 _atom_site_fract_z
 _atom_site_occupancy
  Sr  Sr0  1  0.500060  0.499959  0.500000  1
  Sr  Sr1  1  0.659657  0.340210  0.500000  1
  La  La2  1  0.810347  0.811199  0.500000  1
  La  La3  1  0.188898  0.189866  0.500000  1
  La  La4  1  0.570956  0.919060  0.500000  1
  La  La5  1  0.426281  0.077552  0.500000  1
  La  La6  1  0.922429  0.573540  0.500000  1
  La  La7  1  0.080739  0.429017  0.500000  1
  La  La8  1  0.126970  0.872952  0.500000  1
  La  La9  1  0.872977  0.127084  0.500000  1
  La  La10  1  0.340635  0.659214  0.500000  1
  In  In11  1  0.336947  0.863869  0.000000  1
  In  In12  1  0.662240  0.132398  0.000000  1
  In  In13  1  0.867378  0.337766  0.000000  1
  In  In14  1  0.136152  0.663059  0.000000  1
  In  In15  1  0.576686  0.720671  0.000000  1
  In  In16  1  0.419697  0.277711  0.000000  1
  In  In17  1  0.722407  0.580310  0.000000  1
  In  In18  1  0.279348  0.423438  0.000000  1
  In  In19  1  0.000489  0.999752  0.000000  1
  Pt  Pt20  1  0.744730  0.948406  0.000000  1
  Pt  Pt21  1  0.254070  0.051762  0.000000  1
  Pt  Pt22  1  0.948362  0.745896  0.000000  1
  Pt  Pt23  1  0.051540  0.255307  0.000000  1
