# generated using pymatgen
data_Sc(Mn2Si)2
_symmetry_space_group_name_H-M   'P 1'
_cell_length_a   6.74046000
_cell_length_b   6.74046000
_cell_length_c   3.94116900
_cell_angle_alpha   90.00000000
_cell_angle_beta   90.00000000
_cell_angle_gamma   90.00000000
_symmetry_Int_Tables_number   1
_chemical_formula_structural   Sc(Mn2Si)2
_chemical_formula_sum   'Sc2 Mn8 Si4'
_cell_volume   179.06228810
_cell_formula_units_Z   2
loop_
 _symmetry_equiv_pos_site_id
 _symmetry_equiv_pos_as_xyz
  1  'x, y, z'
loop_
 _atom_site_type_symbol
 _atom_site_label
 _atom_site_symmetry_multiplicity
 _atom_site_fract_x
 _atom_site_fract_y
 _atom_site_fract_z
 _atom_site_occupancy
  Sc  Sc0  1  0.500000  0.500000  0.000000  1
  Sc  Sc1  1  0.000000  0.000000  0.500000  1
  Mn  Mn2  1  0.601256  0.142471  0.500000  1
  Mn  Mn3  1  0.398744  0.857529  0.500000  1
  Mn  Mn4  1  0.101256  0.357529  0.000000  1
  Mn  Mn5  1  0.898744  0.642471  0.000000  1
  Mn  Mn6  1  0.142471  0.601256  0.500000  1
  Mn  Mn7  1  0.857529  0.398744  0.500000  1
  Mn  Mn8  1  0.357529  0.101256  0.000000  1
  Mn  Mn9  1  0.642471  0.898744  0.000000  1
  Si  Si10  1  0.710487  0.710487  0.500000  1
  Si  Si11  1  0.289513  0.289513  0.500000  1
  Si  Si12  1  0.210487  0.789513  0.000000  1
  Si  Si13  1  0.789513  0.210487  0.000000  1
