# generated using pymatgen
data_La3Nd5ZnPd24
_symmetry_space_group_name_H-M   'P 1'
_cell_length_a   8.52536527
_cell_length_b   8.52536527
_cell_length_c   8.52081427
_cell_angle_alpha   89.97943082
_cell_angle_beta   89.97943082
_cell_angle_gamma   89.94093730
_symmetry_Int_Tables_number   1
_chemical_formula_structural   La3Nd5ZnPd24
_chemical_formula_sum   'La3 Nd5 Zn1 Pd24'
_cell_volume   619.30816158
_cell_formula_units_Z   1
loop_
 _symmetry_equiv_pos_site_id
 _symmetry_equiv_pos_as_xyz
  1  'x, y, z'
loop_
 _atom_site_type_symbol
 _atom_site_label
 _atom_site_symmetry_multiplicity
 _atom_site_fract_x
 _atom_site_fract_y
 _atom_site_fract_z
 _atom_site_occupancy
  La  La0  1  0.250819  0.250819  0.250908  1
  La  La1  1  0.749075  0.749075  0.749078  1
  La  La2  1  0.749395  0.749395  0.250791  1
  Nd  Nd3  1  0.749742  0.250447  0.749862  1
  Nd  Nd4  1  0.250422  0.250422  0.749412  1
  Nd  Nd5  1  0.250323  0.749516  0.250241  1
  Nd  Nd6  1  0.250447  0.749742  0.749862  1
  Nd  Nd7  1  0.749516  0.250323  0.250241  1
  Zn  Zn8  1  0.000148  0.000148  0.999705  1
  Pd  Pd9  1  0.262095  0.500818  0.999404  1
  Pd  Pd10  1  0.737921  0.498927  0.000161  1
  Pd  Pd11  1  0.999158  0.262143  0.500553  1
  Pd  Pd12  1  0.500818  0.262095  0.999404  1
  Pd  Pd13  1  0.001182  0.737883  0.499880  1
  Pd  Pd14  1  0.498927  0.737921  0.000161  1
  Pd  Pd15  1  0.500170  0.999804  0.262040  1
  Pd  Pd16  1  0.262143  0.999158  0.500553  1
  Pd  Pd17  1  0.499512  0.000569  0.737870  1
  Pd  Pd18  1  0.737883  0.001182  0.499880  1
  Pd  Pd19  1  0.999804  0.500170  0.262040  1
  Pd  Pd20  1  0.000569  0.499512  0.737870  1
  Pd  Pd21  1  0.253707  0.500843  0.500615  1
  Pd  Pd22  1  0.746284  0.498823  0.499816  1
  Pd  Pd23  1  0.500843  0.253707  0.500615  1
  Pd  Pd24  1  0.498823  0.746284  0.499816  1
  Pd  Pd25  1  0.500223  0.500223  0.253725  1
  Pd  Pd26  1  0.499408  0.499408  0.746290  1
  Pd  Pd27  1  0.297427  0.999218  0.999466  1
  Pd  Pd28  1  0.702553  0.001105  0.000171  1
  Pd  Pd29  1  0.999218  0.297427  0.999466  1
  Pd  Pd30  1  0.001105  0.702553  0.000171  1
  Pd  Pd31  1  0.999821  0.999821  0.297443  1
  Pd  Pd32  1  0.000521  0.000521  0.702492  1
