# generated using pymatgen
data_Sc4VTc2Os5
_symmetry_space_group_name_H-M   'P 1'
_cell_length_a   5.29580624
_cell_length_b   5.15168004
_cell_length_c   8.65912000
_cell_angle_alpha   90.00000000
_cell_angle_beta   90.00000000
_cell_angle_gamma   121.65140916
_symmetry_Int_Tables_number   1
_chemical_formula_structural   Sc4VTc2Os5
_chemical_formula_sum   'Sc4 V1 Tc2 Os5'
_cell_volume   201.10142003
_cell_formula_units_Z   1
loop_
 _symmetry_equiv_pos_site_id
 _symmetry_equiv_pos_as_xyz
  1  'x, y, z'
loop_
 _atom_site_type_symbol
 _atom_site_label
 _atom_site_symmetry_multiplicity
 _atom_site_fract_x
 _atom_site_fract_y
 _atom_site_fract_z
 _atom_site_occupancy
  Sc  Sc0  1  0.332101  0.660492  0.434891  1
  Sc  Sc1  1  0.667439  0.337750  0.565654  1
  Sc  Sc2  1  0.667439  0.337750  0.934346  1
  Sc  Sc3  1  0.332101  0.660492  0.065109  1
  V  V4  1  0.168412  0.339619  0.750000  1
  Tc  Tc5  1  0.346380  0.172564  0.250000  1
  Tc  Tc6  1  0.830103  0.661996  0.250000  1
  Os  Os7  1  0.173355  0.824226  0.750000  1
  Os  Os8  1  0.650575  0.824807  0.750000  1
  Os  Os9  1  0.003216  0.003702  0.996932  1
  Os  Os10  1  0.825659  0.172902  0.250000  1
  Os  Os11  1  0.003216  0.003702  0.503068  1
