# generated using pymatgen
data_Hf3Nb2Ga2Sb
_symmetry_space_group_name_H-M   'P 1'
_cell_length_a   8.09047570
_cell_length_b   8.09955045
_cell_length_c   5.49844800
_cell_angle_alpha   90.00000000
_cell_angle_beta   90.00000000
_cell_angle_gamma   120.03711539
_symmetry_Int_Tables_number   1
_chemical_formula_structural   Hf3Nb2Ga2Sb
_chemical_formula_sum   'Hf6 Nb4 Ga4 Sb2'
_cell_volume   311.91996897
_cell_formula_units_Z   2
loop_
 _symmetry_equiv_pos_site_id
 _symmetry_equiv_pos_as_xyz
  1  'x, y, z'
loop_
 _atom_site_type_symbol
 _atom_site_label
 _atom_site_symmetry_multiplicity
 _atom_site_fract_x
 _atom_site_fract_y
 _atom_site_fract_z
 _atom_site_occupancy
  Hf  Hf0  1  0.755470  0.743380  0.250000  1
  Hf  Hf1  1  0.755470  0.012090  0.750000  1
  Hf  Hf2  1  0.011605  0.262852  0.250000  1
  Hf  Hf3  1  0.239788  0.240939  0.750000  1
  Hf  Hf4  1  0.239788  0.998850  0.250000  1
  Hf  Hf5  1  0.011605  0.748753  0.750000  1
  Nb  Nb6  1  0.668255  0.334127  0.000000  1
  Nb  Nb7  1  0.668255  0.334127  0.500000  1
  Nb  Nb8  1  0.324169  0.662085  0.500000  1
  Nb  Nb9  1  0.324169  0.662085  0.000000  1
  Ga  Ga10  1  0.999858  0.396849  0.750000  1
  Ga  Ga11  1  0.999858  0.603009  0.250000  1
  Ga  Ga12  1  0.395969  0.393898  0.250000  1
  Ga  Ga13  1  0.395969  0.002072  0.750000  1
  Sb  Sb14  1  0.604884  0.998533  0.250000  1
  Sb  Sb15  1  0.604884  0.606351  0.750000  1
