# generated using pymatgen
data_Mn5Ag2(MoO4)6
_symmetry_space_group_name_H-M   'P 1'
_cell_length_a   7.18606448
_cell_length_b   8.89247703
_cell_length_c   10.62474349
_cell_angle_alpha   106.52913385
_cell_angle_beta   105.13633498
_cell_angle_gamma   102.37923589
_symmetry_Int_Tables_number   1
_chemical_formula_structural   Mn5Ag2(MoO4)6
_chemical_formula_sum   'Mn5 Ag2 Mo6 O24'
_cell_volume   596.95313257
_cell_formula_units_Z   1
loop_
 _symmetry_equiv_pos_site_id
 _symmetry_equiv_pos_as_xyz
  1  'x, y, z'
loop_
 _atom_site_type_symbol
 _atom_site_label
 _atom_site_symmetry_multiplicity
 _atom_site_fract_x
 _atom_site_fract_y
 _atom_site_fract_z
 _atom_site_occupancy
  Mn  Mn0  1  0.382421  0.952808  0.107247  1
  Mn  Mn1  1  0.628281  0.052577  0.897944  1
  Mn  Mn2  1  0.954548  0.793084  0.477268  1
  Mn  Mn3  1  0.035945  0.200526  0.517267  1
  Mn  Mn4  1  0.715751  0.718773  0.696941  1
  Ag  Ag5  1  0.023595  0.503350  0.016907  1
  Ag  Ag6  1  0.291507  0.298752  0.301228  1
  Mo  Mo7  1  0.406215  0.739876  0.374349  1
  Mo  Mo8  1  0.593421  0.274491  0.632875  1
  Mo  Mo9  1  0.887857  0.898668  0.163436  1
  Mo  Mo10  1  0.107601  0.084342  0.828868  1
  Mo  Mo11  1  0.783230  0.337267  0.237195  1
  Mo  Mo12  1  0.220954  0.665656  0.763220  1
  O  O13  1  0.249356  0.807442  0.468526  1
  O  O14  1  0.750268  0.202115  0.540253  1
  O  O15  1  0.674705  0.958415  0.074241  1
  O  O16  1  0.323797  0.026374  0.914572  1
  O  O17  1  0.844885  0.687327  0.080734  1
  O  O18  1  0.147374  0.293275  0.915266  1
  O  O19  1  0.118029  0.002678  0.144824  1
  O  O20  1  0.868951  0.970202  0.838445  1
  O  O21  1  0.446750  0.858725  0.268330  1
  O  O22  1  0.581018  0.175675  0.757084  1
  O  O23  1  0.269886  0.532796  0.257755  1
  O  O24  1  0.701884  0.496291  0.720532  1
  O  O25  1  0.793212  0.293695  0.062409  1
  O  O26  1  0.226868  0.702822  0.940191  1
  O  O27  1  0.825823  0.551224  0.323563  1
  O  O28  1  0.165705  0.452214  0.675823  1
  O  O29  1  0.920609  0.940464  0.348000  1
  O  O30  1  0.074817  0.052447  0.647074  1
  O  O31  1  0.972579  0.272282  0.339142  1
  O  O32  1  0.018679  0.733010  0.671111  1
  O  O33  1  0.647463  0.751154  0.501311  1
  O  O34  1  0.342213  0.229766  0.511303  1
  O  O35  1  0.536157  0.219112  0.224080  1
  O  O36  1  0.467647  0.770319  0.760690  1
