# generated using pymatgen
data_Er3Ni6B2Ir
_symmetry_space_group_name_H-M   'P 1'
_cell_length_a   5.05601900
_cell_length_b   5.05601934
_cell_length_c   14.54437400
_cell_angle_alpha   90.00000000
_cell_angle_beta   90.00000000
_cell_angle_gamma   120.00000432
_symmetry_Int_Tables_number   1
_chemical_formula_structural   Er3Ni6B2Ir
_chemical_formula_sum   'Er6 Ni12 B4 Ir2'
_cell_volume   321.99050876
_cell_formula_units_Z   2
loop_
 _symmetry_equiv_pos_site_id
 _symmetry_equiv_pos_as_xyz
  1  'x, y, z'
loop_
 _atom_site_type_symbol
 _atom_site_label
 _atom_site_symmetry_multiplicity
 _atom_site_fract_x
 _atom_site_fract_y
 _atom_site_fract_z
 _atom_site_occupancy
  Er  Er0  1  0.333333  0.666667  0.468321  1
  Er  Er1  1  0.666667  0.333333  0.968321  1
  Er  Er2  1  0.666667  0.333333  0.531679  1
  Er  Er3  1  0.333333  0.666667  0.031679  1
  Er  Er4  1  0.666667  0.333333  0.750000  1
  Er  Er5  1  0.333333  0.666667  0.250000  1
  Ni  Ni6  1  0.834467  0.165533  0.348278  1
  Ni  Ni7  1  0.834467  0.668933  0.348278  1
  Ni  Ni8  1  0.834467  0.668933  0.151722  1
  Ni  Ni9  1  0.165533  0.834467  0.651722  1
  Ni  Ni10  1  0.668933  0.834467  0.651722  1
  Ni  Ni11  1  0.331067  0.165533  0.151722  1
  Ni  Ni12  1  0.834467  0.165533  0.151722  1
  Ni  Ni13  1  0.165533  0.331067  0.848278  1
  Ni  Ni14  1  0.165533  0.834467  0.848278  1
  Ni  Ni15  1  0.165533  0.331067  0.651722  1
  Ni  Ni16  1  0.668933  0.834467  0.848278  1
  Ni  Ni17  1  0.331067  0.165533  0.348278  1
  B  B18  1  0.666667  0.333333  0.250000  1
  B  B19  1  0.333333  0.666667  0.750000  1
  B  B20  1  0.000000  0.000000  0.750000  1
  B  B21  1  0.000000  0.000000  0.250000  1
  Ir  Ir22  1  0.000000  0.000000  0.000000  1
  Ir  Ir23  1  0.000000  0.000000  0.500000  1
