# generated using pymatgen
data_Ba2ZrCu2Se4S
_symmetry_space_group_name_H-M   'P 1'
_cell_length_a   4.14250519
_cell_length_b   7.36082905
_cell_length_c   9.24629153
_cell_angle_alpha   104.25048538
_cell_angle_beta   102.94461084
_cell_angle_gamma   106.34309161
_symmetry_Int_Tables_number   1
_chemical_formula_structural   Ba2ZrCu2Se4S
_chemical_formula_sum   'Ba2 Zr1 Cu2 Se4 S1'
_cell_volume   248.84532433
_cell_formula_units_Z   1
loop_
 _symmetry_equiv_pos_site_id
 _symmetry_equiv_pos_as_xyz
  1  'x, y, z'
loop_
 _atom_site_type_symbol
 _atom_site_label
 _atom_site_symmetry_multiplicity
 _atom_site_fract_x
 _atom_site_fract_y
 _atom_site_fract_z
 _atom_site_occupancy
  Ba  Ba0  1  0.476430  0.646390  0.306469  1
  Ba  Ba1  1  0.523570  0.353610  0.693531  1
  Zr  Zr2  1  0.000000  0.000000  0.000000  1
  Cu  Cu3  1  0.744474  0.194633  0.294315  1
  Cu  Cu4  1  0.255526  0.805367  0.705685  1
  Se  Se5  1  0.667179  0.281409  0.052949  1
  Se  Se6  1  0.157703  0.010052  0.305354  1
  Se  Se7  1  0.842297  0.989948  0.694647  1
  Se  Se8  1  0.332822  0.718593  0.947051  1
  S  S9  1  0.000001  0.500001  0.500000  1
