# generated using pymatgen
data_Sm2Co3Si2P5Ru9
_symmetry_space_group_name_H-M   'P 1'
_cell_length_a   9.38510204
_cell_length_b   9.41158330
_cell_length_c   3.85903000
_cell_angle_alpha   90.00000000
_cell_angle_beta   90.00000000
_cell_angle_gamma   119.91685579
_symmetry_Int_Tables_number   1
_chemical_formula_structural   Sm2Co3Si2P5Ru9
_chemical_formula_sum   'Sm2 Co3 Si2 P5 Ru9'
_cell_volume   295.44301406
_cell_formula_units_Z   1
loop_
 _symmetry_equiv_pos_site_id
 _symmetry_equiv_pos_as_xyz
  1  'x, y, z'
loop_
 _atom_site_type_symbol
 _atom_site_label
 _atom_site_symmetry_multiplicity
 _atom_site_fract_x
 _atom_site_fract_y
 _atom_site_fract_z
 _atom_site_occupancy
  Sm  Sm0  1  0.334684  0.666197  0.500000  1
  Sm  Sm1  1  0.000804  0.001166  0.000000  1
  Co  Co2  1  0.827487  0.606408  0.000000  1
  Co  Co3  1  0.390003  0.217584  0.000000  1
  Co  Co4  1  0.780764  0.174603  0.000000  1
  Si  Si5  1  0.778583  0.727814  0.500000  1
  Si  Si6  1  0.665677  0.334131  0.000000  1
  P  P7  1  0.271385  0.049538  0.500000  1
  P  P8  1  0.949176  0.222364  0.500000  1
  P  P9  1  0.077598  0.637423  0.000000  1
  P  P10  1  0.364054  0.439294  0.000000  1
  P  P11  1  0.561395  0.923433  0.000000  1
  Ru  Ru12  1  0.089435  0.394346  0.000000  1
  Ru  Ru13  1  0.604242  0.694984  0.000000  1
  Ru  Ru14  1  0.307466  0.911768  0.000000  1
  Ru  Ru15  1  0.056071  0.769491  0.500000  1
  Ru  Ru16  1  0.228402  0.279743  0.500000  1
  Ru  Ru17  1  0.718293  0.953048  0.500000  1
  Ru  Ru18  1  0.871237  0.421738  0.500000  1
  Ru  Ru19  1  0.573751  0.444359  0.500000  1
  Ru  Ru20  1  0.549492  0.130567  0.500000  1
