# generated using pymatgen
data_Zn20Ni5Pd
_symmetry_space_group_name_H-M   'P 1'
_cell_length_a   7.74620980
_cell_length_b   7.68476759
_cell_length_c   7.71712649
_cell_angle_alpha   71.05247033
_cell_angle_beta   70.57238199
_cell_angle_gamma   109.48595885
_symmetry_Int_Tables_number   1
_chemical_formula_structural   Zn20Ni5Pd
_chemical_formula_sum   'Zn20 Ni5 Pd1'
_cell_volume   356.01775980
_cell_formula_units_Z   1
loop_
 _symmetry_equiv_pos_site_id
 _symmetry_equiv_pos_as_xyz
  1  'x, y, z'
loop_
 _atom_site_type_symbol
 _atom_site_label
 _atom_site_symmetry_multiplicity
 _atom_site_fract_x
 _atom_site_fract_y
 _atom_site_fract_z
 _atom_site_occupancy
  Zn  Zn0  1  0.004989  0.009954  0.801649  1
  Zn  Zn1  1  0.769257  0.776137  0.230119  1
  Zn  Zn2  1  0.218537  0.004486  0.995509  1
  Zn  Zn3  1  0.998500  0.225612  0.996841  1
  Zn  Zn4  1  0.250884  0.245060  0.410130  1
  Zn  Zn5  1  0.016908  0.756653  0.638657  1
  Zn  Zn6  1  0.755032  0.009545  0.646693  1
  Zn  Zn7  1  0.652552  0.648578  0.627056  1
  Zn  Zn8  1  0.365055  0.636088  0.345794  1
  Zn  Zn9  1  0.632136  0.362865  0.354846  1
  Zn  Zn10  1  0.368104  0.754150  0.965242  1
  Zn  Zn11  1  0.617150  0.253046  0.721227  1
  Zn  Zn12  1  0.356737  0.006600  0.268041  1
  Zn  Zn13  1  0.734914  0.353313  0.967205  1
  Zn  Zn14  1  0.011594  0.350273  0.283376  1
  Zn  Zn15  1  0.271011  0.626007  0.708964  1
  Zn  Zn16  1  0.643086  0.646660  0.998956  1
  Zn  Zn17  1  0.997165  0.642385  0.366804  1
  Zn  Zn18  1  0.643497  0.003137  0.363363  1
  Zn  Zn19  1  0.349471  0.353360  0.008483  1
  Ni  Ni20  1  0.997536  0.353688  0.644293  1
  Ni  Ni21  1  0.352583  0.000150  0.643526  1
  Ni  Ni22  1  0.999632  0.998833  0.334519  1
  Ni  Ni23  1  0.351947  0.351720  0.658017  1
  Ni  Ni24  1  0.651383  0.991590  0.009183  1
  Pd  Pd25  1  0.990341  0.640109  0.011508  1
