# generated using pymatgen
data_Th2Mn5FeCo6P7
_symmetry_space_group_name_H-M   'P 1'
_cell_length_a   9.14708878
_cell_length_b   9.15702353
_cell_length_c   3.70903900
_cell_angle_alpha   90.00000000
_cell_angle_beta   90.00000000
_cell_angle_gamma   119.90187129
_symmetry_Int_Tables_number   1
_chemical_formula_structural   Th2Mn5FeCo6P7
_chemical_formula_sum   'Th2 Mn5 Fe1 Co6 P7'
_cell_volume   269.31332531
_cell_formula_units_Z   1
loop_
 _symmetry_equiv_pos_site_id
 _symmetry_equiv_pos_as_xyz
  1  'x, y, z'
loop_
 _atom_site_type_symbol
 _atom_site_label
 _atom_site_symmetry_multiplicity
 _atom_site_fract_x
 _atom_site_fract_y
 _atom_site_fract_z
 _atom_site_occupancy
  Th  Th0  1  0.333436  0.668809  0.000000  1
  Th  Th1  1  0.000309  0.000032  0.500000  1
  Mn  Mn2  1  0.939803  0.484742  0.000000  1
  Mn  Mn3  1  0.514324  0.456087  0.000000  1
  Mn  Mn4  1  0.780560  0.227889  0.500000  1
  Mn  Mn5  1  0.774176  0.555612  0.500000  1
  Mn  Mn6  1  0.444718  0.216886  0.500000  1
  Fe  Fe7  1  0.032919  0.272538  0.000000  1
  Co  Co8  1  0.729964  0.764532  0.000000  1
  Co  Co9  1  0.234634  0.963519  0.000000  1
  Co  Co10  1  0.547188  0.058016  0.000000  1
  Co  Co11  1  0.614427  0.895672  0.500000  1
  Co  Co12  1  0.104241  0.716566  0.500000  1
  Co  Co13  1  0.282995  0.385884  0.500000  1
  P  P14  1  0.771936  0.033065  0.000000  1
  P  P15  1  0.969710  0.738521  0.000000  1
  P  P16  1  0.260165  0.229908  0.000000  1
  P  P17  1  0.377272  0.939610  0.500000  1
  P  P18  1  0.065626  0.439670  0.500000  1
  P  P19  1  0.557739  0.622539  0.500000  1
  P  P20  1  0.663862  0.329900  0.000000  1
