# generated using pymatgen
data_Li3MgTa2(NiSb)6
_symmetry_space_group_name_H-M   'P 1'
_cell_length_a   7.30219234
_cell_length_b   7.32285220
_cell_length_c   7.32430352
_cell_angle_alpha   119.94804461
_cell_angle_beta   99.48984649
_cell_angle_gamma   99.62220283
_symmetry_Int_Tables_number   1
_chemical_formula_structural   Li3MgTa2(NiSb)6
_chemical_formula_sum   'Li3 Mg1 Ta2 Ni6 Sb6'
_cell_volume   320.13703608
_cell_formula_units_Z   1
loop_
 _symmetry_equiv_pos_site_id
 _symmetry_equiv_pos_as_xyz
  1  'x, y, z'
loop_
 _atom_site_type_symbol
 _atom_site_label
 _atom_site_symmetry_multiplicity
 _atom_site_fract_x
 _atom_site_fract_y
 _atom_site_fract_z
 _atom_site_occupancy
  Li  Li0  1  0.000195  0.503435  0.996881  1
  Li  Li1  1  0.499416  0.332042  0.168908  1
  Li  Li2  1  0.998641  0.166649  0.333827  1
  Mg  Mg3  1  0.500394  0.997315  0.503510  1
  Ta  Ta4  1  0.001408  0.832680  0.669180  1
  Ta  Ta5  1  0.501866  0.670199  0.832116  1
  Ni  Ni6  1  0.118818  0.192065  0.025898  1
  Ni  Ni7  1  0.618205  0.024771  0.193986  1
  Ni  Ni8  1  0.121629  0.874493  0.389964  1
  Ni  Ni9  1  0.635748  0.712854  0.556581  1
  Ni  Ni10  1  0.136018  0.557285  0.710506  1
  Ni  Ni11  1  0.617823  0.387002  0.871092  1
  Sb  Sb12  1  0.244094  0.919356  0.093432  1
  Sb  Sb13  1  0.752702  0.746487  0.248845  1
  Sb  Sb14  1  0.251075  0.568705  0.400806  1
  Sb  Sb15  1  0.756305  0.407173  0.574622  1
  Sb  Sb16  1  0.245729  0.256905  0.753072  1
  Sb  Sb17  1  0.749933  0.100589  0.926779  1
