# generated using pymatgen
data_Th5ZrRh10
_symmetry_space_group_name_H-M   'P 1'
_cell_length_a   5.95141101
_cell_length_b   5.95141208
_cell_length_c   9.20128900
_cell_angle_alpha   90.00000000
_cell_angle_beta   90.00000000
_cell_angle_gamma   103.93851522
_symmetry_Int_Tables_number   1
_chemical_formula_structural   Th5ZrRh10
_chemical_formula_sum   'Th5 Zr1 Rh10'
_cell_volume   316.30691669
_cell_formula_units_Z   1
loop_
 _symmetry_equiv_pos_site_id
 _symmetry_equiv_pos_as_xyz
  1  'x, y, z'
loop_
 _atom_site_type_symbol
 _atom_site_label
 _atom_site_symmetry_multiplicity
 _atom_site_fract_x
 _atom_site_fract_y
 _atom_site_fract_z
 _atom_site_occupancy
  Th  Th0  1  0.619248  0.619248  0.750000  1
  Th  Th1  1  0.790347  0.200623  0.495689  1
  Th  Th2  1  0.200623  0.790347  0.004311  1
  Th  Th3  1  0.200623  0.790347  0.495689  1
  Th  Th4  1  0.790347  0.200623  0.004311  1
  Zr  Zr5  1  0.387703  0.387703  0.250000  1
  Rh  Rh6  1  0.682871  0.682871  0.062001  1
  Rh  Rh7  1  0.682871  0.682871  0.437999  1
  Rh  Rh8  1  0.304018  0.304018  0.961652  1
  Rh  Rh9  1  0.304018  0.304018  0.538348  1
  Rh  Rh10  1  0.500406  0.051560  0.750000  1
  Rh  Rh11  1  0.498031  0.972265  0.250000  1
  Rh  Rh12  1  0.998717  0.998717  0.250000  1
  Rh  Rh13  1  0.016350  0.016350  0.750000  1
  Rh  Rh14  1  0.051560  0.500406  0.750000  1
  Rh  Rh15  1  0.972265  0.498031  0.250000  1
