# generated using pymatgen
data_Er8Hf12Si15Rh
_symmetry_space_group_name_H-M   'P 1'
_cell_length_a   7.27288681
_cell_length_b   7.24886528
_cell_length_c   13.34317601
_cell_angle_alpha   90.12024563
_cell_angle_beta   89.90375804
_cell_angle_gamma   89.90976119
_symmetry_Int_Tables_number   1
_chemical_formula_structural   Er8Hf12Si15Rh
_chemical_formula_sum   'Er8 Hf12 Si15 Rh1'
_cell_volume   703.45117946
_cell_formula_units_Z   1
loop_
 _symmetry_equiv_pos_site_id
 _symmetry_equiv_pos_as_xyz
  1  'x, y, z'
loop_
 _atom_site_type_symbol
 _atom_site_label
 _atom_site_symmetry_multiplicity
 _atom_site_fract_x
 _atom_site_fract_y
 _atom_site_fract_z
 _atom_site_occupancy
  Er  Er0  1  0.496769  0.155124  0.535156  1
  Er  Er1  1  0.500123  0.841853  0.034104  1
  Er  Er2  1  0.655344  0.003900  0.286258  1
  Er  Er3  1  0.343724  0.995663  0.783392  1
  Er  Er4  1  0.848637  0.503986  0.964704  1
  Er  Er5  1  0.154434  0.494800  0.464844  1
  Er  Er6  1  0.003370  0.655466  0.715458  1
  Er  Er7  1  0.995095  0.342816  0.213337  1
  Hf  Hf8  1  0.675989  0.324868  0.748951  1
  Hf  Hf9  1  0.325468  0.672915  0.250386  1
  Hf  Hf10  1  0.824815  0.824587  0.500308  1
  Hf  Hf11  1  0.174951  0.175405  0.001247  1
  Hf  Hf12  1  0.505096  0.348448  0.123389  1
  Hf  Hf13  1  0.503434  0.648237  0.625649  1
  Hf  Hf14  1  0.848355  0.006680  0.877272  1
  Hf  Hf15  1  0.149100  0.996795  0.375281  1
  Hf  Hf16  1  0.647514  0.502281  0.375869  1
  Hf  Hf17  1  0.349674  0.501213  0.873084  1
  Hf  Hf18  1  0.002395  0.856399  0.128851  1
  Hf  Hf19  1  0.996705  0.146567  0.623987  1
  Si  Si20  1  0.205681  0.859712  0.568914  1
  Si  Si21  1  0.640198  0.704068  0.817449  1
  Si  Si22  1  0.359897  0.295450  0.317250  1
  Si  Si23  1  0.860167  0.203763  0.433050  1
  Si  Si24  1  0.140554  0.797212  0.932017  1
  Si  Si25  1  0.700258  0.641814  0.184574  1
  Si  Si26  1  0.294891  0.360114  0.681491  1
  Si  Si27  1  0.544949  0.207899  0.932617  1
  Si  Si28  1  0.450681  0.795541  0.436082  1
  Si  Si29  1  0.703732  0.951252  0.685646  1
  Si  Si30  1  0.298487  0.049431  0.187649  1
  Si  Si31  1  0.797367  0.451662  0.564569  1
  Si  Si32  1  0.207256  0.550899  0.063751  1
  Si  Si33  1  0.950575  0.702830  0.315896  1
  Si  Si34  1  0.050323  0.295758  0.812033  1
  Rh  Rh35  1  0.793992  0.134591  0.065484  1
