# generated using pymatgen
data_Ho4Cu3Ni11
_symmetry_space_group_name_H-M   'P 1'
_cell_length_a   4.95242343
_cell_length_b   4.95242451
_cell_length_c   12.40372902
_cell_angle_alpha   78.48441883
_cell_angle_beta   78.48441570
_cell_angle_gamma   60.00000738
_symmetry_Int_Tables_number   1
_chemical_formula_structural   Ho4Cu3Ni11
_chemical_formula_sum   'Ho4 Cu3 Ni11'
_cell_volume   256.36680156
_cell_formula_units_Z   1
loop_
 _symmetry_equiv_pos_site_id
 _symmetry_equiv_pos_as_xyz
  1  'x, y, z'
loop_
 _atom_site_type_symbol
 _atom_site_label
 _atom_site_symmetry_multiplicity
 _atom_site_fract_x
 _atom_site_fract_y
 _atom_site_fract_z
 _atom_site_occupancy
  Ho  Ho0  1  0.951206  0.951206  0.146381  1
  Ho  Ho1  1  0.050662  0.050662  0.848015  1
  Ho  Ho2  1  0.852991  0.852991  0.441027  1
  Ho  Ho3  1  0.147139  0.147139  0.558584  1
  Cu  Cu4  1  0.721991  0.721991  0.834028  1
  Cu  Cu5  1  0.277747  0.277747  0.166759  1
  Cu  Cu6  1  0.611013  0.611013  0.166962  1
  Ni  Ni7  1  0.499889  0.499889  0.500332  1
  Ni  Ni8  1  0.388593  0.388593  0.834221  1
  Ni  Ni9  1  0.001148  0.499602  0.999647  1
  Ni  Ni10  1  0.499602  0.001148  0.999647  1
  Ni  Ni11  1  0.499602  0.499602  0.999647  1
  Ni  Ni12  1  0.388231  0.388231  0.333111  1
  Ni  Ni13  1  0.890428  0.388231  0.333111  1
  Ni  Ni14  1  0.388231  0.890428  0.333111  1
  Ni  Ni15  1  0.610810  0.610810  0.668473  1
  Ni  Ni16  1  0.109907  0.610810  0.668473  1
  Ni  Ni17  1  0.610810  0.109907  0.668473  1
