# generated using pymatgen
data_Pr8Er(IrO8)3
_symmetry_space_group_name_H-M   'P 1'
_cell_length_a   5.53483760
_cell_length_b   9.50280636
_cell_length_c   10.40723746
_cell_angle_alpha   89.18022189
_cell_angle_beta   90.19166468
_cell_angle_gamma   90.54073716
_symmetry_Int_Tables_number   1
_chemical_formula_structural   Pr8Er(IrO8)3
_chemical_formula_sum   'Pr8 Er1 Ir3 O24'
_cell_volume   547.30093693
_cell_formula_units_Z   1
loop_
 _symmetry_equiv_pos_site_id
 _symmetry_equiv_pos_as_xyz
  1  'x, y, z'
loop_
 _atom_site_type_symbol
 _atom_site_label
 _atom_site_symmetry_multiplicity
 _atom_site_fract_x
 _atom_site_fract_y
 _atom_site_fract_z
 _atom_site_occupancy
  Pr  Pr0  1  0.041850  0.216956  0.130141  1
  Pr  Pr1  1  0.465199  0.765776  0.633962  1
  Pr  Pr2  1  0.965990  0.716419  0.375611  1
  Pr  Pr3  1  0.527171  0.288861  0.853932  1
  Pr  Pr4  1  0.040739  0.115032  0.538556  1
  Pr  Pr5  1  0.474506  0.900013  0.036941  1
  Pr  Pr6  1  0.985505  0.604011  0.960929  1
  Pr  Pr7  1  0.515055  0.408355  0.463699  1
  Er  Er8  1  0.029497  0.485917  0.650372  1
  Ir  Ir9  1  0.549039  0.000484  0.354257  1
  Ir  Ir10  1  0.957774  0.999610  0.857893  1
  Ir  Ir11  1  0.460934  0.502883  0.144754  1
  O  O12  1  0.439120  0.153349  0.452719  1
  O  O13  1  0.060637  0.855946  0.983149  1
  O  O14  1  0.566393  0.650542  0.029395  1
  O  O15  1  0.900180  0.332639  0.503713  1
  O  O16  1  0.720404  0.388878  0.083436  1
  O  O17  1  0.751692  0.616471  0.548735  1
  O  O18  1  0.283084  0.894726  0.432113  1
  O  O19  1  0.219729  0.109433  0.937236  1
  O  O20  1  0.257558  0.410007  0.009520  1
  O  O21  1  0.251385  0.603447  0.504015  1
  O  O22  1  0.752502  0.920223  0.491981  1
  O  O23  1  0.750623  0.091082  0.990626  1
  O  O24  1  0.195278  0.626454  0.181519  1
  O  O25  1  0.323176  0.322600  0.662211  1
  O  O26  1  0.823281  0.115396  0.309785  1
  O  O27  1  0.691390  0.874537  0.826351  1
  O  O28  1  0.348798  0.056379  0.209654  1
  O  O29  1  0.160814  0.944865  0.723183  1
  O  O30  1  0.658770  0.563579  0.280569  1
  O  O31  1  0.794876  0.462307  0.814973  1
  O  O32  1  0.321157  0.363292  0.256414  1
  O  O33  1  0.216827  0.641215  0.778399  1
  O  O34  1  0.660914  0.855033  0.244596  1
  O  O35  1  0.838150  0.143281  0.744665  1
