# generated using pymatgen
data_Yb4Tc3NiO12
_symmetry_space_group_name_H-M   'P 1'
_cell_length_a   5.30804257
_cell_length_b   5.59970513
_cell_length_c   7.65365445
_cell_angle_alpha   89.54445383
_cell_angle_beta   89.43004414
_cell_angle_gamma   89.90190625
_symmetry_Int_Tables_number   1
_chemical_formula_structural   Yb4Tc3NiO12
_chemical_formula_sum   'Yb4 Tc3 Ni1 O12'
_cell_volume   227.47444403
_cell_formula_units_Z   1
loop_
 _symmetry_equiv_pos_site_id
 _symmetry_equiv_pos_as_xyz
  1  'x, y, z'
loop_
 _atom_site_type_symbol
 _atom_site_label
 _atom_site_symmetry_multiplicity
 _atom_site_fract_x
 _atom_site_fract_y
 _atom_site_fract_z
 _atom_site_occupancy
  Yb  Yb0  1  0.518870  0.926516  0.760721  1
  Yb  Yb1  1  0.018761  0.561703  0.242795  1
  Yb  Yb2  1  0.981239  0.438297  0.757205  1
  Yb  Yb3  1  0.481130  0.073484  0.239279  1
  Tc  Tc4  1  0.500000  0.500000  0.500000  1
  Tc  Tc5  1  0.000000  0.000000  0.500000  1
  Tc  Tc6  1  0.000000  0.000000  0.000000  1
  Ni  Ni7  1  0.500000  0.500000  0.000000  1
  O  O8  1  0.198713  0.296702  0.447895  1
  O  O9  1  0.697052  0.202627  0.553766  1
  O  O10  1  0.297863  0.810639  0.046382  1
  O  O11  1  0.815288  0.708413  0.950178  1
  O  O12  1  0.801287  0.703298  0.552105  1
  O  O13  1  0.302948  0.797373  0.446234  1
  O  O14  1  0.702137  0.189361  0.953618  1
  O  O15  1  0.184712  0.291587  0.049822  1
  O  O16  1  0.603046  0.469102  0.254714  1
  O  O17  1  0.102833  0.032838  0.749883  1
  O  O18  1  0.897167  0.967162  0.250117  1
  O  O19  1  0.396954  0.530898  0.745286  1
