# generated using pymatgen
data_Er4AlNi
_symmetry_space_group_name_H-M   'P 1'
_cell_length_a   9.35522121
_cell_length_b   9.35522056
_cell_length_c   9.35522000
_cell_angle_alpha   59.99999490
_cell_angle_beta   59.99999721
_cell_angle_gamma   59.99999379
_symmetry_Int_Tables_number   1
_chemical_formula_structural   Er4AlNi
_chemical_formula_sum   'Er16 Al4 Ni4'
_cell_volume   578.95799139
_cell_formula_units_Z   4
loop_
 _symmetry_equiv_pos_site_id
 _symmetry_equiv_pos_as_xyz
  1  'x, y, z'
loop_
 _atom_site_type_symbol
 _atom_site_label
 _atom_site_symmetry_multiplicity
 _atom_site_fract_x
 _atom_site_fract_y
 _atom_site_fract_z
 _atom_site_occupancy
  Er  Er0  1  0.186085  0.813915  0.813915  1
  Er  Er1  1  0.813915  0.186085  0.186085  1
  Er  Er2  1  0.813915  0.186085  0.813915  1
  Er  Er3  1  0.186085  0.813915  0.186085  1
  Er  Er4  1  0.813915  0.813915  0.186085  1
  Er  Er5  1  0.186085  0.186085  0.813915  1
  Er  Er6  1  0.600515  0.600515  0.600515  1
  Er  Er7  1  0.600515  0.600515  0.198454  1
  Er  Er8  1  0.600515  0.198454  0.600515  1
  Er  Er9  1  0.198454  0.600515  0.600515  1
  Er  Er10  1  0.059116  0.440884  0.440884  1
  Er  Er11  1  0.440884  0.059116  0.059116  1
  Er  Er12  1  0.440884  0.059116  0.440884  1
  Er  Er13  1  0.059116  0.440884  0.059116  1
  Er  Er14  1  0.440884  0.440884  0.059116  1
  Er  Er15  1  0.059116  0.059116  0.440884  1
  Al  Al16  1  0.827587  0.827587  0.827587  1
  Al  Al17  1  0.827587  0.827587  0.517237  1
  Al  Al18  1  0.827587  0.517237  0.827587  1
  Al  Al19  1  0.517237  0.827587  0.827587  1
  Ni  Ni20  1  0.392362  0.392362  0.392362  1
  Ni  Ni21  1  0.392362  0.392362  0.822913  1
  Ni  Ni22  1  0.392362  0.822913  0.392362  1
  Ni  Ni23  1  0.822913  0.392362  0.392362  1
