# generated using pymatgen
data_Y20Tl3Hg3Ru2
_symmetry_space_group_name_H-M   'P 1'
_cell_length_a   9.76088700
_cell_length_b   9.76088579
_cell_length_c   9.73306900
_cell_angle_alpha   90.00000000
_cell_angle_beta   90.00000000
_cell_angle_gamma   120.00000070
_symmetry_Int_Tables_number   1
_chemical_formula_structural   Y20Tl3Hg3Ru2
_chemical_formula_sum   'Y20 Tl3 Hg3 Ru2'
_cell_volume   803.08025313
_cell_formula_units_Z   1
loop_
 _symmetry_equiv_pos_site_id
 _symmetry_equiv_pos_as_xyz
  1  'x, y, z'
loop_
 _atom_site_type_symbol
 _atom_site_label
 _atom_site_symmetry_multiplicity
 _atom_site_fract_x
 _atom_site_fract_y
 _atom_site_fract_z
 _atom_site_occupancy
  Y  Y0  1  0.000000  0.000000  0.481759  1
  Y  Y1  1  0.000000  0.000000  0.018241  1
  Y  Y2  1  0.209700  0.790300  0.437536  1
  Y  Y3  1  0.209700  0.419400  0.437536  1
  Y  Y4  1  0.580600  0.790300  0.437536  1
  Y  Y5  1  0.790129  0.209871  0.560812  1
  Y  Y6  1  0.790129  0.580257  0.560812  1
  Y  Y7  1  0.419743  0.209871  0.560812  1
  Y  Y8  1  0.790129  0.209871  0.939188  1
  Y  Y9  1  0.790129  0.580257  0.939188  1
  Y  Y10  1  0.419743  0.209871  0.939188  1
  Y  Y11  1  0.209700  0.790300  0.062464  1
  Y  Y12  1  0.209700  0.419400  0.062464  1
  Y  Y13  1  0.580600  0.790300  0.062464  1
  Y  Y14  1  0.541048  0.458952  0.250000  1
  Y  Y15  1  0.541048  0.082096  0.250000  1
  Y  Y16  1  0.917904  0.458952  0.250000  1
  Y  Y17  1  0.460778  0.539222  0.750000  1
  Y  Y18  1  0.460778  0.921556  0.750000  1
  Y  Y19  1  0.078444  0.539222  0.750000  1
  Tl  Tl20  1  0.115369  0.884631  0.750000  1
  Tl  Tl21  1  0.115369  0.230738  0.750000  1
  Tl  Tl22  1  0.769262  0.884631  0.750000  1
  Hg  Hg23  1  0.876255  0.123745  0.250000  1
  Hg  Hg24  1  0.876255  0.752512  0.250000  1
  Hg  Hg25  1  0.247488  0.123745  0.250000  1
  Ru  Ru26  1  0.333333  0.666667  0.250000  1
  Ru  Ru27  1  0.666667  0.333333  0.750000  1
