# generated using pymatgen
data_Tm12Ni3Ru2Pb
_symmetry_space_group_name_H-M   'P 1'
_cell_length_a   8.23223253
_cell_length_b   8.23223117
_cell_length_c   8.23223100
_cell_angle_alpha   110.20457878
_cell_angle_beta   112.08129212
_cell_angle_gamma   106.18293448
_symmetry_Int_Tables_number   1
_chemical_formula_structural   Tm12Ni3Ru2Pb
_chemical_formula_sum   'Tm12 Ni3 Ru2 Pb1'
_cell_volume   428.29262730
_cell_formula_units_Z   1
loop_
 _symmetry_equiv_pos_site_id
 _symmetry_equiv_pos_as_xyz
  1  'x, y, z'
loop_
 _atom_site_type_symbol
 _atom_site_label
 _atom_site_symmetry_multiplicity
 _atom_site_fract_x
 _atom_site_fract_y
 _atom_site_fract_z
 _atom_site_occupancy
  Tm  Tm0  1  0.276323  0.181575  0.457899  1
  Tm  Tm1  1  0.720248  0.822628  0.542875  1
  Tm  Tm2  1  0.279752  0.822628  0.102380  1
  Tm  Tm3  1  0.723677  0.181575  0.905253  1
  Tm  Tm4  1  0.631891  0.319204  0.308052  1
  Tm  Tm5  1  0.368109  0.676159  0.687313  1
  Tm  Tm6  1  0.011153  0.319204  0.687313  1
  Tm  Tm7  1  0.988847  0.676159  0.308052  1
  Tm  Tm8  1  0.224870  0.411659  0.186791  1
  Tm  Tm9  1  0.778692  0.586827  0.808134  1
  Tm  Tm10  1  0.221308  0.029442  0.808134  1
  Tm  Tm11  1  0.775130  0.961921  0.186791  1
  Ni  Ni12  1  0.000000  0.652789  0.652789  1
  Ni  Ni13  1  0.382386  0.887023  0.504637  1
  Ni  Ni14  1  0.617614  0.122251  0.504637  1
  Ru  Ru15  1  0.000000  0.350230  0.350230  1
  Ru  Ru16  1  0.000000  0.998811  0.998811  1
  Pb  Pb17  1  0.500000  0.499908  0.999908  1
