# generated using pymatgen
data_Th4BeCoB20
_symmetry_space_group_name_H-M   'P 1'
_cell_length_a   4.16885100
_cell_length_b   5.60892248
_cell_length_c   11.14268351
_cell_angle_alpha   89.62698603
_cell_angle_beta   90.00000000
_cell_angle_gamma   90.00000000
_symmetry_Int_Tables_number   1
_chemical_formula_structural   Th4BeCoB20
_chemical_formula_sum   'Th4 Be1 Co1 B20'
_cell_volume   260.54119593
_cell_formula_units_Z   1
loop_
 _symmetry_equiv_pos_site_id
 _symmetry_equiv_pos_as_xyz
  1  'x, y, z'
loop_
 _atom_site_type_symbol
 _atom_site_label
 _atom_site_symmetry_multiplicity
 _atom_site_fract_x
 _atom_site_fract_y
 _atom_site_fract_z
 _atom_site_occupancy
  Th  Th0  1  0.500000  0.301383  0.864095  1
  Th  Th1  1  0.500000  0.698617  0.135905  1
  Th  Th2  1  0.500000  0.800192  0.633323  1
  Th  Th3  1  0.500000  0.199808  0.366677  1
  Be  Be4  1  0.000000  0.500000  0.500000  1
  Co  Co5  1  0.000000  0.000000  0.000000  1
  B  B6  1  0.000000  0.127618  0.539158  1
  B  B7  1  0.000000  0.872382  0.460842  1
  B  B8  1  0.000000  0.627574  0.960308  1
  B  B9  1  0.000000  0.372426  0.039692  1
  B  B10  1  0.000000  0.156067  0.695932  1
  B  B11  1  0.000000  0.843933  0.304068  1
  B  B12  1  0.300010  0.201387  0.113999  1
  B  B13  1  0.300010  0.798613  0.886001  1
  B  B14  1  0.699617  0.699784  0.388822  1
  B  B15  1  0.699617  0.300216  0.611178  1
  B  B16  1  0.699990  0.798613  0.886001  1
  B  B17  1  0.699990  0.201387  0.113999  1
  B  B18  1  0.300383  0.300216  0.611178  1
  B  B19  1  0.300383  0.699784  0.388822  1
  B  B20  1  0.000000  0.033518  0.188323  1
  B  B21  1  0.000000  0.966482  0.811677  1
  B  B22  1  0.000000  0.532235  0.314897  1
  B  B23  1  0.000000  0.467765  0.685103  1
  B  B24  1  0.000000  0.346120  0.198301  1
  B  B25  1  0.000000  0.653880  0.801699  1
