# generated using pymatgen
data_Ta4BeFe(CoP)3
_symmetry_space_group_name_H-M   'P 1'
_cell_length_a   3.55519000
_cell_length_b   6.08956081
_cell_length_c   6.95202256
_cell_angle_alpha   90.23064784
_cell_angle_beta   90.00000000
_cell_angle_gamma   90.00000000
_symmetry_Int_Tables_number   1
_chemical_formula_structural   Ta4BeFe(CoP)3
_chemical_formula_sum   'Ta4 Be1 Fe1 Co3 P3'
_cell_volume   150.50691059
_cell_formula_units_Z   1
loop_
 _symmetry_equiv_pos_site_id
 _symmetry_equiv_pos_as_xyz
  1  'x, y, z'
loop_
 _atom_site_type_symbol
 _atom_site_label
 _atom_site_symmetry_multiplicity
 _atom_site_fract_x
 _atom_site_fract_y
 _atom_site_fract_z
 _atom_site_occupancy
  Ta  Ta0  1  0.250000  0.027161  0.828090  1
  Ta  Ta1  1  0.250000  0.523202  0.676447  1
  Ta  Ta2  1  0.750000  0.986302  0.176082  1
  Ta  Ta3  1  0.750000  0.469980  0.316617  1
  Be  Be4  1  0.250000  0.273716  0.119277  1
  Fe  Fe5  1  0.750000  0.857094  0.562642  1
  Co  Co6  1  0.250000  0.141158  0.439341  1
  Co  Co7  1  0.250000  0.642451  0.063342  1
  Co  Co8  1  0.750000  0.359249  0.938020  1
  P  P9  1  0.250000  0.772054  0.378158  1
  P  P10  1  0.750000  0.724107  0.881365  1
  P  P11  1  0.750000  0.223525  0.620620  1
