# generated using pymatgen
data_Ho5Co16Tc3Ge7P5
_symmetry_space_group_name_H-M   'P 1'
_cell_length_a   12.30969510
_cell_length_b   12.30969545
_cell_length_c   3.77824300
_cell_angle_alpha   90.00000000
_cell_angle_beta   90.00000000
_cell_angle_gamma   120.14682439
_symmetry_Int_Tables_number   1
_chemical_formula_structural   Ho5Co16Tc3Ge7P5
_chemical_formula_sum   'Ho5 Co16 Tc3 Ge7 P5'
_cell_volume   495.07464028
_cell_formula_units_Z   1
loop_
 _symmetry_equiv_pos_site_id
 _symmetry_equiv_pos_as_xyz
  1  'x, y, z'
loop_
 _atom_site_type_symbol
 _atom_site_label
 _atom_site_symmetry_multiplicity
 _atom_site_fract_x
 _atom_site_fract_y
 _atom_site_fract_z
 _atom_site_occupancy
  Ho  Ho0  1  0.667673  0.333330  0.000000  1
  Ho  Ho1  1  0.333330  0.667673  0.000000  1
  Ho  Ho2  1  0.815052  0.815052  0.500000  1
  Ho  Ho3  1  0.184942  0.997003  0.500000  1
  Ho  Ho4  1  0.997003  0.184942  0.500000  1
  Co  Co5  1  0.881919  0.353142  0.500000  1
  Co  Co6  1  0.647594  0.529797  0.500000  1
  Co  Co7  1  0.471923  0.116938  0.500000  1
  Co  Co8  1  0.353142  0.881919  0.500000  1
  Co  Co9  1  0.529797  0.647594  0.500000  1
  Co  Co10  1  0.116938  0.471923  0.500000  1
  Co  Co11  1  0.810832  0.178218  0.000000  1
  Co  Co12  1  0.821479  0.631971  0.000000  1
  Co  Co13  1  0.374281  0.189587  0.000000  1
  Co  Co14  1  0.178218  0.810832  0.000000  1
  Co  Co15  1  0.631971  0.821479  0.000000  1
  Co  Co16  1  0.189587  0.374281  0.000000  1
  Co  Co17  1  0.280221  0.280221  0.500000  1
  Co  Co18  1  0.727180  0.000029  0.500000  1
  Co  Co19  1  0.000029  0.727180  0.500000  1
  Co  Co20  1  0.989373  0.989373  0.000000  1
  Tc  Tc21  1  0.446305  0.446305  0.000000  1
  Tc  Tc22  1  0.554076  0.999663  0.000000  1
  Tc  Tc23  1  0.999663  0.554076  0.000000  1
  Ge  Ge24  1  0.683351  0.163688  0.500000  1
  Ge  Ge25  1  0.836187  0.519285  0.500000  1
  Ge  Ge26  1  0.482493  0.316877  0.500000  1
  Ge  Ge27  1  0.163688  0.683351  0.500000  1
  Ge  Ge28  1  0.519285  0.836187  0.500000  1
  Ge  Ge29  1  0.316877  0.482493  0.500000  1
  Ge  Ge30  1  0.176801  0.176801  0.000000  1
  P  P31  1  0.818230  0.999502  0.000000  1
  P  P32  1  0.999502  0.818230  0.000000  1
  P  P33  1  0.636446  0.636446  0.000000  1
  P  P34  1  0.364672  0.999940  0.000000  1
  P  P35  1  0.999940  0.364672  0.000000  1
