# generated using pymatgen
data_Tb2Mo3P7Rh9
_symmetry_space_group_name_H-M   'P 1'
_cell_length_a   3.93870027
_cell_length_b   9.53190508
_cell_length_c   9.53119704
_cell_angle_alpha   119.99815822
_cell_angle_beta   90.04824945
_cell_angle_gamma   89.93650807
_symmetry_Int_Tables_number   1
_chemical_formula_structural   Tb2Mo3P7Rh9
_chemical_formula_sum   'Tb2 Mo3 P7 Rh9'
_cell_volume   309.89779844
_cell_formula_units_Z   1
loop_
 _symmetry_equiv_pos_site_id
 _symmetry_equiv_pos_as_xyz
  1  'x, y, z'
loop_
 _atom_site_type_symbol
 _atom_site_label
 _atom_site_symmetry_multiplicity
 _atom_site_fract_x
 _atom_site_fract_y
 _atom_site_fract_z
 _atom_site_occupancy
  Tb  Tb0  1  0.260855  0.666602  0.333240  1
  Tb  Tb1  1  0.762404  0.333376  0.666715  1
  Mo  Mo2  1  0.762346  0.091675  0.870669  1
  Mo  Mo3  1  0.762240  0.129410  0.221276  1
  Mo  Mo4  1  0.762281  0.778833  0.908151  1
  P  P5  1  0.262604  0.000007  0.999932  1
  P  P6  1  0.761629  0.882381  0.593899  1
  P  P7  1  0.761562  0.406051  0.288459  1
  P  P8  1  0.761527  0.711526  0.117540  1
  P  P9  1  0.262118  0.117998  0.411231  1
  P  P10  1  0.262099  0.588838  0.706855  1
  P  P11  1  0.262027  0.293210  0.882071  1
  Rh  Rh12  1  0.261728  0.884671  0.159422  1
  Rh  Rh13  1  0.261777  0.840501  0.725058  1
  Rh  Rh14  1  0.261715  0.274978  0.115522  1
  Rh  Rh15  1  0.761831  0.613303  0.558763  1
  Rh  Rh16  1  0.761827  0.441038  0.054370  1
  Rh  Rh17  1  0.761757  0.945486  0.386652  1
  Rh  Rh18  1  0.261881  0.371818  0.439562  1
  Rh  Rh19  1  0.261901  0.560586  0.932380  1
  Rh  Rh20  1  0.261891  0.067710  0.628234  1
