# generated using pymatgen
data_Hf2Zr2SiP3Ir4
_symmetry_space_group_name_H-M   'P 1'
_cell_length_a   3.86525100
_cell_length_b   6.52818411
_cell_length_c   7.43307610
_cell_angle_alpha   90.24072961
_cell_angle_beta   90.00000000
_cell_angle_gamma   90.00000000
_symmetry_Int_Tables_number   1
_chemical_formula_structural   Hf2Zr2SiP3Ir4
_chemical_formula_sum   'Hf2 Zr2 Si1 P3 Ir4'
_cell_volume   187.55767505
_cell_formula_units_Z   1
loop_
 _symmetry_equiv_pos_site_id
 _symmetry_equiv_pos_as_xyz
  1  'x, y, z'
loop_
 _atom_site_type_symbol
 _atom_site_label
 _atom_site_symmetry_multiplicity
 _atom_site_fract_x
 _atom_site_fract_y
 _atom_site_fract_z
 _atom_site_occupancy
  Hf  Hf0  1  0.250000  0.023798  0.325092  1
  Hf  Hf1  1  0.250000  0.527261  0.177519  1
  Zr  Zr2  1  0.750000  0.975976  0.677275  1
  Zr  Zr3  1  0.750000  0.476392  0.819852  1
  Si  Si4  1  0.750000  0.232105  0.121086  1
  P  P5  1  0.250000  0.263270  0.623261  1
  P  P6  1  0.250000  0.766814  0.878043  1
  P  P7  1  0.750000  0.737152  0.377801  1
  Ir  Ir8  1  0.250000  0.144329  0.940212  1
  Ir  Ir9  1  0.250000  0.646709  0.559689  1
  Ir  Ir10  1  0.750000  0.852086  0.067253  1
  Ir  Ir11  1  0.750000  0.354107  0.432916  1
