# generated using pymatgen
data_Tb5Y5Si5As
_symmetry_space_group_name_H-M   'P 1'
_cell_length_a   8.49568376
_cell_length_b   8.49568303
_cell_length_c   6.36341400
_cell_angle_alpha   90.00000000
_cell_angle_beta   90.00000000
_cell_angle_gamma   120.15046520
_symmetry_Int_Tables_number   1
_chemical_formula_structural   Tb5Y5Si5As
_chemical_formula_sum   'Tb5 Y5 Si5 As1'
_cell_volume   397.15220553
_cell_formula_units_Z   1
loop_
 _symmetry_equiv_pos_site_id
 _symmetry_equiv_pos_as_xyz
  1  'x, y, z'
loop_
 _atom_site_type_symbol
 _atom_site_label
 _atom_site_symmetry_multiplicity
 _atom_site_fract_x
 _atom_site_fract_y
 _atom_site_fract_z
 _atom_site_occupancy
  Tb  Tb0  1  0.667098  0.329877  0.251100  1
  Tb  Tb1  1  0.329877  0.667098  0.251100  1
  Tb  Tb2  1  0.329877  0.667098  0.748900  1
  Tb  Tb3  1  0.667098  0.329877  0.748900  1
  Tb  Tb4  1  0.755792  0.755792  0.500000  1
  Y  Y5  1  0.243996  0.000212  0.500000  1
  Y  Y6  1  0.000212  0.243996  0.500000  1
  Y  Y7  1  0.243308  0.243308  0.000000  1
  Y  Y8  1  0.757524  0.003323  0.000000  1
  Y  Y9  1  0.003323  0.757524  0.000000  1
  Si  Si10  1  0.391811  0.391811  0.500000  1
  Si  Si11  1  0.606815  0.999041  0.500000  1
  Si  Si12  1  0.999041  0.606815  0.500000  1
  Si  Si13  1  0.393526  0.000308  0.000000  1
  Si  Si14  1  0.000308  0.393526  0.000000  1
  As  As15  1  0.610445  0.610445  0.000000  1
