# generated using pymatgen
data_Ho8Zr12Si15Ir
_symmetry_space_group_name_H-M   'P 1'
_cell_length_a   7.33038133
_cell_length_b   7.32601422
_cell_length_c   13.50590213
_cell_angle_alpha   89.82746118
_cell_angle_beta   89.80023675
_cell_angle_gamma   90.06395626
_symmetry_Int_Tables_number   1
_chemical_formula_structural   Ho8Zr12Si15Ir
_chemical_formula_sum   'Ho8 Zr12 Si15 Ir1'
_cell_volume   725.29225268
_cell_formula_units_Z   1
loop_
 _symmetry_equiv_pos_site_id
 _symmetry_equiv_pos_as_xyz
  1  'x, y, z'
loop_
 _atom_site_type_symbol
 _atom_site_label
 _atom_site_symmetry_multiplicity
 _atom_site_fract_x
 _atom_site_fract_y
 _atom_site_fract_z
 _atom_site_occupancy
  Ho  Ho0  1  0.343018  0.002237  0.463847  1
  Ho  Ho1  1  0.499683  0.843906  0.714737  1
  Ho  Ho2  1  0.502279  0.155118  0.214081  1
  Ho  Ho3  1  0.845529  0.496093  0.286050  1
  Ho  Ho4  1  0.152289  0.503842  0.786376  1
  Ho  Ho5  1  0.657115  0.997141  0.965330  1
  Ho  Ho6  1  0.004069  0.342751  0.537027  1
  Ho  Ho7  1  0.997901  0.654523  0.035877  1
  Zr  Zr8  1  0.325349  0.324903  0.001399  1
  Zr  Zr9  1  0.174665  0.824902  0.249594  1
  Zr  Zr10  1  0.829625  0.175510  0.747720  1
  Zr  Zr11  1  0.674123  0.672789  0.499703  1
  Zr  Zr12  1  0.152226  0.006169  0.873760  1
  Zr  Zr13  1  0.497085  0.647662  0.124635  1
  Zr  Zr14  1  0.492158  0.346690  0.626329  1
  Zr  Zr15  1  0.651077  0.500784  0.876601  1
  Zr  Zr16  1  0.352862  0.502522  0.374127  1
  Zr  Zr17  1  0.850664  0.996554  0.373874  1
  Zr  Zr18  1  0.003778  0.146952  0.126740  1
  Zr  Zr19  1  0.996631  0.855370  0.620384  1
  Si  Si20  1  0.361794  0.705685  0.933678  1
  Si  Si21  1  0.638910  0.292605  0.433065  1
  Si  Si22  1  0.707422  0.360702  0.067731  1
  Si  Si23  1  0.297324  0.641257  0.564602  1
  Si  Si24  1  0.792492  0.860193  0.181299  1
  Si  Si25  1  0.139520  0.205961  0.316740  1
  Si  Si26  1  0.859645  0.796642  0.816528  1
  Si  Si27  1  0.297933  0.951060  0.063768  1
  Si  Si28  1  0.549400  0.796554  0.313009  1
  Si  Si29  1  0.455864  0.206685  0.816825  1
  Si  Si30  1  0.792260  0.551315  0.686928  1
  Si  Si31  1  0.202709  0.450536  0.186845  1
  Si  Si32  1  0.700201  0.049842  0.560832  1
  Si  Si33  1  0.949677  0.296684  0.939463  1
  Si  Si34  1  0.049034  0.702214  0.434755  1
  Ir  Ir35  1  0.203689  0.135652  0.685740  1
