# generated using pymatgen
data_Pr2Ga2CuRu
_symmetry_space_group_name_H-M   'P 1'
_cell_length_a   7.30701600
_cell_length_b   4.58676400
_cell_length_c   7.43027500
_cell_angle_alpha   90.00000000
_cell_angle_beta   90.00000000
_cell_angle_gamma   90.00000000
_symmetry_Int_Tables_number   1
_chemical_formula_structural   Pr2Ga2CuRu
_chemical_formula_sum   'Pr4 Ga4 Cu2 Ru2'
_cell_volume   249.02981224
_cell_formula_units_Z   2
loop_
 _symmetry_equiv_pos_site_id
 _symmetry_equiv_pos_as_xyz
  1  'x, y, z'
loop_
 _atom_site_type_symbol
 _atom_site_label
 _atom_site_symmetry_multiplicity
 _atom_site_fract_x
 _atom_site_fract_y
 _atom_site_fract_z
 _atom_site_occupancy
  Pr  Pr0  1  0.517740  0.750000  0.198776  1
  Pr  Pr1  1  0.017740  0.750000  0.301223  1
  Pr  Pr2  1  0.973026  0.250001  0.690549  1
  Pr  Pr3  1  0.473026  0.250001  0.809452  1
  Ga  Ga4  1  0.814410  0.250001  0.097359  1
  Ga  Ga5  1  0.314410  0.250001  0.402641  1
  Ga  Ga6  1  0.690571  0.750000  0.591042  1
  Ga  Ga7  1  0.190571  0.750000  0.908958  1
  Cu  Cu8  1  0.324625  0.750000  0.582451  1
  Cu  Cu9  1  0.824625  0.750000  0.917550  1
  Ru  Ru10  1  0.179628  0.250001  0.073350  1
  Ru  Ru11  1  0.679628  0.250001  0.426649  1
