# generated using pymatgen
data_Hf3Sc(CoP)4
_symmetry_space_group_name_H-M   'P 1'
_cell_length_a   3.67901300
_cell_length_b   6.27499701
_cell_length_c   7.08255001
_cell_angle_alpha   90.00508766
_cell_angle_beta   90.00000000
_cell_angle_gamma   90.00000000
_symmetry_Int_Tables_number   1
_chemical_formula_structural   Hf3Sc(CoP)4
_chemical_formula_sum   'Hf3 Sc1 Co4 P4'
_cell_volume   163.50630087
_cell_formula_units_Z   1
loop_
 _symmetry_equiv_pos_site_id
 _symmetry_equiv_pos_as_xyz
  1  'x, y, z'
loop_
 _atom_site_type_symbol
 _atom_site_label
 _atom_site_symmetry_multiplicity
 _atom_site_fract_x
 _atom_site_fract_y
 _atom_site_fract_z
 _atom_site_occupancy
  Hf  Hf0  1  0.250000  0.519732  0.683469  1
  Hf  Hf1  1  0.750000  0.979489  0.182471  1
  Hf  Hf2  1  0.750000  0.479317  0.317231  1
  Sc  Sc3  1  0.250000  0.020541  0.816290  1
  Co  Co4  1  0.250000  0.142377  0.438213  1
  Co  Co5  1  0.250000  0.640169  0.061794  1
  Co  Co6  1  0.750000  0.857546  0.560925  1
  Co  Co7  1  0.750000  0.360150  0.939066  1
  P  P8  1  0.250000  0.773828  0.384985  1
  P  P9  1  0.250000  0.272360  0.114740  1
  P  P10  1  0.750000  0.226011  0.616345  1
  P  P11  1  0.750000  0.728480  0.884471  1
