# generated using pymatgen
data_Tb5ErAl16(SiOs)8
_symmetry_space_group_name_H-M   'P 1'
_cell_length_a   8.70579742
_cell_length_b   8.70579827
_cell_length_c   9.43909900
_cell_angle_alpha   90.00000000
_cell_angle_beta   90.00000000
_cell_angle_gamma   120.10313761
_symmetry_Int_Tables_number   1
_chemical_formula_structural   Tb5ErAl16(SiOs)8
_chemical_formula_sum   'Tb5 Er1 Al16 Si8 Os8'
_cell_volume   618.90791351
_cell_formula_units_Z   1
loop_
 _symmetry_equiv_pos_site_id
 _symmetry_equiv_pos_as_xyz
  1  'x, y, z'
loop_
 _atom_site_type_symbol
 _atom_site_label
 _atom_site_symmetry_multiplicity
 _atom_site_fract_x
 _atom_site_fract_y
 _atom_site_fract_z
 _atom_site_occupancy
  Tb  Tb0  1  0.191268  0.385612  0.250000  1
  Tb  Tb1  1  0.808432  0.613599  0.750000  1
  Tb  Tb2  1  0.614388  0.808732  0.250000  1
  Tb  Tb3  1  0.386401  0.191568  0.750000  1
  Tb  Tb4  1  0.193836  0.806164  0.250000  1
  Er  Er5  1  0.804772  0.195228  0.750000  1
  Al  Al6  1  0.165208  0.329258  0.578441  1
  Al  Al7  1  0.834418  0.670656  0.422083  1
  Al  Al8  1  0.670742  0.834792  0.578441  1
  Al  Al9  1  0.834418  0.670656  0.077917  1
  Al  Al10  1  0.329344  0.165582  0.422083  1
  Al  Al11  1  0.165208  0.329258  0.921559  1
  Al  Al12  1  0.164636  0.835364  0.577915  1
  Al  Al13  1  0.329344  0.165582  0.077917  1
  Al  Al14  1  0.835436  0.164564  0.422807  1
  Al  Al15  1  0.670742  0.834792  0.921559  1
  Al  Al16  1  0.835436  0.164564  0.077193  1
  Al  Al17  1  0.164636  0.835364  0.922085  1
  Al  Al18  1  0.565109  0.434891  0.250000  1
  Al  Al19  1  0.434617  0.565383  0.750000  1
  Al  Al20  1  0.000336  0.999664  0.250000  1
  Al  Al21  1  0.999068  0.000932  0.750000  1
  Si  Si22  1  0.335101  0.664899  0.039432  1
  Si  Si23  1  0.665415  0.334585  0.959640  1
  Si  Si24  1  0.665415  0.334585  0.540360  1
  Si  Si25  1  0.335101  0.664899  0.460568  1
  Si  Si26  1  0.564692  0.124734  0.250000  1
  Si  Si27  1  0.436507  0.875701  0.750000  1
  Si  Si28  1  0.875266  0.435308  0.250000  1
  Si  Si29  1  0.124299  0.563493  0.750000  1
  Os  Os30  1  0.500540  0.000385  0.999519  1
  Os  Os31  1  0.999615  0.499460  0.999519  1
  Os  Os32  1  0.500540  0.000385  0.500481  1
  Os  Os33  1  0.500144  0.499856  0.999903  1
  Os  Os34  1  0.999615  0.499460  0.500481  1
  Os  Os35  1  0.500144  0.499856  0.500097  1
  Os  Os36  1  0.999905  0.000095  0.999985  1
  Os  Os37  1  0.999905  0.000095  0.500015  1
