# generated using pymatgen
data_Ba6Er2Al2Ga2O15
_symmetry_space_group_name_H-M   'P 1'
_cell_length_a   5.98368600
_cell_length_b   7.96439321
_cell_length_c   18.59682574
_cell_angle_alpha   91.48259201
_cell_angle_beta   90.00000000
_cell_angle_gamma   90.00000000
_symmetry_Int_Tables_number   1
_chemical_formula_structural   Ba6Er2Al2Ga2O15
_chemical_formula_sum   'Ba12 Er4 Al4 Ga4 O30'
_cell_volume   885.96159885
_cell_formula_units_Z   2
loop_
 _symmetry_equiv_pos_site_id
 _symmetry_equiv_pos_as_xyz
  1  'x, y, z'
loop_
 _atom_site_type_symbol
 _atom_site_label
 _atom_site_symmetry_multiplicity
 _atom_site_fract_x
 _atom_site_fract_y
 _atom_site_fract_z
 _atom_site_occupancy
  Ba  Ba0  1  0.748566  0.028838  0.089968  1
  Ba  Ba1  1  0.756511  0.501065  0.417330  1
  Ba  Ba2  1  0.245515  0.499552  0.578126  1
  Ba  Ba3  1  0.250919  0.973477  0.910765  1
  Ba  Ba4  1  0.327763  0.500000  0.250000  1
  Ba  Ba5  1  0.756511  0.498935  0.082670  1
  Ba  Ba6  1  0.722768  0.000000  0.750000  1
  Ba  Ba7  1  0.273361  0.000000  0.250000  1
  Ba  Ba8  1  0.245515  0.500448  0.921874  1
  Ba  Ba9  1  0.673706  0.500000  0.750000  1
  Ba  Ba10  1  0.250919  0.026523  0.589235  1
  Ba  Ba11  1  0.748566  0.971162  0.410032  1
  Er  Er12  1  0.747304  0.247793  0.912425  1
  Er  Er13  1  0.747304  0.752207  0.587575  1
  Er  Er14  1  0.252264  0.753077  0.091379  1
  Er  Er15  1  0.252264  0.246923  0.408621  1
  Al  Al16  1  0.252986  0.753148  0.443477  1
  Al  Al17  1  0.769622  0.779622  0.231918  1
  Al  Al18  1  0.769622  0.220378  0.268082  1
  Al  Al19  1  0.252986  0.246852  0.056523  1
  Ga  Ga20  1  0.747203  0.753584  0.943983  1
  Ga  Ga21  1  0.227402  0.230734  0.767625  1
  Ga  Ga22  1  0.227402  0.769266  0.732375  1
  Ga  Ga23  1  0.747203  0.246416  0.556017  1
  O  O24  1  0.247150  0.538968  0.408609  1
  O  O25  1  0.502589  0.764629  0.497526  1
  O  O26  1  0.957641  0.276816  0.812494  1
  O  O27  1  0.017944  0.235625  0.994874  1
  O  O28  1  0.791410  0.000000  0.250000  1
  O  O29  1  0.333903  0.688006  0.816307  1
  O  O30  1  0.027972  0.269650  0.311459  1
  O  O31  1  0.547978  0.754920  0.166748  1
  O  O32  1  0.547978  0.245080  0.333252  1
  O  O33  1  0.333903  0.311994  0.683693  1
  O  O34  1  0.487804  0.765656  0.000751  1
  O  O35  1  0.239038  0.944062  0.393507  1
  O  O36  1  0.957641  0.723184  0.687506  1
  O  O37  1  0.454622  0.753169  0.662082  1
  O  O38  1  0.683158  0.691093  0.312105  1
  O  O39  1  0.194961  0.000000  0.750000  1
  O  O40  1  0.765191  0.045859  0.606368  1
  O  O41  1  0.755473  0.469610  0.589407  1
  O  O42  1  0.989257  0.765184  0.009650  1
  O  O43  1  0.755473  0.530390  0.910593  1
  O  O44  1  0.239038  0.055938  0.106493  1
  O  O45  1  0.765191  0.954141  0.893632  1
  O  O46  1  0.502589  0.235371  0.002474  1
  O  O47  1  0.454622  0.246831  0.837918  1
  O  O48  1  0.017944  0.764375  0.505126  1
  O  O49  1  0.683158  0.308907  0.187895  1
  O  O50  1  0.027972  0.730350  0.188541  1
  O  O51  1  0.989257  0.234816  0.490350  1
  O  O52  1  0.247150  0.461032  0.091390  1
  O  O53  1  0.487804  0.234344  0.499249  1
