# generated using pymatgen
data_PrHoEr2(WO6)2
_symmetry_space_group_name_H-M   'P 1'
_cell_length_a   5.43823100
_cell_length_b   7.75919616
_cell_length_c   11.52102956
_cell_angle_alpha   75.50142745
_cell_angle_beta   90.00000000
_cell_angle_gamma   90.00000000
_symmetry_Int_Tables_number   1
_chemical_formula_structural   PrHoEr2(WO6)2
_chemical_formula_sum   'Pr2 Ho2 Er4 W4 O24'
_cell_volume   470.66300438
_cell_formula_units_Z   2
loop_
 _symmetry_equiv_pos_site_id
 _symmetry_equiv_pos_as_xyz
  1  'x, y, z'
loop_
 _atom_site_type_symbol
 _atom_site_label
 _atom_site_symmetry_multiplicity
 _atom_site_fract_x
 _atom_site_fract_y
 _atom_site_fract_z
 _atom_site_occupancy
  Pr  Pr0  1  0.685989  0.500000  0.250000  1
  Pr  Pr1  1  0.314011  0.500000  0.750000  1
  Ho  Ho2  1  0.743035  0.000000  0.250000  1
  Ho  Ho3  1  0.256965  0.000000  0.750000  1
  Er  Er4  1  0.185341  0.202521  0.423042  1
  Er  Er5  1  0.185341  0.797479  0.076958  1
  Er  Er6  1  0.814659  0.797479  0.576958  1
  Er  Er7  1  0.814659  0.202521  0.923042  1
  W  W8  1  0.254292  0.271358  0.115879  1
  W  W9  1  0.254292  0.728642  0.384121  1
  W  W10  1  0.745708  0.728642  0.884121  1
  W  W11  1  0.745708  0.271358  0.615879  1
  O  O12  1  0.454937  0.203158  0.273966  1
  O  O13  1  0.454937  0.796842  0.226034  1
  O  O14  1  0.545063  0.796842  0.726034  1
  O  O15  1  0.545063  0.203158  0.773966  1
  O  O16  1  0.043282  0.057826  0.103724  1
  O  O17  1  0.043282  0.942174  0.396276  1
  O  O18  1  0.956718  0.942174  0.896276  1
  O  O19  1  0.956718  0.057826  0.603724  1
  O  O20  1  0.986842  0.278425  0.231248  1
  O  O21  1  0.986842  0.721575  0.268752  1
  O  O22  1  0.013158  0.721575  0.768752  1
  O  O23  1  0.013158  0.278425  0.731248  1
  O  O24  1  0.855833  0.357670  0.454572  1
  O  O25  1  0.855833  0.642330  0.045428  1
  O  O26  1  0.144167  0.642330  0.545428  1
  O  O27  1  0.144167  0.357670  0.954572  1
  O  O28  1  0.653710  0.506787  0.612481  1
  O  O29  1  0.653710  0.493213  0.887519  1
  O  O30  1  0.346290  0.493213  0.387519  1
  O  O31  1  0.346290  0.506787  0.112481  1
  O  O32  1  0.463378  0.155357  0.569435  1
  O  O33  1  0.463378  0.844643  0.930565  1
  O  O34  1  0.536622  0.844643  0.430565  1
  O  O35  1  0.536622  0.155357  0.069435  1
