# generated using pymatgen
data_Lu12Co3Tc
_symmetry_space_group_name_H-M   'P 1'
_cell_length_a   6.15839861
_cell_length_b   6.99025897
_cell_length_c   8.94242500
_cell_angle_alpha   90.00000000
_cell_angle_beta   90.00000000
_cell_angle_gamma   90.10560303
_symmetry_Int_Tables_number   1
_chemical_formula_structural   Lu12Co3Tc
_chemical_formula_sum   'Lu12 Co3 Tc1'
_cell_volume   384.96002175
_cell_formula_units_Z   1
loop_
 _symmetry_equiv_pos_site_id
 _symmetry_equiv_pos_as_xyz
  1  'x, y, z'
loop_
 _atom_site_type_symbol
 _atom_site_label
 _atom_site_symmetry_multiplicity
 _atom_site_fract_x
 _atom_site_fract_y
 _atom_site_fract_z
 _atom_site_occupancy
  Lu  Lu0  1  0.326318  0.673189  0.064287  1
  Lu  Lu1  1  0.175842  0.181134  0.437003  1
  Lu  Lu2  1  0.676731  0.322362  0.566805  1
  Lu  Lu3  1  0.829834  0.826232  0.936532  1
  Lu  Lu4  1  0.676731  0.322362  0.933195  1
  Lu  Lu5  1  0.829834  0.826232  0.563468  1
  Lu  Lu6  1  0.326318  0.673189  0.435713  1
  Lu  Lu7  1  0.175842  0.181134  0.062997  1
  Lu  Lu8  1  0.861958  0.535161  0.250000  1
  Lu  Lu9  1  0.621138  0.044065  0.250000  1
  Lu  Lu10  1  0.135825  0.457948  0.750000  1
  Lu  Lu11  1  0.365099  0.954026  0.750000  1
  Co  Co12  1  0.460803  0.387250  0.250000  1
  Co  Co13  1  0.963576  0.114675  0.750000  1
  Co  Co14  1  0.540138  0.611061  0.750000  1
  Tc  Tc15  1  0.034011  0.889981  0.250000  1
