# generated using pymatgen
data_Ho8Ti11Si16Au
_symmetry_space_group_name_H-M   'P 1'
_cell_length_a   7.05642303
_cell_length_b   7.05642303
_cell_length_c   12.86917213
_cell_angle_alpha   90.13157712
_cell_angle_beta   89.86842288
_cell_angle_gamma   89.61720024
_symmetry_Int_Tables_number   1
_chemical_formula_structural   Ho8Ti11Si16Au
_chemical_formula_sum   'Ho8 Ti11 Si16 Au1'
_cell_volume   640.77834740
_cell_formula_units_Z   1
loop_
 _symmetry_equiv_pos_site_id
 _symmetry_equiv_pos_as_xyz
  1  'x, y, z'
loop_
 _atom_site_type_symbol
 _atom_site_label
 _atom_site_symmetry_multiplicity
 _atom_site_fract_x
 _atom_site_fract_y
 _atom_site_fract_z
 _atom_site_occupancy
  Ho  Ho0  1  0.341006  0.002185  0.466705  1
  Ho  Ho1  1  0.497290  0.841190  0.716831  1
  Ho  Ho2  1  0.501321  0.157291  0.214335  1
  Ho  Ho3  1  0.841190  0.497290  0.283169  1
  Ho  Ho4  1  0.157291  0.501321  0.785665  1
  Ho  Ho5  1  0.656327  0.001030  0.968627  1
  Ho  Ho6  1  0.002185  0.341006  0.533295  1
  Ho  Ho7  1  0.001030  0.656327  0.031373  1
  Ti  Ti8  1  0.174905  0.826065  0.249561  1
  Ti  Ti9  1  0.826065  0.174905  0.750439  1
  Ti  Ti10  1  0.672826  0.672826  0.500000  1
  Ti  Ti11  1  0.147636  0.007359  0.877068  1
  Ti  Ti12  1  0.494932  0.650863  0.123106  1
  Ti  Ti13  1  0.507250  0.350796  0.625567  1
  Ti  Ti14  1  0.650863  0.494932  0.876894  1
  Ti  Ti15  1  0.350796  0.507250  0.374433  1
  Ti  Ti16  1  0.850136  0.991789  0.374433  1
  Ti  Ti17  1  0.007359  0.147636  0.122932  1
  Ti  Ti18  1  0.991789  0.850136  0.625567  1
  Si  Si19  1  0.201583  0.132667  0.684575  1
  Si  Si20  1  0.373851  0.719875  0.928757  1
  Si  Si21  1  0.631345  0.293963  0.432516  1
  Si  Si22  1  0.719875  0.373851  0.071243  1
  Si  Si23  1  0.293963  0.631345  0.567484  1
  Si  Si24  1  0.798067  0.866964  0.182739  1
  Si  Si25  1  0.132667  0.201583  0.315425  1
  Si  Si26  1  0.866964  0.798067  0.817261  1
  Si  Si27  1  0.286156  0.937829  0.065918  1
  Si  Si28  1  0.547136  0.790940  0.314510  1
  Si  Si29  1  0.454229  0.208095  0.809776  1
  Si  Si30  1  0.790940  0.547136  0.685490  1
  Si  Si31  1  0.208095  0.454229  0.190224  1
  Si  Si32  1  0.708553  0.047910  0.564543  1
  Si  Si33  1  0.937829  0.286156  0.934082  1
  Si  Si34  1  0.047910  0.708553  0.435457  1
  Au  Au35  1  0.328639  0.328639  0.000000  1
