# generated using pymatgen
data_LiCe8(Si4Au)3
_symmetry_space_group_name_H-M   'P 1'
_cell_length_a   8.23993500
_cell_length_b   8.23993472
_cell_length_c   8.31988600
_cell_angle_alpha   90.00000000
_cell_angle_beta   90.00000000
_cell_angle_gamma   119.99999711
_symmetry_Int_Tables_number   1
_chemical_formula_structural   LiCe8(Si4Au)3
_chemical_formula_sum   'Li1 Ce8 Si12 Au3'
_cell_volume   489.21028254
_cell_formula_units_Z   1
loop_
 _symmetry_equiv_pos_site_id
 _symmetry_equiv_pos_as_xyz
  1  'x, y, z'
loop_
 _atom_site_type_symbol
 _atom_site_label
 _atom_site_symmetry_multiplicity
 _atom_site_fract_x
 _atom_site_fract_y
 _atom_site_fract_z
 _atom_site_occupancy
  Li  Li0  1  0.333333  0.666667  0.999427  1
  Ce  Ce1  1  0.499404  0.998808  0.247357  1
  Ce  Ce2  1  0.499596  0.999192  0.752662  1
  Ce  Ce3  1  0.001192  0.500596  0.247357  1
  Ce  Ce4  1  0.000808  0.500404  0.752662  1
  Ce  Ce5  1  0.499404  0.500596  0.247357  1
  Ce  Ce6  1  0.499596  0.500404  0.752662  1
  Ce  Ce7  1  0.000000  0.000000  0.248821  1
  Ce  Ce8  1  0.000000  0.000000  0.751343  1
  Si  Si9  1  0.167521  0.335043  0.000522  1
  Si  Si10  1  0.838670  0.677340  0.000181  1
  Si  Si11  1  0.664957  0.832479  0.000522  1
  Si  Si12  1  0.837283  0.674567  0.499341  1
  Si  Si13  1  0.322660  0.161330  0.000181  1
  Si  Si14  1  0.162448  0.324897  0.500040  1
  Si  Si15  1  0.167521  0.832479  0.000522  1
  Si  Si16  1  0.325433  0.162717  0.499341  1
  Si  Si17  1  0.838670  0.161330  0.000181  1
  Si  Si18  1  0.675103  0.837552  0.500040  1
  Si  Si19  1  0.837283  0.162717  0.499341  1
  Si  Si20  1  0.162448  0.837552  0.500040  1
  Au  Au21  1  0.666667  0.333333  0.000479  1
  Au  Au22  1  0.666667  0.333333  0.499482  1
  Au  Au23  1  0.333333  0.666667  0.500143  1
