# generated using pymatgen
data_Y4Lu6Si5Ge
_symmetry_space_group_name_H-M   'P 1'
_cell_length_a   8.34078700
_cell_length_b   8.35140993
_cell_length_c   6.23266600
_cell_angle_alpha   90.00000000
_cell_angle_beta   90.00000000
_cell_angle_gamma   119.95791986
_symmetry_Int_Tables_number   1
_chemical_formula_structural   Y4Lu6Si5Ge
_chemical_formula_sum   'Y4 Lu6 Si5 Ge1'
_cell_volume   376.14501886
_cell_formula_units_Z   1
loop_
 _symmetry_equiv_pos_site_id
 _symmetry_equiv_pos_as_xyz
  1  'x, y, z'
loop_
 _atom_site_type_symbol
 _atom_site_label
 _atom_site_symmetry_multiplicity
 _atom_site_fract_x
 _atom_site_fract_y
 _atom_site_fract_z
 _atom_site_occupancy
  Y  Y0  1  0.997819  0.754389  0.750000  1
  Y  Y1  1  0.758314  0.000000  0.750000  1
  Y  Y2  1  0.243430  0.245611  0.750000  1
  Y  Y3  1  0.242200  0.000000  0.250000  1
  Lu  Lu4  1  0.999610  0.243438  0.250000  1
  Lu  Lu5  1  0.756172  0.756562  0.250000  1
  Lu  Lu6  1  0.333250  0.665117  0.498874  1
  Lu  Lu7  1  0.668134  0.334883  0.001126  1
  Lu  Lu8  1  0.668134  0.334883  0.498874  1
  Lu  Lu9  1  0.333250  0.665117  0.001126  1
  Si  Si10  1  0.395051  0.396169  0.250000  1
  Si  Si11  1  0.998882  0.603831  0.250000  1
  Si  Si12  1  0.999773  0.395705  0.750000  1
  Si  Si13  1  0.604068  0.604295  0.750000  1
  Si  Si14  1  0.607128  0.000000  0.250000  1
  Ge  Ge15  1  0.394783  0.000000  0.750000  1
