# generated using pymatgen
data_Li8Y8Sn5Sb3
_symmetry_space_group_name_H-M   'P 1'
_cell_length_a   9.35940550
_cell_length_b   9.35940569
_cell_length_c   7.25625696
_cell_angle_alpha   90.15519965
_cell_angle_beta   89.84480384
_cell_angle_gamma   119.99888145
_symmetry_Int_Tables_number   1
_chemical_formula_structural   Li8Y8Sn5Sb3
_chemical_formula_sum   'Li8 Y8 Sn5 Sb3'
_cell_volume   550.48132771
_cell_formula_units_Z   1
loop_
 _symmetry_equiv_pos_site_id
 _symmetry_equiv_pos_as_xyz
  1  'x, y, z'
loop_
 _atom_site_type_symbol
 _atom_site_label
 _atom_site_symmetry_multiplicity
 _atom_site_fract_x
 _atom_site_fract_y
 _atom_site_fract_z
 _atom_site_occupancy
  Li  Li0  1  0.167078  0.832922  0.196261  1
  Li  Li1  1  0.333918  0.167544  0.697260  1
  Li  Li2  1  0.832456  0.666082  0.697260  1
  Li  Li3  1  0.166483  0.333869  0.197490  1
  Li  Li4  1  0.666131  0.833517  0.197490  1
  Li  Li5  1  0.833267  0.166733  0.698920  1
  Li  Li6  1  0.333604  0.666396  0.810224  1
  Li  Li7  1  0.666895  0.333105  0.311583  1
  Y  Y8  1  0.510821  0.489179  0.990314  1
  Y  Y9  1  0.023962  0.509021  0.492310  1
  Y  Y10  1  0.490979  0.976038  0.492310  1
  Y  Y11  1  0.515143  0.024356  0.991543  1
  Y  Y12  1  0.975644  0.484857  0.991543  1
  Y  Y13  1  0.486969  0.513031  0.492823  1
  Y  Y14  1  0.998309  0.001691  0.982678  1
  Y  Y15  1  0.998141  0.001859  0.484200  1
  Sn  Sn16  1  0.166894  0.333343  0.753548  1
  Sn  Sn17  1  0.666657  0.833106  0.753548  1
  Sn  Sn18  1  0.833330  0.166670  0.253265  1
  Sn  Sn19  1  0.333093  0.666907  0.223931  1
  Sn  Sn20  1  0.666562  0.333438  0.724123  1
  Sb  Sb21  1  0.166701  0.833299  0.752429  1
  Sb  Sb22  1  0.333347  0.166386  0.252475  1
  Sb  Sb23  1  0.833614  0.666653  0.252475  1
