# generated using pymatgen
data_Pu8Cu3Si12Ge
_symmetry_space_group_name_H-M   'P 1'
_cell_length_a   7.93924400
_cell_length_b   7.93924401
_cell_length_c   8.27926600
_cell_angle_alpha   90.00000000
_cell_angle_beta   90.00000000
_cell_angle_gamma   119.99999997
_symmetry_Int_Tables_number   1
_chemical_formula_structural   Pu8Cu3Si12Ge
_chemical_formula_sum   'Pu8 Cu3 Si12 Ge1'
_cell_volume   451.93998545
_cell_formula_units_Z   1
loop_
 _symmetry_equiv_pos_site_id
 _symmetry_equiv_pos_as_xyz
  1  'x, y, z'
loop_
 _atom_site_type_symbol
 _atom_site_label
 _atom_site_symmetry_multiplicity
 _atom_site_fract_x
 _atom_site_fract_y
 _atom_site_fract_z
 _atom_site_occupancy
  Pu  Pu0  1  0.000000  0.000000  0.747519  1
  Pu  Pu1  1  0.000000  0.000000  0.252429  1
  Pu  Pu2  1  0.498029  0.501971  0.750521  1
  Pu  Pu3  1  0.498029  0.996060  0.750521  1
  Pu  Pu4  1  0.003940  0.501971  0.750521  1
  Pu  Pu5  1  0.498886  0.501114  0.249438  1
  Pu  Pu6  1  0.002229  0.501114  0.249438  1
  Pu  Pu7  1  0.498886  0.997771  0.249438  1
  Cu  Cu8  1  0.666667  0.333333  0.998449  1
  Cu  Cu9  1  0.666667  0.333333  0.501276  1
  Cu  Cu10  1  0.333333  0.666667  0.498820  1
  Si  Si11  1  0.828134  0.171866  0.999947  1
  Si  Si12  1  0.828134  0.656267  0.999947  1
  Si  Si13  1  0.343733  0.171866  0.999947  1
  Si  Si14  1  0.831285  0.168715  0.500036  1
  Si  Si15  1  0.831285  0.662570  0.500036  1
  Si  Si16  1  0.337430  0.168715  0.500036  1
  Si  Si17  1  0.168898  0.831102  0.499774  1
  Si  Si18  1  0.662205  0.831102  0.499774  1
  Si  Si19  1  0.168898  0.337795  0.499774  1
  Si  Si20  1  0.160654  0.839346  0.000413  1
  Si  Si21  1  0.678693  0.839346  0.000413  1
  Si  Si22  1  0.160654  0.321307  0.000413  1
  Ge  Ge23  1  0.333333  0.666667  0.001115  1
