# generated using pymatgen
data_Pm2PbO5
_symmetry_space_group_name_H-M   'P 1'
_cell_length_a   9.84747922
_cell_length_b   7.57867000
_cell_length_c   6.82434223
_cell_angle_alpha   90.00000000
_cell_angle_beta   104.14814030
_cell_angle_gamma   90.00000000
_symmetry_Int_Tables_number   1
_chemical_formula_structural   Pm2PbO5
_chemical_formula_sum   'Pm8 Pb4 O20'
_cell_volume   493.85729954
_cell_formula_units_Z   4
loop_
 _symmetry_equiv_pos_site_id
 _symmetry_equiv_pos_as_xyz
  1  'x, y, z'
loop_
 _atom_site_type_symbol
 _atom_site_label
 _atom_site_symmetry_multiplicity
 _atom_site_fract_x
 _atom_site_fract_y
 _atom_site_fract_z
 _atom_site_occupancy
  Pm  Pm0  1  0.353534  0.364791  0.032717  1
  Pm  Pm1  1  0.028918  0.374648  0.238488  1
  Pm  Pm2  1  0.971081  0.874648  0.261513  1
  Pm  Pm3  1  0.646467  0.864791  0.467284  1
  Pm  Pm4  1  0.353533  0.135209  0.532717  1
  Pm  Pm5  1  0.028918  0.125352  0.738488  1
  Pm  Pm6  1  0.971082  0.625352  0.761513  1
  Pm  Pm7  1  0.646467  0.635210  0.967284  1
  Pb  Pb8  1  0.315973  0.892086  0.056907  1
  Pb  Pb9  1  0.684026  0.392086  0.443092  1
  Pb  Pb10  1  0.315973  0.607915  0.556907  1
  Pb  Pb11  1  0.684027  0.107914  0.943092  1
  O  O12  1  0.904557  0.139653  0.016266  1
  O  O13  1  0.633346  0.330403  0.094150  1
  O  O14  1  0.889946  0.609025  0.074282  1
  O  O15  1  0.723098  0.893762  0.169712  1
  O  O16  1  0.439013  0.094547  0.225475  1
  O  O17  1  0.560987  0.594547  0.274524  1
  O  O18  1  0.276903  0.393762  0.330288  1
  O  O19  1  0.110055  0.109026  0.425718  1
  O  O20  1  0.366655  0.830403  0.405851  1
  O  O21  1  0.095443  0.639653  0.483733  1
  O  O22  1  0.904557  0.360347  0.516266  1
  O  O23  1  0.633345  0.169597  0.594150  1
  O  O24  1  0.889946  0.890975  0.574282  1
  O  O25  1  0.723097  0.606239  0.669712  1
  O  O26  1  0.439013  0.405454  0.725476  1
  O  O27  1  0.560988  0.905454  0.774524  1
  O  O28  1  0.276903  0.106238  0.830288  1
  O  O29  1  0.110055  0.390975  0.925718  1
  O  O30  1  0.366655  0.669598  0.905851  1
  O  O31  1  0.095443  0.860347  0.983733  1
