# generated using pymatgen
data_NdY3(Si3Ir)2
_symmetry_space_group_name_H-M   'P 1'
_cell_length_a   8.20906800
_cell_length_b   8.20906799
_cell_length_c   8.06872100
_cell_angle_alpha   90.00000000
_cell_angle_beta   90.00000000
_cell_angle_gamma   119.99999196
_symmetry_Int_Tables_number   1
_chemical_formula_structural   NdY3(Si3Ir)2
_chemical_formula_sum   'Nd2 Y6 Si12 Ir4'
_cell_volume   470.89390759
_cell_formula_units_Z   2
loop_
 _symmetry_equiv_pos_site_id
 _symmetry_equiv_pos_as_xyz
  1  'x, y, z'
loop_
 _atom_site_type_symbol
 _atom_site_label
 _atom_site_symmetry_multiplicity
 _atom_site_fract_x
 _atom_site_fract_y
 _atom_site_fract_z
 _atom_site_occupancy
  Nd  Nd0  1  0.000000  0.000000  0.250000  1
  Nd  Nd1  1  0.000000  0.000000  0.750000  1
  Y  Y2  1  0.508700  0.491300  0.250000  1
  Y  Y3  1  0.508700  0.017400  0.250000  1
  Y  Y4  1  0.982600  0.491300  0.250000  1
  Y  Y5  1  0.491300  0.508700  0.750000  1
  Y  Y6  1  0.491300  0.982600  0.750000  1
  Y  Y7  1  0.017400  0.508700  0.750000  1
  Si  Si8  1  0.168175  0.831825  0.500340  1
  Si  Si9  1  0.168175  0.336350  0.500340  1
  Si  Si10  1  0.663650  0.831825  0.500340  1
  Si  Si11  1  0.831825  0.168175  0.499660  1
  Si  Si12  1  0.831825  0.663650  0.499660  1
  Si  Si13  1  0.336350  0.168175  0.499660  1
  Si  Si14  1  0.831825  0.168175  0.000340  1
  Si  Si15  1  0.831825  0.663650  0.000340  1
  Si  Si16  1  0.336350  0.168175  0.000340  1
  Si  Si17  1  0.168175  0.831825  0.999660  1
  Si  Si18  1  0.168175  0.336350  0.999660  1
  Si  Si19  1  0.663650  0.831825  0.999660  1
  Ir  Ir20  1  0.333333  0.666667  0.467294  1
  Ir  Ir21  1  0.666667  0.333333  0.532706  1
  Ir  Ir22  1  0.666667  0.333333  0.967294  1
  Ir  Ir23  1  0.333333  0.666667  0.032706  1
