# generated using pymatgen
data_BaSr2Sc2Cl2O5
_symmetry_space_group_name_H-M   'P 1'
_cell_length_a   4.17345029
_cell_length_b   4.17345076
_cell_length_c   12.36164430
_cell_angle_alpha   99.71841798
_cell_angle_beta   99.71842237
_cell_angle_gamma   90.00000088
_symmetry_Int_Tables_number   1
_chemical_formula_structural   BaSr2Sc2Cl2O5
_chemical_formula_sum   'Ba1 Sr2 Sc2 Cl2 O5'
_cell_volume   209.08586545
_cell_formula_units_Z   1
loop_
 _symmetry_equiv_pos_site_id
 _symmetry_equiv_pos_as_xyz
  1  'x, y, z'
loop_
 _atom_site_type_symbol
 _atom_site_label
 _atom_site_symmetry_multiplicity
 _atom_site_fract_x
 _atom_site_fract_y
 _atom_site_fract_z
 _atom_site_occupancy
  Ba  Ba0  1  0.999788  0.999788  0.999577  1
  Sr  Sr1  1  0.841078  0.841078  0.682156  1
  Sr  Sr2  1  0.158859  0.158859  0.317719  1
  Sc  Sc3  1  0.584291  0.584291  0.168583  1
  Sc  Sc4  1  0.415565  0.415565  0.831130  1
  Cl  Cl5  1  0.295684  0.295684  0.591368  1
  Cl  Cl6  1  0.704777  0.704777  0.409552  1
  O  O7  1  0.404020  0.904020  0.808041  1
  O  O8  1  0.596033  0.096033  0.192068  1
  O  O9  1  0.904020  0.404020  0.808041  1
  O  O10  1  0.499931  0.499931  0.999862  1
  O  O11  1  0.096033  0.596033  0.192068  1
