# generated using pymatgen
data_Th2Zn15Au2
_symmetry_space_group_name_H-M   'P 1'
_cell_length_a   6.91095411
_cell_length_b   6.89638456
_cell_length_c   6.92612984
_cell_angle_alpha   83.06521892
_cell_angle_beta   82.90079536
_cell_angle_gamma   83.15102506
_symmetry_Int_Tables_number   1
_chemical_formula_structural   Th2Zn15Au2
_chemical_formula_sum   'Th2 Zn15 Au2'
_cell_volume   323.34741105
_cell_formula_units_Z   1
loop_
 _symmetry_equiv_pos_site_id
 _symmetry_equiv_pos_as_xyz
  1  'x, y, z'
loop_
 _atom_site_type_symbol
 _atom_site_label
 _atom_site_symmetry_multiplicity
 _atom_site_fract_x
 _atom_site_fract_y
 _atom_site_fract_z
 _atom_site_occupancy
  Th  Th0  1  0.338146  0.339196  0.336275  1
  Th  Th1  1  0.663375  0.661610  0.664530  1
  Zn  Zn2  1  0.994060  0.997654  0.499105  1
  Zn  Zn3  1  0.002929  0.497879  0.000568  1
  Zn  Zn4  1  0.498417  0.004453  0.004980  1
  Zn  Zn5  1  0.706303  0.292981  0.998336  1
  Zn  Zn6  1  0.001714  0.704014  0.295515  1
  Zn  Zn7  1  0.293477  0.702804  0.002650  1
  Zn  Zn8  1  0.707257  0.001486  0.292833  1
  Zn  Zn9  1  0.997148  0.298723  0.704094  1
  Zn  Zn10  1  0.157054  0.645984  0.648626  1
  Zn  Zn11  1  0.650758  0.160075  0.649474  1
  Zn  Zn12  1  0.345887  0.845179  0.350915  1
  Zn  Zn13  1  0.845688  0.347619  0.352263  1
  Zn  Zn14  1  0.352183  0.352517  0.839920  1
  Zn  Zn15  1  0.101076  0.101176  0.102354  1
  Zn  Zn16  1  0.901202  0.901508  0.896345  1
  Au  Au17  1  0.296745  0.999448  0.702366  1
  Au  Au18  1  0.646580  0.645696  0.158852  1
