# generated using pymatgen
data_Sm3MnFeCo7P6
_symmetry_space_group_name_H-M   'P 1'
_cell_length_a   3.73928800
_cell_length_b   10.66357000
_cell_length_c   12.25949000
_cell_angle_alpha   90.00000000
_cell_angle_beta   90.00000000
_cell_angle_gamma   90.00000000
_symmetry_Int_Tables_number   1
_chemical_formula_structural   Sm3MnFeCo7P6
_chemical_formula_sum   'Sm6 Mn2 Fe2 Co14 P12'
_cell_volume   488.83685766
_cell_formula_units_Z   2
loop_
 _symmetry_equiv_pos_site_id
 _symmetry_equiv_pos_as_xyz
  1  'x, y, z'
loop_
 _atom_site_type_symbol
 _atom_site_label
 _atom_site_symmetry_multiplicity
 _atom_site_fract_x
 _atom_site_fract_y
 _atom_site_fract_z
 _atom_site_occupancy
  Sm  Sm0  1  0.000000  0.500000  0.522726  1
  Sm  Sm1  1  0.500000  0.000000  0.477274  1
  Sm  Sm2  1  0.500000  0.818752  0.204337  1
  Sm  Sm3  1  0.500000  0.181248  0.204337  1
  Sm  Sm4  1  0.000000  0.681248  0.795663  1
  Sm  Sm5  1  0.000000  0.318752  0.795663  1
  Mn  Mn6  1  0.500000  0.500000  0.155726  1
  Mn  Mn7  1  0.000000  0.000000  0.844274  1
  Fe  Fe8  1  0.000000  0.500000  0.989098  1
  Fe  Fe9  1  0.500000  0.000000  0.010902  1
  Co  Co10  1  0.500000  0.500000  0.701935  1
  Co  Co11  1  0.000000  0.000000  0.298065  1
  Co  Co12  1  0.500000  0.332471  0.995619  1
  Co  Co13  1  0.500000  0.667529  0.995619  1
  Co  Co14  1  0.000000  0.167529  0.004381  1
  Co  Co15  1  0.000000  0.832471  0.004381  1
  Co  Co16  1  0.500000  0.296305  0.429961  1
  Co  Co17  1  0.500000  0.703695  0.429961  1
  Co  Co18  1  0.000000  0.203695  0.570039  1
  Co  Co19  1  0.000000  0.796305  0.570039  1
  Co  Co20  1  0.500000  0.880718  0.710216  1
  Co  Co21  1  0.500000  0.119282  0.710216  1
  Co  Co22  1  0.000000  0.619282  0.289784  1
  Co  Co23  1  0.000000  0.380718  0.289784  1
  P  P24  1  0.500000  0.500000  0.886337  1
  P  P25  1  0.000000  0.000000  0.113663  1
  P  P26  1  0.500000  0.500000  0.342421  1
  P  P27  1  0.000000  0.000000  0.657579  1
  P  P28  1  0.500000  0.308377  0.615288  1
  P  P29  1  0.500000  0.691623  0.615288  1
  P  P30  1  0.000000  0.191623  0.384712  1
  P  P31  1  0.000000  0.808377  0.384712  1
  P  P32  1  0.500000  0.847453  0.895536  1
  P  P33  1  0.500000  0.152547  0.895536  1
  P  P34  1  0.000000  0.652547  0.104464  1
  P  P35  1  0.000000  0.347453  0.104464  1
