# generated using pymatgen
data_HoEr4Tm15Pt16
_symmetry_space_group_name_H-M   'P 1'
_cell_length_a   7.39850605
_cell_length_b   7.48174574
_cell_length_c   14.58561104
_cell_angle_alpha   90.01701059
_cell_angle_beta   90.00522446
_cell_angle_gamma   89.97206439
_symmetry_Int_Tables_number   1
_chemical_formula_structural   HoEr4Tm15Pt16
_chemical_formula_sum   'Ho1 Er4 Tm15 Pt16'
_cell_volume   807.36800317
_cell_formula_units_Z   1
loop_
 _symmetry_equiv_pos_site_id
 _symmetry_equiv_pos_as_xyz
  1  'x, y, z'
loop_
 _atom_site_type_symbol
 _atom_site_label
 _atom_site_symmetry_multiplicity
 _atom_site_fract_x
 _atom_site_fract_y
 _atom_site_fract_z
 _atom_site_occupancy
  Ho  Ho0  1  0.001199  0.820500  0.592657  1
  Er  Er1  1  0.998774  0.179452  0.407017  1
  Er  Er2  1  0.498998  0.321327  0.407482  1
  Er  Er3  1  0.998788  0.178859  0.092459  1
  Er  Er4  1  0.501071  0.679078  0.907562  1
  Tm  Tm5  1  0.655934  0.167506  0.622584  1
  Tm  Tm6  1  0.156074  0.332734  0.877519  1
  Tm  Tm7  1  0.343892  0.832738  0.122412  1
  Tm  Tm8  1  0.843823  0.667190  0.377399  1
  Tm  Tm9  1  0.344634  0.832112  0.377693  1
  Tm  Tm10  1  0.844033  0.667531  0.122027  1
  Tm  Tm11  1  0.655909  0.167513  0.877823  1
  Tm  Tm12  1  0.156358  0.332717  0.622364  1
  Tm  Tm13  1  0.501559  0.680027  0.593034  1
  Tm  Tm14  1  0.001650  0.819957  0.906980  1
  Tm  Tm15  1  0.498325  0.319944  0.092908  1
  Tm  Tm16  1  0.819039  0.510326  0.750060  1
  Tm  Tm17  1  0.319102  0.989605  0.750149  1
  Tm  Tm18  1  0.180859  0.489658  0.249728  1
  Tm  Tm19  1  0.680888  0.010426  0.249823  1
  Pt  Pt20  1  0.683523  0.966322  0.458585  1
  Pt  Pt21  1  0.184812  0.533113  0.041528  1
  Pt  Pt22  1  0.315201  0.033060  0.958437  1
  Pt  Pt23  1  0.815140  0.467262  0.541735  1
  Pt  Pt24  1  0.316785  0.032655  0.541941  1
  Pt  Pt25  1  0.816472  0.467056  0.958336  1
  Pt  Pt26  1  0.683489  0.967188  0.041614  1
  Pt  Pt27  1  0.183829  0.533748  0.458745  1
  Pt  Pt28  1  0.453759  0.386918  0.749900  1
  Pt  Pt29  1  0.953602  0.113239  0.750279  1
  Pt  Pt30  1  0.546160  0.613311  0.249663  1
  Pt  Pt31  1  0.046524  0.886524  0.250008  1
  Pt  Pt32  1  0.681628  0.855976  0.749930  1
  Pt  Pt33  1  0.181855  0.644058  0.750423  1
  Pt  Pt34  1  0.318602  0.144132  0.249531  1
  Pt  Pt35  1  0.817711  0.356241  0.249665  1
