# generated using pymatgen
data_Tb4Dy8Co4BiRu
_symmetry_space_group_name_H-M   'P 1'
_cell_length_a   8.33911702
_cell_length_b   8.33911698
_cell_length_c   8.33911716
_cell_angle_alpha   110.98601901
_cell_angle_beta   110.50966593
_cell_angle_gamma   106.94745063
_symmetry_Int_Tables_number   1
_chemical_formula_structural   Tb4Dy8Co4BiRu
_chemical_formula_sum   'Tb4 Dy8 Co4 Bi1 Ru1'
_cell_volume   445.76042391
_cell_formula_units_Z   1
loop_
 _symmetry_equiv_pos_site_id
 _symmetry_equiv_pos_as_xyz
  1  'x, y, z'
loop_
 _atom_site_type_symbol
 _atom_site_label
 _atom_site_symmetry_multiplicity
 _atom_site_fract_x
 _atom_site_fract_y
 _atom_site_fract_z
 _atom_site_occupancy
  Tb  Tb0  1  0.817453  0.713957  0.531410  1
  Tb  Tb1  1  0.182547  0.286043  0.468590  1
  Tb  Tb2  1  0.182547  0.713957  0.896503  1
  Tb  Tb3  1  0.817453  0.286043  0.103497  1
  Dy  Dy4  1  0.688008  0.379235  0.691227  1
  Dy  Dy5  1  0.311992  0.620765  0.308773  1
  Dy  Dy6  1  0.688008  0.996781  0.308773  1
  Dy  Dy7  1  0.311992  0.003219  0.691227  1
  Dy  Dy8  1  0.593609  0.789353  0.804258  1
  Dy  Dy9  1  0.406391  0.210647  0.195742  1
  Dy  Dy10  1  0.985095  0.789353  0.195742  1
  Dy  Dy11  1  0.014905  0.210647  0.804258  1
  Co  Co12  1  0.623858  0.000000  0.623858  1
  Co  Co13  1  0.376142  0.000000  0.376142  1
  Co  Co14  1  0.111140  0.611140  0.500000  1
  Co  Co15  1  0.888860  0.388860  0.500000  1
  Bi  Bi16  1  0.500000  0.500000  0.000000  1
  Ru  Ru17  1  0.000000  0.000000  0.000000  1
