# generated using pymatgen
data_Ho12Tc3P
_symmetry_space_group_name_H-M   'P 1'
_cell_length_a   6.26454830
_cell_length_b   7.38631251
_cell_length_c   9.09184800
_cell_angle_alpha   90.00000000
_cell_angle_beta   90.00000000
_cell_angle_gamma   89.96086306
_symmetry_Int_Tables_number   1
_chemical_formula_structural   Ho12Tc3P
_chemical_formula_sum   'Ho12 Tc3 P1'
_cell_volume   420.69708794
_cell_formula_units_Z   1
loop_
 _symmetry_equiv_pos_site_id
 _symmetry_equiv_pos_as_xyz
  1  'x, y, z'
loop_
 _atom_site_type_symbol
 _atom_site_label
 _atom_site_symmetry_multiplicity
 _atom_site_fract_x
 _atom_site_fract_y
 _atom_site_fract_z
 _atom_site_occupancy
  Ho  Ho0  1  0.332119  0.677482  0.063126  1
  Ho  Ho1  1  0.163097  0.177912  0.436235  1
  Ho  Ho2  1  0.658724  0.316603  0.562878  1
  Ho  Ho3  1  0.844896  0.828640  0.937932  1
  Ho  Ho4  1  0.658724  0.316603  0.937122  1
  Ho  Ho5  1  0.844896  0.828640  0.562068  1
  Ho  Ho6  1  0.332119  0.677482  0.436874  1
  Ho  Ho7  1  0.163097  0.177912  0.063765  1
  Ho  Ho8  1  0.868180  0.539129  0.250000  1
  Ho  Ho9  1  0.621999  0.034286  0.250000  1
  Ho  Ho10  1  0.133834  0.454956  0.750000  1
  Ho  Ho11  1  0.368760  0.967663  0.750000  1
  Tc  Tc12  1  0.037661  0.881123  0.250000  1
  Tc  Tc13  1  0.462690  0.385314  0.250000  1
  Tc  Tc14  1  0.951237  0.117289  0.750000  1
  P  P15  1  0.557968  0.618967  0.750000  1
