# generated using pymatgen
data_Rb4Mn2SeS(O4F3)2
_symmetry_space_group_name_H-M   'P 1'
_cell_length_a   11.65057800
_cell_length_b   7.66926101
_cell_length_c   9.16906500
_cell_angle_alpha   86.77934578
_cell_angle_beta   90.00000000
_cell_angle_gamma   90.00000000
_symmetry_Int_Tables_number   1
_chemical_formula_structural   Rb4Mn2SeS(O4F3)2
_chemical_formula_sum   'Rb8 Mn4 Se2 S2 O16 F12'
_cell_volume   817.97412275
_cell_formula_units_Z   2
loop_
 _symmetry_equiv_pos_site_id
 _symmetry_equiv_pos_as_xyz
  1  'x, y, z'
loop_
 _atom_site_type_symbol
 _atom_site_label
 _atom_site_symmetry_multiplicity
 _atom_site_fract_x
 _atom_site_fract_y
 _atom_site_fract_z
 _atom_site_occupancy
  Rb  Rb0  1  0.190172  0.297580  0.669247  1
  Rb  Rb1  1  0.690172  0.702420  0.830753  1
  Rb  Rb2  1  0.805500  0.695281  0.325819  1
  Rb  Rb3  1  0.305500  0.304719  0.174181  1
  Rb  Rb4  1  0.309992  0.806152  0.835848  1
  Rb  Rb5  1  0.809992  0.193848  0.664152  1
  Rb  Rb6  1  0.695318  0.189114  0.171230  1
  Rb  Rb7  1  0.195318  0.810886  0.328770  1
  Mn  Mn8  1  0.500932  0.998777  0.496016  1
  Mn  Mn9  1  0.000932  0.001223  0.003984  1
  Mn  Mn10  1  0.498144  0.503502  0.495560  1
  Mn  Mn11  1  0.998144  0.496498  0.004440  1
  Se  Se12  1  0.501896  0.251504  0.803666  1
  Se  Se13  1  0.001896  0.748496  0.696334  1
  S  S14  1  0.498873  0.747566  0.199839  1
  S  S15  1  0.998873  0.252434  0.300161  1
  O  O16  1  0.392266  0.172702  0.901978  1
  O  O17  1  0.892266  0.827298  0.598022  1
  O  O18  1  0.595174  0.818162  0.110614  1
  O  O19  1  0.095174  0.181838  0.389386  1
  O  O20  1  0.602695  0.343278  0.901145  1
  O  O21  1  0.102695  0.656722  0.598855  1
  O  O22  1  0.409146  0.666513  0.113105  1
  O  O23  1  0.909146  0.333487  0.386895  1
  O  O24  1  0.439605  0.407605  0.685918  1
  O  O25  1  0.939605  0.592395  0.814082  1
  O  O26  1  0.553375  0.606815  0.306093  1
  O  O27  1  0.053375  0.393185  0.193907  1
  O  O28  1  0.062315  0.904772  0.792981  1
  O  O29  1  0.562315  0.095228  0.707019  1
  O  O30  1  0.946315  0.114307  0.211680  1
  O  O31  1  0.446315  0.885693  0.288320  1
  F  F32  1  0.344316  0.522316  0.437779  1
  F  F33  1  0.844316  0.477684  0.062221  1
  F  F34  1  0.651962  0.477793  0.553881  1
  F  F35  1  0.151962  0.522207  0.946119  1
  F  F36  1  0.156021  0.023068  0.052074  1
  F  F37  1  0.656021  0.976932  0.447926  1
  F  F38  1  0.846035  0.977878  0.954555  1
  F  F39  1  0.346035  0.022122  0.545445  1
  F  F40  1  0.000710  0.766573  0.097697  1
  F  F41  1  0.500710  0.233427  0.402303  1
  F  F42  1  0.999238  0.234498  0.907719  1
  F  F43  1  0.499238  0.765502  0.592281  1
