# generated using pymatgen
data_Sr2Al16Ir8Pt
_symmetry_space_group_name_H-M   'P 1'
_cell_length_a   11.20876451
_cell_length_b   11.24631682
_cell_length_c   11.24631800
_cell_angle_alpha   158.40852354
_cell_angle_beta   119.70858480
_cell_angle_gamma   64.83763013
_symmetry_Int_Tables_number   1
_chemical_formula_structural   Sr2Al16Ir8Pt
_chemical_formula_sum   'Sr2 Al16 Ir8 Pt1'
_cell_volume   450.29089719
_cell_formula_units_Z   1
loop_
 _symmetry_equiv_pos_site_id
 _symmetry_equiv_pos_as_xyz
  1  'x, y, z'
loop_
 _atom_site_type_symbol
 _atom_site_label
 _atom_site_symmetry_multiplicity
 _atom_site_fract_x
 _atom_site_fract_y
 _atom_site_fract_z
 _atom_site_occupancy
  Sr  Sr0  1  0.235673  0.234947  0.000726  1
  Sr  Sr1  1  0.765217  0.766284  0.998932  1
  Al  Al2  1  0.279376  0.401903  0.877473  1
  Al  Al3  1  0.089367  0.915682  0.173685  1
  Al  Al4  1  0.506825  0.204499  0.302327  1
  Al  Al5  1  0.258815  0.084535  0.174280  1
  Al  Al6  1  0.919574  0.418903  0.500670  1
  Al  Al7  1  0.719665  0.597410  0.122255  1
  Al  Al8  1  0.898302  0.205049  0.693252  1
  Al  Al9  1  0.492024  0.794691  0.697333  1
  Al  Al10  1  0.379143  0.000279  0.378863  1
  Al  Al11  1  0.620707  0.999730  0.620977  1
  Al  Al12  1  0.475348  0.599034  0.876315  1
  Al  Al13  1  0.100537  0.797494  0.303044  1
  Al  Al14  1  0.906641  0.082834  0.823806  1
  Al  Al15  1  0.740105  0.914734  0.825371  1
  Al  Al16  1  0.525195  0.401283  0.123912  1
  Al  Al17  1  0.081788  0.579819  0.501969  1
  Ir  Ir18  1  0.792060  0.500937  0.291123  1
  Ir  Ir19  1  0.026004  0.339760  0.686245  1
  Ir  Ir20  1  0.619032  0.116389  0.502643  1
  Ir  Ir21  1  0.207855  0.499185  0.708670  1
  Ir  Ir22  1  0.383708  0.883679  0.500028  1
  Ir  Ir23  1  0.999609  0.000166  0.999443  1
  Ir  Ir24  1  0.655518  0.340070  0.315448  1
  Ir  Ir25  1  0.343910  0.659499  0.684411  1
  Pt  Pt26  1  0.978004  0.661204  0.316799  1
