# generated using pymatgen
data_Zr5ZnSnBi2
_symmetry_space_group_name_H-M   'P 1'
_cell_length_a   8.80399427
_cell_length_b   8.80399427
_cell_length_c   5.92927800
_cell_angle_alpha   90.00000000
_cell_angle_beta   90.00000000
_cell_angle_gamma   119.86326531
_symmetry_Int_Tables_number   1
_chemical_formula_structural   Zr5ZnSnBi2
_chemical_formula_sum   'Zr10 Zn2 Sn2 Bi4'
_cell_volume   398.55538696
_cell_formula_units_Z   2
loop_
 _symmetry_equiv_pos_site_id
 _symmetry_equiv_pos_as_xyz
  1  'x, y, z'
loop_
 _atom_site_type_symbol
 _atom_site_label
 _atom_site_symmetry_multiplicity
 _atom_site_fract_x
 _atom_site_fract_y
 _atom_site_fract_z
 _atom_site_occupancy
  Zr  Zr0  1  0.667497  0.330680  0.003451  1
  Zr  Zr1  1  0.330680  0.667497  0.003451  1
  Zr  Zr2  1  0.330680  0.667497  0.496549  1
  Zr  Zr3  1  0.667497  0.330680  0.496549  1
  Zr  Zr4  1  0.736238  0.736238  0.750000  1
  Zr  Zr5  1  0.263195  0.998817  0.750000  1
  Zr  Zr6  1  0.998817  0.263195  0.750000  1
  Zr  Zr7  1  0.267449  0.267449  0.250000  1
  Zr  Zr8  1  0.732640  0.006041  0.250000  1
  Zr  Zr9  1  0.006041  0.732640  0.250000  1
  Zn  Zn10  1  0.999805  0.999805  0.007048  1
  Zn  Zn11  1  0.999805  0.999805  0.492952  1
  Sn  Sn12  1  0.384465  0.001278  0.250000  1
  Sn  Sn13  1  0.001278  0.384465  0.250000  1
  Bi  Bi14  1  0.386877  0.386877  0.750000  1
  Bi  Bi15  1  0.611303  0.998456  0.750000  1
  Bi  Bi16  1  0.998456  0.611303  0.750000  1
  Bi  Bi17  1  0.617278  0.617278  0.250000  1
