# generated using pymatgen
data_K(PbO2)6
_symmetry_space_group_name_H-M   'P 1'
_cell_length_a   9.57185940
_cell_length_b   9.57185923
_cell_length_c   9.57185906
_cell_angle_alpha   107.08917123
_cell_angle_beta   107.08916644
_cell_angle_gamma   114.34817888
_symmetry_Int_Tables_number   1
_chemical_formula_structural   K(PbO2)6
_chemical_formula_sum   'K2 Pb12 O24'
_cell_volume   671.39786921
_cell_formula_units_Z   2
loop_
 _symmetry_equiv_pos_site_id
 _symmetry_equiv_pos_as_xyz
  1  'x, y, z'
loop_
 _atom_site_type_symbol
 _atom_site_label
 _atom_site_symmetry_multiplicity
 _atom_site_fract_x
 _atom_site_fract_y
 _atom_site_fract_z
 _atom_site_occupancy
  K  K0  1  0.748451  0.748451  0.000000  1
  K  K1  1  0.251549  0.251549  0.000000  1
  Pb  Pb2  1  0.667563  0.149757  0.817319  1
  Pb  Pb3  1  0.817202  0.002200  0.485820  1
  Pb  Pb4  1  0.182798  0.997800  0.514180  1
  Pb  Pb5  1  0.516378  0.331382  0.514180  1
  Pb  Pb6  1  0.668618  0.182798  0.184997  1
  Pb  Pb7  1  0.332437  0.850243  0.182681  1
  Pb  Pb8  1  0.331382  0.817202  0.815003  1
  Pb  Pb9  1  0.997800  0.483622  0.815003  1
  Pb  Pb10  1  0.149757  0.332437  0.482195  1
  Pb  Pb11  1  0.483622  0.668618  0.485820  1
  Pb  Pb12  1  0.850243  0.667563  0.517805  1
  Pb  Pb13  1  0.002200  0.516378  0.184997  1
  O  O14  1  0.626820  0.984919  0.949627  1
  O  O15  1  0.662041  0.958096  0.620138  1
  O  O16  1  0.376553  0.998708  0.707831  1
  O  O17  1  0.709123  0.331278  0.707831  1
  O  O18  1  0.623447  0.001292  0.292169  1
  O  O19  1  0.677193  0.626820  0.641901  1
  O  O20  1  0.342909  0.292224  0.635132  1
  O  O21  1  0.015081  0.964708  0.641901  1
  O  O22  1  0.337959  0.041904  0.379862  1
  O  O23  1  0.668722  0.376553  0.377845  1
  O  O24  1  0.292224  0.657091  0.949314  1
  O  O25  1  0.964708  0.322807  0.949627  1
  O  O26  1  0.707776  0.342909  0.050686  1
  O  O27  1  0.373180  0.015081  0.050373  1
  O  O28  1  0.998708  0.290877  0.622155  1
  O  O29  1  0.331278  0.623447  0.622155  1
  O  O30  1  0.657091  0.707776  0.364868  1
  O  O31  1  0.984919  0.035292  0.358099  1
  O  O32  1  0.322807  0.373180  0.358099  1
  O  O33  1  0.041904  0.662041  0.703944  1
  O  O34  1  0.958096  0.337959  0.296056  1
  O  O35  1  0.290877  0.668722  0.292169  1
  O  O36  1  0.001292  0.709123  0.377845  1
  O  O37  1  0.035292  0.677193  0.050373  1
