# generated using pymatgen
data_ZrUF7
_symmetry_space_group_name_H-M   'P 1'
_cell_length_a   5.93065400
_cell_length_b   9.47234712
_cell_length_c   12.65841900
_cell_angle_alpha   61.61135101
_cell_angle_beta   90.00000000
_cell_angle_gamma   90.00000000
_symmetry_Int_Tables_number   1
_chemical_formula_structural   ZrUF7
_chemical_formula_sum   'Zr4 U4 F28'
_cell_volume   625.59802892
_cell_formula_units_Z   4
loop_
 _symmetry_equiv_pos_site_id
 _symmetry_equiv_pos_as_xyz
  1  'x, y, z'
loop_
 _atom_site_type_symbol
 _atom_site_label
 _atom_site_symmetry_multiplicity
 _atom_site_fract_x
 _atom_site_fract_y
 _atom_site_fract_z
 _atom_site_occupancy
  Zr  Zr0  1  0.745233  0.274588  0.454974  1
  Zr  Zr1  1  0.245233  0.725412  0.045026  1
  Zr  Zr2  1  0.254767  0.725412  0.545026  1
  Zr  Zr3  1  0.754767  0.274588  0.954974  1
  U  U4  1  0.743620  0.811420  0.266596  1
  U  U5  1  0.243620  0.188580  0.233404  1
  U  U6  1  0.256380  0.188580  0.733404  1
  U  U7  1  0.756380  0.811420  0.766596  1
  F  F8  1  0.461902  0.712565  0.923263  1
  F  F9  1  0.961902  0.287435  0.576737  1
  F  F10  1  0.538098  0.287435  0.076737  1
  F  F11  1  0.038098  0.712565  0.423263  1
  F  F12  1  0.461043  0.281695  0.547163  1
  F  F13  1  0.961043  0.718305  0.952837  1
  F  F14  1  0.538957  0.718305  0.452837  1
  F  F15  1  0.038957  0.281695  0.047163  1
  F  F16  1  0.765271  0.519469  0.860023  1
  F  F17  1  0.265271  0.480531  0.639977  1
  F  F18  1  0.234729  0.480531  0.139977  1
  F  F19  1  0.734729  0.519469  0.360023  1
  F  F20  1  0.760279  0.028554  0.057268  1
  F  F21  1  0.260279  0.971446  0.442732  1
  F  F22  1  0.239721  0.971446  0.942732  1
  F  F23  1  0.739721  0.028554  0.557268  1
  F  F24  1  0.989314  0.733273  0.646379  1
  F  F25  1  0.489314  0.266727  0.853621  1
  F  F26  1  0.010686  0.266727  0.353621  1
  F  F27  1  0.510686  0.733273  0.146379  1
  F  F28  1  0.038266  0.743274  0.169618  1
  F  F29  1  0.538266  0.256726  0.330382  1
  F  F30  1  0.961734  0.256726  0.830382  1
  F  F31  1  0.461734  0.743274  0.669618  1
  F  F32  1  0.423129  0.971654  0.233907  1
  F  F33  1  0.923129  0.028346  0.266093  1
  F  F34  1  0.576871  0.028346  0.766093  1
  F  F35  1  0.076871  0.971654  0.733907  1
