# generated using pymatgen
data_Th3Au3S
_symmetry_space_group_name_H-M   'P 1'
_cell_length_a   8.13168471
_cell_length_b   8.13168490
_cell_length_c   8.13168588
_cell_angle_alpha   113.55049479
_cell_angle_beta   113.55050010
_cell_angle_gamma   113.55047288
_symmetry_Int_Tables_number   1
_chemical_formula_structural   Th3Au3S
_chemical_formula_sum   'Th6 Au6 S2'
_cell_volume   337.29277302
_cell_formula_units_Z   2
loop_
 _symmetry_equiv_pos_site_id
 _symmetry_equiv_pos_as_xyz
  1  'x, y, z'
loop_
 _atom_site_type_symbol
 _atom_site_label
 _atom_site_symmetry_multiplicity
 _atom_site_fract_x
 _atom_site_fract_y
 _atom_site_fract_z
 _atom_site_occupancy
  Th  Th0  1  0.051825  0.402715  0.287932  1
  Th  Th1  1  0.402715  0.287932  0.051825  1
  Th  Th2  1  0.712068  0.948175  0.597285  1
  Th  Th3  1  0.287932  0.051825  0.402715  1
  Th  Th4  1  0.597285  0.712068  0.948175  1
  Th  Th5  1  0.948175  0.597285  0.712068  1
  Au  Au6  1  0.432539  0.935469  0.765419  1
  Au  Au7  1  0.935469  0.765419  0.432539  1
  Au  Au8  1  0.234581  0.567461  0.064531  1
  Au  Au9  1  0.765419  0.432539  0.935469  1
  Au  Au10  1  0.064531  0.234581  0.567461  1
  Au  Au11  1  0.567461  0.064531  0.234581  1
  S  S12  1  0.000000  0.000000  0.000000  1
  S  S13  1  0.500000  0.500000  0.500000  1
