# generated using pymatgen
data_LiDy16In3Pt4
_symmetry_space_group_name_H-M   'P 1'
_cell_length_a   9.69363333
_cell_length_b   9.69363317
_cell_length_c   9.69363266
_cell_angle_alpha   60.15374429
_cell_angle_beta   60.15374631
_cell_angle_gamma   60.15374447
_symmetry_Int_Tables_number   1
_chemical_formula_structural   LiDy16In3Pt4
_chemical_formula_sum   'Li1 Dy16 In3 Pt4'
_cell_volume   646.33025376
_cell_formula_units_Z   1
loop_
 _symmetry_equiv_pos_site_id
 _symmetry_equiv_pos_as_xyz
  1  'x, y, z'
loop_
 _atom_site_type_symbol
 _atom_site_label
 _atom_site_symmetry_multiplicity
 _atom_site_fract_x
 _atom_site_fract_y
 _atom_site_fract_z
 _atom_site_occupancy
  Li  Li0  1  0.572394  0.572394  0.572394  1
  Dy  Dy1  1  0.350635  0.350635  0.350635  1
  Dy  Dy2  1  0.351153  0.351153  0.945414  1
  Dy  Dy3  1  0.351153  0.945414  0.351153  1
  Dy  Dy4  1  0.945414  0.351153  0.351153  1
  Dy  Dy5  1  0.809206  0.191962  0.191962  1
  Dy  Dy6  1  0.189251  0.811652  0.811652  1
  Dy  Dy7  1  0.191962  0.809206  0.191962  1
  Dy  Dy8  1  0.811652  0.189251  0.811652  1
  Dy  Dy9  1  0.191962  0.191962  0.809206  1
  Dy  Dy10  1  0.811652  0.811652  0.189251  1
  Dy  Dy11  1  0.935985  0.565109  0.565109  1
  Dy  Dy12  1  0.561940  0.936779  0.936779  1
  Dy  Dy13  1  0.565109  0.935985  0.565109  1
  Dy  Dy14  1  0.936779  0.561939  0.936779  1
  Dy  Dy15  1  0.565109  0.565109  0.935985  1
  Dy  Dy16  1  0.936779  0.936779  0.561939  1
  In  In17  1  0.583320  0.583320  0.254285  1
  In  In18  1  0.583320  0.254285  0.583320  1
  In  In19  1  0.254285  0.583320  0.583320  1
  Pt  Pt20  1  0.143666  0.143666  0.143666  1
  Pt  Pt21  1  0.142830  0.142830  0.571616  1
  Pt  Pt22  1  0.142830  0.571616  0.142830  1
  Pt  Pt23  1  0.571616  0.142830  0.142830  1
