# generated using pymatgen
data_Hf2V(SnIr)2
_symmetry_space_group_name_H-M   'P 1'
_cell_length_a   7.82782710
_cell_length_b   7.82782564
_cell_length_c   7.82782700
_cell_angle_alpha   34.02802162
_cell_angle_beta   34.02802439
_cell_angle_gamma   34.02802398
_symmetry_Int_Tables_number   1
_chemical_formula_structural   Hf2V(SnIr)2
_chemical_formula_sum   'Hf2 V1 Sn2 Ir2'
_cell_volume   133.89293157
_cell_formula_units_Z   1
loop_
 _symmetry_equiv_pos_site_id
 _symmetry_equiv_pos_as_xyz
  1  'x, y, z'
loop_
 _atom_site_type_symbol
 _atom_site_label
 _atom_site_symmetry_multiplicity
 _atom_site_fract_x
 _atom_site_fract_y
 _atom_site_fract_z
 _atom_site_occupancy
  Hf  Hf0  1  0.755864  0.755864  0.755864  1
  Hf  Hf1  1  0.246273  0.246273  0.246273  1
  V  V2  1  0.374871  0.374871  0.374871  1
  Sn  Sn3  1  0.993633  0.993633  0.993633  1
  Sn  Sn4  1  0.503940  0.503940  0.503940  1
  Ir  Ir5  1  0.122288  0.122288  0.122288  1
  Ir  Ir6  1  0.628132  0.628132  0.628132  1
