# generated using pymatgen
data_Cs2MnCuSe4
_symmetry_space_group_name_H-M   'P 1'
_cell_length_a   14.57124114
_cell_length_b   12.99213663
_cell_length_c   7.78015188
_cell_angle_alpha   85.17472314
_cell_angle_beta   62.68144327
_cell_angle_gamma   32.14383110
_symmetry_Int_Tables_number   1
_chemical_formula_structural   Cs2MnCuSe4
_chemical_formula_sum   'Cs4 Mn2 Cu2 Se8'
_cell_volume   532.57839235
_cell_formula_units_Z   2
loop_
 _symmetry_equiv_pos_site_id
 _symmetry_equiv_pos_as_xyz
  1  'x, y, z'
loop_
 _atom_site_type_symbol
 _atom_site_label
 _atom_site_symmetry_multiplicity
 _atom_site_fract_x
 _atom_site_fract_y
 _atom_site_fract_z
 _atom_site_occupancy
  Cs  Cs0  1  0.571038  0.571038  0.928962  1
  Cs  Cs1  1  0.928962  0.928962  0.571038  1
  Cs  Cs2  1  0.678962  0.678962  0.321038  1
  Cs  Cs3  1  0.321038  0.321038  0.678962  1
  Mn  Mn4  1  0.500000  0.500000  0.500000  1
  Mn  Mn5  1  0.750000  0.750000  0.750000  1
  Cu  Cu6  1  0.250000  0.250000  0.250000  1
  Cu  Cu7  1  0.000000  0.000000  0.000000  1
  Se  Se8  1  0.230161  0.873144  0.589766  1
  Se  Se9  1  0.306929  0.589766  0.873144  1
  Se  Se10  1  0.589766  0.306929  0.230161  1
  Se  Se11  1  0.873144  0.230161  0.306929  1
  Se  Se12  1  0.660234  0.943071  0.019839  1
  Se  Se13  1  0.376856  0.019839  0.943071  1
  Se  Se14  1  0.943071  0.660234  0.376856  1
  Se  Se15  1  0.019839  0.376856  0.660234  1
