# generated using pymatgen
data_HoTm(Si2Rh3)2
_symmetry_space_group_name_H-M   'P 1'
_cell_length_a   6.61696619
_cell_length_b   6.61696511
_cell_length_c   6.61696585
_cell_angle_alpha   130.44895759
_cell_angle_beta   113.88609785
_cell_angle_gamma   86.92231321
_symmetry_Int_Tables_number   1
_chemical_formula_structural   HoTm(Si2Rh3)2
_chemical_formula_sum   'Ho1 Tm1 Si4 Rh6'
_cell_volume   192.27880248
_cell_formula_units_Z   1
loop_
 _symmetry_equiv_pos_site_id
 _symmetry_equiv_pos_as_xyz
  1  'x, y, z'
loop_
 _atom_site_type_symbol
 _atom_site_label
 _atom_site_symmetry_multiplicity
 _atom_site_fract_x
 _atom_site_fract_y
 _atom_site_fract_z
 _atom_site_occupancy
  Ho  Ho0  1  0.750000  0.458922  0.708922  1
  Tm  Tm1  1  0.250000  0.546451  0.296451  1
  Si  Si2  1  0.078757  0.884540  0.805783  1
  Si  Si3  1  0.921105  0.115589  0.194485  1
  Si  Si4  1  0.578895  0.773380  0.194485  1
  Si  Si5  1  0.421243  0.227027  0.805783  1
  Rh  Rh6  1  0.712922  0.997397  0.712302  1
  Rh  Rh7  1  0.214905  0.499380  0.712302  1
  Rh  Rh8  1  0.285095  0.997397  0.284473  1
  Rh  Rh9  1  0.787078  0.499380  0.284473  1
  Rh  Rh10  1  0.000602  0.000270  0.500872  1
  Rh  Rh11  1  0.499398  0.000270  0.999667  1
