# generated using pymatgen
data_Mg4Cu2B4Ir7Rh3
_symmetry_space_group_name_H-M   'P 1'
_cell_length_a   9.36607619
_cell_length_b   2.92345500
_cell_length_c   9.55120919
_cell_angle_alpha   90.00000000
_cell_angle_beta   90.10787107
_cell_angle_gamma   90.00000000
_symmetry_Int_Tables_number   1
_chemical_formula_structural   Mg4Cu2B4Ir7Rh3
_chemical_formula_sum   'Mg4 Cu2 B4 Ir7 Rh3'
_cell_volume   261.52408239
_cell_formula_units_Z   1
loop_
 _symmetry_equiv_pos_site_id
 _symmetry_equiv_pos_as_xyz
  1  'x, y, z'
loop_
 _atom_site_type_symbol
 _atom_site_label
 _atom_site_symmetry_multiplicity
 _atom_site_fract_x
 _atom_site_fract_y
 _atom_site_fract_z
 _atom_site_occupancy
  Mg  Mg0  1  0.310265  0.000000  0.165184  1
  Mg  Mg1  1  0.810364  0.000000  0.335678  1
  Mg  Mg2  1  0.189141  0.000000  0.665988  1
  Mg  Mg3  1  0.689152  0.000000  0.834380  1
  Cu  Cu4  1  0.001019  0.000000  0.998711  1
  Cu  Cu5  1  0.500496  0.000000  0.501366  1
  B  B6  1  0.626256  0.000000  0.129127  1
  B  B7  1  0.125531  0.000000  0.370727  1
  B  B8  1  0.873847  0.000000  0.626320  1
  B  B9  1  0.376253  0.000000  0.872684  1
  Ir  Ir10  1  0.499884  0.500001  0.999425  1
  Ir  Ir11  1  0.787966  0.500001  0.082800  1
  Ir  Ir12  1  0.056297  0.500001  0.217471  1
  Ir  Ir13  1  0.557163  0.500001  0.282225  1
  Ir  Ir14  1  0.287176  0.500001  0.416926  1
  Ir  Ir15  1  0.000361  0.500001  0.500863  1
  Ir  Ir16  1  0.713164  0.500001  0.582219  1
  Rh  Rh17  1  0.440488  0.500001  0.718807  1
  Rh  Rh18  1  0.940060  0.500001  0.781652  1
  Rh  Rh19  1  0.215117  0.500001  0.917449  1
