# generated using pymatgen
data_Hf6Mn2Ga12FeRe
_symmetry_space_group_name_H-M   'P 1'
_cell_length_a   5.38519627
_cell_length_b   7.72371277
_cell_length_c   8.75717640
_cell_angle_alpha   90.36718870
_cell_angle_beta   89.46294384
_cell_angle_gamma   90.25319104
_symmetry_Int_Tables_number   1
_chemical_formula_structural   Hf6Mn2Ga12FeRe
_chemical_formula_sum   'Hf6 Mn2 Ga12 Fe1 Re1'
_cell_volume   364.21650699
_cell_formula_units_Z   1
loop_
 _symmetry_equiv_pos_site_id
 _symmetry_equiv_pos_as_xyz
  1  'x, y, z'
loop_
 _atom_site_type_symbol
 _atom_site_label
 _atom_site_symmetry_multiplicity
 _atom_site_fract_x
 _atom_site_fract_y
 _atom_site_fract_z
 _atom_site_occupancy
  Hf  Hf0  1  0.002293  0.846128  0.720845  1
  Hf  Hf1  1  0.506079  0.157701  0.219624  1
  Hf  Hf2  1  0.997193  0.284673  0.000922  1
  Hf  Hf3  1  0.993921  0.842299  0.280376  1
  Hf  Hf4  1  0.497707  0.153872  0.779155  1
  Hf  Hf5  1  0.502807  0.715327  0.499078  1
  Mn  Mn6  1  0.250000  0.500000  0.750000  1
  Mn  Mn7  1  0.250000  0.500000  0.250000  1
  Ga  Ga8  1  0.002433  0.563935  0.504428  1
  Ga  Ga9  1  0.991187  0.635265  0.995696  1
  Ga  Ga10  1  0.759041  0.963003  0.997790  1
  Ga  Ga11  1  0.007217  0.226913  0.312531  1
  Ga  Ga12  1  0.497567  0.436065  0.995572  1
  Ga  Ga13  1  0.492783  0.773087  0.187469  1
  Ga  Ga14  1  0.262375  0.038725  0.499383  1
  Ga  Ga15  1  0.508813  0.364735  0.504304  1
  Ga  Ga16  1  0.997706  0.234228  0.689441  1
  Ga  Ga17  1  0.502294  0.765772  0.810559  1
  Ga  Ga18  1  0.740959  0.036997  0.502210  1
  Ga  Ga19  1  0.237625  0.961275  0.000617  1
  Fe  Fe20  1  0.750000  0.500000  0.750000  1
  Re  Re21  1  0.750000  0.500000  0.250000  1
