# generated using pymatgen
data_Sr8Al(Si4Pt)3
_symmetry_space_group_name_H-M   'P 1'
_cell_length_a   11.85897051
_cell_length_b   10.27575707
_cell_length_c   8.36292500
_cell_angle_alpha   78.28842351
_cell_angle_beta   58.03929557
_cell_angle_gamma   43.67239409
_symmetry_Int_Tables_number   1
_chemical_formula_structural   Sr8Al(Si4Pt)3
_chemical_formula_sum   'Sr8 Al1 Si12 Pt3'
_cell_volume   568.20921708
_cell_formula_units_Z   1
loop_
 _symmetry_equiv_pos_site_id
 _symmetry_equiv_pos_as_xyz
  1  'x, y, z'
loop_
 _atom_site_type_symbol
 _atom_site_label
 _atom_site_symmetry_multiplicity
 _atom_site_fract_x
 _atom_site_fract_y
 _atom_site_fract_z
 _atom_site_occupancy
  Sr  Sr0  1  0.118753  0.124018  0.885466  1
  Sr  Sr1  1  0.885071  0.871838  0.117831  1
  Sr  Sr2  1  0.119260  0.122133  0.375202  1
  Sr  Sr3  1  0.375112  0.382503  0.118603  1
  Sr  Sr4  1  0.628714  0.615965  0.372710  1
  Sr  Sr5  1  0.373206  0.382355  0.628776  1
  Sr  Sr6  1  0.623591  0.620949  0.878324  1
  Sr  Sr7  1  0.877791  0.878627  0.623774  1
  Al  Al8  1  0.415817  0.082824  0.417607  1
  Si  Si9  1  0.918215  0.577369  0.412726  1
  Si  Si10  1  0.069060  0.433878  0.589292  1
  Si  Si11  1  0.412652  0.091636  0.917564  1
  Si  Si12  1  0.589538  0.907581  0.068601  1
  Si  Si13  1  0.335695  0.668859  0.831340  1
  Si  Si14  1  0.663280  0.330081  0.168949  1
  Si  Si15  1  0.830863  0.164865  0.335860  1
  Si  Si16  1  0.169765  0.837731  0.663013  1
  Si  Si17  1  0.920214  0.580258  0.919032  1
  Si  Si18  1  0.591865  0.908776  0.591073  1
  Si  Si19  1  0.333221  0.667206  0.332278  1
  Si  Si20  1  0.666626  0.333174  0.667277  1
  Pt  Pt21  1  0.082625  0.417116  0.084575  1
  Pt  Pt22  1  0.832953  0.166874  0.833787  1
  Pt  Pt23  1  0.166117  0.833389  0.166337  1
