# generated using pymatgen
data_TbPrHo2(Mo2O7)2
_symmetry_space_group_name_H-M   'P 1'
_cell_length_a   7.32483850
_cell_length_b   7.45332415
_cell_length_c   7.37054226
_cell_angle_alpha   60.64005677
_cell_angle_beta   60.20491024
_cell_angle_gamma   60.56862391
_symmetry_Int_Tables_number   1
_chemical_formula_structural   TbPrHo2(Mo2O7)2
_chemical_formula_sum   'Tb1 Pr1 Ho2 Mo4 O14'
_cell_volume   287.55408707
_cell_formula_units_Z   1
loop_
 _symmetry_equiv_pos_site_id
 _symmetry_equiv_pos_as_xyz
  1  'x, y, z'
loop_
 _atom_site_type_symbol
 _atom_site_label
 _atom_site_symmetry_multiplicity
 _atom_site_fract_x
 _atom_site_fract_y
 _atom_site_fract_z
 _atom_site_occupancy
  Tb  Tb0  1  0.125000  0.125000  0.625000  1
  Pr  Pr1  1  0.125000  0.625000  0.125000  1
  Ho  Ho2  1  0.125000  0.125000  0.125000  1
  Ho  Ho3  1  0.625000  0.125000  0.125000  1
  Mo  Mo4  1  0.625000  0.625000  0.625000  1
  Mo  Mo5  1  0.125000  0.625000  0.625000  1
  Mo  Mo6  1  0.625000  0.625000  0.125000  1
  Mo  Mo7  1  0.625000  0.125000  0.625000  1
  O  O8  1  0.997079  0.008018  0.997825  1
  O  O9  1  0.252921  0.241982  0.252175  1
  O  O10  1  0.287383  0.285791  0.717517  1
  O  O11  1  0.545611  0.532840  0.959540  1
  O  O12  1  0.709309  0.285791  0.717517  1
  O  O13  1  0.717731  0.284911  0.279627  1
  O  O14  1  0.287511  0.721736  0.703243  1
  O  O15  1  0.287990  0.717160  0.290460  1
  O  O16  1  0.704389  0.717160  0.290460  1
  O  O17  1  0.962489  0.528264  0.546757  1
  O  O18  1  0.532269  0.965089  0.970373  1
  O  O19  1  0.962617  0.964209  0.532483  1
  O  O20  1  0.962010  0.532840  0.959540  1
  O  O21  1  0.540691  0.964209  0.532483  1
