# generated using pymatgen
data_Dy4Lu4Re(TcB8)3
_symmetry_space_group_name_H-M   'P 1'
_cell_length_a   3.64700800
_cell_length_b   9.10223188
_cell_length_c   11.49001400
_cell_angle_alpha   90.02570082
_cell_angle_beta   90.00000000
_cell_angle_gamma   90.00000000
_symmetry_Int_Tables_number   1
_chemical_formula_structural   Dy4Lu4Re(TcB8)3
_chemical_formula_sum   'Dy4 Lu4 Re1 Tc3 B24'
_cell_volume   381.42146069
_cell_formula_units_Z   1
loop_
 _symmetry_equiv_pos_site_id
 _symmetry_equiv_pos_as_xyz
  1  'x, y, z'
loop_
 _atom_site_type_symbol
 _atom_site_label
 _atom_site_symmetry_multiplicity
 _atom_site_fract_x
 _atom_site_fract_y
 _atom_site_fract_z
 _atom_site_occupancy
  Dy  Dy0  1  0.000000  0.323368  0.414236  1
  Dy  Dy1  1  0.000000  0.676899  0.585624  1
  Dy  Dy2  1  0.000000  0.823068  0.085971  1
  Dy  Dy3  1  0.000000  0.177186  0.914364  1
  Lu  Lu4  1  0.000000  0.942856  0.369308  1
  Lu  Lu5  1  0.000000  0.057731  0.629759  1
  Lu  Lu6  1  0.000000  0.442833  0.130765  1
  Lu  Lu7  1  0.000000  0.556087  0.869817  1
  Re  Re8  1  0.000000  0.860866  0.819471  1
  Tc  Tc9  1  0.000000  0.639314  0.319492  1
  Tc  Tc10  1  0.000000  0.360764  0.680340  1
  Tc  Tc11  1  0.000000  0.139296  0.180533  1
  B  B12  1  0.500000  0.553857  0.432492  1
  B  B13  1  0.500000  0.446444  0.567548  1
  B  B14  1  0.500000  0.053741  0.067645  1
  B  B15  1  0.500000  0.946420  0.932684  1
  B  B16  1  0.500000  0.750694  0.418128  1
  B  B17  1  0.500000  0.249548  0.581779  1
  B  B18  1  0.500000  0.250605  0.081915  1
  B  B19  1  0.500000  0.748922  0.918369  1
  B  B20  1  0.500000  0.792593  0.264939  1
  B  B21  1  0.500000  0.207398  0.734918  1
  B  B22  1  0.500000  0.292596  0.235196  1
  B  B23  1  0.500000  0.706940  0.764968  1
  B  B24  1  0.500000  0.629712  0.184710  1
  B  B25  1  0.500000  0.370067  0.815344  1
  B  B26  1  0.500000  0.129788  0.315429  1
  B  B27  1  0.500000  0.870406  0.684368  1
  B  B28  1  0.500000  0.981565  0.212466  1
  B  B29  1  0.500000  0.018808  0.787344  1
  B  B30  1  0.500000  0.481603  0.287625  1
  B  B31  1  0.500000  0.518348  0.712571  1
  B  B32  1  0.500000  0.597487  0.027159  1
  B  B33  1  0.500000  0.401942  0.973122  1
  B  B34  1  0.500000  0.097838  0.472703  1
  B  B35  1  0.500000  0.902409  0.526897  1
