# generated using pymatgen
data_Dy2Y3Bi2Ir
_symmetry_space_group_name_H-M   'P 1'
_cell_length_a   8.04332000
_cell_length_b   8.98233100
_cell_length_c   12.54774500
_cell_angle_alpha   90.00000000
_cell_angle_beta   89.99820400
_cell_angle_gamma   90.00000000
_symmetry_Int_Tables_number   1
_chemical_formula_structural   Dy2Y3Bi2Ir
_chemical_formula_sum   'Dy8 Y12 Bi8 Ir4'
_cell_volume   906.54650144
_cell_formula_units_Z   4
loop_
 _symmetry_equiv_pos_site_id
 _symmetry_equiv_pos_as_xyz
  1  'x, y, z'
loop_
 _atom_site_type_symbol
 _atom_site_label
 _atom_site_symmetry_multiplicity
 _atom_site_fract_x
 _atom_site_fract_y
 _atom_site_fract_z
 _atom_site_occupancy
  Dy  Dy0  1  0.675655  0.040652  0.565514  1
  Dy  Dy1  1  0.324345  0.959348  0.434486  1
  Dy  Dy2  1  0.175640  0.959350  0.934471  1
  Dy  Dy3  1  0.324345  0.540652  0.434486  1
  Dy  Dy4  1  0.824360  0.040650  0.065529  1
  Dy  Dy5  1  0.675655  0.459348  0.565514  1
  Dy  Dy6  1  0.824360  0.459350  0.065529  1
  Dy  Dy7  1  0.175640  0.540650  0.934471  1
  Y  Y8  1  0.840721  0.750000  0.793486  1
  Y  Y9  1  0.159279  0.250000  0.206514  1
  Y  Y10  1  0.340673  0.250000  0.706548  1
  Y  Y11  1  0.659327  0.750000  0.293452  1
  Y  Y12  1  0.374230  0.750000  0.694503  1
  Y  Y13  1  0.625770  0.250000  0.305497  1
  Y  Y14  1  0.874197  0.250000  0.805515  1
  Y  Y15  1  0.125803  0.750000  0.194485  1
  Y  Y16  1  0.948703  0.750000  0.501244  1
  Y  Y17  1  0.051297  0.250000  0.498756  1
  Y  Y18  1  0.448689  0.250000  0.998744  1
  Y  Y19  1  0.551311  0.750000  0.001256  1
  Bi  Bi20  1  0.568512  0.491503  0.827037  1
  Bi  Bi21  1  0.431488  0.508497  0.172963  1
  Bi  Bi22  1  0.068492  0.508508  0.672948  1
  Bi  Bi23  1  0.431488  0.991503  0.172963  1
  Bi  Bi24  1  0.931508  0.491492  0.327052  1
  Bi  Bi25  1  0.568512  0.008497  0.827037  1
  Bi  Bi26  1  0.931508  0.008508  0.327052  1
  Bi  Bi27  1  0.068492  0.991492  0.672948  1
  Ir  Ir28  1  0.567839  0.750000  0.509474  1
  Ir  Ir29  1  0.432161  0.250000  0.490526  1
  Ir  Ir30  1  0.067859  0.250000  0.990530  1
  Ir  Ir31  1  0.932141  0.750000  0.009470  1
