# generated using pymatgen
data_Ac9Nd10ErPb16
_symmetry_space_group_name_H-M   'P 1'
_cell_length_a   8.66134413
_cell_length_b   8.72690659
_cell_length_c   16.65376000
_cell_angle_alpha   90.00000000
_cell_angle_beta   90.00000000
_cell_angle_gamma   89.85339021
_symmetry_Int_Tables_number   1
_chemical_formula_structural   Ac9Nd10ErPb16
_chemical_formula_sum   'Ac9 Nd10 Er1 Pb16'
_cell_volume   1258.79932573
_cell_formula_units_Z   1
loop_
 _symmetry_equiv_pos_site_id
 _symmetry_equiv_pos_as_xyz
  1  'x, y, z'
loop_
 _atom_site_type_symbol
 _atom_site_label
 _atom_site_symmetry_multiplicity
 _atom_site_fract_x
 _atom_site_fract_y
 _atom_site_fract_z
 _atom_site_occupancy
  Ac  Ac0  1  0.527623  0.323022  0.899845  1
  Ac  Ac1  1  0.027392  0.178936  0.598410  1
  Ac  Ac2  1  0.472643  0.680365  0.402720  1
  Ac  Ac3  1  0.973872  0.822603  0.097863  1
  Ac  Ac4  1  0.472643  0.680365  0.097280  1
  Ac  Ac5  1  0.973872  0.822603  0.402137  1
  Ac  Ac6  1  0.527623  0.323022  0.600155  1
  Ac  Ac7  1  0.027392  0.178936  0.901590  1
  Ac  Ac8  1  0.789580  0.497422  0.250000  1
  Nd  Nd9  1  0.372302  0.844091  0.880510  1
  Nd  Nd10  1  0.872053  0.656459  0.620682  1
  Nd  Nd11  1  0.625835  0.155860  0.381864  1
  Nd  Nd12  1  0.128771  0.343348  0.118661  1
  Nd  Nd13  1  0.625835  0.155860  0.118136  1
  Nd  Nd14  1  0.128771  0.343348  0.381339  1
  Nd  Nd15  1  0.372302  0.844091  0.619490  1
  Nd  Nd16  1  0.872053  0.656459  0.879318  1
  Nd  Nd17  1  0.209515  0.503031  0.750000  1
  Nd  Nd18  1  0.710550  0.997500  0.750000  1
  Er  Er19  1  0.289590  0.004155  0.250000  1
  Pb  Pb20  1  0.289620  0.038054  0.047996  1
  Pb  Pb21  1  0.791959  0.456415  0.458280  1
  Pb  Pb22  1  0.709338  0.959947  0.545918  1
  Pb  Pb23  1  0.209493  0.541118  0.954617  1
  Pb  Pb24  1  0.709338  0.959947  0.954082  1
  Pb  Pb25  1  0.209493  0.541118  0.545383  1
  Pb  Pb26  1  0.289620  0.038054  0.452004  1
  Pb  Pb27  1  0.791959  0.456415  0.041720  1
  Pb  Pb28  1  0.569855  0.634805  0.750000  1
  Pb  Pb29  1  0.071210  0.866377  0.750000  1
  Pb  Pb30  1  0.419467  0.359516  0.250000  1
  Pb  Pb31  1  0.934946  0.121632  0.250000  1
  Pb  Pb32  1  0.337245  0.140754  0.750000  1
  Pb  Pb33  1  0.837645  0.356842  0.750000  1
  Pb  Pb34  1  0.655734  0.868940  0.250000  1
  Pb  Pb35  1  0.172858  0.648592  0.250000  1
