# generated using pymatgen
data_Tb5(CoB3)2
_symmetry_space_group_name_H-M   'P 1'
_cell_length_a   5.41248410
_cell_length_b   5.41248436
_cell_length_c   8.43469203
_cell_angle_alpha   71.28587067
_cell_angle_beta   71.28586719
_cell_angle_gamma   59.99999433
_symmetry_Int_Tables_number   1
_chemical_formula_structural   Tb5(CoB3)2
_chemical_formula_sum   'Tb5 Co2 B6'
_cell_volume   198.76225729
_cell_formula_units_Z   1
loop_
 _symmetry_equiv_pos_site_id
 _symmetry_equiv_pos_as_xyz
  1  'x, y, z'
loop_
 _atom_site_type_symbol
 _atom_site_label
 _atom_site_symmetry_multiplicity
 _atom_site_fract_x
 _atom_site_fract_y
 _atom_site_fract_z
 _atom_site_occupancy
  Tb  Tb0  1  0.000000  0.000000  0.000000  1
  Tb  Tb1  1  0.251096  0.251096  0.246712  1
  Tb  Tb2  1  0.748904  0.748904  0.753288  1
  Tb  Tb3  1  0.416549  0.416549  0.750351  1
  Tb  Tb4  1  0.583451  0.583451  0.249649  1
  Co  Co5  1  0.119922  0.119922  0.640233  1
  Co  Co6  1  0.880078  0.880078  0.359767  1
  B  B7  1  0.168277  0.831723  0.500000  1
  B  B8  1  0.831723  0.500000  0.500000  1
  B  B9  1  0.500000  0.168277  0.500000  1
  B  B10  1  0.168277  0.500000  0.500000  1
  B  B11  1  0.500000  0.831723  0.500000  1
  B  B12  1  0.831723  0.168277  0.500000  1
