# generated using pymatgen
data_Tb2NdCr(Co4P3)2
_symmetry_space_group_name_H-M   'P 1'
_cell_length_a   3.72192200
_cell_length_b   10.58748100
_cell_length_c   12.28004900
_cell_angle_alpha   90.00000000
_cell_angle_beta   90.00000000
_cell_angle_gamma   90.00000000
_symmetry_Int_Tables_number   1
_chemical_formula_structural   Tb2NdCr(Co4P3)2
_chemical_formula_sum   'Tb4 Nd2 Cr2 Co16 P12'
_cell_volume   483.90489035
_cell_formula_units_Z   2
loop_
 _symmetry_equiv_pos_site_id
 _symmetry_equiv_pos_as_xyz
  1  'x, y, z'
loop_
 _atom_site_type_symbol
 _atom_site_label
 _atom_site_symmetry_multiplicity
 _atom_site_fract_x
 _atom_site_fract_y
 _atom_site_fract_z
 _atom_site_occupancy
  Tb  Tb0  1  0.500000  0.818064  0.204159  1
  Tb  Tb1  1  0.500000  0.181936  0.204159  1
  Tb  Tb2  1  0.000000  0.681936  0.795841  1
  Tb  Tb3  1  0.000000  0.318064  0.795841  1
  Nd  Nd4  1  0.000000  0.500000  0.522982  1
  Nd  Nd5  1  0.500000  0.000000  0.477018  1
  Cr  Cr6  1  0.500000  0.500000  0.154045  1
  Cr  Cr7  1  0.000000  0.000000  0.845955  1
  Co  Co8  1  0.500000  0.500000  0.705382  1
  Co  Co9  1  0.000000  0.000000  0.294618  1
  Co  Co10  1  0.000000  0.500000  0.987780  1
  Co  Co11  1  0.500000  0.000000  0.012220  1
  Co  Co12  1  0.500000  0.332595  0.993479  1
  Co  Co13  1  0.500000  0.667405  0.993479  1
  Co  Co14  1  0.000000  0.167405  0.006521  1
  Co  Co15  1  0.000000  0.832595  0.006521  1
  Co  Co16  1  0.500000  0.295717  0.429565  1
  Co  Co17  1  0.500000  0.704283  0.429565  1
  Co  Co18  1  0.000000  0.204283  0.570435  1
  Co  Co19  1  0.000000  0.795717  0.570435  1
  Co  Co20  1  0.500000  0.880083  0.711178  1
  Co  Co21  1  0.500000  0.119917  0.711178  1
  Co  Co22  1  0.000000  0.619917  0.288822  1
  Co  Co23  1  0.000000  0.380083  0.288822  1
  P  P24  1  0.500000  0.500000  0.884346  1
  P  P25  1  0.000000  0.000000  0.115654  1
  P  P26  1  0.500000  0.500000  0.340494  1
  P  P27  1  0.000000  0.000000  0.659506  1
  P  P28  1  0.500000  0.307907  0.617067  1
  P  P29  1  0.500000  0.692093  0.617067  1
  P  P30  1  0.000000  0.192093  0.382933  1
  P  P31  1  0.000000  0.807907  0.382933  1
  P  P32  1  0.500000  0.847503  0.893220  1
  P  P33  1  0.500000  0.152497  0.893220  1
  P  P34  1  0.000000  0.652497  0.106780  1
  P  P35  1  0.000000  0.347503  0.106780  1
