# generated using pymatgen
data_CaTb4Er2CoI12
_symmetry_space_group_name_H-M   'P 1'
_cell_length_a   9.71966927
_cell_length_b   9.79603064
_cell_length_c   9.79764498
_cell_angle_alpha   106.79983001
_cell_angle_beta   106.99259328
_cell_angle_gamma   106.70000286
_symmetry_Int_Tables_number   1
_chemical_formula_structural   CaTb4Er2CoI12
_chemical_formula_sum   'Ca1 Tb4 Er2 Co1 I12'
_cell_volume   780.46084378
_cell_formula_units_Z   1
loop_
 _symmetry_equiv_pos_site_id
 _symmetry_equiv_pos_as_xyz
  1  'x, y, z'
loop_
 _atom_site_type_symbol
 _atom_site_label
 _atom_site_symmetry_multiplicity
 _atom_site_fract_x
 _atom_site_fract_y
 _atom_site_fract_z
 _atom_site_occupancy
  Ca  Ca0  1  0.499964  0.500121  0.500071  1
  Tb  Tb1  1  0.282755  0.023139  0.092074  1
  Tb  Tb2  1  0.977060  0.904697  0.703613  1
  Tb  Tb3  1  0.904367  0.703759  0.976347  1
  Tb  Tb4  1  0.717774  0.978004  0.909482  1
  Er  Er5  1  0.023332  0.095548  0.292451  1
  Er  Er6  1  0.094447  0.292148  0.024182  1
  Co  Co7  1  0.000257  0.000114  0.000227  1
  I  I8  1  0.147113  0.454382  0.375931  1
  I  I9  1  0.454619  0.377394  0.148701  1
  I  I10  1  0.376183  0.149099  0.455613  1
  I  I11  1  0.851462  0.542891  0.621792  1
  I  I12  1  0.542518  0.622926  0.850117  1
  I  I13  1  0.621139  0.850932  0.544558  1
  I  I14  1  0.681292  0.072542  0.224302  1
  I  I15  1  0.072834  0.225546  0.679786  1
  I  I16  1  0.225779  0.678903  0.073127  1
  I  I17  1  0.321680  0.928398  0.777935  1
  I  I18  1  0.928429  0.779196  0.322121  1
  I  I19  1  0.776996  0.320262  0.927571  1
