# generated using pymatgen
data_TaNi4Te6Mo
_symmetry_space_group_name_H-M   'P 1'
_cell_length_a   3.68797900
_cell_length_b   7.78703113
_cell_length_c   10.40217238
_cell_angle_alpha   70.00079358
_cell_angle_beta   90.00000000
_cell_angle_gamma   90.00000000
_symmetry_Int_Tables_number   1
_chemical_formula_structural   TaNi4Te6Mo
_chemical_formula_sum   'Ta1 Ni4 Te6 Mo1'
_cell_volume   280.71938419
_cell_formula_units_Z   1
loop_
 _symmetry_equiv_pos_site_id
 _symmetry_equiv_pos_as_xyz
  1  'x, y, z'
loop_
 _atom_site_type_symbol
 _atom_site_label
 _atom_site_symmetry_multiplicity
 _atom_site_fract_x
 _atom_site_fract_y
 _atom_site_fract_z
 _atom_site_occupancy
  Ta  Ta0  1  0.750000  0.215960  0.297776  1
  Ni  Ni1  1  0.250000  0.404726  0.090751  1
  Ni  Ni2  1  0.750000  0.595876  0.908724  1
  Ni  Ni3  1  0.750000  0.040672  0.565648  1
  Ni  Ni4  1  0.250000  0.958218  0.436316  1
  Te  Te5  1  0.750000  0.938902  0.825096  1
  Te  Te6  1  0.250000  0.053571  0.172716  1
  Te  Te7  1  0.750000  0.581457  0.159679  1
  Te  Te8  1  0.250000  0.426461  0.838669  1
  Te  Te9  1  0.250000  0.279463  0.493649  1
  Te  Te10  1  0.750000  0.720934  0.510996  1
  Mo  Mo11  1  0.250000  0.783759  0.699980  1
