# generated using pymatgen
data_Dy2Er10InCo4Ir
_symmetry_space_group_name_H-M   'P 1'
_cell_length_a   8.24122294
_cell_length_b   8.24122247
_cell_length_c   8.23966833
_cell_angle_alpha   111.14622326
_cell_angle_beta   110.80239159
_cell_angle_gamma   106.51340103
_symmetry_Int_Tables_number   1
_chemical_formula_structural   Dy2Er10InCo4Ir
_chemical_formula_sum   'Dy2 Er10 In1 Co4 Ir1'
_cell_volume   429.89080030
_cell_formula_units_Z   1
loop_
 _symmetry_equiv_pos_site_id
 _symmetry_equiv_pos_as_xyz
  1  'x, y, z'
loop_
 _atom_site_type_symbol
 _atom_site_label
 _atom_site_symmetry_multiplicity
 _atom_site_fract_x
 _atom_site_fract_y
 _atom_site_fract_z
 _atom_site_occupancy
  Dy  Dy0  1  0.183629  0.285168  0.468797  1
  Dy  Dy1  1  0.816371  0.714832  0.531203  1
  Er  Er2  1  0.183808  0.715432  0.899240  1
  Er  Er3  1  0.816192  0.284568  0.100760  1
  Er  Er4  1  0.314864  0.621242  0.305519  1
  Er  Er5  1  0.685136  0.378758  0.694481  1
  Er  Er6  1  0.315724  0.009344  0.694481  1
  Er  Er7  1  0.684276  0.990656  0.305519  1
  Er  Er8  1  0.412328  0.217338  0.193953  1
  Er  Er9  1  0.587672  0.782662  0.806047  1
  Er  Er10  1  0.023386  0.218375  0.806047  1
  Er  Er11  1  0.976614  0.781625  0.193953  1
  In  In12  1  0.500000  0.500000  0.000000  1
  Co  Co13  1  0.112128  0.612128  0.500000  1
  Co  Co14  1  0.887872  0.387872  0.500000  1
  Co  Co15  1  0.377461  0.999521  0.376982  1
  Co  Co16  1  0.622539  0.000479  0.623018  1
  Ir  Ir17  1  0.000000  0.000000  0.000000  1
