# generated using pymatgen
data_Sr5Ca3(Mg4Au3)4
_symmetry_space_group_name_H-M   'P 1'
_cell_length_a   14.95020300
_cell_length_b   14.95020361
_cell_length_c   4.40612600
_cell_angle_alpha   90.00000000
_cell_angle_beta   90.00000000
_cell_angle_gamma   120.00000087
_symmetry_Int_Tables_number   1
_chemical_formula_structural   Sr5Ca3(Mg4Au3)4
_chemical_formula_sum   'Sr5 Ca3 Mg16 Au12'
_cell_volume   852.86783788
_cell_formula_units_Z   1
loop_
 _symmetry_equiv_pos_site_id
 _symmetry_equiv_pos_as_xyz
  1  'x, y, z'
loop_
 _atom_site_type_symbol
 _atom_site_label
 _atom_site_symmetry_multiplicity
 _atom_site_fract_x
 _atom_site_fract_y
 _atom_site_fract_z
 _atom_site_occupancy
  Sr  Sr0  1  0.333333  0.666667  0.000000  1
  Sr  Sr1  1  0.666667  0.333333  0.000000  1
  Sr  Sr2  1  0.818700  0.000000  0.500000  1
  Sr  Sr3  1  0.000000  0.818700  0.500000  1
  Sr  Sr4  1  0.181300  0.181300  0.500000  1
  Ca  Ca5  1  0.449037  0.000000  0.000000  1
  Ca  Ca6  1  0.000000  0.449037  0.000000  1
  Ca  Ca7  1  0.550963  0.550963  0.000000  1
  Mg  Mg8  1  0.178500  0.374908  0.000000  1
  Mg  Mg9  1  0.625092  0.803593  0.000000  1
  Mg  Mg10  1  0.374908  0.178500  0.000000  1
  Mg  Mg11  1  0.196407  0.821500  0.000000  1
  Mg  Mg12  1  0.803593  0.625092  0.000000  1
  Mg  Mg13  1  0.821500  0.196407  0.000000  1
  Mg  Mg14  1  0.280447  0.000000  0.500000  1
  Mg  Mg15  1  0.000000  0.280447  0.500000  1
  Mg  Mg16  1  0.719553  0.719553  0.500000  1
  Mg  Mg17  1  0.349360  0.475010  0.500000  1
  Mg  Mg18  1  0.524990  0.874350  0.500000  1
  Mg  Mg19  1  0.475010  0.349360  0.500000  1
  Mg  Mg20  1  0.125650  0.650640  0.500000  1
  Mg  Mg21  1  0.874350  0.524990  0.500000  1
  Mg  Mg22  1  0.650640  0.125650  0.500000  1
  Mg  Mg23  1  0.000000  0.000000  0.000000  1
  Au  Au24  1  0.165267  0.484883  0.500000  1
  Au  Au25  1  0.515117  0.680384  0.500000  1
  Au  Au26  1  0.484883  0.165267  0.500000  1
  Au  Au27  1  0.319616  0.834733  0.500000  1
  Au  Au28  1  0.680384  0.515117  0.500000  1
  Au  Au29  1  0.834733  0.319616  0.500000  1
  Au  Au30  1  0.177890  0.000000  0.000000  1
  Au  Au31  1  0.000000  0.177890  0.000000  1
  Au  Au32  1  0.822110  0.822110  0.000000  1
  Au  Au33  1  0.648421  0.000000  0.000000  1
  Au  Au34  1  0.000000  0.648421  0.000000  1
  Au  Au35  1  0.351579  0.351579  0.000000  1
