# generated using pymatgen
data_LuZr7(InAu2)4
_symmetry_space_group_name_H-M   'P 1'
_cell_length_a   7.66046648
_cell_length_b   7.66046648
_cell_length_c   7.15691600
_cell_angle_alpha   90.00000000
_cell_angle_beta   90.00000000
_cell_angle_gamma   89.55997019
_symmetry_Int_Tables_number   1
_chemical_formula_structural   LuZr7(InAu2)4
_chemical_formula_sum   'Lu1 Zr7 In4 Au8'
_cell_volume   419.97510279
_cell_formula_units_Z   1
loop_
 _symmetry_equiv_pos_site_id
 _symmetry_equiv_pos_as_xyz
  1  'x, y, z'
loop_
 _atom_site_type_symbol
 _atom_site_label
 _atom_site_symmetry_multiplicity
 _atom_site_fract_x
 _atom_site_fract_y
 _atom_site_fract_z
 _atom_site_occupancy
  Lu  Lu0  1  0.694441  0.305559  0.000000  1
  Zr  Zr1  1  0.150697  0.143311  0.000000  1
  Zr  Zr2  1  0.856689  0.849303  0.000000  1
  Zr  Zr3  1  0.645253  0.354747  0.500000  1
  Zr  Zr4  1  0.353261  0.646739  0.500000  1
  Zr  Zr5  1  0.304542  0.695458  0.000000  1
  Zr  Zr6  1  0.803916  0.805396  0.500000  1
  Zr  Zr7  1  0.194604  0.196084  0.500000  1
  In  In8  1  0.497849  0.998174  0.252831  1
  In  In9  1  0.497849  0.998174  0.747169  1
  In  In10  1  0.001826  0.502151  0.252831  1
  In  In11  1  0.001826  0.502151  0.747169  1
  Au  Au12  1  0.369355  0.370500  0.206223  1
  Au  Au13  1  0.629500  0.630645  0.793777  1
  Au  Au14  1  0.629500  0.630645  0.206223  1
  Au  Au15  1  0.870242  0.129758  0.705453  1
  Au  Au16  1  0.870242  0.129758  0.294547  1
  Au  Au17  1  0.369355  0.370500  0.793777  1
  Au  Au18  1  0.129527  0.870473  0.296230  1
  Au  Au19  1  0.129527  0.870473  0.703770  1
