# generated using pymatgen
data_Tb4DyBi2Os
_symmetry_space_group_name_H-M   'P 1'
_cell_length_a   7.99777405
_cell_length_b   9.06815405
_cell_length_c   12.54040216
_cell_angle_alpha   90.01243728
_cell_angle_beta   89.98661541
_cell_angle_gamma   90.00018863
_symmetry_Int_Tables_number   1
_chemical_formula_structural   Tb4DyBi2Os
_chemical_formula_sum   'Tb16 Dy4 Bi8 Os4'
_cell_volume   909.49321241
_cell_formula_units_Z   4
loop_
 _symmetry_equiv_pos_site_id
 _symmetry_equiv_pos_as_xyz
  1  'x, y, z'
loop_
 _atom_site_type_symbol
 _atom_site_label
 _atom_site_symmetry_multiplicity
 _atom_site_fract_x
 _atom_site_fract_y
 _atom_site_fract_z
 _atom_site_occupancy
  Tb  Tb0  1  0.841306  0.749932  0.791957  1
  Tb  Tb1  1  0.158611  0.250028  0.208018  1
  Tb  Tb2  1  0.341270  0.250069  0.708129  1
  Tb  Tb3  1  0.658813  0.749971  0.291855  1
  Tb  Tb4  1  0.374683  0.749929  0.692558  1
  Tb  Tb5  1  0.625470  0.250091  0.307443  1
  Tb  Tb6  1  0.874646  0.250070  0.807578  1
  Tb  Tb7  1  0.125210  0.749908  0.192430  1
  Tb  Tb8  1  0.942837  0.749922  0.504485  1
  Tb  Tb9  1  0.056932  0.250042  0.495532  1
  Tb  Tb10  1  0.443036  0.250076  0.995498  1
  Tb  Tb11  1  0.557187  0.749956  0.004519  1
  Tb  Tb12  1  0.674932  0.041815  0.564104  1
  Tb  Tb13  1  0.325025  0.958175  0.435873  1
  Tb  Tb14  1  0.174786  0.958192  0.935935  1
  Tb  Tb15  1  0.325239  0.541775  0.435942  1
  Dy  Dy16  1  0.825429  0.041856  0.064070  1
  Dy  Dy17  1  0.674547  0.458191  0.564064  1
  Dy  Dy18  1  0.825643  0.458194  0.064002  1
  Dy  Dy19  1  0.174403  0.541812  0.935975  1
  Bi  Bi20  1  0.568206  0.493540  0.827777  1
  Bi  Bi21  1  0.431814  0.506437  0.172180  1
  Bi  Bi22  1  0.068215  0.506447  0.672251  1
  Bi  Bi23  1  0.431804  0.993550  0.172201  1
  Bi  Bi24  1  0.931669  0.493524  0.327717  1
  Bi  Bi25  1  0.568316  0.006477  0.827768  1
  Bi  Bi26  1  0.931657  0.006486  0.327696  1
  Bi  Bi27  1  0.068325  0.993535  0.672261  1
  Os  Os28  1  0.575728  0.749840  0.510749  1
  Os  Os29  1  0.424685  0.250162  0.489341  1
  Os  Os30  1  0.075105  0.250163  0.989404  1
  Os  Os31  1  0.924471  0.749835  0.010689  1
