# generated using pymatgen
data_Sr8In16PdAu11
_symmetry_space_group_name_H-M   'P 1'
_cell_length_a   15.22207900
_cell_length_b   15.34653629
_cell_length_c   4.61092400
_cell_angle_alpha   90.00000000
_cell_angle_beta   90.00000000
_cell_angle_gamma   119.73209289
_symmetry_Int_Tables_number   1
_chemical_formula_structural   Sr8In16PdAu11
_chemical_formula_sum   'Sr8 In16 Pd1 Au11'
_cell_volume   935.33900306
_cell_formula_units_Z   1
loop_
 _symmetry_equiv_pos_site_id
 _symmetry_equiv_pos_as_xyz
  1  'x, y, z'
loop_
 _atom_site_type_symbol
 _atom_site_label
 _atom_site_symmetry_multiplicity
 _atom_site_fract_x
 _atom_site_fract_y
 _atom_site_fract_z
 _atom_site_occupancy
  Sr  Sr0  1  0.452408  0.000000  0.000000  1
  Sr  Sr1  1  0.999146  0.453493  0.000000  1
  Sr  Sr2  1  0.545654  0.546507  0.000000  1
  Sr  Sr3  1  0.331878  0.667230  0.000000  1
  Sr  Sr4  1  0.664648  0.332770  0.000000  1
  Sr  Sr5  1  0.824753  0.000000  0.500000  1
  Sr  Sr6  1  0.000412  0.820239  0.500000  1
  Sr  Sr7  1  0.180173  0.179761  0.500000  1
  In  In8  1  0.180918  0.379218  0.000000  1
  In  In9  1  0.620614  0.802109  0.000000  1
  In  In10  1  0.373488  0.178040  0.000000  1
  In  In11  1  0.195448  0.821960  0.000000  1
  In  In12  1  0.801701  0.620782  0.000000  1
  In  In13  1  0.818507  0.197891  0.000000  1
  In  In14  1  0.275861  0.000000  0.500000  1
  In  In15  1  0.000984  0.279454  0.500000  1
  In  In16  1  0.721529  0.720546  0.500000  1
  In  In17  1  0.347452  0.472304  0.500000  1
  In  In18  1  0.527290  0.876257  0.500000  1
  In  In19  1  0.471234  0.347792  0.500000  1
  In  In20  1  0.123444  0.652208  0.500000  1
  In  In21  1  0.875149  0.527696  0.500000  1
  In  In22  1  0.651033  0.123743  0.500000  1
  In  In23  1  0.010224  0.000000  0.000000  1
  Pd  Pd24  1  0.185865  0.000000  0.000000  1
  Au  Au25  1  0.171745  0.493361  0.500000  1
  Au  Au26  1  0.506628  0.680025  0.500000  1
  Au  Au27  1  0.490363  0.171732  0.500000  1
  Au  Au28  1  0.318631  0.828268  0.500000  1
  Au  Au29  1  0.678383  0.506639  0.500000  1
  Au  Au30  1  0.826603  0.319975  0.500000  1
  Au  Au31  1  0.000577  0.173814  0.000000  1
  Au  Au32  1  0.826762  0.826186  0.000000  1
  Au  Au33  1  0.661105  0.000000  0.000000  1
  Au  Au34  1  0.999663  0.659934  0.000000  1
  Au  Au35  1  0.339730  0.340066  0.000000  1
