# generated using pymatgen
data_LaCdPt4
_symmetry_space_group_name_H-M   'P 1'
_cell_length_a   5.46563186
_cell_length_b   5.46563130
_cell_length_c   5.46563100
_cell_angle_alpha   59.99999575
_cell_angle_beta   59.99999916
_cell_angle_gamma   59.99999603
_symmetry_Int_Tables_number   1
_chemical_formula_structural   LaCdPt4
_chemical_formula_sum   'La1 Cd1 Pt4'
_cell_volume   115.45320363
_cell_formula_units_Z   1
loop_
 _symmetry_equiv_pos_site_id
 _symmetry_equiv_pos_as_xyz
  1  'x, y, z'
loop_
 _atom_site_type_symbol
 _atom_site_label
 _atom_site_symmetry_multiplicity
 _atom_site_fract_x
 _atom_site_fract_y
 _atom_site_fract_z
 _atom_site_occupancy
  La  La0  1  0.500000  0.500000  0.500000  1
  Cd  Cd1  1  0.750000  0.750000  0.750000  1
  Pt  Pt2  1  0.124316  0.627051  0.124316  1
  Pt  Pt3  1  0.124316  0.124316  0.627051  1
  Pt  Pt4  1  0.627051  0.124316  0.124316  1
  Pt  Pt5  1  0.124316  0.124316  0.124316  1
