# generated using pymatgen
data_Yb3DyAl15(SiIr2)3
_symmetry_space_group_name_H-M   'P 1'
_cell_length_a   7.53805181
_cell_length_b   7.52834603
_cell_length_c   9.38555530
_cell_angle_alpha   89.97329677
_cell_angle_beta   89.97345857
_cell_angle_gamma   119.73883838
_symmetry_Int_Tables_number   1
_chemical_formula_structural   Yb3DyAl15(SiIr2)3
_chemical_formula_sum   'Yb3 Dy1 Al15 Si3 Ir6'
_cell_volume   462.47260250
_cell_formula_units_Z   1
loop_
 _symmetry_equiv_pos_site_id
 _symmetry_equiv_pos_as_xyz
  1  'x, y, z'
loop_
 _atom_site_type_symbol
 _atom_site_label
 _atom_site_symmetry_multiplicity
 _atom_site_fract_x
 _atom_site_fract_y
 _atom_site_fract_z
 _atom_site_occupancy
  Yb  Yb0  1  0.993981  0.667984  0.747803  1
  Yb  Yb1  1  0.003654  0.325028  0.253848  1
  Yb  Yb2  1  0.681027  0.002153  0.747725  1
  Dy  Dy3  1  0.324391  0.002899  0.249806  1
  Al  Al4  1  0.997377  0.667208  0.423497  1
  Al  Al5  1  0.998523  0.663149  0.074041  1
  Al  Al6  1  0.335739  0.999320  0.923824  1
  Al  Al7  1  0.001017  0.336145  0.929685  1
  Al  Al8  1  0.664489  0.999511  0.074322  1
  Al  Al9  1  0.660781  0.995281  0.423743  1
  Al  Al10  1  0.335450  0.999559  0.576346  1
  Al  Al11  1  0.335691  0.335793  0.055885  1
  Al  Al12  1  0.665249  0.665963  0.945422  1
  Al  Al13  1  0.664689  0.665691  0.555723  1
  Al  Al14  1  0.338189  0.335834  0.444426  1
  Al  Al15  1  0.332522  0.545552  0.749976  1
  Al  Al16  1  0.665184  0.451962  0.250642  1
  Al  Al17  1  0.545127  0.335035  0.750011  1
  Al  Al18  1  0.452065  0.664692  0.249435  1
  Si  Si19  1  0.133041  0.129629  0.750265  1
  Si  Si20  1  0.870463  0.871267  0.250256  1
  Si  Si21  1  0.001811  0.338052  0.572442  1
  Ir  Ir22  1  0.677376  0.328682  0.501472  1
  Ir  Ir23  1  0.321501  0.664227  0.499132  1
  Ir  Ir24  1  0.329003  0.670993  0.999618  1
  Ir  Ir25  1  0.670063  0.328750  0.999849  1
  Ir  Ir26  1  0.000672  0.008611  0.500442  1
  Ir  Ir27  1  0.000926  0.001031  0.000363  1
