# generated using pymatgen
data_Li3Ca2As7Pd9
_symmetry_space_group_name_H-M   'P 1'
_cell_length_a   4.15244900
_cell_length_b   10.13140416
_cell_length_c   10.13140300
_cell_angle_alpha   119.99999295
_cell_angle_beta   90.00000000
_cell_angle_gamma   90.00000000
_symmetry_Int_Tables_number   1
_chemical_formula_structural   Li3Ca2As7Pd9
_chemical_formula_sum   'Li3 Ca2 As7 Pd9'
_cell_volume   369.12562975
_cell_formula_units_Z   1
loop_
 _symmetry_equiv_pos_site_id
 _symmetry_equiv_pos_as_xyz
  1  'x, y, z'
loop_
 _atom_site_type_symbol
 _atom_site_label
 _atom_site_symmetry_multiplicity
 _atom_site_fract_x
 _atom_site_fract_y
 _atom_site_fract_z
 _atom_site_occupancy
  Li  Li0  1  0.500000  0.792259  0.894950  1
  Li  Li1  1  0.500000  0.102692  0.207741  1
  Li  Li2  1  0.500000  0.105050  0.897308  1
  Ca  Ca3  1  0.000000  0.666667  0.333333  1
  Ca  Ca4  1  0.500000  0.333333  0.666667  1
  As  As5  1  0.500000  0.712025  0.117171  1
  As  As6  1  0.500000  0.405146  0.287975  1
  As  As7  1  0.500000  0.882829  0.594854  1
  As  As8  1  0.000000  0.000000  0.000000  1
  As  As9  1  0.000000  0.585187  0.702602  1
  As  As10  1  0.000000  0.117414  0.414813  1
  As  As11  1  0.000000  0.297398  0.882586  1
  Pd  Pd12  1  0.000000  0.566544  0.939831  1
  Pd  Pd13  1  0.000000  0.373287  0.433456  1
  Pd  Pd14  1  0.000000  0.060169  0.626713  1
  Pd  Pd15  1  0.000000  0.879483  0.163625  1
  Pd  Pd16  1  0.000000  0.284142  0.120517  1
  Pd  Pd17  1  0.000000  0.836375  0.715858  1
  Pd  Pd18  1  0.500000  0.952208  0.389014  1
  Pd  Pd19  1  0.500000  0.436806  0.047792  1
  Pd  Pd20  1  0.500000  0.610986  0.563194  1
