# generated using pymatgen
data_Ce2Al9PtRh2
_symmetry_space_group_name_H-M   'P 1'
_cell_length_a   7.62571800
_cell_length_b   7.62571830
_cell_length_c   9.48152400
_cell_angle_alpha   90.00000000
_cell_angle_beta   90.00000000
_cell_angle_gamma   119.00873190
_symmetry_Int_Tables_number   1
_chemical_formula_structural   Ce2Al9PtRh2
_chemical_formula_sum   'Ce4 Al18 Pt2 Rh4'
_cell_volume   482.19445503
_cell_formula_units_Z   2
loop_
 _symmetry_equiv_pos_site_id
 _symmetry_equiv_pos_as_xyz
  1  'x, y, z'
loop_
 _atom_site_type_symbol
 _atom_site_label
 _atom_site_symmetry_multiplicity
 _atom_site_fract_x
 _atom_site_fract_y
 _atom_site_fract_z
 _atom_site_occupancy
  Ce  Ce0  1  0.997245  0.674179  0.250000  1
  Ce  Ce1  1  0.002755  0.325821  0.750000  1
  Ce  Ce2  1  0.674179  0.997245  0.250000  1
  Ce  Ce3  1  0.325821  0.002755  0.750000  1
  Al  Al4  1  0.002684  0.339788  0.075688  1
  Al  Al5  1  0.997316  0.660212  0.924312  1
  Al  Al6  1  0.997316  0.660212  0.575688  1
  Al  Al7  1  0.339788  0.002684  0.424312  1
  Al  Al8  1  0.002684  0.339788  0.424312  1
  Al  Al9  1  0.660212  0.997316  0.575688  1
  Al  Al10  1  0.660212  0.997316  0.924312  1
  Al  Al11  1  0.339788  0.002684  0.075688  1
  Al  Al12  1  0.337780  0.337780  0.551248  1
  Al  Al13  1  0.662220  0.662220  0.448752  1
  Al  Al14  1  0.662220  0.662220  0.051248  1
  Al  Al15  1  0.337780  0.337780  0.948752  1
  Al  Al16  1  0.137272  0.137272  0.250000  1
  Al  Al17  1  0.862728  0.862728  0.750000  1
  Al  Al18  1  0.341676  0.550919  0.250000  1
  Al  Al19  1  0.658324  0.449081  0.750000  1
  Al  Al20  1  0.550919  0.341676  0.250000  1
  Al  Al21  1  0.449081  0.658324  0.750000  1
  Pt  Pt22  1  0.000000  0.000000  0.000000  1
  Pt  Pt23  1  0.000000  0.000000  0.500000  1
  Rh  Rh24  1  0.671629  0.328371  0.000000  1
  Rh  Rh25  1  0.328371  0.671629  0.000000  1
  Rh  Rh26  1  0.328371  0.671629  0.500000  1
  Rh  Rh27  1  0.671629  0.328371  0.500000  1
