# generated using pymatgen
data_Sr3(ZnRh)4
_symmetry_space_group_name_H-M   'P 1'
_cell_length_a   6.78260143
_cell_length_b   6.78260149
_cell_length_c   6.78260200
_cell_angle_alpha   109.47121916
_cell_angle_beta   109.47121936
_cell_angle_gamma   109.47122171
_symmetry_Int_Tables_number   1
_chemical_formula_structural   Sr3(ZnRh)4
_chemical_formula_sum   'Sr3 Zn4 Rh4'
_cell_volume   240.19670741
_cell_formula_units_Z   1
loop_
 _symmetry_equiv_pos_site_id
 _symmetry_equiv_pos_as_xyz
  1  'x, y, z'
loop_
 _atom_site_type_symbol
 _atom_site_label
 _atom_site_symmetry_multiplicity
 _atom_site_fract_x
 _atom_site_fract_y
 _atom_site_fract_z
 _atom_site_occupancy
  Sr  Sr0  1  0.500000  0.500000  0.000000  1
  Sr  Sr1  1  0.500000  0.000000  0.500000  1
  Sr  Sr2  1  0.000000  0.500000  0.500000  1
  Zn  Zn3  1  0.612591  0.000000  0.000000  1
  Zn  Zn4  1  0.000000  0.612591  0.000000  1
  Zn  Zn5  1  0.387410  0.387410  0.387410  1
  Zn  Zn6  1  0.000000  0.000000  0.612591  1
  Rh  Rh7  1  0.246916  0.000000  0.000000  1
  Rh  Rh8  1  0.000000  0.246916  0.000000  1
  Rh  Rh9  1  0.000000  0.000000  0.246916  1
  Rh  Rh10  1  0.753085  0.753085  0.753085  1
