# generated using pymatgen
data_Ca2Ga7Ni
_symmetry_space_group_name_H-M   'P 1'
_cell_length_a   6.02080136
_cell_length_b   6.02427446
_cell_length_c   11.48657864
_cell_angle_alpha   74.79751847
_cell_angle_beta   74.80649415
_cell_angle_gamma   89.99999719
_symmetry_Int_Tables_number   1
_chemical_formula_structural   Ca2Ga7Ni
_chemical_formula_sum   'Ca4 Ga14 Ni2'
_cell_volume   386.93824059
_cell_formula_units_Z   2
loop_
 _symmetry_equiv_pos_site_id
 _symmetry_equiv_pos_as_xyz
  1  'x, y, z'
loop_
 _atom_site_type_symbol
 _atom_site_label
 _atom_site_symmetry_multiplicity
 _atom_site_fract_x
 _atom_site_fract_y
 _atom_site_fract_z
 _atom_site_occupancy
  Ca  Ca0  1  0.997749  0.997749  0.004501  1
  Ca  Ca1  1  0.500887  0.500887  0.998226  1
  Ca  Ca2  1  0.750667  0.250667  0.498666  1
  Ca  Ca3  1  0.247843  0.747843  0.504316  1
  Ga  Ga4  1  0.203656  0.203656  0.592688  1
  Ga  Ga5  1  0.809157  0.809157  0.381686  1
  Ga  Ga6  1  0.607864  0.128301  0.254643  1
  Ga  Ga7  1  0.137492  0.617055  0.254643  1
  Ga  Ga8  1  0.607864  0.617055  0.254643  1
  Ga  Ga9  1  0.137492  0.128301  0.254643  1
  Ga  Ga10  1  0.867039  0.356769  0.754733  1
  Ga  Ga11  1  0.378228  0.888497  0.754733  1
  Ga  Ga12  1  0.867039  0.888497  0.754733  1
  Ga  Ga13  1  0.378228  0.356769  0.754733  1
  Ga  Ga14  1  0.692244  0.692244  0.615512  1
  Ga  Ga15  1  0.059550  0.559550  0.880900  1
  Ga  Ga16  1  0.453339  0.953339  0.093320  1
  Ga  Ga17  1  0.942695  0.442695  0.114610  1
  Ni  Ni18  1  0.313076  0.313076  0.373848  1
  Ni  Ni19  1  0.562723  0.062723  0.874556  1
