# generated using pymatgen
data_Ba2InFeO5
_symmetry_space_group_name_H-M   'P 1'
_cell_length_a   6.00214700
_cell_length_b   7.93509444
_cell_length_c   12.56399835
_cell_angle_alpha   92.33315130
_cell_angle_beta   90.00000000
_cell_angle_gamma   90.00000000
_symmetry_Int_Tables_number   1
_chemical_formula_structural   Ba2InFeO5
_chemical_formula_sum   'Ba8 In4 Fe4 O20'
_cell_volume   597.89706589
_cell_formula_units_Z   4
loop_
 _symmetry_equiv_pos_site_id
 _symmetry_equiv_pos_as_xyz
  1  'x, y, z'
loop_
 _atom_site_type_symbol
 _atom_site_label
 _atom_site_symmetry_multiplicity
 _atom_site_fract_x
 _atom_site_fract_y
 _atom_site_fract_z
 _atom_site_occupancy
  Ba  Ba0  1  0.757227  0.488520  0.348991  1
  Ba  Ba1  1  0.742773  0.988520  0.848991  1
  Ba  Ba2  1  0.242773  0.511480  0.651009  1
  Ba  Ba3  1  0.257227  0.011480  0.151009  1
  Ba  Ba4  1  0.755809  0.992889  0.380595  1
  Ba  Ba5  1  0.744191  0.492889  0.880595  1
  Ba  Ba6  1  0.244191  0.007111  0.619405  1
  Ba  Ba7  1  0.255809  0.507111  0.119405  1
  In  In8  1  0.750819  0.265597  0.630846  1
  In  In9  1  0.749181  0.765597  0.130846  1
  In  In10  1  0.249181  0.734403  0.369154  1
  In  In11  1  0.250819  0.234403  0.869154  1
  Fe  Fe12  1  0.737627  0.741400  0.580903  1
  Fe  Fe13  1  0.762373  0.241400  0.080903  1
  Fe  Fe14  1  0.262373  0.258600  0.419097  1
  Fe  Fe15  1  0.237627  0.758600  0.919097  1
  O  O16  1  0.758262  0.969840  0.630638  1
  O  O17  1  0.741738  0.469840  0.130638  1
  O  O18  1  0.241738  0.030160  0.369362  1
  O  O19  1  0.258262  0.530160  0.869362  1
  O  O20  1  0.737412  0.063355  0.175174  1
  O  O21  1  0.762588  0.563355  0.675174  1
  O  O22  1  0.262588  0.936645  0.824826  1
  O  O23  1  0.237412  0.436645  0.324826  1
  O  O24  1  0.533978  0.746565  0.268493  1
  O  O25  1  0.966022  0.246565  0.768493  1
  O  O26  1  0.466022  0.253435  0.731507  1
  O  O27  1  0.033978  0.753435  0.231507  1
  O  O28  1  0.535918  0.223115  0.974959  1
  O  O29  1  0.964082  0.723115  0.474959  1
  O  O30  1  0.464082  0.776885  0.025041  1
  O  O31  1  0.035918  0.276885  0.525041  1
  O  O32  1  0.044140  0.227054  0.011177  1
  O  O33  1  0.455860  0.727054  0.511177  1
  O  O34  1  0.955860  0.772946  0.988823  1
  O  O35  1  0.544140  0.272946  0.488823  1
