# generated using pymatgen
data_SrLa(Cu3Pd2)2
_symmetry_space_group_name_H-M   'P 1'
_cell_length_a   4.09894000
_cell_length_b   5.62077400
_cell_length_c   8.90749900
_cell_angle_alpha   90.00000000
_cell_angle_beta   90.00000000
_cell_angle_gamma   90.00000000
_symmetry_Int_Tables_number   1
_chemical_formula_structural   SrLa(Cu3Pd2)2
_chemical_formula_sum   'Sr1 La1 Cu6 Pd4'
_cell_volume   205.22178795
_cell_formula_units_Z   1
loop_
 _symmetry_equiv_pos_site_id
 _symmetry_equiv_pos_as_xyz
  1  'x, y, z'
loop_
 _atom_site_type_symbol
 _atom_site_label
 _atom_site_symmetry_multiplicity
 _atom_site_fract_x
 _atom_site_fract_y
 _atom_site_fract_z
 _atom_site_occupancy
  Sr  Sr0  1  0.000000  0.500000  0.500000  1
  La  La1  1  0.000000  0.000000  0.000000  1
  Cu  Cu2  1  0.000000  0.000000  0.344510  1
  Cu  Cu3  1  0.000000  0.500000  0.848021  1
  Cu  Cu4  1  0.000000  0.500000  0.151979  1
  Cu  Cu5  1  0.000000  0.000000  0.655490  1
  Cu  Cu6  1  0.500000  0.000000  0.500000  1
  Cu  Cu7  1  0.500000  0.500000  0.000000  1
  Pd  Pd8  1  0.500000  0.246622  0.244005  1
  Pd  Pd9  1  0.500000  0.753378  0.755995  1
  Pd  Pd10  1  0.500000  0.753378  0.244005  1
  Pd  Pd11  1  0.500000  0.246622  0.755995  1
