# generated using pymatgen
data_Yb6Pr9Y5Sn16
_symmetry_space_group_name_H-M   'P 1'
_cell_length_a   8.03774373
_cell_length_b   8.43504566
_cell_length_c   15.91454456
_cell_angle_alpha   90.07603038
_cell_angle_beta   90.26554922
_cell_angle_gamma   90.08439723
_symmetry_Int_Tables_number   1
_chemical_formula_structural   Yb6Pr9Y5Sn16
_chemical_formula_sum   'Yb6 Pr9 Y5 Sn16'
_cell_volume   1078.97227700
_cell_formula_units_Z   1
loop_
 _symmetry_equiv_pos_site_id
 _symmetry_equiv_pos_as_xyz
  1  'x, y, z'
loop_
 _atom_site_type_symbol
 _atom_site_label
 _atom_site_symmetry_multiplicity
 _atom_site_fract_x
 _atom_site_fract_y
 _atom_site_fract_z
 _atom_site_occupancy
  Yb  Yb0  1  0.171906  0.331672  0.376672  1
  Yb  Yb1  1  0.328793  0.831644  0.622535  1
  Yb  Yb2  1  0.161006  0.498999  0.749450  1
  Yb  Yb3  1  0.660393  0.000484  0.748268  1
  Yb  Yb4  1  0.839363  0.501769  0.251902  1
  Yb  Yb5  1  0.337478  0.000113  0.250511  1
  Pr  Pr6  1  0.832318  0.673535  0.876878  1
  Pr  Pr7  1  0.490178  0.317605  0.904141  1
  Pr  Pr8  1  0.991982  0.182401  0.595278  1
  Pr  Pr9  1  0.508236  0.682813  0.403490  1
  Pr  Pr10  1  0.010875  0.816797  0.097328  1
  Pr  Pr11  1  0.509209  0.679808  0.095840  1
  Pr  Pr12  1  0.010795  0.818180  0.403220  1
  Pr  Pr13  1  0.488358  0.317321  0.595416  1
  Pr  Pr14  1  0.990501  0.181724  0.904580  1
  Y  Y15  1  0.331499  0.828250  0.875842  1
  Y  Y16  1  0.830714  0.669377  0.623960  1
  Y  Y17  1  0.668723  0.169649  0.374778  1
  Y  Y18  1  0.167978  0.327517  0.124949  1
  Y  Y19  1  0.668355  0.172218  0.125481  1
  Sn  Sn20  1  0.326487  0.038971  0.038396  1
  Sn  Sn21  1  0.824261  0.460763  0.461781  1
  Sn  Sn22  1  0.675718  0.960671  0.537058  1
  Sn  Sn23  1  0.179191  0.538164  0.964348  1
  Sn  Sn24  1  0.668329  0.964454  0.963754  1
  Sn  Sn25  1  0.164536  0.537829  0.540046  1
  Sn  Sn26  1  0.334499  0.037975  0.459453  1
  Sn  Sn27  1  0.828466  0.457828  0.040436  1
  Sn  Sn28  1  0.527175  0.610323  0.746998  1
  Sn  Sn29  1  0.030399  0.889603  0.749782  1
  Sn  Sn30  1  0.471662  0.385560  0.248606  1
  Sn  Sn31  1  0.970390  0.111064  0.250665  1
  Sn  Sn32  1  0.290359  0.138649  0.750718  1
  Sn  Sn33  1  0.787795  0.362376  0.749312  1
  Sn  Sn34  1  0.710128  0.865197  0.249149  1
  Sn  Sn35  1  0.211948  0.638695  0.248979  1
