# generated using pymatgen
data_Tb9DyGaSb5
_symmetry_space_group_name_H-M   'P 1'
_cell_length_a   8.97111201
_cell_length_b   8.94738796
_cell_length_c   6.40139701
_cell_angle_alpha   90.00421997
_cell_angle_beta   89.99564338
_cell_angle_gamma   120.08328698
_symmetry_Int_Tables_number   1
_chemical_formula_structural   Tb9DyGaSb5
_chemical_formula_sum   'Tb9 Dy1 Ga1 Sb5'
_cell_volume   444.61370434
_cell_formula_units_Z   1
loop_
 _symmetry_equiv_pos_site_id
 _symmetry_equiv_pos_as_xyz
  1  'x, y, z'
loop_
 _atom_site_type_symbol
 _atom_site_label
 _atom_site_symmetry_multiplicity
 _atom_site_fract_x
 _atom_site_fract_y
 _atom_site_fract_z
 _atom_site_occupancy
  Tb  Tb0  1  0.010623  0.762971  0.749969  1
  Tb  Tb1  1  0.999389  0.245112  0.250054  1
  Tb  Tb2  1  0.754308  0.754817  0.250003  1
  Tb  Tb3  1  0.749637  0.999990  0.749983  1
  Tb  Tb4  1  0.247597  0.237013  0.749941  1
  Tb  Tb5  1  0.245165  0.999971  0.250116  1
  Tb  Tb6  1  0.660072  0.325149  0.999284  1
  Tb  Tb7  1  0.660164  0.325315  0.500675  1
  Tb  Tb8  1  0.334896  0.674863  0.999230  1
  Dy  Dy9  1  0.334882  0.674888  0.500789  1
  Ga  Ga10  1  0.392382  0.999644  0.749647  1
  Sb  Sb11  1  0.388527  0.391550  0.250261  1
  Sb  Sb12  1  0.997625  0.608772  0.250238  1
  Sb  Sb13  1  0.002296  0.389634  0.749715  1
  Sb  Sb14  1  0.612312  0.610649  0.749760  1
  Sb  Sb15  1  0.610122  0.999662  0.250336  1
