# generated using pymatgen
data_YHoEr2(Si3Rh)2
_symmetry_space_group_name_H-M   'P 1'
_cell_length_a   8.15382919
_cell_length_b   8.15382883
_cell_length_c   7.85908900
_cell_angle_alpha   90.00000000
_cell_angle_beta   90.00000000
_cell_angle_gamma   119.97554298
_symmetry_Int_Tables_number   1
_chemical_formula_structural   YHoEr2(Si3Rh)2
_chemical_formula_sum   'Y2 Ho2 Er4 Si12 Rh4'
_cell_volume   452.61924438
_cell_formula_units_Z   2
loop_
 _symmetry_equiv_pos_site_id
 _symmetry_equiv_pos_as_xyz
  1  'x, y, z'
loop_
 _atom_site_type_symbol
 _atom_site_label
 _atom_site_symmetry_multiplicity
 _atom_site_fract_x
 _atom_site_fract_y
 _atom_site_fract_z
 _atom_site_occupancy
  Y  Y0  1  0.000055  0.999945  0.250000  1
  Y  Y1  1  0.999973  0.000027  0.750000  1
  Ho  Ho2  1  0.491052  0.981913  0.750000  1
  Ho  Ho3  1  0.018087  0.508948  0.750000  1
  Er  Er4  1  0.509081  0.490919  0.250000  1
  Er  Er5  1  0.509040  0.018058  0.250000  1
  Er  Er6  1  0.981942  0.490960  0.250000  1
  Er  Er7  1  0.491124  0.508876  0.750000  1
  Si  Si8  1  0.167299  0.832701  0.499477  1
  Si  Si9  1  0.167380  0.334537  0.499748  1
  Si  Si10  1  0.665463  0.832620  0.499748  1
  Si  Si11  1  0.832717  0.167283  0.499755  1
  Si  Si12  1  0.832767  0.665595  0.499788  1
  Si  Si13  1  0.334405  0.167233  0.499788  1
  Si  Si14  1  0.832717  0.167283  0.000245  1
  Si  Si15  1  0.832767  0.665595  0.000212  1
  Si  Si16  1  0.334405  0.167233  0.000212  1
  Si  Si17  1  0.167299  0.832701  0.000523  1
  Si  Si18  1  0.167380  0.334537  0.000252  1
  Si  Si19  1  0.665463  0.832620  0.000252  1
  Rh  Rh20  1  0.333596  0.666404  0.463395  1
  Rh  Rh21  1  0.666195  0.333805  0.533273  1
  Rh  Rh22  1  0.666195  0.333805  0.966727  1
  Rh  Rh23  1  0.333596  0.666404  0.036605  1
