# generated using pymatgen
data_Lu6Hf8Al8Os7
_symmetry_space_group_name_H-M   'P 1'
_cell_length_a   9.21315451
_cell_length_b   9.21315436
_cell_length_c   9.21315500
_cell_angle_alpha   60.00000131
_cell_angle_beta   60.00000183
_cell_angle_gamma   59.99999863
_symmetry_Int_Tables_number   1
_chemical_formula_structural   Lu6Hf8Al8Os7
_chemical_formula_sum   'Lu6 Hf8 Al8 Os7'
_cell_volume   552.98084513
_cell_formula_units_Z   1
loop_
 _symmetry_equiv_pos_site_id
 _symmetry_equiv_pos_as_xyz
  1  'x, y, z'
loop_
 _atom_site_type_symbol
 _atom_site_label
 _atom_site_symmetry_multiplicity
 _atom_site_fract_x
 _atom_site_fract_y
 _atom_site_fract_z
 _atom_site_occupancy
  Lu  Lu0  1  0.696377  0.696377  0.303623  1
  Lu  Lu1  1  0.303623  0.696377  0.303623  1
  Lu  Lu2  1  0.696377  0.303623  0.303623  1
  Lu  Lu3  1  0.303623  0.303623  0.696377  1
  Lu  Lu4  1  0.696377  0.303623  0.696377  1
  Lu  Lu5  1  0.303623  0.696377  0.696377  1
  Hf  Hf6  1  0.877712  0.877712  0.366864  1
  Hf  Hf7  1  0.877712  0.366864  0.877712  1
  Hf  Hf8  1  0.366864  0.877712  0.877712  1
  Hf  Hf9  1  0.877712  0.877712  0.877712  1
  Hf  Hf10  1  0.122288  0.122288  0.633136  1
  Hf  Hf11  1  0.122288  0.633136  0.122288  1
  Hf  Hf12  1  0.633136  0.122288  0.122288  1
  Hf  Hf13  1  0.122288  0.122288  0.122288  1
  Al  Al14  1  0.666236  0.666236  0.001294  1
  Al  Al15  1  0.666236  0.001294  0.666236  1
  Al  Al16  1  0.001294  0.666236  0.666236  1
  Al  Al17  1  0.666236  0.666236  0.666236  1
  Al  Al18  1  0.333764  0.333764  0.998706  1
  Al  Al19  1  0.333764  0.998706  0.333764  1
  Al  Al20  1  0.998706  0.333764  0.333764  1
  Al  Al21  1  0.333764  0.333764  0.333764  1
  Os  Os22  1  0.000000  0.000000  0.000000  1
  Os  Os23  1  0.000000  0.000000  0.500000  1
  Os  Os24  1  0.500000  0.000000  0.500000  1
  Os  Os25  1  0.000000  0.500000  0.500000  1
  Os  Os26  1  0.500000  0.500000  0.000000  1
  Os  Os27  1  0.000000  0.500000  0.000000  1
  Os  Os28  1  0.500000  0.000000  0.000000  1
