# generated using pymatgen
data_Tb2Th(B2C)3
_symmetry_space_group_name_H-M   'P 1'
_cell_length_a   5.31085084
_cell_length_b   5.31085154
_cell_length_c   5.31085129
_cell_angle_alpha   77.14883914
_cell_angle_beta   77.14884178
_cell_angle_gamma   77.14882927
_symmetry_Int_Tables_number   1
_chemical_formula_structural   Tb2Th(B2C)3
_chemical_formula_sum   'Tb2 Th1 B6 C3'
_cell_volume   140.00629931
_cell_formula_units_Z   1
loop_
 _symmetry_equiv_pos_site_id
 _symmetry_equiv_pos_as_xyz
  1  'x, y, z'
loop_
 _atom_site_type_symbol
 _atom_site_label
 _atom_site_symmetry_multiplicity
 _atom_site_fract_x
 _atom_site_fract_y
 _atom_site_fract_z
 _atom_site_occupancy
  Tb  Tb0  1  0.689204  0.689204  0.689204  1
  Tb  Tb1  1  0.310796  0.310796  0.310796  1
  Th  Th2  1  0.000000  0.000000  0.000000  1
  B  B3  1  0.500000  0.773556  0.226444  1
  B  B4  1  0.226444  0.500000  0.773556  1
  B  B5  1  0.773556  0.226444  0.500000  1
  B  B6  1  0.500000  0.226444  0.773556  1
  B  B7  1  0.226444  0.773556  0.500000  1
  B  B8  1  0.773556  0.500000  0.226444  1
  C  C9  1  0.000000  0.000000  0.500000  1
  C  C10  1  0.000000  0.500000  0.000000  1
  C  C11  1  0.500000  0.000000  0.000000  1
