# generated using pymatgen
data_Gd6ErOsI12
_symmetry_space_group_name_H-M   'P 1'
_cell_length_a   9.93064717
_cell_length_b   9.93064678
_cell_length_c   9.93064800
_cell_angle_alpha   107.18182626
_cell_angle_beta   107.18181348
_cell_angle_gamma   107.18181342
_symmetry_Int_Tables_number   1
_chemical_formula_structural   Gd6ErOsI12
_chemical_formula_sum   'Gd6 Er1 Os1 I12'
_cell_volume   811.52299923
_cell_formula_units_Z   1
loop_
 _symmetry_equiv_pos_site_id
 _symmetry_equiv_pos_as_xyz
  1  'x, y, z'
loop_
 _atom_site_type_symbol
 _atom_site_label
 _atom_site_symmetry_multiplicity
 _atom_site_fract_x
 _atom_site_fract_y
 _atom_site_fract_z
 _atom_site_occupancy
  Gd  Gd0  1  0.096108  0.297915  0.022933  1
  Gd  Gd1  1  0.297915  0.022934  0.096108  1
  Gd  Gd2  1  0.022934  0.096108  0.297915  1
  Gd  Gd3  1  0.977066  0.903893  0.702085  1
  Gd  Gd4  1  0.702085  0.977067  0.903892  1
  Gd  Gd5  1  0.903892  0.702085  0.977067  1
  Er  Er6  1  0.500000  0.500000  0.500000  1
  Os  Os7  1  0.000000  0.000000  0.000000  1
  I  I8  1  0.224593  0.680660  0.072558  1
  I  I9  1  0.465442  0.389867  0.168807  1
  I  I10  1  0.680660  0.072558  0.224593  1
  I  I11  1  0.927442  0.775407  0.319341  1
  I  I12  1  0.168807  0.465442  0.389867  1
  I  I13  1  0.389867  0.168807  0.465443  1
  I  I14  1  0.610133  0.831193  0.534558  1
  I  I15  1  0.831193  0.534558  0.610133  1
  I  I16  1  0.072558  0.224593  0.680660  1
  I  I17  1  0.319340  0.927442  0.775407  1
  I  I18  1  0.534558  0.610133  0.831194  1
  I  I19  1  0.775407  0.319341  0.927442  1
