# generated using pymatgen
data_ScCr4Pd15
_symmetry_space_group_name_H-M   'P 1'
_cell_length_a   3.95226700
_cell_length_b   3.95226700
_cell_length_c   19.60851000
_cell_angle_alpha   90.00000000
_cell_angle_beta   90.00000000
_cell_angle_gamma   90.00000000
_symmetry_Int_Tables_number   1
_chemical_formula_structural   ScCr4Pd15
_chemical_formula_sum   'Sc1 Cr4 Pd15'
_cell_volume   306.29305274
_cell_formula_units_Z   1
loop_
 _symmetry_equiv_pos_site_id
 _symmetry_equiv_pos_as_xyz
  1  'x, y, z'
loop_
 _atom_site_type_symbol
 _atom_site_label
 _atom_site_symmetry_multiplicity
 _atom_site_fract_x
 _atom_site_fract_y
 _atom_site_fract_z
 _atom_site_occupancy
  Sc  Sc0  1  0.000000  0.000000  0.000000  1
  Cr  Cr1  1  0.000000  0.000000  0.203512  1
  Cr  Cr2  1  0.000000  0.000000  0.399639  1
  Cr  Cr3  1  0.000000  0.000000  0.600361  1
  Cr  Cr4  1  0.000000  0.000000  0.796488  1
  Pd  Pd5  1  0.500000  0.500000  0.000000  1
  Pd  Pd6  1  0.500000  0.500000  0.201265  1
  Pd  Pd7  1  0.500000  0.500000  0.400276  1
  Pd  Pd8  1  0.500000  0.500000  0.599724  1
  Pd  Pd9  1  0.500000  0.500000  0.798735  1
  Pd  Pd10  1  0.500000  0.000000  0.102902  1
  Pd  Pd11  1  0.500000  0.000000  0.300633  1
  Pd  Pd12  1  0.500000  0.000000  0.500000  1
  Pd  Pd13  1  0.500000  0.000000  0.699367  1
  Pd  Pd14  1  0.500000  0.000000  0.897098  1
  Pd  Pd15  1  0.000000  0.500000  0.102902  1
  Pd  Pd16  1  0.000000  0.500000  0.300633  1
  Pd  Pd17  1  0.000000  0.500000  0.500000  1
  Pd  Pd18  1  0.000000  0.500000  0.699367  1
  Pd  Pd19  1  0.000000  0.500000  0.897098  1
