# generated using pymatgen
data_LiLa(NdB12)2
_symmetry_space_group_name_H-M   'P 1'
_cell_length_a   7.16498130
_cell_length_b   7.16498212
_cell_length_c   5.86766400
_cell_angle_alpha   90.00000000
_cell_angle_beta   90.00000000
_cell_angle_gamma   109.37786849
_symmetry_Int_Tables_number   1
_chemical_formula_structural   LiLa(NdB12)2
_chemical_formula_sum   'Li1 La1 Nd2 B24'
_cell_volume   284.16374828
_cell_formula_units_Z   1
loop_
 _symmetry_equiv_pos_site_id
 _symmetry_equiv_pos_as_xyz
  1  'x, y, z'
loop_
 _atom_site_type_symbol
 _atom_site_label
 _atom_site_symmetry_multiplicity
 _atom_site_fract_x
 _atom_site_fract_y
 _atom_site_fract_z
 _atom_site_occupancy
  Li  Li0  1  0.748245  0.251755  0.500000  1
  La  La1  1  0.998655  0.001345  0.000000  1
  Nd  Nd2  1  0.500637  0.499363  0.000000  1
  Nd  Nd3  1  0.251547  0.748453  0.500000  1
  B  B4  1  0.175014  0.325380  0.649037  1
  B  B5  1  0.924745  0.574151  0.150138  1
  B  B6  1  0.674620  0.824986  0.649037  1
  B  B7  1  0.425849  0.075255  0.150138  1
  B  B8  1  0.175014  0.325380  0.350963  1
  B  B9  1  0.924745  0.574151  0.849862  1
  B  B10  1  0.674620  0.824986  0.350963  1
  B  B11  1  0.425849  0.075255  0.849862  1
  B  B12  1  0.401262  0.398892  0.500000  1
  B  B13  1  0.149576  0.650036  0.000000  1
  B  B14  1  0.898573  0.900429  0.500000  1
  B  B15  1  0.649875  0.149573  0.000000  1
  B  B16  1  0.326055  0.175525  0.649087  1
  B  B17  1  0.074816  0.425294  0.150135  1
  B  B18  1  0.824475  0.673945  0.649087  1
  B  B19  1  0.574706  0.925184  0.150135  1
  B  B20  1  0.099571  0.101427  0.500000  1
  B  B21  1  0.850427  0.350125  0.000000  1
  B  B22  1  0.601108  0.598738  0.500000  1
  B  B23  1  0.349964  0.850424  0.000000  1
  B  B24  1  0.326055  0.175525  0.350913  1
  B  B25  1  0.074816  0.425294  0.849865  1
  B  B26  1  0.824475  0.673945  0.350913  1
  B  B27  1  0.574706  0.925184  0.849865  1
