# generated using pymatgen
data_LiSc3Al2Ge2Pt
_symmetry_space_group_name_H-M   'P 1'
_cell_length_a   6.66998400
_cell_length_b   6.65210844
_cell_length_c   4.13851500
_cell_angle_alpha   90.00000000
_cell_angle_beta   90.00000000
_cell_angle_gamma   120.08892184
_symmetry_Int_Tables_number   1
_chemical_formula_structural   LiSc3Al2Ge2Pt
_chemical_formula_sum   'Li1 Sc3 Al2 Ge2 Pt1'
_cell_volume   158.88007532
_cell_formula_units_Z   1
loop_
 _symmetry_equiv_pos_site_id
 _symmetry_equiv_pos_as_xyz
  1  'x, y, z'
loop_
 _atom_site_type_symbol
 _atom_site_label
 _atom_site_symmetry_multiplicity
 _atom_site_fract_x
 _atom_site_fract_y
 _atom_site_fract_z
 _atom_site_occupancy
  Li  Li0  1  0.758401  0.000000  0.500000  1
  Sc  Sc1  1  0.425474  0.000000  0.000000  1
  Sc  Sc2  1  0.999390  0.417025  0.000000  1
  Sc  Sc3  1  0.582366  0.582976  0.000000  1
  Al  Al4  1  0.231476  0.238506  0.500000  1
  Al  Al5  1  0.992969  0.761493  0.500000  1
  Ge  Ge6  1  0.664233  0.330737  0.500000  1
  Ge  Ge7  1  0.333495  0.669262  0.500000  1
  Pt  Pt8  1  0.012197  0.000000  0.000000  1
