# generated using pymatgen
data_Tb5Nd3(HgIr)2
_symmetry_space_group_name_H-M   'P 1'
_cell_length_a   9.76305109
_cell_length_b   9.76305143
_cell_length_c   9.76305100
_cell_angle_alpha   59.99999806
_cell_angle_beta   59.99999692
_cell_angle_gamma   59.99999909
_symmetry_Int_Tables_number   1
_chemical_formula_structural   Tb5Nd3(HgIr)2
_chemical_formula_sum   'Tb10 Nd6 Hg4 Ir4'
_cell_volume   658.02391786
_cell_formula_units_Z   2
loop_
 _symmetry_equiv_pos_site_id
 _symmetry_equiv_pos_as_xyz
  1  'x, y, z'
loop_
 _atom_site_type_symbol
 _atom_site_label
 _atom_site_symmetry_multiplicity
 _atom_site_fract_x
 _atom_site_fract_y
 _atom_site_fract_z
 _atom_site_occupancy
  Tb  Tb0  1  0.349302  0.349302  0.349302  1
  Tb  Tb1  1  0.349302  0.349302  0.952093  1
  Tb  Tb2  1  0.349302  0.952093  0.349302  1
  Tb  Tb3  1  0.952093  0.349302  0.349302  1
  Tb  Tb4  1  0.811225  0.188775  0.188775  1
  Tb  Tb5  1  0.188775  0.811225  0.811225  1
  Tb  Tb6  1  0.188775  0.811225  0.188775  1
  Tb  Tb7  1  0.811225  0.188775  0.811225  1
  Tb  Tb8  1  0.188775  0.188775  0.811225  1
  Tb  Tb9  1  0.811225  0.811225  0.188775  1
  Nd  Nd10  1  0.940852  0.559148  0.559148  1
  Nd  Nd11  1  0.559148  0.940852  0.940852  1
  Nd  Nd12  1  0.559148  0.940852  0.559148  1
  Nd  Nd13  1  0.940852  0.559148  0.940852  1
  Nd  Nd14  1  0.559148  0.559148  0.940852  1
  Nd  Nd15  1  0.940852  0.940852  0.559148  1
  Hg  Hg16  1  0.582944  0.582944  0.582944  1
  Hg  Hg17  1  0.582944  0.582944  0.251168  1
  Hg  Hg18  1  0.582944  0.251168  0.582944  1
  Hg  Hg19  1  0.251168  0.582944  0.582944  1
  Ir  Ir20  1  0.141467  0.141467  0.141467  1
  Ir  Ir21  1  0.141467  0.141467  0.575600  1
  Ir  Ir22  1  0.141467  0.575600  0.141467  1
  Ir  Ir23  1  0.575600  0.141467  0.141467  1
