# generated using pymatgen
data_ScMnP3Rh4
_symmetry_space_group_name_H-M   'P 1'
_cell_length_a   3.81926700
_cell_length_b   10.67758500
_cell_length_c   12.36438400
_cell_angle_alpha   90.00000000
_cell_angle_beta   90.00000000
_cell_angle_gamma   90.00000000
_symmetry_Int_Tables_number   1
_chemical_formula_structural   ScMnP3Rh4
_chemical_formula_sum   'Sc4 Mn4 P12 Rh16'
_cell_volume   504.22635558
_cell_formula_units_Z   4
loop_
 _symmetry_equiv_pos_site_id
 _symmetry_equiv_pos_as_xyz
  1  'x, y, z'
loop_
 _atom_site_type_symbol
 _atom_site_label
 _atom_site_symmetry_multiplicity
 _atom_site_fract_x
 _atom_site_fract_y
 _atom_site_fract_z
 _atom_site_occupancy
  Sc  Sc0  1  0.250000  0.917547  0.210947  1
  Sc  Sc1  1  0.750000  0.082453  0.789053  1
  Sc  Sc2  1  0.750000  0.417547  0.289053  1
  Sc  Sc3  1  0.250000  0.582453  0.710947  1
  Mn  Mn4  1  0.250000  0.037619  0.434723  1
  Mn  Mn5  1  0.750000  0.962381  0.565277  1
  Mn  Mn6  1  0.750000  0.537619  0.065277  1
  Mn  Mn7  1  0.250000  0.462381  0.934723  1
  P  P8  1  0.250000  0.071071  0.610576  1
  P  P9  1  0.750000  0.928929  0.389424  1
  P  P10  1  0.750000  0.571071  0.889424  1
  P  P11  1  0.250000  0.428929  0.110576  1
  P  P12  1  0.250000  0.233743  0.366123  1
  P  P13  1  0.750000  0.766257  0.633877  1
  P  P14  1  0.750000  0.733743  0.133877  1
  P  P15  1  0.250000  0.266257  0.866123  1
  P  P16  1  0.250000  0.900973  0.888818  1
  P  P17  1  0.750000  0.099027  0.111182  1
  P  P18  1  0.750000  0.400973  0.611182  1
  P  P19  1  0.250000  0.599027  0.388818  1
  Rh  Rh20  1  0.250000  0.785326  0.491262  1
  Rh  Rh21  1  0.750000  0.214674  0.508738  1
  Rh  Rh22  1  0.750000  0.285326  0.008738  1
  Rh  Rh23  1  0.250000  0.714674  0.991262  1
  Rh  Rh24  1  0.250000  0.091431  0.976137  1
  Rh  Rh25  1  0.750000  0.908569  0.023863  1
  Rh  Rh26  1  0.750000  0.591431  0.523863  1
  Rh  Rh27  1  0.250000  0.408569  0.476137  1
  Rh  Rh28  1  0.250000  0.268974  0.674975  1
  Rh  Rh29  1  0.750000  0.731026  0.325025  1
  Rh  Rh30  1  0.750000  0.768974  0.825025  1
  Rh  Rh31  1  0.250000  0.231026  0.174975  1
  Rh  Rh32  1  0.250000  0.616438  0.203096  1
  Rh  Rh33  1  0.750000  0.383562  0.796904  1
  Rh  Rh34  1  0.750000  0.116438  0.296904  1
  Rh  Rh35  1  0.250000  0.883562  0.703096  1
