# generated using pymatgen
data_TbSm4Zr3(B6Os)4
_symmetry_space_group_name_H-M   'P 1'
_cell_length_a   3.63217400
_cell_length_b   9.13916900
_cell_length_c   11.52465100
_cell_angle_alpha   89.99716517
_cell_angle_beta   90.00000000
_cell_angle_gamma   90.00000000
_symmetry_Int_Tables_number   1
_chemical_formula_structural   TbSm4Zr3(B6Os)4
_chemical_formula_sum   'Tb1 Sm4 Zr3 B24 Os4'
_cell_volume   382.56138926
_cell_formula_units_Z   1
loop_
 _symmetry_equiv_pos_site_id
 _symmetry_equiv_pos_as_xyz
  1  'x, y, z'
loop_
 _atom_site_type_symbol
 _atom_site_label
 _atom_site_symmetry_multiplicity
 _atom_site_fract_x
 _atom_site_fract_y
 _atom_site_fract_z
 _atom_site_occupancy
  Tb  Tb0  1  0.000000  0.555213  0.873753  1
  Sm  Sm1  1  0.000000  0.321864  0.413065  1
  Sm  Sm2  1  0.000000  0.678015  0.585774  1
  Sm  Sm3  1  0.000000  0.822186  0.087712  1
  Sm  Sm4  1  0.000000  0.177863  0.914308  1
  Zr  Zr5  1  0.000000  0.944895  0.375246  1
  Zr  Zr6  1  0.000000  0.054693  0.624004  1
  Zr  Zr7  1  0.000000  0.444272  0.127803  1
  B  B8  1  0.500000  0.555368  0.431741  1
  B  B9  1  0.500000  0.443704  0.567295  1
  B  B10  1  0.500000  0.055899  0.068852  1
  B  B11  1  0.500000  0.946762  0.931270  1
  B  B12  1  0.500000  0.752659  0.417640  1
  B  B13  1  0.500000  0.246625  0.581342  1
  B  B14  1  0.500000  0.251941  0.083134  1
  B  B15  1  0.500000  0.752294  0.916889  1
  B  B16  1  0.500000  0.794559  0.265701  1
  B  B17  1  0.500000  0.204901  0.733437  1
  B  B18  1  0.500000  0.293600  0.235282  1
  B  B19  1  0.500000  0.709276  0.765056  1
  B  B20  1  0.500000  0.629762  0.184096  1
  B  B21  1  0.500000  0.367169  0.813980  1
  B  B22  1  0.500000  0.129552  0.316584  1
  B  B23  1  0.500000  0.871515  0.683379  1
  B  B24  1  0.500000  0.982679  0.213741  1
  B  B25  1  0.500000  0.017943  0.785654  1
  B  B26  1  0.500000  0.483644  0.286555  1
  B  B27  1  0.500000  0.513780  0.711890  1
  B  B28  1  0.500000  0.601372  0.031675  1
  B  B29  1  0.500000  0.395428  0.976177  1
  B  B30  1  0.500000  0.100106  0.472374  1
  B  B31  1  0.500000  0.899671  0.526571  1
  Os  Os32  1  0.000000  0.641654  0.319333  1
  Os  Os33  1  0.000000  0.355827  0.679054  1
  Os  Os34  1  0.000000  0.140472  0.183128  1
  Os  Os35  1  0.000000  0.862841  0.816503  1
