# generated using pymatgen
data_Cs4TlIn11Se20
_symmetry_space_group_name_H-M   'P 1'
_cell_length_a   14.32695848
_cell_length_b   8.06528165
_cell_length_c   11.79955900
_cell_angle_alpha   76.92999495
_cell_angle_beta   90.70918891
_cell_angle_gamma   90.24199943
_symmetry_Int_Tables_number   1
_chemical_formula_structural   Cs4TlIn11Se20
_chemical_formula_sum   'Cs4 Tl1 In11 Se20'
_cell_volume   1328.02627863
_cell_formula_units_Z   1
loop_
 _symmetry_equiv_pos_site_id
 _symmetry_equiv_pos_as_xyz
  1  'x, y, z'
loop_
 _atom_site_type_symbol
 _atom_site_label
 _atom_site_symmetry_multiplicity
 _atom_site_fract_x
 _atom_site_fract_y
 _atom_site_fract_z
 _atom_site_occupancy
  Cs  Cs0  1  0.615573  0.836924  0.392937  1
  Cs  Cs1  1  0.115381  0.164795  0.106660  1
  Cs  Cs2  1  0.383812  0.163105  0.607929  1
  Cs  Cs3  1  0.884349  0.834627  0.892687  1
  Tl  Tl4  1  0.834545  0.289948  0.373543  1
  In  In5  1  0.920413  0.804926  0.402768  1
  In  In6  1  0.579724  0.802772  0.902531  1
  In  In7  1  0.419966  0.196951  0.098298  1
  In  In8  1  0.395081  0.559350  0.804493  1
  In  In9  1  0.104168  0.562412  0.303683  1
  In  In10  1  0.335351  0.708435  0.124949  1
  In  In11  1  0.605534  0.440523  0.194902  1
  In  In12  1  0.080438  0.195711  0.598243  1
  In  In13  1  0.664811  0.290184  0.875643  1
  In  In14  1  0.895866  0.438959  0.696030  1
  In  In15  1  0.164678  0.709307  0.624740  1
  Se  Se16  1  0.826311  0.728126  0.591881  1
  Se  Se17  1  0.106506  0.824880  0.407349  1
  Se  Se18  1  0.676140  0.727616  0.092518  1
  Se  Se19  1  0.393905  0.821168  0.907841  1
  Se  Se20  1  0.324740  0.272288  0.907580  1
  Se  Se21  1  0.655631  0.345192  0.410745  1
  Se  Se22  1  0.580479  0.575279  0.766353  1
  Se  Se23  1  0.606284  0.177600  0.093030  1
  Se  Se24  1  0.894773  0.173273  0.597650  1
  Se  Se25  1  0.634695  0.068315  0.750673  1
  Se  Se26  1  0.364432  0.931218  0.249532  1
  Se  Se27  1  0.172908  0.273232  0.407675  1
  Se  Se28  1  0.082030  0.424589  0.734061  1
  Se  Se29  1  0.919359  0.583930  0.262317  1
  Se  Se30  1  0.864894  0.065147  0.245635  1
  Se  Se31  1  0.136275  0.929323  0.750436  1
  Se  Se32  1  0.841418  0.342323  0.909805  1
  Se  Se33  1  0.340210  0.657346  0.590423  1
  Se  Se34  1  0.419987  0.424277  0.234211  1
  Se  Se35  1  0.159335  0.655949  0.090248  1
