# generated using pymatgen
data_Pu(TaS2)3
_symmetry_space_group_name_H-M   'P 1'
_cell_length_a   5.77272788
_cell_length_b   5.79122081
_cell_length_c   14.32680000
_cell_angle_alpha   90.00000000
_cell_angle_beta   90.00000000
_cell_angle_gamma   120.10602839
_symmetry_Int_Tables_number   1
_chemical_formula_structural   Pu(TaS2)3
_chemical_formula_sum   'Pu2 Ta6 S12'
_cell_volume   414.34875917
_cell_formula_units_Z   2
loop_
 _symmetry_equiv_pos_site_id
 _symmetry_equiv_pos_as_xyz
  1  'x, y, z'
loop_
 _atom_site_type_symbol
 _atom_site_label
 _atom_site_symmetry_multiplicity
 _atom_site_fract_x
 _atom_site_fract_y
 _atom_site_fract_z
 _atom_site_occupancy
  Pu  Pu0  1  0.000000  0.000000  0.500000  1
  Pu  Pu1  1  0.000000  0.000000  0.000000  1
  Ta  Ta2  1  0.333082  0.666821  0.250000  1
  Ta  Ta3  1  0.666918  0.333179  0.750000  1
  Ta  Ta4  1  0.666918  0.333738  0.250000  1
  Ta  Ta5  1  0.333082  0.666262  0.750000  1
  Ta  Ta6  1  0.000000  0.000670  0.250000  1
  Ta  Ta7  1  0.000000  0.999330  0.750000  1
  S  S8  1  0.337305  0.999446  0.139527  1
  S  S9  1  0.000000  0.336419  0.139600  1
  S  S10  1  0.662695  0.662141  0.139527  1
  S  S11  1  0.337305  0.337859  0.639527  1
  S  S12  1  0.662695  0.662141  0.360473  1
  S  S13  1  0.662695  0.000554  0.639527  1
  S  S14  1  0.000000  0.663581  0.639600  1
  S  S15  1  0.000000  0.663581  0.860400  1
  S  S16  1  0.337305  0.337859  0.860473  1
  S  S17  1  0.000000  0.336419  0.360400  1
  S  S18  1  0.337305  0.999446  0.360473  1
  S  S19  1  0.662695  0.000554  0.860473  1
