# generated using pymatgen
data_Li2ErScB28
_symmetry_space_group_name_H-M   'P 1'
_cell_length_a   7.20828894
_cell_length_b   7.20828861
_cell_length_c   7.20828871
_cell_angle_alpha   131.98853813
_cell_angle_beta   110.96764032
_cell_angle_gamma   88.46299015
_symmetry_Int_Tables_number   1
_chemical_formula_structural   Li2ErScB28
_chemical_formula_sum   'Li2 Er1 Sc1 B28'
_cell_volume   247.46085762
_cell_formula_units_Z   1
loop_
 _symmetry_equiv_pos_site_id
 _symmetry_equiv_pos_as_xyz
  1  'x, y, z'
loop_
 _atom_site_type_symbol
 _atom_site_label
 _atom_site_symmetry_multiplicity
 _atom_site_fract_x
 _atom_site_fract_y
 _atom_site_fract_z
 _atom_site_occupancy
  Li  Li0  1  0.500246  0.499088  0.499334  1
  Li  Li1  1  0.500246  0.000912  0.001158  1
  Er  Er2  1  0.882076  0.250000  0.632076  1
  Sc  Sc3  1  0.132800  0.750000  0.382800  1
  B  B4  1  0.138987  0.166179  0.972809  1
  B  B5  1  0.860289  0.833607  0.026681  1
  B  B6  1  0.693075  0.666393  0.026681  1
  B  B7  1  0.306629  0.333821  0.972809  1
  B  B8  1  0.275414  0.650806  0.624610  1
  B  B9  1  0.722637  0.349761  0.372874  1
  B  B10  1  0.523113  0.150239  0.372874  1
  B  B11  1  0.473804  0.849194  0.624610  1
  B  B12  1  0.414225  0.589036  0.825188  1
  B  B13  1  0.584914  0.410963  0.173952  1
  B  B14  1  0.262990  0.089037  0.173952  1
  B  B15  1  0.736152  0.910964  0.825188  1
  B  B16  1  0.898970  0.901283  0.679944  1
  B  B17  1  0.100509  0.782233  0.003891  1
  B  B18  1  0.721658  0.403383  0.003891  1
  B  B19  1  0.278662  0.280974  0.679944  1
  B  B20  1  0.100509  0.096617  0.318276  1
  B  B21  1  0.898970  0.219026  0.997688  1
  B  B22  1  0.278662  0.598717  0.997688  1
  B  B23  1  0.721658  0.717767  0.318276  1
  B  B24  1  0.533653  0.330606  0.703242  1
  B  B25  1  0.464394  0.169878  0.795597  1
  B  B26  1  0.125719  0.831202  0.795597  1
  B  B27  1  0.872636  0.669589  0.703242  1
  B  B28  1  0.464394  0.668798  0.294517  1
  B  B29  1  0.533653  0.830411  0.203047  1
  B  B30  1  0.872636  0.169394  0.203047  1
  B  B31  1  0.125719  0.330122  0.294517  1
