# generated using pymatgen
data_Tb5Ho5SnBi5
_symmetry_space_group_name_H-M   'P 1'
_cell_length_a   9.11381200
_cell_length_b   9.11381070
_cell_length_c   6.41688300
_cell_angle_alpha   90.00000000
_cell_angle_beta   90.00000000
_cell_angle_gamma   119.68592763
_symmetry_Int_Tables_number   1
_chemical_formula_structural   Tb5Ho5SnBi5
_chemical_formula_sum   'Tb5 Ho5 Sn1 Bi5'
_cell_volume   463.04222472
_cell_formula_units_Z   1
loop_
 _symmetry_equiv_pos_site_id
 _symmetry_equiv_pos_as_xyz
  1  'x, y, z'
loop_
 _atom_site_type_symbol
 _atom_site_label
 _atom_site_symmetry_multiplicity
 _atom_site_fract_x
 _atom_site_fract_y
 _atom_site_fract_z
 _atom_site_occupancy
  Tb  Tb0  1  0.752172  0.752172  0.750000  1
  Tb  Tb1  1  0.242311  0.006927  0.750000  1
  Tb  Tb2  1  0.006927  0.242311  0.750000  1
  Tb  Tb3  1  0.758613  0.000825  0.250000  1
  Tb  Tb4  1  0.000825  0.758613  0.250000  1
  Ho  Ho5  1  0.663205  0.334667  0.998463  1
  Ho  Ho6  1  0.334667  0.663205  0.998463  1
  Ho  Ho7  1  0.334667  0.663205  0.501537  1
  Ho  Ho8  1  0.663205  0.334667  0.501537  1
  Ho  Ho9  1  0.240674  0.240674  0.250000  1
  Sn  Sn10  1  0.394463  0.394463  0.750000  1
  Bi  Bi11  1  0.609655  0.001515  0.750000  1
  Bi  Bi12  1  0.001515  0.609655  0.750000  1
  Bi  Bi13  1  0.607689  0.607689  0.250000  1
  Bi  Bi14  1  0.391447  0.997971  0.250000  1
  Bi  Bi15  1  0.997971  0.391447  0.250000  1
