# generated using pymatgen
data_Sc6InCo5Sn6
_symmetry_space_group_name_H-M   'P 1'
_cell_length_a   7.44795400
_cell_length_b   7.44795368
_cell_length_c   6.94780900
_cell_angle_alpha   90.00000000
_cell_angle_beta   90.00000000
_cell_angle_gamma   120.00000142
_symmetry_Int_Tables_number   1
_chemical_formula_structural   Sc6InCo5Sn6
_chemical_formula_sum   'Sc6 In1 Co5 Sn6'
_cell_volume   333.77395822
_cell_formula_units_Z   1
loop_
 _symmetry_equiv_pos_site_id
 _symmetry_equiv_pos_as_xyz
  1  'x, y, z'
loop_
 _atom_site_type_symbol
 _atom_site_label
 _atom_site_symmetry_multiplicity
 _atom_site_fract_x
 _atom_site_fract_y
 _atom_site_fract_z
 _atom_site_occupancy
  Sc  Sc0  1  0.380728  0.975463  0.236581  1
  Sc  Sc1  1  0.594734  0.619272  0.236581  1
  Sc  Sc2  1  0.024537  0.405266  0.236581  1
  Sc  Sc3  1  0.379335  0.973619  0.764011  1
  Sc  Sc4  1  0.594284  0.620665  0.764011  1
  Sc  Sc5  1  0.026381  0.405716  0.764011  1
  In  In6  1  0.666667  0.333333  0.505202  1
  Co  Co7  1  0.000000  0.000000  0.774919  1
  Co  Co8  1  0.000000  0.000000  0.224448  1
  Co  Co9  1  0.666667  0.333333  0.995408  1
  Co  Co10  1  0.333333  0.666667  0.498863  1
  Co  Co11  1  0.333333  0.666667  0.001148  1
  Sn  Sn12  1  0.288038  0.271562  0.999881  1
  Sn  Sn13  1  0.983524  0.711962  0.999881  1
  Sn  Sn14  1  0.014344  0.755658  0.499530  1
  Sn  Sn15  1  0.741314  0.985656  0.499530  1
  Sn  Sn16  1  0.244342  0.258686  0.499530  1
  Sn  Sn17  1  0.728438  0.016476  0.999881  1
