# generated using pymatgen
data_Pr2Nd8Si5Pd
_symmetry_space_group_name_H-M   'P 1'
_cell_length_a   7.72739491
_cell_length_b   7.72114599
_cell_length_c   9.08311443
_cell_angle_alpha   115.09721215
_cell_angle_beta   115.11903677
_cell_angle_gamma   90.11746300
_symmetry_Int_Tables_number   1
_chemical_formula_structural   Pr2Nd8Si5Pd
_chemical_formula_sum   'Pr2 Nd8 Si5 Pd1'
_cell_volume   433.26220799
_cell_formula_units_Z   1
loop_
 _symmetry_equiv_pos_site_id
 _symmetry_equiv_pos_as_xyz
  1  'x, y, z'
loop_
 _atom_site_type_symbol
 _atom_site_label
 _atom_site_symmetry_multiplicity
 _atom_site_fract_x
 _atom_site_fract_y
 _atom_site_fract_z
 _atom_site_occupancy
  Pr  Pr0  1  0.170245  0.688290  0.713266  1
  Pr  Pr1  1  0.543022  0.024977  0.713266  1
  Nd  Nd2  1  0.473869  0.473869  0.947739  1
  Nd  Nd3  1  0.026423  0.026423  0.052844  1
  Nd  Nd4  1  0.955841  0.810531  0.285050  1
  Nd  Nd5  1  0.329209  0.474519  0.285050  1
  Nd  Nd6  1  0.810473  0.328858  0.285494  1
  Nd  Nd7  1  0.475021  0.956636  0.285494  1
  Nd  Nd8  1  0.025017  0.171227  0.714810  1
  Nd  Nd9  1  0.689793  0.543583  0.714810  1
  Si  Si10  1  0.249675  0.249675  0.499350  1
  Si  Si11  1  0.616197  0.884850  0.001135  1
  Si  Si12  1  0.384938  0.116286  0.001135  1
  Si  Si13  1  0.884955  0.384944  0.000615  1
  Si  Si14  1  0.115660  0.615671  0.000615  1
  Pd  Pd15  1  0.749663  0.749663  0.499326  1
