# generated using pymatgen
data_Zr8Fe7Si14Ni
_symmetry_space_group_name_H-M   'P 1'
_cell_length_a   9.54076439
_cell_length_b   9.54076412
_cell_length_c   9.54220594
_cell_angle_alpha   94.00722346
_cell_angle_beta   94.00721901
_cell_angle_gamma   149.21661913
_symmetry_Int_Tables_number   1
_chemical_formula_structural   Zr8Fe7Si14Ni
_chemical_formula_sum   'Zr8 Fe7 Si14 Ni1'
_cell_volume   428.85404705
_cell_formula_units_Z   1
loop_
 _symmetry_equiv_pos_site_id
 _symmetry_equiv_pos_as_xyz
  1  'x, y, z'
loop_
 _atom_site_type_symbol
 _atom_site_label
 _atom_site_symmetry_multiplicity
 _atom_site_fract_x
 _atom_site_fract_y
 _atom_site_fract_z
 _atom_site_occupancy
  Zr  Zr0  1  0.698765  0.502005  0.196612  1
  Zr  Zr1  1  0.498562  0.695181  0.197006  1
  Zr  Zr2  1  0.497995  0.301235  0.803388  1
  Zr  Zr3  1  0.304819  0.501438  0.802994  1
  Zr  Zr4  1  0.863177  0.863206  0.724663  1
  Zr  Zr5  1  0.138032  0.861968  0.000000  1
  Zr  Zr6  1  0.862270  0.137730  0.000000  1
  Zr  Zr7  1  0.136794  0.136823  0.275337  1
  Fe  Fe8  1  0.902035  0.400956  0.798764  1
  Fe  Fe9  1  0.599044  0.097965  0.201236  1
  Fe  Fe10  1  0.100618  0.602613  0.206659  1
  Fe  Fe11  1  0.602231  0.397769  0.500000  1
  Fe  Fe12  1  0.397387  0.899382  0.793341  1
  Fe  Fe13  1  0.898955  0.101045  0.500000  1
  Fe  Fe14  1  0.396248  0.603752  0.500000  1
  Si  Si15  1  0.749213  0.749084  0.999674  1
  Si  Si16  1  0.250916  0.250787  0.000326  1
  Si  Si17  1  0.089357  0.500752  0.592583  1
  Si  Si18  1  0.522613  0.111941  0.593744  1
  Si  Si19  1  0.499248  0.910643  0.407417  1
  Si  Si20  1  0.888059  0.477387  0.406256  1
  Si  Si21  1  0.702527  0.003570  0.700269  1
  Si  Si22  1  0.992858  0.691613  0.698444  1
  Si  Si23  1  0.704098  0.703375  0.421282  1
  Si  Si24  1  0.289143  0.710857  0.000000  1
  Si  Si25  1  0.308387  0.007142  0.301556  1
  Si  Si26  1  0.710994  0.289006  0.000000  1
  Si  Si27  1  0.296625  0.295902  0.578718  1
  Si  Si28  1  0.996430  0.297473  0.299731  1
  Ni  Ni29  1  0.102596  0.897404  0.500000  1
