# generated using pymatgen
data_La2AsPt8
_symmetry_space_group_name_H-M   'P 1'
_cell_length_a   9.33273220
_cell_length_b   9.33273125
_cell_length_c   4.33901800
_cell_angle_alpha   90.00000000
_cell_angle_beta   90.00000000
_cell_angle_gamma   145.49166424
_symmetry_Int_Tables_number   1
_chemical_formula_structural   La2AsPt8
_chemical_formula_sum   'La2 As1 Pt8'
_cell_volume   214.10606089
_cell_formula_units_Z   1
loop_
 _symmetry_equiv_pos_site_id
 _symmetry_equiv_pos_as_xyz
  1  'x, y, z'
loop_
 _atom_site_type_symbol
 _atom_site_label
 _atom_site_symmetry_multiplicity
 _atom_site_fract_x
 _atom_site_fract_y
 _atom_site_fract_z
 _atom_site_occupancy
  La  La0  1  0.622921  0.373280  0.500000  1
  La  La1  1  0.373280  0.622921  0.500000  1
  As  As2  1  0.230471  0.230471  0.000000  1
  Pt  Pt3  1  0.105697  0.878815  0.000000  1
  Pt  Pt4  1  0.878815  0.105697  0.000000  1
  Pt  Pt5  1  0.489016  0.985458  0.000000  1
  Pt  Pt6  1  0.985458  0.489016  0.000000  1
  Pt  Pt7  1  0.195213  0.790406  0.500000  1
  Pt  Pt8  1  0.790406  0.195213  0.500000  1
  Pt  Pt9  1  0.990333  0.990333  0.500000  1
  Pt  Pt10  1  0.651989  0.651989  0.000000  1
