# generated using pymatgen
data_Ho3Lu3(Al3Ru)8
_symmetry_space_group_name_H-M   'P 1'
_cell_length_a   8.75850606
_cell_length_b   8.75476101
_cell_length_c   9.58306700
_cell_angle_alpha   90.00000000
_cell_angle_beta   90.00000000
_cell_angle_gamma   120.04603313
_symmetry_Int_Tables_number   1
_chemical_formula_structural   Ho3Lu3(Al3Ru)8
_chemical_formula_sum   'Ho3 Lu3 Al24 Ru8'
_cell_volume   636.07429744
_cell_formula_units_Z   1
loop_
 _symmetry_equiv_pos_site_id
 _symmetry_equiv_pos_as_xyz
  1  'x, y, z'
loop_
 _atom_site_type_symbol
 _atom_site_label
 _atom_site_symmetry_multiplicity
 _atom_site_fract_x
 _atom_site_fract_y
 _atom_site_fract_z
 _atom_site_occupancy
  Ho  Ho0  1  0.611290  0.805500  0.250000  1
  Ho  Ho1  1  0.805721  0.611958  0.750000  1
  Ho  Ho2  1  0.194090  0.388303  0.250000  1
  Lu  Lu3  1  0.804418  0.195398  0.750000  1
  Lu  Lu4  1  0.195454  0.804109  0.250000  1
  Lu  Lu5  1  0.390628  0.195461  0.750000  1
  Al  Al6  1  0.666571  0.333151  0.980438  1
  Al  Al7  1  0.333217  0.666741  0.018909  1
  Al  Al8  1  0.333217  0.666741  0.481091  1
  Al  Al9  1  0.666571  0.333151  0.519562  1
  Al  Al10  1  0.837054  0.162822  0.422710  1
  Al  Al11  1  0.163018  0.837519  0.577628  1
  Al  Al12  1  0.325577  0.162453  0.422719  1
  Al  Al13  1  0.163018  0.837519  0.922372  1
  Al  Al14  1  0.674431  0.837600  0.578191  1
  Al  Al15  1  0.837054  0.162822  0.077290  1
  Al  Al16  1  0.837460  0.674332  0.422229  1
  Al  Al17  1  0.674431  0.837600  0.921809  1
  Al  Al18  1  0.162619  0.325387  0.578165  1
  Al  Al19  1  0.325577  0.162453  0.077281  1
  Al  Al20  1  0.162619  0.325387  0.921835  1
  Al  Al21  1  0.837460  0.674332  0.077771  1
  Al  Al22  1  0.437820  0.561247  0.750000  1
  Al  Al23  1  0.561793  0.437763  0.250000  1
  Al  Al24  1  0.123023  0.561253  0.750000  1
  Al  Al25  1  0.876647  0.438534  0.250000  1
  Al  Al26  1  0.438576  0.877597  0.750000  1
  Al  Al27  1  0.561064  0.123052  0.250000  1
  Al  Al28  1  0.000531  0.001824  0.750000  1
  Al  Al29  1  0.000624  0.998730  0.250000  1
  Ru  Ru30  1  0.499783  0.499434  0.999540  1
  Ru  Ru31  1  0.999773  0.499902  0.999962  1
  Ru  Ru32  1  0.499783  0.499434  0.500460  1
  Ru  Ru33  1  0.499746  0.000344  0.999577  1
  Ru  Ru34  1  0.999773  0.499902  0.500038  1
  Ru  Ru35  1  0.499746  0.000344  0.500423  1
  Ru  Ru36  1  0.999912  0.999946  0.000104  1
  Ru  Ru37  1  0.999912  0.999946  0.499896  1
