# generated using pymatgen
data_LaCeSc2(ReB6)2
_symmetry_space_group_name_H-M   'P 1'
_cell_length_a   3.66298400
_cell_length_b   9.08972041
_cell_length_c   11.54112651
_cell_angle_alpha   89.96573290
_cell_angle_beta   90.00000000
_cell_angle_gamma   90.00000000
_symmetry_Int_Tables_number   1
_chemical_formula_structural   LaCeSc2(ReB6)2
_chemical_formula_sum   'La2 Ce2 Sc4 Re4 B24'
_cell_volume   384.26751396
_cell_formula_units_Z   2
loop_
 _symmetry_equiv_pos_site_id
 _symmetry_equiv_pos_as_xyz
  1  'x, y, z'
loop_
 _atom_site_type_symbol
 _atom_site_label
 _atom_site_symmetry_multiplicity
 _atom_site_fract_x
 _atom_site_fract_y
 _atom_site_fract_z
 _atom_site_occupancy
  La  La0  1  0.000000  0.321670  0.414485  1
  La  La1  1  0.000000  0.678330  0.585515  1
  Ce  Ce2  1  0.000000  0.820960  0.085231  1
  Ce  Ce3  1  0.000000  0.179040  0.914769  1
  Sc  Sc4  1  0.000000  0.943734  0.369212  1
  Sc  Sc5  1  0.000000  0.056266  0.630788  1
  Sc  Sc6  1  0.000000  0.444882  0.127488  1
  Sc  Sc7  1  0.000000  0.555118  0.872512  1
  Re  Re8  1  0.000000  0.644262  0.313676  1
  Re  Re9  1  0.000000  0.355738  0.686324  1
  Re  Re10  1  0.000000  0.138908  0.179259  1
  Re  Re11  1  0.000000  0.861092  0.820741  1
  B  B12  1  0.500000  0.557956  0.427294  1
  B  B13  1  0.500000  0.442044  0.572706  1
  B  B14  1  0.500000  0.055309  0.068521  1
  B  B15  1  0.500000  0.944691  0.931479  1
  B  B16  1  0.500000  0.755016  0.413801  1
  B  B17  1  0.500000  0.244984  0.586199  1
  B  B18  1  0.500000  0.253440  0.082362  1
  B  B19  1  0.500000  0.746560  0.917638  1
  B  B20  1  0.500000  0.794937  0.263092  1
  B  B21  1  0.500000  0.205063  0.736908  1
  B  B22  1  0.500000  0.293490  0.232315  1
  B  B23  1  0.500000  0.706510  0.767685  1
  B  B24  1  0.500000  0.629975  0.181868  1
  B  B25  1  0.500000  0.370025  0.818132  1
  B  B26  1  0.500000  0.127237  0.314158  1
  B  B27  1  0.500000  0.872763  0.685842  1
  B  B28  1  0.500000  0.982223  0.212871  1
  B  B29  1  0.500000  0.017777  0.787129  1
  B  B30  1  0.500000  0.484272  0.282947  1
  B  B31  1  0.500000  0.515728  0.717053  1
  B  B32  1  0.500000  0.597348  0.025881  1
  B  B33  1  0.500000  0.402652  0.974119  1
  B  B34  1  0.500000  0.092905  0.474847  1
  B  B35  1  0.500000  0.907095  0.525153  1
