# generated using pymatgen
data_Ti5Co9SiTcB4
_symmetry_space_group_name_H-M   'P 1'
_cell_length_a   8.42432784
_cell_length_b   8.51555003
_cell_length_c   3.02495700
_cell_angle_alpha   90.00000000
_cell_angle_beta   90.00000000
_cell_angle_gamma   89.73439526
_symmetry_Int_Tables_number   1
_chemical_formula_structural   Ti5Co9SiTcB4
_chemical_formula_sum   'Ti5 Co9 Si1 Tc1 B4'
_cell_volume   217.00138384
_cell_formula_units_Z   1
loop_
 _symmetry_equiv_pos_site_id
 _symmetry_equiv_pos_as_xyz
  1  'x, y, z'
loop_
 _atom_site_type_symbol
 _atom_site_label
 _atom_site_symmetry_multiplicity
 _atom_site_fract_x
 _atom_site_fract_y
 _atom_site_fract_z
 _atom_site_occupancy
  Ti  Ti0  1  0.502614  0.500453  0.000000  1
  Ti  Ti1  1  0.828931  0.321750  0.000000  1
  Ti  Ti2  1  0.322793  0.173499  0.000000  1
  Ti  Ti3  1  0.675931  0.827500  0.000000  1
  Ti  Ti4  1  0.173813  0.678639  0.000000  1
  Co  Co5  1  0.496531  0.999907  0.500000  1
  Co  Co6  1  0.001744  0.509747  0.500000  1
  Co  Co7  1  0.215515  0.921776  0.500000  1
  Co  Co8  1  0.777913  0.062102  0.500000  1
  Co  Co9  1  0.927051  0.784686  0.500000  1
  Co  Co10  1  0.432663  0.721240  0.500000  1
  Co  Co11  1  0.572111  0.277586  0.500000  1
  Co  Co12  1  0.721640  0.572235  0.500000  1
  Co  Co13  1  0.284829  0.438060  0.500000  1
  Si  Si14  1  0.994672  0.988072  0.000000  1
  Tc  Tc15  1  0.067353  0.213441  0.500000  1
  B  B16  1  0.621137  0.118690  0.000000  1
  B  B17  1  0.125672  0.390513  0.000000  1
  B  B18  1  0.879220  0.621510  0.000000  1
  B  B19  1  0.377865  0.878594  0.000000  1
