# generated using pymatgen
data_Sm2Dy2LuSn4
_symmetry_space_group_name_H-M   'P 1'
_cell_length_a   8.04645600
_cell_length_b   8.20698700
_cell_length_c   15.53169800
_cell_angle_alpha   90.00000000
_cell_angle_beta   90.00000000
_cell_angle_gamma   90.00000000
_symmetry_Int_Tables_number   1
_chemical_formula_structural   Sm2Dy2LuSn4
_chemical_formula_sum   'Sm8 Dy8 Lu4 Sn16'
_cell_volume   1025.66922261
_cell_formula_units_Z   4
loop_
 _symmetry_equiv_pos_site_id
 _symmetry_equiv_pos_as_xyz
  1  'x, y, z'
loop_
 _atom_site_type_symbol
 _atom_site_label
 _atom_site_symmetry_multiplicity
 _atom_site_fract_x
 _atom_site_fract_y
 _atom_site_fract_z
 _atom_site_occupancy
  Sm  Sm0  1  0.518211  0.321407  0.903139  1
  Sm  Sm1  1  0.018211  0.178593  0.596861  1
  Sm  Sm2  1  0.481789  0.678593  0.403139  1
  Sm  Sm3  1  0.981789  0.821407  0.096861  1
  Sm  Sm4  1  0.481789  0.678593  0.096861  1
  Sm  Sm5  1  0.981789  0.821407  0.403139  1
  Sm  Sm6  1  0.518211  0.321407  0.596861  1
  Sm  Sm7  1  0.018211  0.178593  0.903139  1
  Dy  Dy8  1  0.364310  0.836529  0.877237  1
  Dy  Dy9  1  0.864310  0.663471  0.622763  1
  Dy  Dy10  1  0.635690  0.163471  0.377237  1
  Dy  Dy11  1  0.135690  0.336529  0.122763  1
  Dy  Dy12  1  0.635690  0.163471  0.122763  1
  Dy  Dy13  1  0.135690  0.336529  0.377237  1
  Dy  Dy14  1  0.364310  0.836529  0.622763  1
  Dy  Dy15  1  0.864310  0.663471  0.877237  1
  Lu  Lu16  1  0.196662  0.503666  0.750000  1
  Lu  Lu17  1  0.696662  0.996334  0.750000  1
  Lu  Lu18  1  0.803338  0.496334  0.250000  1
  Lu  Lu19  1  0.303338  0.003666  0.250000  1
  Sn  Sn20  1  0.298474  0.038765  0.042308  1
  Sn  Sn21  1  0.798474  0.461235  0.457692  1
  Sn  Sn22  1  0.701526  0.961235  0.542308  1
  Sn  Sn23  1  0.201526  0.538765  0.957692  1
  Sn  Sn24  1  0.701526  0.961235  0.957692  1
  Sn  Sn25  1  0.201526  0.538765  0.542308  1
  Sn  Sn26  1  0.298474  0.038765  0.457692  1
  Sn  Sn27  1  0.798474  0.461235  0.042308  1
  Sn  Sn28  1  0.561825  0.621282  0.750000  1
  Sn  Sn29  1  0.061825  0.878718  0.750000  1
  Sn  Sn30  1  0.438175  0.378718  0.250000  1
  Sn  Sn31  1  0.938175  0.121282  0.250000  1
  Sn  Sn32  1  0.327246  0.146838  0.750000  1
  Sn  Sn33  1  0.827246  0.353162  0.750000  1
  Sn  Sn34  1  0.672754  0.853162  0.250000  1
  Sn  Sn35  1  0.172754  0.646838  0.250000  1
