# generated using pymatgen
data_Np2Fe20B6Ir
_symmetry_space_group_name_H-M   'P 1'
_cell_length_a   7.66533129
_cell_length_b   7.62704028
_cell_length_c   7.62703900
_cell_angle_alpha   60.05377147
_cell_angle_beta   59.83379165
_cell_angle_gamma   59.83378925
_symmetry_Int_Tables_number   1
_chemical_formula_structural   Np2Fe20B6Ir
_chemical_formula_sum   'Np2 Fe20 B6 Ir1'
_cell_volume   314.63539880
_cell_formula_units_Z   1
loop_
 _symmetry_equiv_pos_site_id
 _symmetry_equiv_pos_as_xyz
  1  'x, y, z'
loop_
 _atom_site_type_symbol
 _atom_site_label
 _atom_site_symmetry_multiplicity
 _atom_site_fract_x
 _atom_site_fract_y
 _atom_site_fract_z
 _atom_site_occupancy
  Np  Np0  1  0.247781  0.253748  0.253748  1
  Np  Np1  1  0.755276  0.746252  0.746252  1
  Fe  Fe2  1  0.666037  0.000000  0.000000  1
  Fe  Fe3  1  0.999737  0.337029  0.662971  1
  Fe  Fe4  1  0.999737  0.662971  0.337029  1
  Fe  Fe5  1  0.995331  0.338881  0.001306  1
  Fe  Fe6  1  0.661962  0.000538  0.337102  1
  Fe  Fe7  1  0.999602  0.662898  0.999462  1
  Fe  Fe8  1  0.335518  0.998694  0.661119  1
  Fe  Fe9  1  0.995331  0.001306  0.338881  1
  Fe  Fe10  1  0.999602  0.999462  0.662898  1
  Fe  Fe11  1  0.661962  0.337102  0.000538  1
  Fe  Fe12  1  0.335518  0.661119  0.998694  1
  Fe  Fe13  1  0.382701  0.379919  0.379919  1
  Fe  Fe14  1  0.619026  0.619655  0.619655  1
  Fe  Fe15  1  0.383355  0.383662  0.855163  1
  Fe  Fe16  1  0.383355  0.855163  0.383662  1
  Fe  Fe17  1  0.622180  0.616338  0.144837  1
  Fe  Fe18  1  0.622180  0.144837  0.616338  1
  Fe  Fe19  1  0.858336  0.380345  0.380345  1
  Fe  Fe20  1  0.142539  0.620081  0.620081  1
  Fe  Fe21  1  0.995730  0.000000  0.000000  1
  B  B22  1  0.725329  0.274333  0.274333  1
  B  B23  1  0.273995  0.725667  0.725667  1
  B  B24  1  0.272585  0.721092  0.278908  1
  B  B25  1  0.727490  0.274741  0.725259  1
  B  B26  1  0.272585  0.278908  0.721092  1
  B  B27  1  0.727490  0.725259  0.274741  1
  Ir  Ir28  1  0.337730  0.000000  0.000000  1
