# generated using pymatgen
data_Lu12CdInSiNi3
_symmetry_space_group_name_H-M   'P 1'
_cell_length_a   8.26417637
_cell_length_b   8.26417650
_cell_length_c   8.26417641
_cell_angle_alpha   112.79294894
_cell_angle_beta   111.03202044
_cell_angle_gamma   104.69705804
_symmetry_Int_Tables_number   1
_chemical_formula_structural   Lu12CdInSiNi3
_chemical_formula_sum   'Lu12 Cd1 In1 Si1 Ni3'
_cell_volume   432.13773213
_cell_formula_units_Z   1
loop_
 _symmetry_equiv_pos_site_id
 _symmetry_equiv_pos_as_xyz
  1  'x, y, z'
loop_
 _atom_site_type_symbol
 _atom_site_label
 _atom_site_symmetry_multiplicity
 _atom_site_fract_x
 _atom_site_fract_y
 _atom_site_fract_z
 _atom_site_occupancy
  Lu  Lu0  1  0.444722  0.242276  0.202446  1
  Lu  Lu1  1  0.564126  0.768990  0.795136  1
  Lu  Lu2  1  0.026148  0.231010  0.795136  1
  Lu  Lu3  1  0.960168  0.757724  0.202446  1
  Lu  Lu4  1  0.185163  0.292428  0.477589  1
  Lu  Lu5  1  0.814311  0.714691  0.529002  1
  Lu  Lu6  1  0.185163  0.707572  0.892736  1
  Lu  Lu7  1  0.814311  0.285309  0.099618  1
  Lu  Lu8  1  0.316988  0.620295  0.306111  1
  Lu  Lu9  1  0.685816  0.379705  0.696694  1
  Lu  Lu10  1  0.316988  0.010877  0.696694  1
  Lu  Lu11  1  0.685816  0.989123  0.306111  1
  Cd  Cd12  1  0.002554  0.000000  0.002554  1
  In  In13  1  0.497271  0.500000  0.997271  1
  Si  Si14  1  0.359283  0.000000  0.359283  1
  Ni  Ni15  1  0.637735  0.000000  0.637735  1
  Ni  Ni16  1  0.120063  0.618343  0.501720  1
  Ni  Ni17  1  0.883376  0.381657  0.501720  1
