# generated using pymatgen
data_Tb4OsRu7
_symmetry_space_group_name_H-M   'P 1'
_cell_length_a   5.26391663
_cell_length_b   5.26391561
_cell_length_c   8.95934700
_cell_angle_alpha   90.00000000
_cell_angle_beta   90.00000000
_cell_angle_gamma   119.09372713
_symmetry_Int_Tables_number   1
_chemical_formula_structural   Tb4OsRu7
_chemical_formula_sum   'Tb4 Os1 Ru7'
_cell_volume   216.92967895
_cell_formula_units_Z   1
loop_
 _symmetry_equiv_pos_site_id
 _symmetry_equiv_pos_as_xyz
  1  'x, y, z'
loop_
 _atom_site_type_symbol
 _atom_site_label
 _atom_site_symmetry_multiplicity
 _atom_site_fract_x
 _atom_site_fract_y
 _atom_site_fract_z
 _atom_site_occupancy
  Tb  Tb0  1  0.332295  0.667705  0.433555  1
  Tb  Tb1  1  0.666409  0.333591  0.567290  1
  Tb  Tb2  1  0.666409  0.333591  0.932710  1
  Tb  Tb3  1  0.332295  0.667705  0.066445  1
  Os  Os4  1  0.832961  0.167039  0.250000  1
  Ru  Ru5  1  0.996509  0.003491  0.500070  1
  Ru  Ru6  1  0.996509  0.003491  0.999930  1
  Ru  Ru7  1  0.830736  0.653972  0.250000  1
  Ru  Ru8  1  0.346028  0.169264  0.250000  1
  Ru  Ru9  1  0.171374  0.828626  0.750000  1
  Ru  Ru10  1  0.170490  0.342013  0.750000  1
  Ru  Ru11  1  0.657987  0.829510  0.750000  1
