# generated using pymatgen
data_Ce5U(Cu2S7)2
_symmetry_space_group_name_H-M   'P 1'
_cell_length_a   9.81233605
_cell_length_b   9.85999502
_cell_length_c   5.73469797
_cell_angle_alpha   90.31144430
_cell_angle_beta   89.82014550
_cell_angle_gamma   120.52796474
_symmetry_Int_Tables_number   1
_chemical_formula_structural   Ce5U(Cu2S7)2
_chemical_formula_sum   'Ce5 U1 Cu4 S14'
_cell_volume   477.91279696
_cell_formula_units_Z   1
loop_
 _symmetry_equiv_pos_site_id
 _symmetry_equiv_pos_as_xyz
  1  'x, y, z'
loop_
 _atom_site_type_symbol
 _atom_site_label
 _atom_site_symmetry_multiplicity
 _atom_site_fract_x
 _atom_site_fract_y
 _atom_site_fract_z
 _atom_site_occupancy
  Ce  Ce0  1  0.227712  0.848191  0.030915  1
  Ce  Ce1  1  0.152962  0.379429  0.030809  1
  Ce  Ce2  1  0.849891  0.621482  0.534218  1
  Ce  Ce3  1  0.621546  0.772527  0.028435  1
  Ce  Ce4  1  0.772906  0.152428  0.532934  1
  U  U5  1  0.379392  0.230591  0.529098  1
  Cu  Cu6  1  0.665241  0.333376  0.149077  1
  Cu  Cu7  1  0.333578  0.664765  0.647229  1
  Cu  Cu8  1  0.001891  0.000704  0.502848  1
  Cu  Cu9  1  0.000032  0.999500  0.003262  1
  S  S10  1  0.656277  0.330158  0.754124  1
  S  S11  1  0.560967  0.478757  0.282635  1
  S  S12  1  0.158620  0.901310  0.520056  1
  S  S13  1  0.509382  0.086761  0.286555  1
  S  S14  1  0.433166  0.512774  0.773479  1
  S  S15  1  0.486349  0.915453  0.780628  1
  S  S16  1  0.847468  0.105109  0.017320  1
  S  S17  1  0.081510  0.565610  0.777581  1
  S  S18  1  0.742530  0.846411  0.514717  1
  S  S19  1  0.334752  0.668303  0.253139  1
  S  S20  1  0.916404  0.432690  0.278375  1
  S  S21  1  0.260564  0.153655  0.008067  1
  S  S22  1  0.113315  0.259323  0.512524  1
  S  S23  1  0.893546  0.740689  0.018380  1
