# generated using pymatgen
data_CeHo(WF7)2
_symmetry_space_group_name_H-M   'P 1'
_cell_length_a   5.83229100
_cell_length_b   9.25519052
_cell_length_c   12.46536400
_cell_angle_alpha   62.57995583
_cell_angle_beta   90.00000000
_cell_angle_gamma   90.00000000
_symmetry_Int_Tables_number   1
_chemical_formula_structural   CeHo(WF7)2
_chemical_formula_sum   'Ce2 Ho2 W4 F28'
_cell_volume   597.27370033
_cell_formula_units_Z   2
loop_
 _symmetry_equiv_pos_site_id
 _symmetry_equiv_pos_as_xyz
  1  'x, y, z'
loop_
 _atom_site_type_symbol
 _atom_site_label
 _atom_site_symmetry_multiplicity
 _atom_site_fract_x
 _atom_site_fract_y
 _atom_site_fract_z
 _atom_site_occupancy
  Ce  Ce0  1  0.762329  0.810627  0.765357  1
  Ce  Ce1  1  0.262329  0.189373  0.734643  1
  Ho  Ho2  1  0.237082  0.183053  0.235114  1
  Ho  Ho3  1  0.737082  0.816947  0.264886  1
  W  W4  1  0.754506  0.268025  0.965396  1
  W  W5  1  0.254506  0.731975  0.534604  1
  W  W6  1  0.241076  0.722350  0.052179  1
  W  W7  1  0.741076  0.277650  0.447821  1
  F  F8  1  0.446408  0.708462  0.928575  1
  F  F9  1  0.946408  0.291538  0.571425  1
  F  F10  1  0.544108  0.288923  0.084140  1
  F  F11  1  0.044108  0.711077  0.415860  1
  F  F12  1  0.458714  0.283854  0.545641  1
  F  F13  1  0.958714  0.716146  0.954359  1
  F  F14  1  0.545720  0.725586  0.439979  1
  F  F15  1  0.045720  0.274414  0.060021  1
  F  F16  1  0.765139  0.509530  0.865330  1
  F  F17  1  0.265139  0.490470  0.634670  1
  F  F18  1  0.240806  0.478836  0.145613  1
  F  F19  1  0.740806  0.521164  0.354387  1
  F  F20  1  0.755273  0.025416  0.060754  1
  F  F21  1  0.255273  0.974584  0.439246  1
  F  F22  1  0.243055  0.963654  0.951422  1
  F  F23  1  0.743055  0.036346  0.548578  1
  F  F24  1  0.977426  0.731784  0.637234  1
  F  F25  1  0.477426  0.268216  0.862766  1
  F  F26  1  0.012651  0.264521  0.344698  1
  F  F27  1  0.512651  0.735479  0.155302  1
  F  F28  1  0.032256  0.748043  0.171464  1
  F  F29  1  0.532256  0.251957  0.328536  1
  F  F30  1  0.956479  0.248833  0.841619  1
  F  F31  1  0.456479  0.751167  0.658381  1
  F  F32  1  0.440302  0.983535  0.235385  1
  F  F33  1  0.940302  0.016465  0.264615  1
  F  F34  1  0.586671  0.028629  0.768395  1
  F  F35  1  0.086671  0.971371  0.731605  1
