# generated using pymatgen
data_Pr10SnBi5C2
_symmetry_space_group_name_H-M   'P 1'
_cell_length_a   9.49631732
_cell_length_b   9.48939236
_cell_length_c   6.79990400
_cell_angle_alpha   90.00000000
_cell_angle_beta   90.00000000
_cell_angle_gamma   119.97588039
_symmetry_Int_Tables_number   1
_chemical_formula_structural   Pr10SnBi5C2
_chemical_formula_sum   'Pr10 Sn1 Bi5 C2'
_cell_volume   530.80198362
_cell_formula_units_Z   1
loop_
 _symmetry_equiv_pos_site_id
 _symmetry_equiv_pos_as_xyz
  1  'x, y, z'
loop_
 _atom_site_type_symbol
 _atom_site_label
 _atom_site_symmetry_multiplicity
 _atom_site_fract_x
 _atom_site_fract_y
 _atom_site_fract_z
 _atom_site_occupancy
  Pr  Pr0  1  0.670647  0.334155  0.501853  1
  Pr  Pr1  1  0.329353  0.663509  0.501853  1
  Pr  Pr2  1  0.329353  0.663509  0.998147  1
  Pr  Pr3  1  0.670647  0.334155  0.998147  1
  Pr  Pr4  1  0.788144  0.788768  0.250000  1
  Pr  Pr5  1  0.211856  0.000624  0.250000  1
  Pr  Pr6  1  0.000000  0.214505  0.250000  1
  Pr  Pr7  1  0.210174  0.213713  0.750000  1
  Pr  Pr8  1  0.789826  0.003539  0.750000  1
  Pr  Pr9  1  0.000000  0.786828  0.750000  1
  Sn  Sn10  1  0.000000  0.403753  0.750000  1
  Bi  Bi11  1  0.402593  0.401752  0.250000  1
  Bi  Bi12  1  0.597407  0.999159  0.250000  1
  Bi  Bi13  1  0.000000  0.596943  0.250000  1
  Bi  Bi14  1  0.597344  0.597655  0.750000  1
  Bi  Bi15  1  0.402656  0.000312  0.750000  1
  C  C16  1  0.000000  0.998560  0.499225  1
  C  C17  1  0.000000  0.998560  0.000775  1
