# generated using pymatgen
data_Tb5ErIn2C
_symmetry_space_group_name_H-M   'P 1'
_cell_length_a   6.96327111
_cell_length_b   6.94802157
_cell_length_c   6.94802077
_cell_angle_alpha   60.14527290
_cell_angle_beta   59.92737526
_cell_angle_gamma   59.92737949
_symmetry_Int_Tables_number   1
_chemical_formula_structural   Tb5ErIn2C
_chemical_formula_sum   'Tb5 Er1 In2 C1'
_cell_volume   237.69304266
_cell_formula_units_Z   1
loop_
 _symmetry_equiv_pos_site_id
 _symmetry_equiv_pos_as_xyz
  1  'x, y, z'
loop_
 _atom_site_type_symbol
 _atom_site_label
 _atom_site_symmetry_multiplicity
 _atom_site_fract_x
 _atom_site_fract_y
 _atom_site_fract_z
 _atom_site_occupancy
  Tb  Tb0  1  0.754107  0.754262  0.245892  1
  Tb  Tb1  1  0.754378  0.245621  0.245620  1
  Tb  Tb2  1  0.245738  0.754261  0.245892  1
  Tb  Tb3  1  0.245738  0.245893  0.754261  1
  Tb  Tb4  1  0.754108  0.245891  0.754263  1
  Er  Er5  1  0.244323  0.755676  0.755676  1
  In  In6  1  0.249824  0.250176  0.250176  1
  In  In7  1  0.749823  0.750175  0.750175  1
  C  C8  1  0.001957  0.998043  0.998043  1
