# generated using pymatgen
data_La8Tm2(IrRu)3
_symmetry_space_group_name_H-M   'P 1'
_cell_length_a   11.28156751
_cell_length_b   11.27882100
_cell_length_c   6.56672123
_cell_angle_alpha   90.00000000
_cell_angle_beta   89.88654899
_cell_angle_gamma   90.00000000
_symmetry_Int_Tables_number   1
_chemical_formula_structural   La8Tm2(IrRu)3
_chemical_formula_sum   'La16 Tm4 Ir6 Ru6'
_cell_volume   835.56623026
_cell_formula_units_Z   2
loop_
 _symmetry_equiv_pos_site_id
 _symmetry_equiv_pos_as_xyz
  1  'x, y, z'
loop_
 _atom_site_type_symbol
 _atom_site_label
 _atom_site_symmetry_multiplicity
 _atom_site_fract_x
 _atom_site_fract_y
 _atom_site_fract_z
 _atom_site_occupancy
  La  La0  1  0.290299  0.086923  0.386793  1
  La  La1  1  0.290299  0.913077  0.886793  1
  La  La2  1  0.711270  0.086606  0.888820  1
  La  La3  1  0.711270  0.913394  0.388820  1
  La  La4  1  0.587396  0.790857  0.886794  1
  La  La5  1  0.587396  0.209143  0.386794  1
  La  La6  1  0.413569  0.790738  0.386251  1
  La  La7  1  0.413569  0.209262  0.886251  1
  La  La8  1  0.208813  0.413821  0.612715  1
  La  La9  1  0.208813  0.586179  0.112715  1
  La  La10  1  0.790672  0.412245  0.114327  1
  La  La11  1  0.790672  0.587755  0.614327  1
  La  La12  1  0.912536  0.710522  0.110765  1
  La  La13  1  0.912536  0.289478  0.610765  1
  La  La14  1  0.085966  0.710611  0.613693  1
  La  La15  1  0.085966  0.289389  0.113693  1
  Tm  Tm16  1  0.999343  0.000475  0.499711  1
  Tm  Tm17  1  0.999343  0.999525  0.999711  1
  Tm  Tm18  1  0.500171  0.499985  0.000006  1
  Tm  Tm19  1  0.500171  0.500015  0.500006  1
  Ir  Ir20  1  0.147048  0.146617  0.749841  1
  Ir  Ir21  1  0.147048  0.853383  0.249841  1
  Ir  Ir22  1  0.645974  0.354633  0.749759  1
  Ir  Ir23  1  0.645974  0.645367  0.249759  1
  Ir  Ir24  1  0.354273  0.353528  0.250373  1
  Ir  Ir25  1  0.354273  0.646472  0.750373  1
  Ru  Ru26  1  0.853061  0.147356  0.250021  1
  Ru  Ru27  1  0.853061  0.852644  0.750021  1
  Ru  Ru28  1  0.499750  0.999935  0.120129  1
  Ru  Ru29  1  0.499750  0.000065  0.620129  1
  Ru  Ru30  1  0.999859  0.500335  0.880002  1
  Ru  Ru31  1  0.999859  0.499665  0.380002  1
