# generated using pymatgen
data_Rb2BiF7
_symmetry_space_group_name_H-M   'P 1'
_cell_length_a   6.14956300
_cell_length_b   6.18307500
_cell_length_c   10.82371200
_cell_angle_alpha   90.00000000
_cell_angle_beta   90.00000000
_cell_angle_gamma   90.00000000
_symmetry_Int_Tables_number   1
_chemical_formula_structural   Rb2BiF7
_chemical_formula_sum   'Rb4 Bi2 F14'
_cell_volume   411.55226620
_cell_formula_units_Z   2
loop_
 _symmetry_equiv_pos_site_id
 _symmetry_equiv_pos_as_xyz
  1  'x, y, z'
loop_
 _atom_site_type_symbol
 _atom_site_label
 _atom_site_symmetry_multiplicity
 _atom_site_fract_x
 _atom_site_fract_y
 _atom_site_fract_z
 _atom_site_occupancy
  Rb  Rb0  1  0.000000  0.500000  0.362093  1
  Rb  Rb1  1  0.500000  0.000000  0.637907  1
  Rb  Rb2  1  0.500000  0.500000  0.000978  1
  Rb  Rb3  1  0.000000  0.000000  0.999022  1
  Bi  Bi4  1  0.000000  0.500000  0.756760  1
  Bi  Bi5  1  0.500000  0.000000  0.243240  1
  F  F6  1  0.222936  0.253732  0.798481  1
  F  F7  1  0.277064  0.246268  0.201519  1
  F  F8  1  0.722936  0.753732  0.201519  1
  F  F9  1  0.777064  0.746268  0.798481  1
  F  F10  1  0.222936  0.746268  0.798481  1
  F  F11  1  0.722936  0.246268  0.201519  1
  F  F12  1  0.277064  0.753732  0.201519  1
  F  F13  1  0.777064  0.253732  0.798481  1
  F  F14  1  0.000000  0.500000  0.953594  1
  F  F15  1  0.500000  0.000000  0.046406  1
  F  F16  1  0.206548  0.500000  0.601820  1
  F  F17  1  0.793452  0.500000  0.601820  1
  F  F18  1  0.293452  0.000000  0.398180  1
  F  F19  1  0.706548  0.000000  0.398180  1
