# generated using pymatgen
data_Tb4Th(In2Rh)2
_symmetry_space_group_name_H-M   'P 1'
_cell_length_a   3.71040200
_cell_length_b   8.08077864
_cell_length_c   18.36719363
_cell_angle_alpha   90.59755017
_cell_angle_beta   90.00000000
_cell_angle_gamma   90.00000000
_symmetry_Int_Tables_number   1
_chemical_formula_structural   Tb4Th(In2Rh)2
_chemical_formula_sum   'Tb8 Th2 In8 Rh4'
_cell_volume   550.67246469
_cell_formula_units_Z   2
loop_
 _symmetry_equiv_pos_site_id
 _symmetry_equiv_pos_as_xyz
  1  'x, y, z'
loop_
 _atom_site_type_symbol
 _atom_site_label
 _atom_site_symmetry_multiplicity
 _atom_site_fract_x
 _atom_site_fract_y
 _atom_site_fract_z
 _atom_site_occupancy
  Tb  Tb0  1  0.000000  0.500000  0.500000  1
  Tb  Tb1  1  0.000000  0.000000  0.000000  1
  Tb  Tb2  1  0.000000  0.753230  0.779399  1
  Tb  Tb3  1  0.000000  0.246770  0.220601  1
  Tb  Tb4  1  0.000000  0.615914  0.085180  1
  Tb  Tb5  1  0.000000  0.384086  0.914820  1
  Tb  Tb6  1  0.000000  0.886672  0.586760  1
  Tb  Tb7  1  0.000000  0.113328  0.413240  1
  Th  Th8  1  0.000000  0.747710  0.276322  1
  Th  Th9  1  0.000000  0.252290  0.723678  1
  In  In10  1  0.500000  0.706070  0.931530  1
  In  In11  1  0.500000  0.293930  0.068470  1
  In  In12  1  0.500000  0.794074  0.435946  1
  In  In13  1  0.500000  0.205926  0.564054  1
  In  In14  1  0.500000  0.579434  0.648879  1
  In  In15  1  0.500000  0.420566  0.351121  1
  In  In16  1  0.500000  0.935300  0.145760  1
  In  In17  1  0.500000  0.064700  0.854240  1
  Rh  Rh18  1  0.500000  0.534520  0.199989  1
  Rh  Rh19  1  0.500000  0.465480  0.800011  1
  Rh  Rh20  1  0.500000  0.994541  0.695568  1
  Rh  Rh21  1  0.500000  0.005459  0.304432  1
