# generated using pymatgen
data_Rb3(TlBi)4
_symmetry_space_group_name_H-M   'P 1'
_cell_length_a   10.44331590
_cell_length_b   10.44331642
_cell_length_c   10.44331564
_cell_angle_alpha   149.49929744
_cell_angle_beta   130.63427197
_cell_angle_gamma   59.14606084
_symmetry_Int_Tables_number   1
_chemical_formula_structural   Rb3(TlBi)4
_chemical_formula_sum   'Rb3 Tl4 Bi4'
_cell_volume   435.24227036
_cell_formula_units_Z   1
loop_
 _symmetry_equiv_pos_site_id
 _symmetry_equiv_pos_as_xyz
  1  'x, y, z'
loop_
 _atom_site_type_symbol
 _atom_site_label
 _atom_site_symmetry_multiplicity
 _atom_site_fract_x
 _atom_site_fract_y
 _atom_site_fract_z
 _atom_site_occupancy
  Rb  Rb0  1  0.627047  0.127047  0.500000  1
  Rb  Rb1  1  0.372953  0.872953  0.500000  1
  Rb  Rb2  1  0.000000  0.000000  0.000000  1
  Tl  Tl3  1  0.966485  0.671452  0.295033  1
  Tl  Tl4  1  0.033515  0.328548  0.704967  1
  Tl  Tl5  1  0.623580  0.328548  0.295033  1
  Tl  Tl6  1  0.376420  0.671452  0.704967  1
  Bi  Bi7  1  0.784545  0.784545  0.000000  1
  Bi  Bi8  1  0.215455  0.215455  0.000000  1
  Bi  Bi9  1  0.672350  0.500000  0.172350  1
  Bi  Bi10  1  0.327650  0.500000  0.827650  1
