# generated using pymatgen
data_Ti5BeP3
_symmetry_space_group_name_H-M   'P 1'
_cell_length_a   3.39517800
_cell_length_b   9.43525900
_cell_length_c   16.02720900
_cell_angle_alpha   90.00000000
_cell_angle_beta   90.00000000
_cell_angle_gamma   90.00000000
_symmetry_Int_Tables_number   1
_chemical_formula_structural   Ti5BeP3
_chemical_formula_sum   'Ti20 Be4 P12'
_cell_volume   513.42176405
_cell_formula_units_Z   4
loop_
 _symmetry_equiv_pos_site_id
 _symmetry_equiv_pos_as_xyz
  1  'x, y, z'
loop_
 _atom_site_type_symbol
 _atom_site_label
 _atom_site_symmetry_multiplicity
 _atom_site_fract_x
 _atom_site_fract_y
 _atom_site_fract_z
 _atom_site_occupancy
  Ti  Ti0  1  0.250000  0.121055  0.477425  1
  Ti  Ti1  1  0.750000  0.878945  0.522575  1
  Ti  Ti2  1  0.750000  0.621055  0.022575  1
  Ti  Ti3  1  0.250000  0.378945  0.977425  1
  Ti  Ti4  1  0.250000  0.063154  0.078465  1
  Ti  Ti5  1  0.750000  0.936846  0.921535  1
  Ti  Ti6  1  0.750000  0.563154  0.421535  1
  Ti  Ti7  1  0.250000  0.436846  0.578465  1
  Ti  Ti8  1  0.250000  0.484668  0.270977  1
  Ti  Ti9  1  0.750000  0.515332  0.729023  1
  Ti  Ti10  1  0.750000  0.984668  0.229023  1
  Ti  Ti11  1  0.250000  0.015332  0.770977  1
  Ti  Ti12  1  0.250000  0.812582  0.370632  1
  Ti  Ti13  1  0.750000  0.187418  0.629368  1
  Ti  Ti14  1  0.750000  0.312582  0.129368  1
  Ti  Ti15  1  0.250000  0.687418  0.870632  1
  Ti  Ti16  1  0.250000  0.751829  0.169838  1
  Ti  Ti17  1  0.750000  0.248171  0.830162  1
  Ti  Ti18  1  0.750000  0.251829  0.330162  1
  Ti  Ti19  1  0.250000  0.748171  0.669838  1
  Be  Be20  1  0.250000  0.371678  0.415731  1
  Be  Be21  1  0.750000  0.628322  0.584269  1
  Be  Be22  1  0.750000  0.871678  0.084269  1
  Be  Be23  1  0.250000  0.128322  0.915731  1
  P  P24  1  0.250000  0.815825  0.010637  1
  P  P25  1  0.750000  0.184175  0.989363  1
  P  P26  1  0.750000  0.315825  0.489363  1
  P  P27  1  0.250000  0.684175  0.510637  1
  P  P28  1  0.250000  0.506557  0.115463  1
  P  P29  1  0.750000  0.493443  0.884537  1
  P  P30  1  0.750000  0.006557  0.384537  1
  P  P31  1  0.250000  0.993443  0.615463  1
  P  P32  1  0.250000  0.189982  0.220411  1
  P  P33  1  0.750000  0.810018  0.779589  1
  P  P34  1  0.750000  0.689982  0.279589  1
  P  P35  1  0.250000  0.310018  0.720411  1
