# generated using pymatgen
data_Zr6Ta4Al12PdRu6
_symmetry_space_group_name_H-M   'P 1'
_cell_length_a   8.86110319
_cell_length_b   8.85096845
_cell_length_c   8.85096653
_cell_angle_alpha   60.17488160
_cell_angle_beta   59.96210499
_cell_angle_gamma   59.96211325
_symmetry_Int_Tables_number   1
_chemical_formula_structural   Zr6Ta4Al12PdRu6
_chemical_formula_sum   'Zr6 Ta4 Al12 Pd1 Ru6'
_cell_volume   491.21923741
_cell_formula_units_Z   1
loop_
 _symmetry_equiv_pos_site_id
 _symmetry_equiv_pos_as_xyz
  1  'x, y, z'
loop_
 _atom_site_type_symbol
 _atom_site_label
 _atom_site_symmetry_multiplicity
 _atom_site_fract_x
 _atom_site_fract_y
 _atom_site_fract_z
 _atom_site_occupancy
  Zr  Zr0  1  0.697985  0.696138  0.304118  1
  Zr  Zr1  1  0.301758  0.696138  0.304118  1
  Zr  Zr2  1  0.691333  0.308667  0.308667  1
  Zr  Zr3  1  0.301758  0.304118  0.696138  1
  Zr  Zr4  1  0.697985  0.304118  0.696138  1
  Zr  Zr5  1  0.312035  0.687965  0.687965  1
  Ta  Ta6  1  0.879090  0.879302  0.362522  1
  Ta  Ta7  1  0.879090  0.362522  0.879302  1
  Ta  Ta8  1  0.360409  0.875657  0.875657  1
  Ta  Ta9  1  0.888278  0.875657  0.875657  1
  Al  Al10  1  0.120678  0.122279  0.636363  1
  Al  Al11  1  0.120678  0.636363  0.122279  1
  Al  Al12  1  0.638279  0.122778  0.122778  1
  Al  Al13  1  0.116164  0.122778  0.122778  1
  Al  Al14  1  0.660249  0.662051  0.017451  1
  Al  Al15  1  0.660249  0.017451  0.662051  1
  Al  Al16  1  0.014458  0.661066  0.661066  1
  Al  Al17  1  0.663410  0.661066  0.661066  1
  Al  Al18  1  0.334576  0.339991  0.990857  1
  Al  Al19  1  0.334576  0.990857  0.339991  1
  Al  Al20  1  0.994820  0.335175  0.335175  1
  Al  Al21  1  0.334831  0.335175  0.335175  1
  Pd  Pd22  1  0.499880  0.000120  0.000120  1
  Ru  Ru23  1  0.000728  0.999272  0.999272  1
  Ru  Ru24  1  0.996476  0.996293  0.503816  1
  Ru  Ru25  1  0.503413  0.996293  0.503816  1
  Ru  Ru26  1  0.996928  0.503072  0.503072  1
  Ru  Ru27  1  0.503413  0.503816  0.996293  1
  Ru  Ru28  1  0.996476  0.503816  0.996293  1
