# generated using pymatgen
data_Tb5Y15(Cd3Tc)2
_symmetry_space_group_name_H-M   'P 1'
_cell_length_a   9.59340280
_cell_length_b   9.59583262
_cell_length_c   9.96784497
_cell_angle_alpha   89.99999776
_cell_angle_beta   89.95627809
_cell_angle_gamma   120.00838073
_symmetry_Int_Tables_number   1
_chemical_formula_structural   Tb5Y15(Cd3Tc)2
_chemical_formula_sum   'Tb5 Y15 Cd6 Tc2'
_cell_volume   794.60336384
_cell_formula_units_Z   1
loop_
 _symmetry_equiv_pos_site_id
 _symmetry_equiv_pos_as_xyz
  1  'x, y, z'
loop_
 _atom_site_type_symbol
 _atom_site_label
 _atom_site_symmetry_multiplicity
 _atom_site_fract_x
 _atom_site_fract_y
 _atom_site_fract_z
 _atom_site_occupancy
  Tb  Tb0  1  0.209878  0.790058  0.440840  1
  Tb  Tb1  1  0.209878  0.419820  0.440840  1
  Tb  Tb2  1  0.579992  0.789996  0.440804  1
  Tb  Tb3  1  0.789848  0.209985  0.559370  1
  Tb  Tb4  1  0.789848  0.579863  0.559370  1
  Y  Y5  1  0.999760  0.999880  0.499914  1
  Y  Y6  1  0.999877  0.999938  0.999936  1
  Y  Y7  1  0.419688  0.209844  0.558651  1
  Y  Y8  1  0.790162  0.209626  0.941422  1
  Y  Y9  1  0.790162  0.580536  0.941422  1
  Y  Y10  1  0.419598  0.209799  0.941473  1
  Y  Y11  1  0.209699  0.790323  0.058379  1
  Y  Y12  1  0.209699  0.419376  0.058379  1
  Y  Y13  1  0.580559  0.790280  0.058512  1
  Y  Y14  1  0.539829  0.460083  0.249821  1
  Y  Y15  1  0.539829  0.079747  0.249821  1
  Y  Y16  1  0.920116  0.460058  0.249775  1
  Y  Y17  1  0.460242  0.539756  0.750229  1
  Y  Y18  1  0.460242  0.920485  0.750229  1
  Y  Y19  1  0.079606  0.539803  0.750089  1
  Cd  Cd20  1  0.885691  0.114516  0.249797  1
  Cd  Cd21  1  0.885691  0.771177  0.249797  1
  Cd  Cd22  1  0.228858  0.114430  0.250003  1
  Cd  Cd23  1  0.114463  0.885610  0.750160  1
  Cd  Cd24  1  0.114463  0.228852  0.750160  1
  Cd  Cd25  1  0.771236  0.885618  0.750289  1
  Tc  Tc26  1  0.333486  0.666743  0.252165  1
  Tc  Tc27  1  0.667599  0.333799  0.748352  1
