# generated using pymatgen
data_Yb5Dy4TmRu4
_symmetry_space_group_name_H-M   'P 1'
_cell_length_a   8.49633809
_cell_length_b   8.45938682
_cell_length_c   7.39302665
_cell_angle_alpha   83.41620156
_cell_angle_beta   83.55067734
_cell_angle_gamma   43.94155629
_symmetry_Int_Tables_number   1
_chemical_formula_structural   Yb5Dy4TmRu4
_chemical_formula_sum   'Yb5 Dy4 Tm1 Ru4'
_cell_volume   365.95374084
_cell_formula_units_Z   1
loop_
 _symmetry_equiv_pos_site_id
 _symmetry_equiv_pos_as_xyz
  1  'x, y, z'
loop_
 _atom_site_type_symbol
 _atom_site_label
 _atom_site_symmetry_multiplicity
 _atom_site_fract_x
 _atom_site_fract_y
 _atom_site_fract_z
 _atom_site_occupancy
  Yb  Yb0  1  0.022039  0.796437  0.918412  1
  Yb  Yb1  1  0.204011  0.363070  0.318883  1
  Yb  Yb2  1  0.631716  0.800731  0.184886  1
  Yb  Yb3  1  0.802718  0.628137  0.678020  1
  Yb  Yb4  1  0.369942  0.196662  0.819094  1
  Dy  Dy5  1  0.972178  0.196764  0.080821  1
  Dy  Dy6  1  0.797391  0.030908  0.418084  1
  Dy  Dy7  1  0.567948  0.431492  0.751935  1
  Dy  Dy8  1  0.420995  0.580272  0.247825  1
  Tm  Tm9  1  0.192857  0.973639  0.589676  1
  Ru  Ru10  1  0.178962  0.618939  0.570641  1
  Ru  Ru11  1  0.392979  0.828015  0.916896  1
  Ru  Ru12  1  0.827673  0.373201  0.422956  1
  Ru  Ru13  1  0.618588  0.181734  0.081871  1
