# generated using pymatgen
data_TaTcSe4
_symmetry_space_group_name_H-M   'P 1'
_cell_length_a   7.94307775
_cell_length_b   7.94307964
_cell_length_c   5.84975336
_cell_angle_alpha   82.60781843
_cell_angle_beta   82.60781433
_cell_angle_gamma   24.61574825
_symmetry_Int_Tables_number   1
_chemical_formula_structural   TaTcSe4
_chemical_formula_sum   'Ta1 Tc1 Se4'
_cell_volume   152.39250475
_cell_formula_units_Z   1
loop_
 _symmetry_equiv_pos_site_id
 _symmetry_equiv_pos_as_xyz
  1  'x, y, z'
loop_
 _atom_site_type_symbol
 _atom_site_label
 _atom_site_symmetry_multiplicity
 _atom_site_fract_x
 _atom_site_fract_y
 _atom_site_fract_z
 _atom_site_occupancy
  Ta  Ta0  1  0.749974  0.749974  0.083516  1
  Tc  Tc1  1  0.250002  0.250002  0.579910  1
  Se  Se2  1  0.359862  0.359862  0.218533  1
  Se  Se3  1  0.856574  0.856574  0.707489  1
  Se  Se4  1  0.643407  0.643407  0.781886  1
  Se  Se5  1  0.140082  0.140082  0.295366  1
