# generated using pymatgen
data_Tm3Pa(InNi2)2
_symmetry_space_group_name_H-M   'P 1'
_cell_length_a   7.38915340
_cell_length_b   7.38915340
_cell_length_c   3.55201800
_cell_angle_alpha   90.00000000
_cell_angle_beta   90.00000000
_cell_angle_gamma   87.66771887
_symmetry_Int_Tables_number   1
_chemical_formula_structural   Tm3Pa(InNi2)2
_chemical_formula_sum   'Tm3 Pa1 In2 Ni4'
_cell_volume   193.77806566
_cell_formula_units_Z   1
loop_
 _symmetry_equiv_pos_site_id
 _symmetry_equiv_pos_as_xyz
  1  'x, y, z'
loop_
 _atom_site_type_symbol
 _atom_site_label
 _atom_site_symmetry_multiplicity
 _atom_site_fract_x
 _atom_site_fract_y
 _atom_site_fract_z
 _atom_site_occupancy
  Tm  Tm0  1  0.826414  0.330039  0.500001  1
  Tm  Tm1  1  0.169961  0.673586  0.500001  1
  Tm  Tm2  1  0.675206  0.824794  0.500001  1
  Pa  Pa3  1  0.329263  0.170737  0.500001  1
  In  In4  1  0.993206  0.997302  0.000000  1
  In  In5  1  0.502698  0.506794  0.000000  1
  Ni  Ni6  1  0.607972  0.128956  0.000000  1
  Ni  Ni7  1  0.137918  0.362082  0.000000  1
  Ni  Ni8  1  0.886318  0.613682  0.000000  1
  Ni  Ni9  1  0.371044  0.892028  0.000000  1
