# generated using pymatgen
data_Nd2InAuO7
_symmetry_space_group_name_H-M   'P 1'
_cell_length_a   7.53011283
_cell_length_b   7.53011223
_cell_length_c   7.49724000
_cell_angle_alpha   60.14430274
_cell_angle_beta   60.14430537
_cell_angle_gamma   60.32389037
_symmetry_Int_Tables_number   1
_chemical_formula_structural   Nd2InAuO7
_chemical_formula_sum   'Nd4 In2 Au2 O14'
_cell_volume   301.98795356
_cell_formula_units_Z   2
loop_
 _symmetry_equiv_pos_site_id
 _symmetry_equiv_pos_as_xyz
  1  'x, y, z'
loop_
 _atom_site_type_symbol
 _atom_site_label
 _atom_site_symmetry_multiplicity
 _atom_site_fract_x
 _atom_site_fract_y
 _atom_site_fract_z
 _atom_site_occupancy
  Nd  Nd0  1  0.625000  0.125000  0.125000  1
  Nd  Nd1  1  0.125000  0.625000  0.125000  1
  Nd  Nd2  1  0.125000  0.125000  0.625000  1
  Nd  Nd3  1  0.125000  0.125000  0.125000  1
  In  In4  1  0.125000  0.625000  0.625000  1
  In  In5  1  0.625000  0.125000  0.625000  1
  Au  Au6  1  0.625000  0.625000  0.125000  1
  Au  Au7  1  0.625000  0.625000  0.625000  1
  O  O8  1  0.705398  0.705398  0.294602  1
  O  O9  1  0.278568  0.278568  0.721432  1
  O  O10  1  0.707781  0.296221  0.722369  1
  O  O11  1  0.296221  0.707781  0.273628  1
  O  O12  1  0.296221  0.707781  0.722369  1
  O  O13  1  0.707781  0.296221  0.273628  1
  O  O14  1  0.544602  0.544602  0.955398  1
  O  O15  1  0.971432  0.971432  0.528568  1
  O  O16  1  0.542219  0.953779  0.527631  1
  O  O17  1  0.953779  0.542219  0.976372  1
  O  O18  1  0.953779  0.542219  0.527631  1
  O  O19  1  0.542219  0.953779  0.976372  1
  O  O20  1  0.253811  0.253811  0.246189  1
  O  O21  1  0.996189  0.996189  0.003811  1
