# generated using pymatgen
data_Er3Tm4Pa(ReB6)4
_symmetry_space_group_name_H-M   'P 1'
_cell_length_a   3.66291200
_cell_length_b   9.11289245
_cell_length_c   11.47714205
_cell_angle_alpha   90.13549565
_cell_angle_beta   90.00000000
_cell_angle_gamma   90.00000000
_symmetry_Int_Tables_number   1
_chemical_formula_structural   Er3Tm4Pa(ReB6)4
_chemical_formula_sum   'Er3 Tm4 Pa1 Re4 B24'
_cell_volume   383.10275220
_cell_formula_units_Z   1
loop_
 _symmetry_equiv_pos_site_id
 _symmetry_equiv_pos_as_xyz
  1  'x, y, z'
loop_
 _atom_site_type_symbol
 _atom_site_label
 _atom_site_symmetry_multiplicity
 _atom_site_fract_x
 _atom_site_fract_y
 _atom_site_fract_z
 _atom_site_occupancy
  Er  Er0  1  0.000000  0.679737  0.586970  1
  Er  Er1  1  0.000000  0.823054  0.085299  1
  Er  Er2  1  0.000000  0.175953  0.913482  1
  Tm  Tm3  1  0.000000  0.942626  0.371621  1
  Tm  Tm4  1  0.000000  0.055173  0.629344  1
  Tm  Tm5  1  0.000000  0.443592  0.127445  1
  Tm  Tm6  1  0.000000  0.557170  0.870521  1
  Pa  Pa7  1  0.000000  0.323063  0.414090  1
  Re  Re8  1  0.000000  0.636225  0.321561  1
  Re  Re9  1  0.000000  0.361966  0.676922  1
  Re  Re10  1  0.000000  0.140844  0.181498  1
  Re  Re11  1  0.000000  0.861431  0.820958  1
  B  B12  1  0.500000  0.553157  0.432285  1
  B  B13  1  0.500000  0.445996  0.567255  1
  B  B14  1  0.500000  0.053679  0.067078  1
  B  B15  1  0.500000  0.946937  0.933773  1
  B  B16  1  0.500000  0.749631  0.418775  1
  B  B17  1  0.500000  0.250018  0.581431  1
  B  B18  1  0.500000  0.249353  0.080163  1
  B  B19  1  0.500000  0.750418  0.919240  1
  B  B20  1  0.500000  0.792229  0.265602  1
  B  B21  1  0.500000  0.207549  0.735142  1
  B  B22  1  0.500000  0.292008  0.234220  1
  B  B23  1  0.500000  0.707736  0.765617  1
  B  B24  1  0.500000  0.631198  0.184312  1
  B  B25  1  0.500000  0.369777  0.814700  1
  B  B26  1  0.500000  0.131293  0.314900  1
  B  B27  1  0.500000  0.868923  0.685632  1
  B  B28  1  0.500000  0.981931  0.212218  1
  B  B29  1  0.500000  0.018081  0.788106  1
  B  B30  1  0.500000  0.482743  0.287015  1
  B  B31  1  0.500000  0.518343  0.713133  1
  B  B32  1  0.500000  0.601253  0.027626  1
  B  B33  1  0.500000  0.398854  0.971132  1
  B  B34  1  0.500000  0.102718  0.471688  1
  B  B35  1  0.500000  0.895344  0.529243  1
