# generated using pymatgen
data_Th(NbBr3)6
_symmetry_space_group_name_H-M   'P 1'
_cell_length_a   10.88412316
_cell_length_b   10.88331049
_cell_length_c   10.88349926
_cell_angle_alpha   55.95381770
_cell_angle_beta   55.94722687
_cell_angle_gamma   55.95315831
_symmetry_Int_Tables_number   1
_chemical_formula_structural   Th(NbBr3)6
_chemical_formula_sum   'Th1 Nb6 Br18'
_cell_volume   826.08556051
_cell_formula_units_Z   1
loop_
 _symmetry_equiv_pos_site_id
 _symmetry_equiv_pos_as_xyz
  1  'x, y, z'
loop_
 _atom_site_type_symbol
 _atom_site_label
 _atom_site_symmetry_multiplicity
 _atom_site_fract_x
 _atom_site_fract_y
 _atom_site_fract_z
 _atom_site_occupancy
  Th  Th0  1  0.000000  0.000000  0.000000  1
  Nb  Nb1  1  0.415252  0.313765  0.639530  1
  Nb  Nb2  1  0.360464  0.584749  0.686241  1
  Nb  Nb3  1  0.686229  0.360472  0.584744  1
  Nb  Nb4  1  0.313771  0.639528  0.415256  1
  Nb  Nb5  1  0.639536  0.415251  0.313759  1
  Nb  Nb6  1  0.584748  0.686235  0.360470  1
  Br  Br7  1  0.567916  0.165919  0.441760  1
  Br  Br8  1  0.226480  0.372009  0.903268  1
  Br  Br9  1  0.903251  0.226489  0.372018  1
  Br  Br10  1  0.372019  0.903241  0.226497  1
  Br  Br11  1  0.773520  0.627991  0.096732  1
  Br  Br12  1  0.096749  0.773511  0.627982  1
  Br  Br13  1  0.701294  0.960744  0.159439  1
  Br  Br14  1  0.960736  0.159438  0.701297  1
  Br  Br15  1  0.159436  0.701290  0.960750  1
  Br  Br16  1  0.298706  0.039256  0.840561  1
  Br  Br17  1  0.039264  0.840562  0.298703  1
  Br  Br18  1  0.840564  0.298710  0.039250  1
  Br  Br19  1  0.558245  0.432082  0.834064  1
  Br  Br20  1  0.165941  0.441760  0.567915  1
  Br  Br21  1  0.441755  0.567918  0.165936  1
  Br  Br22  1  0.432084  0.834081  0.558240  1
  Br  Br23  1  0.834059  0.558240  0.432085  1
  Br  Br24  1  0.627981  0.096759  0.773503  1
