# generated using pymatgen
data_Rb8Na4TbY3Sb8
_symmetry_space_group_name_H-M   'P 1'
_cell_length_a   11.37145572
_cell_length_b   11.37145550
_cell_length_c   7.49195301
_cell_angle_alpha   90.00388192
_cell_angle_beta   89.99612470
_cell_angle_gamma   98.24852593
_symmetry_Int_Tables_number   1
_chemical_formula_structural   Rb8Na4TbY3Sb8
_chemical_formula_sum   'Rb8 Na4 Tb1 Y3 Sb8'
_cell_volume   958.76246021
_cell_formula_units_Z   1
loop_
 _symmetry_equiv_pos_site_id
 _symmetry_equiv_pos_as_xyz
  1  'x, y, z'
loop_
 _atom_site_type_symbol
 _atom_site_label
 _atom_site_symmetry_multiplicity
 _atom_site_fract_x
 _atom_site_fract_y
 _atom_site_fract_z
 _atom_site_occupancy
  Rb  Rb0  1  0.070215  0.429794  0.250003  1
  Rb  Rb1  1  0.429794  0.070215  0.749997  1
  Rb  Rb2  1  0.929797  0.570204  0.749992  1
  Rb  Rb3  1  0.570204  0.929797  0.250008  1
  Rb  Rb4  1  0.676825  0.323165  0.215018  1
  Rb  Rb5  1  0.823160  0.176830  0.715000  1
  Rb  Rb6  1  0.323165  0.676825  0.784982  1
  Rb  Rb7  1  0.176830  0.823160  0.285000  1
  Na  Na8  1  0.382100  0.382100  0.000000  1
  Na  Na9  1  0.117918  0.117918  0.500000  1
  Na  Na10  1  0.617913  0.617913  0.000000  1
  Na  Na11  1  0.882083  0.882083  0.500000  1
  Tb  Tb12  1  0.131101  0.131101  0.000000  1
  Y  Y13  1  0.368936  0.368936  0.500000  1
  Y  Y14  1  0.868871  0.868871  0.000000  1
  Y  Y15  1  0.631031  0.631031  0.500000  1
  Sb  Sb16  1  0.846976  0.653043  0.249986  1
  Sb  Sb17  1  0.653043  0.846976  0.750014  1
  Sb  Sb18  1  0.153030  0.347117  0.749802  1
  Sb  Sb19  1  0.347117  0.153030  0.250198  1
  Sb  Sb20  1  0.899577  0.100290  0.212121  1
  Sb  Sb21  1  0.600291  0.399732  0.711970  1
  Sb  Sb22  1  0.100290  0.899577  0.787879  1
  Sb  Sb23  1  0.399732  0.600291  0.288030  1
