# generated using pymatgen
data_Cs8V3P(PtS8)2
_symmetry_space_group_name_H-M   'P 1'
_cell_length_a   13.66687950
_cell_length_b   7.56850622
_cell_length_c   9.79373145
_cell_angle_alpha   83.74986836
_cell_angle_beta   90.47653793
_cell_angle_gamma   89.50736398
_symmetry_Int_Tables_number   1
_chemical_formula_structural   Cs8V3P(PtS8)2
_chemical_formula_sum   'Cs8 V3 P1 Pt2 S16'
_cell_volume   1006.94035685
_cell_formula_units_Z   1
loop_
 _symmetry_equiv_pos_site_id
 _symmetry_equiv_pos_as_xyz
  1  'x, y, z'
loop_
 _atom_site_type_symbol
 _atom_site_label
 _atom_site_symmetry_multiplicity
 _atom_site_fract_x
 _atom_site_fract_y
 _atom_site_fract_z
 _atom_site_occupancy
  Cs  Cs0  1  0.131324  0.820108  0.680986  1
  Cs  Cs1  1  0.634885  0.178710  0.816522  1
  Cs  Cs2  1  0.866745  0.178204  0.317388  1
  Cs  Cs3  1  0.366383  0.823986  0.182332  1
  Cs  Cs4  1  0.346723  0.283295  0.538409  1
  Cs  Cs5  1  0.848149  0.719790  0.959438  1
  Cs  Cs6  1  0.649878  0.725183  0.462641  1
  Cs  Cs7  1  0.151540  0.279436  0.035567  1
  V  V8  1  0.426273  0.746141  0.772000  1
  V  V9  1  0.925509  0.251272  0.730276  1
  V  V10  1  0.573246  0.254760  0.227834  1
  P  P11  1  0.079420  0.757610  0.263267  1
  Pt  Pt12  1  0.998173  0.490687  0.509582  1
  Pt  Pt13  1  0.499915  0.500392  0.999903  1
  S  S14  1  0.080934  0.292398  0.674648  1
  S  S15  1  0.580847  0.696566  0.832954  1
  S  S16  1  0.935209  0.692444  0.328059  1
  S  S17  1  0.418681  0.304733  0.167067  1
  S  S18  1  0.403454  0.750816  0.556074  1
  S  S19  1  0.902740  0.246626  0.945813  1
  S  S20  1  0.595457  0.249363  0.443857  1
  S  S21  1  0.101450  0.756588  0.060819  1
  S  S22  1  0.140892  0.529943  0.377197  1
  S  S23  1  0.651509  0.477964  0.118550  1
  S  S24  1  0.845617  0.475879  0.619359  1
  S  S25  1  0.348461  0.522530  0.881164  1
  S  S26  1  0.374206  0.991457  0.833244  1
  S  S27  1  0.873387  0.007887  0.666871  1
  S  S28  1  0.625223  0.009742  0.165749  1
  S  S29  1  0.123770  0.985490  0.332430  1
