# generated using pymatgen
data_Lu2U2In2Ir3Ru
_symmetry_space_group_name_H-M   'P 1'
_cell_length_a   7.67726042
_cell_length_b   7.67725931
_cell_length_c   3.50700200
_cell_angle_alpha   90.00000000
_cell_angle_beta   90.00000000
_cell_angle_gamma   84.78478615
_symmetry_Int_Tables_number   1
_chemical_formula_structural   Lu2U2In2Ir3Ru
_chemical_formula_sum   'Lu2 U2 In2 Ir3 Ru1'
_cell_volume   205.84812446
_cell_formula_units_Z   1
loop_
 _symmetry_equiv_pos_site_id
 _symmetry_equiv_pos_as_xyz
  1  'x, y, z'
loop_
 _atom_site_type_symbol
 _atom_site_label
 _atom_site_symmetry_multiplicity
 _atom_site_fract_x
 _atom_site_fract_y
 _atom_site_fract_z
 _atom_site_occupancy
  Lu  Lu0  1  0.668473  0.174324  0.500000  1
  Lu  Lu1  1  0.325676  0.831527  0.500000  1
  U  U2  1  0.169064  0.330936  0.500000  1
  U  U3  1  0.822011  0.677989  0.500000  1
  In  In4  1  0.497552  0.500303  0.000000  1
  In  In5  1  0.999697  0.002448  0.000000  1
  Ir  Ir6  1  0.123976  0.623877  0.000000  1
  Ir  Ir7  1  0.876123  0.376024  0.000000  1
  Ir  Ir8  1  0.364713  0.135287  0.000000  1
  Ru  Ru9  1  0.652714  0.847286  0.000000  1
