# generated using pymatgen
data_Pr5Te2Cl3O10
_symmetry_space_group_name_H-M   'P 1'
_cell_length_a   5.75625100
_cell_length_b   7.04851323
_cell_length_c   10.33645817
_cell_angle_alpha   90.39536483
_cell_angle_beta   90.00000000
_cell_angle_gamma   114.10002091
_symmetry_Int_Tables_number   1
_chemical_formula_structural   Pr5Te2Cl3O10
_chemical_formula_sum   'Pr5 Te2 Cl3 O10'
_cell_volume   382.81452360
_cell_formula_units_Z   1
loop_
 _symmetry_equiv_pos_site_id
 _symmetry_equiv_pos_as_xyz
  1  'x, y, z'
loop_
 _atom_site_type_symbol
 _atom_site_label
 _atom_site_symmetry_multiplicity
 _atom_site_fract_x
 _atom_site_fract_y
 _atom_site_fract_z
 _atom_site_occupancy
  Pr  Pr0  1  0.000000  0.000000  0.000000  1
  Pr  Pr1  1  0.291028  0.582057  0.105018  1
  Pr  Pr2  1  0.602748  0.205496  0.232571  1
  Pr  Pr3  1  0.397251  0.794503  0.767428  1
  Pr  Pr4  1  0.708972  0.417944  0.894982  1
  Te  Te5  1  0.916846  0.833693  0.327535  1
  Te  Te6  1  0.083154  0.166308  0.672466  1
  Cl  Cl7  1  0.161233  0.322468  0.348283  1
  Cl  Cl8  1  0.500000  0.000001  0.500000  1
  Cl  Cl9  1  0.838766  0.677531  0.651717  1
  O  O10  1  0.400410  0.292300  0.058567  1
  O  O11  1  0.891890  0.292300  0.058567  1
  O  O12  1  0.188478  0.895517  0.203998  1
  O  O13  1  0.707038  0.895517  0.203998  1
  O  O14  1  0.775478  0.550956  0.288959  1
  O  O15  1  0.224522  0.449045  0.711041  1
  O  O16  1  0.292964  0.104484  0.796002  1
  O  O17  1  0.811522  0.104484  0.796002  1
  O  O18  1  0.108111  0.707700  0.941433  1
  O  O19  1  0.599589  0.707700  0.941433  1
