# generated using pymatgen
data_DyHo9(InBi)3
_symmetry_space_group_name_H-M   'P 1'
_cell_length_a   9.03781106
_cell_length_b   9.03780976
_cell_length_c   6.54662400
_cell_angle_alpha   90.00000000
_cell_angle_beta   90.00000000
_cell_angle_gamma   120.01272099
_symmetry_Int_Tables_number   1
_chemical_formula_structural   DyHo9(InBi)3
_chemical_formula_sum   'Dy1 Ho9 In3 Bi3'
_cell_volume   463.04030873
_cell_formula_units_Z   1
loop_
 _symmetry_equiv_pos_site_id
 _symmetry_equiv_pos_as_xyz
  1  'x, y, z'
loop_
 _atom_site_type_symbol
 _atom_site_label
 _atom_site_symmetry_multiplicity
 _atom_site_fract_x
 _atom_site_fract_y
 _atom_site_fract_z
 _atom_site_occupancy
  Dy  Dy0  1  0.762956  0.762956  0.750000  1
  Ho  Ho1  1  0.666662  0.333324  0.006429  1
  Ho  Ho2  1  0.333324  0.666662  0.006429  1
  Ho  Ho3  1  0.333324  0.666662  0.493571  1
  Ho  Ho4  1  0.666662  0.333324  0.493571  1
  Ho  Ho5  1  0.237072  0.000029  0.750000  1
  Ho  Ho6  1  0.000029  0.237072  0.750000  1
  Ho  Ho7  1  0.237659  0.237659  0.250000  1
  Ho  Ho8  1  0.762317  0.000020  0.250000  1
  Ho  Ho9  1  0.000020  0.762317  0.250000  1
  In  In10  1  0.606851  0.606851  0.250000  1
  In  In11  1  0.393171  0.000003  0.250000  1
  In  In12  1  0.000003  0.393171  0.250000  1
  Bi  Bi13  1  0.395709  0.395709  0.750000  1
  Bi  Bi14  1  0.604186  0.000056  0.750000  1
  Bi  Bi15  1  0.000056  0.604186  0.750000  1
