# generated using pymatgen
data_Er6Al24GaFe3Ru4
_symmetry_space_group_name_H-M   'P 1'
_cell_length_a   8.76242517
_cell_length_b   8.77628773
_cell_length_c   9.44930861
_cell_angle_alpha   90.02770313
_cell_angle_beta   89.85852979
_cell_angle_gamma   119.70752323
_symmetry_Int_Tables_number   1
_chemical_formula_structural   Er6Al24GaFe3Ru4
_chemical_formula_sum   'Er6 Al24 Ga1 Fe3 Ru4'
_cell_volume   631.15609001
_cell_formula_units_Z   1
loop_
 _symmetry_equiv_pos_site_id
 _symmetry_equiv_pos_as_xyz
  1  'x, y, z'
loop_
 _atom_site_type_symbol
 _atom_site_label
 _atom_site_symmetry_multiplicity
 _atom_site_fract_x
 _atom_site_fract_y
 _atom_site_fract_z
 _atom_site_occupancy
  Er  Er0  1  0.193410  0.386231  0.245208  1
  Er  Er1  1  0.806590  0.613769  0.754792  1
  Er  Er2  1  0.612719  0.806389  0.244182  1
  Er  Er3  1  0.387281  0.193611  0.755818  1
  Er  Er4  1  0.195727  0.804505  0.254283  1
  Er  Er5  1  0.804273  0.195495  0.745717  1
  Al  Al6  1  0.319894  0.669394  0.019433  1
  Al  Al7  1  0.680106  0.330606  0.980567  1
  Al  Al8  1  0.666549  0.333556  0.519219  1
  Al  Al9  1  0.333451  0.666444  0.480781  1
  Al  Al10  1  0.158601  0.318333  0.573754  1
  Al  Al11  1  0.841399  0.681667  0.426246  1
  Al  Al12  1  0.681785  0.841066  0.573526  1
  Al  Al13  1  0.857753  0.683332  0.079339  1
  Al  Al14  1  0.318215  0.158934  0.426474  1
  Al  Al15  1  0.142247  0.316668  0.920661  1
  Al  Al16  1  0.159286  0.839796  0.578305  1
  Al  Al17  1  0.315053  0.145145  0.080706  1
  Al  Al18  1  0.840714  0.160204  0.421695  1
  Al  Al19  1  0.684947  0.854855  0.919294  1
  Al  Al20  1  0.841721  0.162400  0.078083  1
  Al  Al21  1  0.158279  0.837600  0.921917  1
  Al  Al22  1  0.562357  0.121388  0.248590  1
  Al  Al23  1  0.437643  0.878612  0.751410  1
  Al  Al24  1  0.882761  0.439970  0.244144  1
  Al  Al25  1  0.117239  0.560030  0.755856  1
  Al  Al26  1  0.566355  0.434657  0.257356  1
  Al  Al27  1  0.433645  0.565343  0.742644  1
  Al  Al28  1  0.998718  0.001066  0.250869  1
  Al  Al29  1  0.001282  0.998934  0.749131  1
  Ga  Ga30  1  0.500000  0.500000  0.000000  1
  Fe  Fe31  1  0.000000  0.500000  0.000000  1
  Fe  Fe32  1  0.000000  0.000000  0.000000  1
  Fe  Fe33  1  0.000000  0.000000  0.500000  1
  Ru  Ru34  1  0.500000  0.000000  0.000000  1
  Ru  Ru35  1  0.500000  0.000000  0.500000  1
  Ru  Ru36  1  0.000000  0.500000  0.500000  1
  Ru  Ru37  1  0.500000  0.500000  0.500000  1
