# generated using pymatgen
data_TaTi5Si6(Mo2Ru)2
_symmetry_space_group_name_H-M   'P 1'
_cell_length_a   7.58981987
_cell_length_b   7.58741775
_cell_length_c   7.58514113
_cell_angle_alpha   125.95597452
_cell_angle_beta   128.82995669
_cell_angle_gamma   77.59092759
_symmetry_Int_Tables_number   1
_chemical_formula_structural   TaTi5Si6(Mo2Ru)2
_chemical_formula_sum   'Ta1 Ti5 Si6 Mo4 Ru2'
_cell_volume   267.18328109
_cell_formula_units_Z   1
loop_
 _symmetry_equiv_pos_site_id
 _symmetry_equiv_pos_as_xyz
  1  'x, y, z'
loop_
 _atom_site_type_symbol
 _atom_site_label
 _atom_site_symmetry_multiplicity
 _atom_site_fract_x
 _atom_site_fract_y
 _atom_site_fract_z
 _atom_site_occupancy
  Ta  Ta0  1  0.250275  0.905434  0.155604  1
  Ti  Ti1  1  0.947546  0.493766  0.041820  1
  Ti  Ti2  1  0.048629  0.090376  0.535923  1
  Ti  Ti3  1  0.452092  0.486934  0.541083  1
  Ti  Ti4  1  0.750242  0.903278  0.653480  1
  Ti  Ti5  1  0.552144  0.093196  0.045986  1
  Si  Si6  1  0.749280  0.501461  0.251639  1
  Si  Si7  1  0.166604  0.163197  0.989385  1
  Si  Si8  1  0.672562  0.164448  0.501330  1
  Si  Si9  1  0.333321  0.822768  0.496617  1
  Si  Si10  1  0.250242  0.500690  0.749897  1
  Si  Si11  1  0.828157  0.828759  0.992574  1
  Mo  Mo12  1  0.498463  0.234331  0.736257  1
  Mo  Mo13  1  0.001158  0.237752  0.235649  1
  Mo  Mo14  1  0.869179  0.499090  0.631038  1
  Mo  Mo15  1  0.631335  0.762052  0.130467  1
  Ru  Ru16  1  0.368411  0.496112  0.126858  1
  Ru  Ru17  1  0.130359  0.758567  0.626603  1
