# generated using pymatgen
data_SmHf(Co5As3)2
_symmetry_space_group_name_H-M   'P 1'
_cell_length_a   3.77380600
_cell_length_b   10.67893000
_cell_length_c   12.13924800
_cell_angle_alpha   90.00000000
_cell_angle_beta   90.00000000
_cell_angle_gamma   90.00000000
_symmetry_Int_Tables_number   1
_chemical_formula_structural   SmHf(Co5As3)2
_chemical_formula_sum   'Sm2 Hf2 Co20 As12'
_cell_volume   489.21424495
_cell_formula_units_Z   2
loop_
 _symmetry_equiv_pos_site_id
 _symmetry_equiv_pos_as_xyz
  1  'x, y, z'
loop_
 _atom_site_type_symbol
 _atom_site_label
 _atom_site_symmetry_multiplicity
 _atom_site_fract_x
 _atom_site_fract_y
 _atom_site_fract_z
 _atom_site_occupancy
  Sm  Sm0  1  0.750000  0.418113  0.297063  1
  Sm  Sm1  1  0.750000  0.081887  0.797063  1
  Hf  Hf2  1  0.250000  0.577938  0.698662  1
  Hf  Hf3  1  0.250000  0.922062  0.198662  1
  Co  Co4  1  0.250000  0.716161  0.995324  1
  Co  Co5  1  0.250000  0.783839  0.495324  1
  Co  Co6  1  0.750000  0.285750  0.008804  1
  Co  Co7  1  0.750000  0.214250  0.508804  1
  Co  Co8  1  0.250000  0.410738  0.492808  1
  Co  Co9  1  0.250000  0.089262  0.992808  1
  Co  Co10  1  0.750000  0.593166  0.518692  1
  Co  Co11  1  0.750000  0.906834  0.018692  1
  Co  Co12  1  0.250000  0.215984  0.179046  1
  Co  Co13  1  0.250000  0.284016  0.679046  1
  Co  Co14  1  0.750000  0.782732  0.822290  1
  Co  Co15  1  0.750000  0.717268  0.322290  1
  Co  Co16  1  0.250000  0.880632  0.696444  1
  Co  Co17  1  0.250000  0.619368  0.196444  1
  Co  Co18  1  0.750000  0.111042  0.300684  1
  Co  Co19  1  0.750000  0.388958  0.800684  1
  Co  Co20  1  0.250000  0.474627  0.926124  1
  Co  Co21  1  0.250000  0.025373  0.426124  1
  Co  Co22  1  0.750000  0.534670  0.064937  1
  Co  Co23  1  0.750000  0.965330  0.564937  1
  As  As24  1  0.250000  0.416493  0.109389  1
  As  As25  1  0.250000  0.083507  0.609389  1
  As  As26  1  0.750000  0.586585  0.881359  1
  As  As27  1  0.750000  0.913415  0.381359  1
  As  As28  1  0.250000  0.270842  0.873536  1
  As  As29  1  0.250000  0.229158  0.373536  1
  As  As30  1  0.750000  0.733949  0.132214  1
  As  As31  1  0.750000  0.766051  0.632214  1
  As  As32  1  0.250000  0.602161  0.391378  1
  As  As33  1  0.250000  0.897839  0.891378  1
  As  As34  1  0.750000  0.400195  0.611246  1
  As  As35  1  0.750000  0.099805  0.111246  1
