# generated using pymatgen
data_Sr3CaBi2O9
_symmetry_space_group_name_H-M   'P 1'
_cell_length_a   6.04890449
_cell_length_b   10.43790006
_cell_length_c   8.52069871
_cell_angle_alpha   66.09583753
_cell_angle_beta   89.39253189
_cell_angle_gamma   72.63318208
_symmetry_Int_Tables_number   1
_chemical_formula_structural   Sr3CaBi2O9
_chemical_formula_sum   'Sr6 Ca2 Bi4 O18'
_cell_volume   465.64333890
_cell_formula_units_Z   2
loop_
 _symmetry_equiv_pos_site_id
 _symmetry_equiv_pos_as_xyz
  1  'x, y, z'
loop_
 _atom_site_type_symbol
 _atom_site_label
 _atom_site_symmetry_multiplicity
 _atom_site_fract_x
 _atom_site_fract_y
 _atom_site_fract_z
 _atom_site_occupancy
  Sr  Sr0  1  0.833486  0.314590  0.085135  1
  Sr  Sr1  1  0.154182  0.665306  0.419923  1
  Sr  Sr2  1  0.484908  0.002578  0.729871  1
  Sr  Sr3  1  0.499852  0.018742  0.248132  1
  Sr  Sr4  1  0.848430  0.330766  0.603410  1
  Sr  Sr5  1  0.179169  0.668147  0.913309  1
  Ca  Ca6  1  0.996794  0.999109  0.503485  1
  Ca  Ca7  1  0.336551  0.334273  0.829824  1
  Bi  Bi8  1  0.995275  0.997476  0.998824  1
  Bi  Bi9  1  0.338023  0.335845  0.334523  1
  Bi  Bi10  1  0.666704  0.666669  0.666716  1
  Bi  Bi11  1  0.666677  0.666627  0.166722  1
  O  O12  1  0.964601  0.477207  0.192823  1
  O  O13  1  0.310258  0.780186  0.580022  1
  O  O14  1  0.646545  0.119369  0.888029  1
  O  O15  1  0.368625  0.856040  0.140568  1
  O  O16  1  0.686777  0.213926  0.445428  1
  O  O17  1  0.023166  0.553176  0.753289  1
  O  O18  1  0.589455  0.715466  0.899439  1
  O  O19  1  0.925312  0.023599  0.227233  1
  O  O20  1  0.241332  0.382870  0.545615  1
  O  O21  1  0.917959  0.785075  0.109598  1
  O  O22  1  0.235965  0.143949  0.426539  1
  O  O23  1  0.601748  0.462882  0.778939  1
  O  O24  1  0.743816  0.617865  0.433956  1
  O  O25  1  0.091995  0.950508  0.787672  1
  O  O26  1  0.408073  0.309645  0.106154  1
  O  O27  1  0.415316  0.548240  0.223668  1
  O  O28  1  0.731679  0.870448  0.554440  1
  O  O29  1  0.097324  0.189422  0.906714  1
