# generated using pymatgen
data_Yb3CeAlOs7
_symmetry_space_group_name_H-M   'P 1'
_cell_length_a   5.35647000
_cell_length_b   5.35647028
_cell_length_c   8.64890700
_cell_angle_alpha   90.00000000
_cell_angle_beta   90.00000000
_cell_angle_gamma   119.99998589
_symmetry_Int_Tables_number   1
_chemical_formula_structural   Yb3CeAlOs7
_chemical_formula_sum   'Yb3 Ce1 Al1 Os7'
_cell_volume   214.90637445
_cell_formula_units_Z   1
loop_
 _symmetry_equiv_pos_site_id
 _symmetry_equiv_pos_as_xyz
  1  'x, y, z'
loop_
 _atom_site_type_symbol
 _atom_site_label
 _atom_site_symmetry_multiplicity
 _atom_site_fract_x
 _atom_site_fract_y
 _atom_site_fract_z
 _atom_site_occupancy
  Yb  Yb0  1  0.666667  0.333333  0.571205  1
  Yb  Yb1  1  0.666667  0.333333  0.934803  1
  Yb  Yb2  1  0.333333  0.666667  0.063023  1
  Ce  Ce3  1  0.333333  0.666667  0.427208  1
  Al  Al4  1  0.000000  0.000000  0.500760  1
  Os  Os5  1  0.000000  0.000000  0.000964  1
  Os  Os6  1  0.828654  0.171346  0.250550  1
  Os  Os7  1  0.828654  0.657307  0.250550  1
  Os  Os8  1  0.342693  0.171346  0.250550  1
  Os  Os9  1  0.171175  0.828825  0.750129  1
  Os  Os10  1  0.171175  0.342350  0.750129  1
  Os  Os11  1  0.657650  0.828825  0.750129  1
