# generated using pymatgen
data_Er8Tm4InCo4Ir
_symmetry_space_group_name_H-M   'P 1'
_cell_length_a   8.20630743
_cell_length_b   8.20630699
_cell_length_c   8.20630733
_cell_angle_alpha   111.20262115
_cell_angle_beta   110.87116795
_cell_angle_gamma   106.38348328
_symmetry_Int_Tables_number   1
_chemical_formula_structural   Er8Tm4InCo4Ir
_chemical_formula_sum   'Er8 Tm4 In1 Co4 Ir1'
_cell_volume   424.49940241
_cell_formula_units_Z   1
loop_
 _symmetry_equiv_pos_site_id
 _symmetry_equiv_pos_as_xyz
  1  'x, y, z'
loop_
 _atom_site_type_symbol
 _atom_site_label
 _atom_site_symmetry_multiplicity
 _atom_site_fract_x
 _atom_site_fract_y
 _atom_site_fract_z
 _atom_site_occupancy
  Er  Er0  1  0.413603  0.219073  0.194530  1
  Er  Er1  1  0.586397  0.780927  0.805470  1
  Er  Er2  1  0.024545  0.219073  0.805470  1
  Er  Er3  1  0.975455  0.780927  0.194530  1
  Er  Er4  1  0.183222  0.283936  0.467157  1
  Er  Er5  1  0.816778  0.716064  0.532843  1
  Er  Er6  1  0.183222  0.716064  0.899285  1
  Er  Er7  1  0.816778  0.283936  0.100715  1
  Tm  Tm8  1  0.315757  0.622375  0.306618  1
  Tm  Tm9  1  0.684243  0.377625  0.693382  1
  Tm  Tm10  1  0.315757  0.009140  0.693382  1
  Tm  Tm11  1  0.684243  0.990860  0.306618  1
  In  In12  1  0.500000  0.500000  0.000000  1
  Co  Co13  1  0.376652  0.000000  0.376652  1
  Co  Co14  1  0.623348  0.000000  0.623348  1
  Co  Co15  1  0.111985  0.611985  0.500000  1
  Co  Co16  1  0.888015  0.388015  0.500000  1
  Ir  Ir17  1  0.000000  0.000000  0.000000  1
