# generated using pymatgen
data_Li3Pr2ThPt3
_symmetry_space_group_name_H-M   'P 1'
_cell_length_a   7.48979800
_cell_length_b   7.36851373
_cell_length_c   4.11784700
_cell_angle_alpha   90.00000000
_cell_angle_beta   90.00000000
_cell_angle_gamma   120.54599609
_symmetry_Int_Tables_number   1
_chemical_formula_structural   Li3Pr2ThPt3
_chemical_formula_sum   'Li3 Pr2 Th1 Pt3'
_cell_volume   195.71992510
_cell_formula_units_Z   1
loop_
 _symmetry_equiv_pos_site_id
 _symmetry_equiv_pos_as_xyz
  1  'x, y, z'
loop_
 _atom_site_type_symbol
 _atom_site_label
 _atom_site_symmetry_multiplicity
 _atom_site_fract_x
 _atom_site_fract_y
 _atom_site_fract_z
 _atom_site_occupancy
  Li  Li0  1  0.226207  0.000000  0.500000  1
  Li  Li1  1  0.002551  0.236926  0.500000  1
  Li  Li2  1  0.765624  0.763074  0.500000  1
  Pr  Pr3  1  0.003145  0.599402  0.000000  1
  Pr  Pr4  1  0.403744  0.400598  0.000000  1
  Th  Th5  1  0.597677  0.000000  0.000000  1
  Pt  Pt6  1  0.348264  0.683012  0.500000  1
  Pt  Pt7  1  0.665254  0.316988  0.500000  1
  Pt  Pt8  1  0.987535  0.000000  0.000000  1
