# generated using pymatgen
data_Ba4Fe2PtO10
_symmetry_space_group_name_H-M   'P 1'
_cell_length_a   7.31100680
_cell_length_b   7.31100682
_cell_length_c   13.36012300
_cell_angle_alpha   90.00000000
_cell_angle_beta   90.00000000
_cell_angle_gamma   132.95418568
_symmetry_Int_Tables_number   1
_chemical_formula_structural   Ba4Fe2PtO10
_chemical_formula_sum   'Ba8 Fe4 Pt2 O20'
_cell_volume   522.65591419
_cell_formula_units_Z   2
loop_
 _symmetry_equiv_pos_site_id
 _symmetry_equiv_pos_as_xyz
  1  'x, y, z'
loop_
 _atom_site_type_symbol
 _atom_site_label
 _atom_site_symmetry_multiplicity
 _atom_site_fract_x
 _atom_site_fract_y
 _atom_site_fract_z
 _atom_site_occupancy
  Ba  Ba0  1  0.468490  0.531510  0.140989  1
  Ba  Ba1  1  0.239814  0.760186  0.888210  1
  Ba  Ba2  1  0.739814  0.260186  0.611790  1
  Ba  Ba3  1  0.031510  0.968490  0.640989  1
  Ba  Ba4  1  0.968490  0.031510  0.359011  1
  Ba  Ba5  1  0.260186  0.739814  0.388210  1
  Ba  Ba6  1  0.531510  0.468490  0.859011  1
  Ba  Ba7  1  0.760186  0.239814  0.111790  1
  Fe  Fe8  1  0.133698  0.866302  0.155285  1
  Fe  Fe9  1  0.366302  0.633698  0.655285  1
  Fe  Fe10  1  0.866302  0.133698  0.844715  1
  Fe  Fe11  1  0.633698  0.366302  0.344715  1
  Pt  Pt12  1  0.000000  0.000000  0.000000  1
  Pt  Pt13  1  0.500000  0.500000  0.500000  1
  O  O14  1  0.529740  0.470260  0.649218  1
  O  O15  1  0.728126  0.271874  0.847420  1
  O  O16  1  0.381636  0.164217  0.463756  1
  O  O17  1  0.881636  0.664217  0.036244  1
  O  O18  1  0.626365  0.873635  0.750000  1
  O  O19  1  0.126365  0.373635  0.750000  1
  O  O20  1  0.271874  0.728126  0.152580  1
  O  O21  1  0.029740  0.970260  0.850782  1
  O  O22  1  0.373635  0.126365  0.250000  1
  O  O23  1  0.835783  0.618364  0.463756  1
  O  O24  1  0.771874  0.228126  0.347420  1
  O  O25  1  0.470260  0.529740  0.350782  1
  O  O26  1  0.873635  0.626365  0.250000  1
  O  O27  1  0.118364  0.335783  0.963756  1
  O  O28  1  0.618364  0.835783  0.536244  1
  O  O29  1  0.228126  0.771874  0.652580  1
  O  O30  1  0.664217  0.881636  0.963756  1
  O  O31  1  0.164217  0.381636  0.536244  1
  O  O32  1  0.970260  0.029740  0.149218  1
  O  O33  1  0.335783  0.118364  0.036244  1
