# generated using pymatgen
data_Ce2Ga5Ir3
_symmetry_space_group_name_H-M   'P 1'
_cell_length_a   8.64360989
_cell_length_b   8.64361074
_cell_length_c   8.64361089
_cell_angle_alpha   140.92159721
_cell_angle_beta   108.53339580
_cell_angle_gamma   84.59809240
_symmetry_Int_Tables_number   1
_chemical_formula_structural   Ce2Ga5Ir3
_chemical_formula_sum   'Ce4 Ga10 Ir6'
_cell_volume   373.18428658
_cell_formula_units_Z   2
loop_
 _symmetry_equiv_pos_site_id
 _symmetry_equiv_pos_as_xyz
  1  'x, y, z'
loop_
 _atom_site_type_symbol
 _atom_site_label
 _atom_site_symmetry_multiplicity
 _atom_site_fract_x
 _atom_site_fract_y
 _atom_site_fract_z
 _atom_site_occupancy
  Ce  Ce0  1  0.865821  0.640396  0.225424  1
  Ce  Ce1  1  0.134179  0.359604  0.774576  1
  Ce  Ce2  1  0.414971  0.140396  0.274576  1
  Ce  Ce3  1  0.585029  0.859604  0.725424  1
  Ga  Ga4  1  0.500000  0.750000  0.250000  1
  Ga  Ga5  1  0.500000  0.250000  0.750000  1
  Ga  Ga6  1  0.204757  0.954757  0.750000  1
  Ga  Ga7  1  0.795243  0.545243  0.750000  1
  Ga  Ga8  1  0.795243  0.045243  0.250000  1
  Ga  Ga9  1  0.204757  0.454757  0.250000  1
  Ga  Ga10  1  0.083244  0.911686  0.171558  1
  Ga  Ga11  1  0.916756  0.088314  0.828442  1
  Ga  Ga12  1  0.740128  0.411686  0.328442  1
  Ga  Ga13  1  0.259872  0.588314  0.671558  1
  Ir  Ir14  1  0.000000  0.750000  0.750000  1
  Ir  Ir15  1  0.000000  0.250000  0.250000  1
  Ir  Ir16  1  0.253033  0.849917  0.403116  1
  Ir  Ir17  1  0.746967  0.150083  0.596884  1
  Ir  Ir18  1  0.446800  0.349917  0.096884  1
  Ir  Ir19  1  0.553200  0.650083  0.903116  1
