# generated using pymatgen
data_Y20Co2HgPd5
_symmetry_space_group_name_H-M   'P 1'
_cell_length_a   9.51955736
_cell_length_b   9.51073551
_cell_length_c   9.33339100
_cell_angle_alpha   90.00000000
_cell_angle_beta   90.00000000
_cell_angle_gamma   119.96934127
_symmetry_Int_Tables_number   1
_chemical_formula_structural   Y20Co2HgPd5
_chemical_formula_sum   'Y20 Co2 Hg1 Pd5'
_cell_volume   732.04038078
_cell_formula_units_Z   1
loop_
 _symmetry_equiv_pos_site_id
 _symmetry_equiv_pos_as_xyz
  1  'x, y, z'
loop_
 _atom_site_type_symbol
 _atom_site_label
 _atom_site_symmetry_multiplicity
 _atom_site_fract_x
 _atom_site_fract_y
 _atom_site_fract_z
 _atom_site_occupancy
  Y  Y0  1  0.007728  0.003864  0.479549  1
  Y  Y1  1  0.007728  0.003864  0.020451  1
  Y  Y2  1  0.541193  0.458373  0.250000  1
  Y  Y3  1  0.541193  0.082820  0.250000  1
  Y  Y4  1  0.915934  0.457967  0.250000  1
  Y  Y5  1  0.446823  0.533713  0.750000  1
  Y  Y6  1  0.446823  0.913109  0.750000  1
  Y  Y7  1  0.080208  0.540104  0.750000  1
  Y  Y8  1  0.207654  0.789315  0.439608  1
  Y  Y9  1  0.207654  0.418341  0.439608  1
  Y  Y10  1  0.582586  0.791294  0.438253  1
  Y  Y11  1  0.792342  0.206447  0.560767  1
  Y  Y12  1  0.792342  0.585894  0.560767  1
  Y  Y13  1  0.417263  0.208630  0.560955  1
  Y  Y14  1  0.792342  0.206447  0.939233  1
  Y  Y15  1  0.792342  0.585894  0.939233  1
  Y  Y16  1  0.417263  0.208630  0.939045  1
  Y  Y17  1  0.207654  0.789315  0.060392  1
  Y  Y18  1  0.207654  0.418341  0.060392  1
  Y  Y19  1  0.582586  0.791294  0.061747  1
  Co  Co20  1  0.329055  0.664528  0.250000  1
  Co  Co21  1  0.669828  0.334913  0.750000  1
  Hg  Hg22  1  0.769540  0.884770  0.750000  1
  Pd  Pd23  1  0.874378  0.123349  0.250000  1
  Pd  Pd24  1  0.874378  0.751029  0.250000  1
  Pd  Pd25  1  0.253703  0.126852  0.250000  1
  Pd  Pd26  1  0.120905  0.880968  0.750000  1
  Pd  Pd27  1  0.120905  0.239937  0.750000  1
