# generated using pymatgen
data_Dy10LuPaGa20
_symmetry_space_group_name_H-M   'P 1'
_cell_length_a   6.14437962
_cell_length_b   9.57760008
_cell_length_c   11.50651652
_cell_angle_alpha   89.98839233
_cell_angle_beta   89.93025301
_cell_angle_gamma   90.04623402
_symmetry_Int_Tables_number   1
_chemical_formula_structural   Dy10LuPaGa20
_chemical_formula_sum   'Dy10 Lu1 Pa1 Ga20'
_cell_volume   677.13947426
_cell_formula_units_Z   1
loop_
 _symmetry_equiv_pos_site_id
 _symmetry_equiv_pos_as_xyz
  1  'x, y, z'
loop_
 _atom_site_type_symbol
 _atom_site_label
 _atom_site_symmetry_multiplicity
 _atom_site_fract_x
 _atom_site_fract_y
 _atom_site_fract_z
 _atom_site_occupancy
  Dy  Dy0  1  0.649778  0.749472  0.575398  1
  Dy  Dy1  1  0.149218  0.249889  0.924005  1
  Dy  Dy2  1  0.352728  0.252277  0.425188  1
  Dy  Dy3  1  0.610379  0.988177  0.852229  1
  Dy  Dy4  1  0.112385  0.010246  0.648594  1
  Dy  Dy5  1  0.389256  0.490211  0.149265  1
  Dy  Dy6  1  0.110958  0.489594  0.648856  1
  Dy  Dy7  1  0.388593  0.010749  0.149071  1
  Dy  Dy8  1  0.888815  0.989428  0.351322  1
  Dy  Dy9  1  0.610340  0.510854  0.850958  1
  Lu  Lu10  1  0.850970  0.748895  0.075535  1
  Pa  Pa11  1  0.887361  0.510452  0.352062  1
  Ga  Ga12  1  0.873440  0.052035  0.091250  1
  Ga  Ga13  1  0.628197  0.445297  0.589265  1
  Ga  Ga14  1  0.126086  0.554471  0.909303  1
  Ga  Ga15  1  0.373689  0.947593  0.408469  1
  Ga  Ga16  1  0.126052  0.945695  0.910453  1
  Ga  Ga17  1  0.376609  0.554533  0.408659  1
  Ga  Ga18  1  0.874045  0.447018  0.090368  1
  Ga  Ga19  1  0.627734  0.053578  0.591716  1
  Ga  Ga20  1  0.170664  0.749351  0.253711  1
  Ga  Ga21  1  0.324600  0.749686  0.753261  1
  Ga  Ga22  1  0.823663  0.249212  0.747856  1
  Ga  Ga23  1  0.674482  0.250217  0.246194  1
  Ga  Ga24  1  0.376834  0.750153  0.005379  1
  Ga  Ga25  1  0.123232  0.749268  0.501852  1
  Ga  Ga26  1  0.624964  0.249504  0.994663  1
  Ga  Ga27  1  0.875252  0.250163  0.494370  1
  Ga  Ga28  1  0.602242  0.750155  0.297410  1
  Ga  Ga29  1  0.899633  0.750183  0.798818  1
  Ga  Ga30  1  0.399294  0.249572  0.700982  1
  Ga  Ga31  1  0.098503  0.252072  0.203533  1
