# generated using pymatgen
data_Tb8CdHgOsPt
_symmetry_space_group_name_H-M   'P 1'
_cell_length_a   9.67788395
_cell_length_b   9.67788459
_cell_length_c   9.74263300
_cell_angle_alpha   59.77843379
_cell_angle_beta   59.77843157
_cell_angle_gamma   59.75989336
_symmetry_Int_Tables_number   1
_chemical_formula_structural   Tb8CdHgOsPt
_chemical_formula_sum   'Tb16 Cd2 Hg2 Os2 Pt2'
_cell_volume   641.90480295
_cell_formula_units_Z   2
loop_
 _symmetry_equiv_pos_site_id
 _symmetry_equiv_pos_as_xyz
  1  'x, y, z'
loop_
 _atom_site_type_symbol
 _atom_site_label
 _atom_site_symmetry_multiplicity
 _atom_site_fract_x
 _atom_site_fract_y
 _atom_site_fract_z
 _atom_site_occupancy
  Tb  Tb0  1  0.350383  0.350383  0.352459  1
  Tb  Tb1  1  0.350383  0.350383  0.946775  1
  Tb  Tb2  1  0.347095  0.951935  0.350485  1
  Tb  Tb3  1  0.951935  0.347095  0.350485  1
  Tb  Tb4  1  0.813889  0.187923  0.191924  1
  Tb  Tb5  1  0.187923  0.813889  0.806264  1
  Tb  Tb6  1  0.187923  0.813889  0.191924  1
  Tb  Tb7  1  0.813889  0.187923  0.806264  1
  Tb  Tb8  1  0.188626  0.188626  0.811374  1
  Tb  Tb9  1  0.806491  0.806491  0.193509  1
  Tb  Tb10  1  0.937554  0.555815  0.566660  1
  Tb  Tb11  1  0.555815  0.937554  0.939971  1
  Tb  Tb12  1  0.555815  0.937554  0.566660  1
  Tb  Tb13  1  0.937554  0.555815  0.939971  1
  Tb  Tb14  1  0.562747  0.562747  0.937253  1
  Tb  Tb15  1  0.939228  0.939228  0.560772  1
  Cd  Cd16  1  0.581053  0.256079  0.581434  1
  Cd  Cd17  1  0.256079  0.581053  0.581434  1
  Hg  Hg18  1  0.583724  0.583724  0.586038  1
  Hg  Hg19  1  0.583724  0.583724  0.246512  1
  Os  Os20  1  0.144366  0.144366  0.136607  1
  Os  Os21  1  0.144366  0.144366  0.574662  1
  Pt  Pt22  1  0.145284  0.574155  0.140281  1
  Pt  Pt23  1  0.574155  0.145284  0.140281  1
