# generated using pymatgen
data_Nb8Co5Si14Ni3
_symmetry_space_group_name_H-M   'P 1'
_cell_length_a   9.26470698
_cell_length_b   9.26470677
_cell_length_c   9.25696878
_cell_angle_alpha   94.19322701
_cell_angle_beta   94.19322447
_cell_angle_gamma   148.64811554
_symmetry_Int_Tables_number   1
_chemical_formula_structural   Nb8Co5Si14Ni3
_chemical_formula_sum   'Nb8 Co5 Si14 Ni3'
_cell_volume   397.98319387
_cell_formula_units_Z   1
loop_
 _symmetry_equiv_pos_site_id
 _symmetry_equiv_pos_as_xyz
  1  'x, y, z'
loop_
 _atom_site_type_symbol
 _atom_site_label
 _atom_site_symmetry_multiplicity
 _atom_site_fract_x
 _atom_site_fract_y
 _atom_site_fract_z
 _atom_site_occupancy
  Nb  Nb0  1  0.309842  0.500179  0.808903  1
  Nb  Nb1  1  0.691057  0.500890  0.191072  1
  Nb  Nb2  1  0.499821  0.690158  0.191097  1
  Nb  Nb3  1  0.499110  0.308943  0.808928  1
  Nb  Nb4  1  0.133532  0.132765  0.267452  1
  Nb  Nb5  1  0.867235  0.866468  0.732548  1
  Nb  Nb6  1  0.133911  0.866089  0.000000  1
  Nb  Nb7  1  0.866527  0.133473  0.000000  1
  Co  Co8  1  0.600444  0.399556  0.500000  1
  Co  Co9  1  0.602347  0.100909  0.203344  1
  Co  Co10  1  0.899091  0.397653  0.796656  1
  Co  Co11  1  0.102243  0.897757  0.500000  1
  Co  Co12  1  0.396618  0.603382  0.500000  1
  Si  Si13  1  0.296162  0.295431  0.583903  1
  Si  Si14  1  0.704569  0.703838  0.416097  1
  Si  Si15  1  0.292749  0.707251  0.000000  1
  Si  Si16  1  0.707469  0.292531  0.000000  1
  Si  Si17  1  0.091785  0.498037  0.593233  1
  Si  Si18  1  0.896592  0.491905  0.407893  1
  Si  Si19  1  0.501963  0.908215  0.406767  1
  Si  Si20  1  0.508095  0.103408  0.592107  1
  Si  Si21  1  0.249231  0.249021  0.000075  1
  Si  Si22  1  0.750979  0.750769  0.999925  1
  Si  Si23  1  0.300422  0.005271  0.296801  1
  Si  Si24  1  0.705443  0.000395  0.705145  1
  Si  Si25  1  0.994729  0.699578  0.703199  1
  Si  Si26  1  0.999605  0.294557  0.294855  1
  Ni  Ni27  1  0.397976  0.899936  0.797132  1
  Ni  Ni28  1  0.100064  0.602024  0.202868  1
  Ni  Ni29  1  0.900392  0.099608  0.500000  1
