# generated using pymatgen
data_HoLu9(Co2Os)2
_symmetry_space_group_name_H-M   'P 1'
_cell_length_a   6.95360914
_cell_length_b   6.95360966
_cell_length_c   8.57538000
_cell_angle_alpha   113.90927914
_cell_angle_beta   113.93208633
_cell_angle_gamma   89.99557540
_symmetry_Int_Tables_number   1
_chemical_formula_structural   HoLu9(Co2Os)2
_chemical_formula_sum   'Ho1 Lu9 Co4 Os2'
_cell_volume   339.70619140
_cell_formula_units_Z   1
loop_
 _symmetry_equiv_pos_site_id
 _symmetry_equiv_pos_as_xyz
  1  'x, y, z'
loop_
 _atom_site_type_symbol
 _atom_site_label
 _atom_site_symmetry_multiplicity
 _atom_site_fract_x
 _atom_site_fract_y
 _atom_site_fract_z
 _atom_site_occupancy
  Ho  Ho0  1  0.534339  0.677763  0.712103  1
  Lu  Lu1  1  0.000828  0.000906  0.001378  1
  Lu  Lu2  1  0.500470  0.500550  0.001378  1
  Lu  Lu3  1  0.464349  0.321417  0.285766  1
  Lu  Lu4  1  0.964191  0.464073  0.286672  1
  Lu  Lu5  1  0.322599  0.822481  0.286672  1
  Lu  Lu6  1  0.822271  0.964597  0.286868  1
  Lu  Lu7  1  0.176660  0.036839  0.713499  1
  Lu  Lu8  1  0.678305  0.177885  0.713426  1
  Lu  Lu9  1  0.035542  0.535120  0.713426  1
  Co  Co10  1  0.612754  0.115090  0.001437  1
  Co  Co11  1  0.114359  0.386489  0.000847  1
  Co  Co12  1  0.887747  0.611454  0.999199  1
  Co  Co13  1  0.386346  0.888683  0.001437  1
  Os  Os14  1  0.248418  0.247124  0.497945  1
  Os  Os15  1  0.750821  0.749527  0.497945  1
