# generated using pymatgen
data_Dy4Er8InCo5
_symmetry_space_group_name_H-M   'P 1'
_cell_length_a   8.21780927
_cell_length_b   8.21780897
_cell_length_c   8.21780853
_cell_angle_alpha   106.89021198
_cell_angle_beta   110.64526436
_cell_angle_gamma   110.90873256
_symmetry_Int_Tables_number   1
_chemical_formula_structural   Dy4Er8InCo5
_chemical_formula_sum   'Dy4 Er8 In1 Co5'
_cell_volume   426.56581451
_cell_formula_units_Z   1
loop_
 _symmetry_equiv_pos_site_id
 _symmetry_equiv_pos_as_xyz
  1  'x, y, z'
loop_
 _atom_site_type_symbol
 _atom_site_label
 _atom_site_symmetry_multiplicity
 _atom_site_fract_x
 _atom_site_fract_y
 _atom_site_fract_z
 _atom_site_occupancy
  Dy  Dy0  1  0.193222  0.211108  0.404330  1
  Dy  Dy1  1  0.806778  0.788892  0.595670  1
  Dy  Dy2  1  0.193222  0.788892  0.982113  1
  Dy  Dy3  1  0.806778  0.211108  0.017887  1
  Er  Er4  1  0.475091  0.290319  0.184772  1
  Er  Er5  1  0.105546  0.290319  0.815228  1
  Er  Er6  1  0.894454  0.709681  0.184772  1
  Er  Er7  1  0.524909  0.709681  0.815228  1
  Er  Er8  1  0.304717  0.619303  0.314586  1
  Er  Er9  1  0.304717  0.990132  0.685414  1
  Er  Er10  1  0.695283  0.380697  0.685414  1
  Er  Er11  1  0.695283  0.009868  0.314586  1
  In  In12  1  0.000000  0.500000  0.500000  1
  Co  Co13  1  0.500000  0.612509  0.112509  1
  Co  Co14  1  0.500000  0.387491  0.887491  1
  Co  Co15  1  0.378636  0.000000  0.378636  1
  Co  Co16  1  0.621364  0.000000  0.621364  1
  Co  Co17  1  0.000000  0.000000  0.000000  1
