# generated using pymatgen
data_Dy4Y3Pa(ReB6)4
_symmetry_space_group_name_H-M   'P 1'
_cell_length_a   3.69832000
_cell_length_b   9.18550928
_cell_length_c   11.55685202
_cell_angle_alpha   90.17018540
_cell_angle_beta   90.00000000
_cell_angle_gamma   90.00000000
_symmetry_Int_Tables_number   1
_chemical_formula_structural   Dy4Y3Pa(ReB6)4
_chemical_formula_sum   'Dy4 Y3 Pa1 Re4 B24'
_cell_volume   392.59554151
_cell_formula_units_Z   1
loop_
 _symmetry_equiv_pos_site_id
 _symmetry_equiv_pos_as_xyz
  1  'x, y, z'
loop_
 _atom_site_type_symbol
 _atom_site_label
 _atom_site_symmetry_multiplicity
 _atom_site_fract_x
 _atom_site_fract_y
 _atom_site_fract_z
 _atom_site_occupancy
  Dy  Dy0  1  0.000000  0.942578  0.371703  1
  Dy  Dy1  1  0.000000  0.055426  0.629090  1
  Dy  Dy2  1  0.000000  0.443328  0.127746  1
  Dy  Dy3  1  0.000000  0.557188  0.870079  1
  Y  Y4  1  0.000000  0.678958  0.586877  1
  Y  Y5  1  0.000000  0.823574  0.085511  1
  Y  Y6  1  0.000000  0.175703  0.913491  1
  Pa  Pa7  1  0.000000  0.323583  0.414013  1
  Re  Re8  1  0.000000  0.635244  0.322209  1
  Re  Re9  1  0.000000  0.362188  0.675815  1
  Re  Re10  1  0.000000  0.141050  0.181945  1
  Re  Re11  1  0.000000  0.861758  0.821152  1
  B  B12  1  0.500000  0.552394  0.431927  1
  B  B13  1  0.500000  0.445569  0.566896  1
  B  B14  1  0.500000  0.053951  0.067832  1
  B  B15  1  0.500000  0.947019  0.933420  1
  B  B16  1  0.500000  0.748067  0.418473  1
  B  B17  1  0.500000  0.251426  0.580841  1
  B  B18  1  0.500000  0.248333  0.081066  1
  B  B19  1  0.500000  0.751552  0.918785  1
  B  B20  1  0.500000  0.791099  0.266402  1
  B  B21  1  0.500000  0.208434  0.734073  1
  B  B22  1  0.500000  0.291627  0.234535  1
  B  B23  1  0.500000  0.708547  0.766018  1
  B  B24  1  0.500000  0.631189  0.185419  1
  B  B25  1  0.500000  0.369330  0.813478  1
  B  B26  1  0.500000  0.132480  0.314701  1
  B  B27  1  0.500000  0.868531  0.686402  1
  B  B28  1  0.500000  0.983236  0.212550  1
  B  B29  1  0.500000  0.017180  0.788034  1
  B  B30  1  0.500000  0.482902  0.287613  1
  B  B31  1  0.500000  0.517165  0.712598  1
  B  B32  1  0.500000  0.602446  0.028097  1
  B  B33  1  0.500000  0.397614  0.970631  1
  B  B34  1  0.500000  0.106501  0.470579  1
  B  B35  1  0.500000  0.892828  0.530000  1
