# generated using pymatgen
data_Tb19Y(Cd3Ir)2
_symmetry_space_group_name_H-M   'P 1'
_cell_length_a   9.67697700
_cell_length_b   9.67703066
_cell_length_c   9.89921700
_cell_angle_alpha   90.00000000
_cell_angle_beta   90.00000000
_cell_angle_gamma   120.00018220
_symmetry_Int_Tables_number   1
_chemical_formula_structural   Tb19Y(Cd3Ir)2
_chemical_formula_sum   'Tb19 Y1 Cd6 Ir2'
_cell_volume   802.80950323
_cell_formula_units_Z   1
loop_
 _symmetry_equiv_pos_site_id
 _symmetry_equiv_pos_as_xyz
  1  'x, y, z'
loop_
 _atom_site_type_symbol
 _atom_site_label
 _atom_site_symmetry_multiplicity
 _atom_site_fract_x
 _atom_site_fract_y
 _atom_site_fract_z
 _atom_site_occupancy
  Tb  Tb0  1  0.000068  0.000034  0.500009  1
  Tb  Tb1  1  0.000068  0.000034  0.999991  1
  Tb  Tb2  1  0.209587  0.790430  0.440496  1
  Tb  Tb3  1  0.209587  0.419157  0.440496  1
  Tb  Tb4  1  0.580800  0.790400  0.440486  1
  Tb  Tb5  1  0.790429  0.209555  0.559481  1
  Tb  Tb6  1  0.790429  0.580874  0.559481  1
  Tb  Tb7  1  0.419097  0.209548  0.559478  1
  Tb  Tb8  1  0.790429  0.209555  0.940519  1
  Tb  Tb9  1  0.790429  0.580874  0.940519  1
  Tb  Tb10  1  0.419097  0.209548  0.940522  1
  Tb  Tb11  1  0.209587  0.790430  0.059504  1
  Tb  Tb12  1  0.209587  0.419157  0.059504  1
  Tb  Tb13  1  0.580800  0.790400  0.059514  1
  Tb  Tb14  1  0.541486  0.458533  0.250000  1
  Tb  Tb15  1  0.541486  0.082954  0.250000  1
  Tb  Tb16  1  0.917030  0.458515  0.250000  1
  Tb  Tb17  1  0.458490  0.541455  0.750000  1
  Tb  Tb18  1  0.458490  0.917034  0.750000  1
  Y  Y19  1  0.083037  0.541518  0.750000  1
  Cd  Cd20  1  0.885393  0.114636  0.250000  1
  Cd  Cd21  1  0.885393  0.770756  0.250000  1
  Cd  Cd22  1  0.229216  0.114608  0.250000  1
  Cd  Cd23  1  0.114624  0.885330  0.750000  1
  Cd  Cd24  1  0.114624  0.229294  0.750000  1
  Cd  Cd25  1  0.770724  0.885362  0.750000  1
  Ir  Ir26  1  0.333372  0.666686  0.250000  1
  Ir  Ir27  1  0.666644  0.333321  0.750000  1
