# generated using pymatgen
data_Tm2Ga5Rh3
_symmetry_space_group_name_H-M   'P 1'
_cell_length_a   8.57912605
_cell_length_b   8.57912647
_cell_length_c   5.64116517
_cell_angle_alpha   70.80487796
_cell_angle_beta   70.80486893
_cell_angle_gamma   97.65252367
_symmetry_Int_Tables_number   1
_chemical_formula_structural   Tm2Ga5Rh3
_chemical_formula_sum   'Tm4 Ga10 Rh6'
_cell_volume   356.50853094
_cell_formula_units_Z   2
loop_
 _symmetry_equiv_pos_site_id
 _symmetry_equiv_pos_as_xyz
  1  'x, y, z'
loop_
 _atom_site_type_symbol
 _atom_site_label
 _atom_site_symmetry_multiplicity
 _atom_site_fract_x
 _atom_site_fract_y
 _atom_site_fract_z
 _atom_site_occupancy
  Tm  Tm0  1  0.870524  0.578684  0.776234  1
  Tm  Tm1  1  0.421316  0.129476  0.723766  1
  Tm  Tm2  1  0.129476  0.421316  0.223766  1
  Tm  Tm3  1  0.578684  0.870524  0.276234  1
  Ga  Ga4  1  0.100572  0.265626  0.816432  1
  Ga  Ga5  1  0.734374  0.899428  0.683568  1
  Ga  Ga6  1  0.899428  0.734374  0.183568  1
  Ga  Ga7  1  0.265626  0.100572  0.316432  1
  Ga  Ga8  1  0.199054  0.800946  0.750000  1
  Ga  Ga9  1  0.800946  0.199054  0.250000  1
  Ga  Ga10  1  0.500223  0.499777  0.750000  1
  Ga  Ga11  1  0.499777  0.500223  0.250000  1
  Ga  Ga12  1  0.800551  0.199449  0.750000  1
  Ga  Ga13  1  0.199449  0.800551  0.250000  1
  Rh  Rh14  1  0.263298  0.568989  0.584426  1
  Rh  Rh15  1  0.431011  0.736702  0.915574  1
  Rh  Rh16  1  0.736702  0.431011  0.415574  1
  Rh  Rh17  1  0.568989  0.263298  0.084426  1
  Rh  Rh18  1  0.999803  0.000197  0.750000  1
  Rh  Rh19  1  0.000197  0.999803  0.250000  1
