# generated using pymatgen
data_Nd8GePd17Pt7
_symmetry_space_group_name_H-M   'P 1'
_cell_length_a   8.49008300
_cell_length_b   8.49805800
_cell_length_c   8.51679900
_cell_angle_alpha   90.00000000
_cell_angle_beta   90.00000000
_cell_angle_gamma   90.00000000
_symmetry_Int_Tables_number   1
_chemical_formula_structural   Nd8GePd17Pt7
_chemical_formula_sum   'Nd8 Ge1 Pd17 Pt7'
_cell_volume   614.48038566
_cell_formula_units_Z   1
loop_
 _symmetry_equiv_pos_site_id
 _symmetry_equiv_pos_as_xyz
  1  'x, y, z'
loop_
 _atom_site_type_symbol
 _atom_site_label
 _atom_site_symmetry_multiplicity
 _atom_site_fract_x
 _atom_site_fract_y
 _atom_site_fract_z
 _atom_site_occupancy
  Nd  Nd0  1  0.252623  0.253050  0.252963  1
  Nd  Nd1  1  0.746869  0.746435  0.746638  1
  Nd  Nd2  1  0.746869  0.746435  0.253362  1
  Nd  Nd3  1  0.746869  0.253565  0.746638  1
  Nd  Nd4  1  0.252623  0.253050  0.747037  1
  Nd  Nd5  1  0.252623  0.746950  0.252963  1
  Nd  Nd6  1  0.252623  0.746950  0.747037  1
  Nd  Nd7  1  0.746869  0.253565  0.253362  1
  Ge  Ge8  1  0.003445  0.000000  0.000000  1
  Pd  Pd9  1  0.500099  0.000000  0.260086  1
  Pd  Pd10  1  0.259360  0.000000  0.500000  1
  Pd  Pd11  1  0.500099  0.000000  0.739914  1
  Pd  Pd12  1  0.739639  0.000000  0.500000  1
  Pd  Pd13  1  0.999866  0.500000  0.260449  1
  Pd  Pd14  1  0.999866  0.500000  0.739551  1
  Pd  Pd15  1  0.252033  0.500000  0.500000  1
  Pd  Pd16  1  0.748269  0.500000  0.500000  1
  Pd  Pd17  1  0.499988  0.252542  0.500000  1
  Pd  Pd18  1  0.499988  0.747458  0.500000  1
  Pd  Pd19  1  0.499964  0.500000  0.252426  1
  Pd  Pd20  1  0.499964  0.500000  0.747574  1
  Pd  Pd21  1  0.712262  0.000000  0.000000  1
  Pd  Pd22  1  0.999321  0.291393  0.000000  1
  Pd  Pd23  1  0.999321  0.708607  0.000000  1
  Pd  Pd24  1  0.999197  0.000000  0.291131  1
  Pd  Pd25  1  0.999197  0.000000  0.708869  1
  Pt  Pt26  1  0.259030  0.500000  0.000000  1
  Pt  Pt27  1  0.739480  0.500000  0.000000  1
  Pt  Pt28  1  0.999866  0.259112  0.500000  1
  Pt  Pt29  1  0.499788  0.259060  0.000000  1
  Pt  Pt30  1  0.999866  0.740888  0.500000  1
  Pt  Pt31  1  0.499788  0.740940  0.000000  1
  Pt  Pt32  1  0.292332  0.000000  0.000000  1
