# generated using pymatgen
data_Yb3Ho2Tm3(B6Os)4
_symmetry_space_group_name_H-M   'P 1'
_cell_length_a   3.62725300
_cell_length_b   9.11687308
_cell_length_c   11.50623303
_cell_angle_alpha   89.94385537
_cell_angle_beta   90.00000000
_cell_angle_gamma   90.00000000
_symmetry_Int_Tables_number   1
_chemical_formula_structural   Yb3Ho2Tm3(B6Os)4
_chemical_formula_sum   'Yb3 Ho2 Tm3 B24 Os4'
_cell_volume   380.50179904
_cell_formula_units_Z   1
loop_
 _symmetry_equiv_pos_site_id
 _symmetry_equiv_pos_as_xyz
  1  'x, y, z'
loop_
 _atom_site_type_symbol
 _atom_site_label
 _atom_site_symmetry_multiplicity
 _atom_site_fract_x
 _atom_site_fract_y
 _atom_site_fract_z
 _atom_site_occupancy
  Yb  Yb0  1  0.000000  0.324535  0.414444  1
  Yb  Yb1  1  0.000000  0.675445  0.585287  1
  Yb  Yb2  1  0.000000  0.822974  0.086086  1
  Ho  Ho3  1  0.000000  0.176141  0.914774  1
  Ho  Ho4  1  0.000000  0.941652  0.367967  1
  Tm  Tm5  1  0.000000  0.057826  0.630960  1
  Tm  Tm6  1  0.000000  0.443290  0.131668  1
  Tm  Tm7  1  0.000000  0.558345  0.868890  1
  B  B8  1  0.500000  0.553064  0.433131  1
  B  B9  1  0.500000  0.446069  0.567833  1
  B  B10  1  0.500000  0.053759  0.066615  1
  B  B11  1  0.500000  0.946028  0.933319  1
  B  B12  1  0.500000  0.748178  0.417403  1
  B  B13  1  0.500000  0.250905  0.582627  1
  B  B14  1  0.500000  0.249474  0.081637  1
  B  B15  1  0.500000  0.751302  0.917963  1
  B  B16  1  0.500000  0.790503  0.264143  1
  B  B17  1  0.500000  0.208374  0.735939  1
  B  B18  1  0.500000  0.291753  0.234566  1
  B  B19  1  0.500000  0.709648  0.765086  1
  B  B20  1  0.500000  0.630661  0.185626  1
  B  B21  1  0.500000  0.369116  0.815294  1
  B  B22  1  0.500000  0.131364  0.313205  1
  B  B23  1  0.500000  0.869618  0.685298  1
  B  B24  1  0.500000  0.983029  0.210443  1
  B  B25  1  0.500000  0.017399  0.788312  1
  B  B26  1  0.500000  0.482994  0.288527  1
  B  B27  1  0.500000  0.516570  0.712170  1
  B  B28  1  0.500000  0.598640  0.027310  1
  B  B29  1  0.500000  0.400605  0.972635  1
  B  B30  1  0.500000  0.097573  0.473316  1
  B  B31  1  0.500000  0.903050  0.527095  1
  Os  Os32  1  0.000000  0.637923  0.320479  1
  Os  Os33  1  0.000000  0.359918  0.681134  1
  Os  Os34  1  0.000000  0.139370  0.178549  1
  Os  Os35  1  0.000000  0.862900  0.820269  1
