# generated using pymatgen
data_Hf6CoI15
_symmetry_space_group_name_H-M   'P 1'
_cell_length_a   10.05686404
_cell_length_b   10.05686549
_cell_length_c   10.05686500
_cell_angle_alpha   109.47122367
_cell_angle_beta   109.47122659
_cell_angle_gamma   109.47121746
_symmetry_Int_Tables_number   1
_chemical_formula_structural   Hf6CoI15
_chemical_formula_sum   'Hf6 Co1 I15'
_cell_volume   783.00749449
_cell_formula_units_Z   1
loop_
 _symmetry_equiv_pos_site_id
 _symmetry_equiv_pos_as_xyz
  1  'x, y, z'
loop_
 _atom_site_type_symbol
 _atom_site_label
 _atom_site_symmetry_multiplicity
 _atom_site_fract_x
 _atom_site_fract_y
 _atom_site_fract_z
 _atom_site_occupancy
  Hf  Hf0  1  0.785893  0.785893  0.000000  1
  Hf  Hf1  1  0.214107  0.000000  0.214107  1
  Hf  Hf2  1  0.785893  0.000000  0.785893  1
  Hf  Hf3  1  0.000000  0.785893  0.785893  1
  Hf  Hf4  1  0.000000  0.214107  0.214107  1
  Hf  Hf5  1  0.214107  0.214107  0.000000  1
  Co  Co6  1  0.000000  0.000000  0.000000  1
  I  I7  1  0.500000  0.000000  0.500000  1
  I  I8  1  0.000000  0.500000  0.500000  1
  I  I9  1  0.500000  0.500000  0.000000  1
  I  I10  1  0.507990  0.753995  0.753995  1
  I  I11  1  0.753995  0.000000  0.246005  1
  I  I12  1  0.492010  0.246005  0.246005  1
  I  I13  1  0.246005  0.246005  0.492010  1
  I  I14  1  0.246005  0.753995  0.000000  1
  I  I15  1  0.000000  0.246005  0.753995  1
  I  I16  1  0.000000  0.753995  0.246005  1
  I  I17  1  0.246005  0.000000  0.753995  1
  I  I18  1  0.246005  0.492010  0.246005  1
  I  I19  1  0.753995  0.246005  0.000000  1
  I  I20  1  0.753995  0.507990  0.753995  1
  I  I21  1  0.753995  0.753995  0.507990  1
