# generated using pymatgen
data_BaB2RuRh
_symmetry_space_group_name_H-M   'P 1'
_cell_length_a   6.35734390
_cell_length_b   6.35734374
_cell_length_c   6.35734385
_cell_angle_alpha   143.19139680
_cell_angle_beta   143.19139047
_cell_angle_gamma   53.03817422
_symmetry_Int_Tables_number   1
_chemical_formula_structural   BaB2RuRh
_chemical_formula_sum   'Ba1 B2 Ru1 Rh1'
_cell_volume   91.66660117
_cell_formula_units_Z   1
loop_
 _symmetry_equiv_pos_site_id
 _symmetry_equiv_pos_as_xyz
  1  'x, y, z'
loop_
 _atom_site_type_symbol
 _atom_site_label
 _atom_site_symmetry_multiplicity
 _atom_site_fract_x
 _atom_site_fract_y
 _atom_site_fract_z
 _atom_site_occupancy
  Ba  Ba0  1  0.000000  0.000000  0.000000  1
  B  B1  1  0.692993  0.692993  0.000000  1
  B  B2  1  0.307007  0.307007  0.000000  1
  Ru  Ru3  1  0.750000  0.250000  0.500000  1
  Rh  Rh4  1  0.250000  0.750000  0.500000  1
