# generated using pymatgen
data_RbTc12Br25
_symmetry_space_group_name_H-M   'P 1'
_cell_length_a   10.25576998
_cell_length_b   11.15712948
_cell_length_c   11.88716346
_cell_angle_alpha   82.05867742
_cell_angle_beta   73.27636386
_cell_angle_gamma   86.79403415
_symmetry_Int_Tables_number   1
_chemical_formula_structural   RbTc12Br25
_chemical_formula_sum   'Rb1 Tc12 Br25'
_cell_volume   1289.97757259
_cell_formula_units_Z   1
loop_
 _symmetry_equiv_pos_site_id
 _symmetry_equiv_pos_as_xyz
  1  'x, y, z'
loop_
 _atom_site_type_symbol
 _atom_site_label
 _atom_site_symmetry_multiplicity
 _atom_site_fract_x
 _atom_site_fract_y
 _atom_site_fract_z
 _atom_site_occupancy
  Rb  Rb0  1  0.500000  0.000000  0.000000  1
  Tc  Tc1  1  0.835217  0.259437  0.127857  1
  Tc  Tc2  1  0.164783  0.740563  0.872143  1
  Tc  Tc3  1  0.763162  0.125328  0.285239  1
  Tc  Tc4  1  0.236838  0.874672  0.714761  1
  Tc  Tc5  1  0.064201  0.278850  0.192264  1
  Tc  Tc6  1  0.935799  0.721150  0.807736  1
  Tc  Tc7  1  0.848710  0.427769  0.265561  1
  Tc  Tc8  1  0.151290  0.572231  0.734439  1
  Tc  Tc9  1  0.775373  0.294854  0.424509  1
  Tc  Tc10  1  0.224627  0.705146  0.575491  1
  Tc  Tc11  1  0.990686  0.145907  0.350965  1
  Tc  Tc12  1  0.009314  0.854093  0.649035  1
  Br  Br13  1  0.945553  0.966055  0.264728  1
  Br  Br14  1  0.054447  0.033945  0.735272  1
  Br  Br15  1  0.967233  0.270729  0.514696  1
  Br  Br16  1  0.032767  0.729271  0.485304  1
  Br  Br17  1  0.659652  0.424846  0.170436  1
  Br  Br18  1  0.340348  0.575154  0.829564  1
  Br  Br19  1  0.082639  0.467541  0.277228  1
  Br  Br20  1  0.917361  0.532459  0.722772  1
  Br  Br21  1  0.000000  0.500000  0.000000  1
  Br  Br22  1  0.610804  0.972082  0.253407  1
  Br  Br23  1  0.389196  0.027918  0.746593  1
  Br  Br24  1  0.193596  0.035879  0.400861  1
  Br  Br25  1  0.806404  0.964121  0.599139  1
  Br  Br26  1  0.557401  0.220499  0.410029  1
  Br  Br27  1  0.442599  0.779501  0.589971  1
  Br  Br28  1  0.059163  0.168074  0.025123  1
  Br  Br29  1  0.940837  0.831926  0.974877  1
  Br  Br30  1  0.775805  0.636331  0.312607  1
  Br  Br31  1  0.224195  0.363669  0.687393  1
  Br  Br32  1  0.746293  0.220310  0.959096  1
  Br  Br33  1  0.253707  0.779690  0.040904  1
  Br  Br34  1  0.319794  0.268214  0.119908  1
  Br  Br35  1  0.680206  0.731786  0.880092  1
  Br  Br36  1  0.644209  0.400492  0.593314  1
  Br  Br37  1  0.355791  0.599508  0.406686  1
