# generated using pymatgen
data_Cs2K2HfPaTe6
_symmetry_space_group_name_H-M   'P 1'
_cell_length_a   14.74753000
_cell_length_b   7.02805940
_cell_length_c   9.79476700
_cell_angle_alpha   71.20647127
_cell_angle_beta   90.00000000
_cell_angle_gamma   90.00000000
_symmetry_Int_Tables_number   1
_chemical_formula_structural   Cs2K2HfPaTe6
_chemical_formula_sum   'Cs4 K4 Hf2 Pa2 Te12'
_cell_volume   961.06910488
_cell_formula_units_Z   2
loop_
 _symmetry_equiv_pos_site_id
 _symmetry_equiv_pos_as_xyz
  1  'x, y, z'
loop_
 _atom_site_type_symbol
 _atom_site_label
 _atom_site_symmetry_multiplicity
 _atom_site_fract_x
 _atom_site_fract_y
 _atom_site_fract_z
 _atom_site_occupancy
  Cs  Cs0  1  0.945944  0.674896  0.664305  1
  Cs  Cs1  1  0.445944  0.825104  0.335695  1
  Cs  Cs2  1  0.053586  0.334962  0.333742  1
  Cs  Cs3  1  0.553586  0.165038  0.666258  1
  K  K4  1  0.867215  0.069006  0.894982  1
  K  K5  1  0.367215  0.430994  0.105018  1
  K  K6  1  0.132532  0.946366  0.103897  1
  K  K7  1  0.632532  0.553634  0.896103  1
  Hf  Hf8  1  0.250096  0.373685  0.721607  1
  Hf  Hf9  1  0.750096  0.126315  0.278393  1
  Pa  Pa10  1  0.750001  0.625915  0.279287  1
  Pa  Pa11  1  0.250001  0.874085  0.720713  1
  Te  Te12  1  0.913875  0.894688  0.263056  1
  Te  Te13  1  0.413875  0.605312  0.736944  1
  Te  Te14  1  0.086402  0.130580  0.735621  1
  Te  Te15  1  0.586402  0.369420  0.264379  1
  Te  Te16  1  0.819893  0.259324  0.512288  1
  Te  Te17  1  0.319893  0.240676  0.487712  1
  Te  Te18  1  0.180643  0.718962  0.486639  1
  Te  Te19  1  0.680643  0.781038  0.513361  1
  Te  Te20  1  0.841867  0.463901  0.060042  1
  Te  Te21  1  0.341867  0.036099  0.939958  1
  Te  Te22  1  0.157948  0.514031  0.939479  1
  Te  Te23  1  0.657948  0.985969  0.060521  1
