# generated using pymatgen
data_LuSc3Be4(GaIr5)2
_symmetry_space_group_name_H-M   'P 1'
_cell_length_a   9.55042196
_cell_length_b   9.55042196
_cell_length_c   3.11051500
_cell_angle_alpha   90.00000000
_cell_angle_beta   90.00000000
_cell_angle_gamma   89.77776205
_symmetry_Int_Tables_number   1
_chemical_formula_structural   LuSc3Be4(GaIr5)2
_chemical_formula_sum   'Lu1 Sc3 Be4 Ga2 Ir10'
_cell_volume   283.70967967
_cell_formula_units_Z   1
loop_
 _symmetry_equiv_pos_site_id
 _symmetry_equiv_pos_as_xyz
  1  'x, y, z'
loop_
 _atom_site_type_symbol
 _atom_site_label
 _atom_site_symmetry_multiplicity
 _atom_site_fract_x
 _atom_site_fract_y
 _atom_site_fract_z
 _atom_site_occupancy
  Lu  Lu0  1  0.675660  0.175660  0.000000  1
  Sc  Sc1  1  0.323781  0.823781  0.000000  1
  Sc  Sc2  1  0.175722  0.325434  0.000000  1
  Sc  Sc3  1  0.825434  0.675722  0.000000  1
  Be  Be4  1  0.124288  0.624288  0.000000  1
  Be  Be5  1  0.878537  0.378537  0.000000  1
  Be  Be6  1  0.622846  0.874776  0.000000  1
  Be  Be7  1  0.374776  0.122846  0.000000  1
  Ga  Ga8  1  0.998839  0.000105  0.000000  1
  Ga  Ga9  1  0.500105  0.498839  0.000000  1
  Ir  Ir10  1  0.209049  0.066277  0.500000  1
  Ir  Ir11  1  0.790245  0.928737  0.500000  1
  Ir  Ir12  1  0.067415  0.790303  0.500000  1
  Ir  Ir13  1  0.712468  0.438359  0.500000  1
  Ir  Ir14  1  0.938359  0.212468  0.500000  1
  Ir  Ir15  1  0.290303  0.567415  0.500000  1
  Ir  Ir16  1  0.566277  0.709049  0.500000  1
  Ir  Ir17  1  0.428737  0.290245  0.500000  1
  Ir  Ir18  1  0.495811  0.995811  0.500000  1
  Ir  Ir19  1  0.001349  0.501349  0.500000  1
