# generated using pymatgen
data_PrNdB4(IrRu)2
_symmetry_space_group_name_H-M   'P 1'
_cell_length_a   6.93482302
_cell_length_b   6.06546311
_cell_length_c   5.61180420
_cell_angle_alpha   72.74742426
_cell_angle_beta   56.64556686
_cell_angle_gamma   50.60700099
_symmetry_Int_Tables_number   1
_chemical_formula_structural   PrNdB4(IrRu)2
_chemical_formula_sum   'Pr1 Nd1 B4 Ir2 Ru2'
_cell_volume   151.87185894
_cell_formula_units_Z   1
loop_
 _symmetry_equiv_pos_site_id
 _symmetry_equiv_pos_as_xyz
  1  'x, y, z'
loop_
 _atom_site_type_symbol
 _atom_site_label
 _atom_site_symmetry_multiplicity
 _atom_site_fract_x
 _atom_site_fract_y
 _atom_site_fract_z
 _atom_site_occupancy
  Pr  Pr0  1  0.000000  0.000000  0.000000  1
  Nd  Nd1  1  0.250000  0.250000  0.250000  1
  B  B2  1  0.317167  0.682833  0.317167  1
  B  B3  1  0.682833  0.317167  0.682833  1
  B  B4  1  0.573052  0.926948  0.573052  1
  B  B5  1  0.926948  0.573052  0.926948  1
  Ir  Ir6  1  0.634095  0.634095  0.365905  1
  Ir  Ir7  1  0.365905  0.365905  0.634095  1
  Ru  Ru8  1  0.615566  0.615566  0.884434  1
  Ru  Ru9  1  0.884434  0.884434  0.615566  1
