# generated using pymatgen
data_Ac2Ge5Pd3
_symmetry_space_group_name_H-M   'P 1'
_cell_length_a   6.35987772
_cell_length_b   8.79161050
_cell_length_c   8.79161031
_cell_angle_alpha   72.85541172
_cell_angle_beta   68.79526889
_cell_angle_gamma   68.79526734
_symmetry_Int_Tables_number   1
_chemical_formula_structural   Ac2Ge5Pd3
_chemical_formula_sum   'Ac4 Ge10 Pd6'
_cell_volume   419.58868132
_cell_formula_units_Z   2
loop_
 _symmetry_equiv_pos_site_id
 _symmetry_equiv_pos_as_xyz
  1  'x, y, z'
loop_
 _atom_site_type_symbol
 _atom_site_label
 _atom_site_symmetry_multiplicity
 _atom_site_fract_x
 _atom_site_fract_y
 _atom_site_fract_z
 _atom_site_occupancy
  Ac  Ac0  1  0.629553  0.104006  0.636889  1
  Ac  Ac1  1  0.370447  0.895994  0.363111  1
  Ac  Ac2  1  0.129553  0.636889  0.104006  1
  Ac  Ac3  1  0.870447  0.363111  0.895994  1
  Ge  Ge4  1  0.477983  0.272017  0.272017  1
  Ge  Ge5  1  0.522017  0.727983  0.727983  1
  Ge  Ge6  1  0.022017  0.727983  0.727983  1
  Ge  Ge7  1  0.977983  0.272017  0.272017  1
  Ge  Ge8  1  0.891920  0.756491  0.459669  1
  Ge  Ge9  1  0.108080  0.243509  0.540331  1
  Ge  Ge10  1  0.391920  0.459669  0.756491  1
  Ge  Ge11  1  0.608080  0.540331  0.243509  1
  Ge  Ge12  1  0.750000  0.000000  0.000000  1
  Ge  Ge13  1  0.250000  0.000000  0.000000  1
  Pd  Pd14  1  0.861039  0.028006  0.249915  1
  Pd  Pd15  1  0.138961  0.971994  0.750085  1
  Pd  Pd16  1  0.361039  0.249915  0.028006  1
  Pd  Pd17  1  0.638961  0.750085  0.971994  1
  Pd  Pd18  1  0.750000  0.500000  0.500000  1
  Pd  Pd19  1  0.250000  0.500000  0.500000  1
