# generated using pymatgen
data_Hf6Co3Re2Tc
_symmetry_space_group_name_H-M   'P 1'
_cell_length_a   4.55040400
_cell_length_b   6.48135500
_cell_length_c   13.67450000
_cell_angle_alpha   90.00000000
_cell_angle_beta   90.00000000
_cell_angle_gamma   90.00000000
_symmetry_Int_Tables_number   1
_chemical_formula_structural   Hf6Co3Re2Tc
_chemical_formula_sum   'Hf12 Co6 Re4 Tc2'
_cell_volume   403.29907094
_cell_formula_units_Z   2
loop_
 _symmetry_equiv_pos_site_id
 _symmetry_equiv_pos_as_xyz
  1  'x, y, z'
loop_
 _atom_site_type_symbol
 _atom_site_label
 _atom_site_symmetry_multiplicity
 _atom_site_fract_x
 _atom_site_fract_y
 _atom_site_fract_z
 _atom_site_occupancy
  Hf  Hf0  1  0.500001  0.249250  0.999634  1
  Hf  Hf1  1  0.500001  0.750750  0.999634  1
  Hf  Hf2  1  0.999937  0.250486  0.166621  1
  Hf  Hf3  1  0.999937  0.749515  0.166621  1
  Hf  Hf4  1  0.499939  0.249515  0.333379  1
  Hf  Hf5  1  0.499939  0.750486  0.333379  1
  Hf  Hf6  1  0.000000  0.250750  0.500366  1
  Hf  Hf7  1  0.000000  0.749251  0.500366  1
  Hf  Hf8  1  0.500064  0.249792  0.666973  1
  Hf  Hf9  1  0.500064  0.750209  0.666973  1
  Hf  Hf10  1  0.000065  0.250209  0.833026  1
  Hf  Hf11  1  0.000065  0.749792  0.833026  1
  Co  Co12  1  0.999997  0.000000  0.998951  1
  Co  Co13  1  0.499912  0.500000  0.166327  1
  Co  Co14  1  0.999913  0.000000  0.333673  1
  Co  Co15  1  0.499998  0.500000  0.501049  1
  Co  Co16  1  0.000078  0.000000  0.667140  1
  Co  Co17  1  0.500079  0.500000  0.832860  1
  Re  Re18  1  0.999985  0.500000  0.999499  1
  Re  Re19  1  0.499935  0.000000  0.166324  1
  Re  Re20  1  0.999934  0.500000  0.333676  1
  Re  Re21  1  0.499986  0.000000  0.500501  1
  Tc  Tc22  1  0.000084  0.500000  0.667085  1
  Tc  Tc23  1  0.500083  0.000000  0.832915  1
