# generated using pymatgen
data_Cs2Si3WO9
_symmetry_space_group_name_H-M   'P 1'
_cell_length_a   7.24976200
_cell_length_b   7.24976147
_cell_length_c   10.39411300
_cell_angle_alpha   90.00000000
_cell_angle_beta   90.00000000
_cell_angle_gamma   120.00000167
_symmetry_Int_Tables_number   1
_chemical_formula_structural   Cs2Si3WO9
_chemical_formula_sum   'Cs4 Si6 W2 O18'
_cell_volume   473.11370169
_cell_formula_units_Z   2
loop_
 _symmetry_equiv_pos_site_id
 _symmetry_equiv_pos_as_xyz
  1  'x, y, z'
loop_
 _atom_site_type_symbol
 _atom_site_label
 _atom_site_symmetry_multiplicity
 _atom_site_fract_x
 _atom_site_fract_y
 _atom_site_fract_z
 _atom_site_occupancy
  Cs  Cs0  1  0.333333  0.666667  0.436136  1
  Cs  Cs1  1  0.666667  0.333333  0.936136  1
  Cs  Cs2  1  0.666667  0.333333  0.563864  1
  Cs  Cs3  1  0.333333  0.666667  0.063864  1
  Si  Si4  1  0.614212  0.768343  0.750000  1
  Si  Si5  1  0.845868  0.614212  0.250000  1
  Si  Si6  1  0.768343  0.154132  0.250000  1
  Si  Si7  1  0.231657  0.845868  0.750000  1
  Si  Si8  1  0.154132  0.385788  0.750000  1
  Si  Si9  1  0.385788  0.231657  0.250000  1
  W  W10  1  0.000000  0.000000  0.500000  1
  W  W11  1  0.000000  0.000000  0.000000  1
  O  O12  1  0.255528  0.196120  0.382297  1
  O  O13  1  0.059408  0.255528  0.882297  1
  O  O14  1  0.196120  0.940592  0.882297  1
  O  O15  1  0.803880  0.059408  0.382297  1
  O  O16  1  0.940592  0.744472  0.382297  1
  O  O17  1  0.744472  0.803880  0.882297  1
  O  O18  1  0.744472  0.803880  0.617703  1
  O  O19  1  0.940592  0.744472  0.117703  1
  O  O20  1  0.803880  0.059408  0.117703  1
  O  O21  1  0.196120  0.940592  0.617703  1
  O  O22  1  0.059408  0.255528  0.617703  1
  O  O23  1  0.255528  0.196120  0.117703  1
  O  O24  1  0.512211  0.092302  0.250000  1
  O  O25  1  0.419908  0.512211  0.750000  1
  O  O26  1  0.092302  0.580092  0.750000  1
  O  O27  1  0.907698  0.419908  0.250000  1
  O  O28  1  0.580092  0.487789  0.250000  1
  O  O29  1  0.487789  0.907698  0.750000  1
