# generated using pymatgen
data_Gd3In3CuRhAu
_symmetry_space_group_name_H-M   'P 1'
_cell_length_a   7.64118600
_cell_length_b   7.64118633
_cell_length_c   3.90894600
_cell_angle_alpha   90.00000000
_cell_angle_beta   90.00000000
_cell_angle_gamma   120.00000721
_symmetry_Int_Tables_number   1
_chemical_formula_structural   Gd3In3CuRhAu
_chemical_formula_sum   'Gd3 In3 Cu1 Rh1 Au1'
_cell_volume   197.65683309
_cell_formula_units_Z   1
loop_
 _symmetry_equiv_pos_site_id
 _symmetry_equiv_pos_as_xyz
  1  'x, y, z'
loop_
 _atom_site_type_symbol
 _atom_site_label
 _atom_site_symmetry_multiplicity
 _atom_site_fract_x
 _atom_site_fract_y
 _atom_site_fract_z
 _atom_site_occupancy
  Gd  Gd0  1  0.015546  0.596956  0.500000  1
  Gd  Gd1  1  0.581410  0.984454  0.500000  1
  Gd  Gd2  1  0.403044  0.418590  0.500000  1
  In  In3  1  0.994187  0.248723  0.000000  1
  In  In4  1  0.254536  0.005813  0.000000  1
  In  In5  1  0.751277  0.745464  0.000000  1
  Cu  Cu6  1  0.000000  0.000000  0.500000  1
  Rh  Rh7  1  0.333333  0.666667  0.000000  1
  Au  Au8  1  0.666667  0.333333  0.000000  1
