# generated using pymatgen
data_Yb2BeGe2O7
_symmetry_space_group_name_H-M   'P 1'
_cell_length_a   5.12638800
_cell_length_b   7.57222200
_cell_length_c   7.57222500
_cell_angle_alpha   90.00001513
_cell_angle_beta   90.00002631
_cell_angle_gamma   89.99995495
_symmetry_Int_Tables_number   1
_chemical_formula_structural   Yb2BeGe2O7
_chemical_formula_sum   'Yb4 Be2 Ge4 O14'
_cell_volume   293.93975069
_cell_formula_units_Z   2
loop_
 _symmetry_equiv_pos_site_id
 _symmetry_equiv_pos_as_xyz
  1  'x, y, z'
loop_
 _atom_site_type_symbol
 _atom_site_label
 _atom_site_symmetry_multiplicity
 _atom_site_fract_x
 _atom_site_fract_y
 _atom_site_fract_z
 _atom_site_occupancy
  Yb  Yb0  1  0.980940  0.662055  0.162055  1
  Yb  Yb1  1  0.019060  0.162056  0.337946  1
  Yb  Yb2  1  0.019060  0.837946  0.662055  1
  Yb  Yb3  1  0.980939  0.337946  0.837946  1
  Be  Be4  1  0.499999  0.000000  0.000000  1
  Be  Be5  1  0.500000  0.500000  0.500000  1
  Ge  Ge6  1  0.469970  0.347333  0.152668  1
  Ge  Ge7  1  0.530027  0.847333  0.347333  1
  Ge  Ge8  1  0.530029  0.152668  0.652668  1
  Ge  Ge9  1  0.469972  0.652668  0.847333  1
  O  O10  1  0.312924  0.500001  0.000000  1
  O  O11  1  0.310191  0.149243  0.093206  1
  O  O12  1  0.809044  0.360978  0.139023  1
  O  O13  1  0.689808  0.906795  0.149243  1
  O  O14  1  0.310192  0.406795  0.350757  1
  O  O15  1  0.190955  0.860978  0.360977  1
  O  O16  1  0.689808  0.649244  0.406796  1
  O  O17  1  0.687075  0.000001  0.500000  1
  O  O18  1  0.689808  0.350757  0.593206  1
  O  O19  1  0.190955  0.139023  0.639023  1
  O  O20  1  0.310191  0.593206  0.649244  1
  O  O21  1  0.689807  0.093206  0.850757  1
  O  O22  1  0.809045  0.639023  0.860977  1
  O  O23  1  0.310191  0.850757  0.906794  1
