# generated using pymatgen
data_Pr3Hg3Pd2Pt
_symmetry_space_group_name_H-M   'P 1'
_cell_length_a   7.91319900
_cell_length_b   7.91319930
_cell_length_c   3.95589800
_cell_angle_alpha   90.00000000
_cell_angle_beta   90.00000000
_cell_angle_gamma   119.99999454
_symmetry_Int_Tables_number   1
_chemical_formula_structural   Pr3Hg3Pd2Pt
_chemical_formula_sum   'Pr3 Hg3 Pd2 Pt1'
_cell_volume   214.52599862
_cell_formula_units_Z   1
loop_
 _symmetry_equiv_pos_site_id
 _symmetry_equiv_pos_as_xyz
  1  'x, y, z'
loop_
 _atom_site_type_symbol
 _atom_site_label
 _atom_site_symmetry_multiplicity
 _atom_site_fract_x
 _atom_site_fract_y
 _atom_site_fract_z
 _atom_site_occupancy
  Pr  Pr0  1  0.405091  0.398250  0.500000  1
  Pr  Pr1  1  0.601750  0.006840  0.500000  1
  Pr  Pr2  1  0.993160  0.594909  0.500000  1
  Hg  Hg3  1  0.735534  0.740490  0.000000  1
  Hg  Hg4  1  0.259510  0.995045  0.000000  1
  Hg  Hg5  1  0.004955  0.264466  0.000000  1
  Pd  Pd6  1  0.333333  0.666667  0.000000  1
  Pd  Pd7  1  0.000000  0.000000  0.500000  1
  Pt  Pt8  1  0.666667  0.333333  0.000000  1
