# generated using pymatgen
data_Nb3Cr(Co4P3)2
_symmetry_space_group_name_H-M   'P 1'
_cell_length_a   11.81704953
_cell_length_b   11.83235726
_cell_length_c   3.57994900
_cell_angle_alpha   90.00000000
_cell_angle_beta   90.00000000
_cell_angle_gamma   120.04286608
_symmetry_Int_Tables_number   1
_chemical_formula_structural   Nb3Cr(Co4P3)2
_chemical_formula_sum   'Nb6 Cr2 Co16 P12'
_cell_volume   433.31133220
_cell_formula_units_Z   2
loop_
 _symmetry_equiv_pos_site_id
 _symmetry_equiv_pos_as_xyz
  1  'x, y, z'
loop_
 _atom_site_type_symbol
 _atom_site_label
 _atom_site_symmetry_multiplicity
 _atom_site_fract_x
 _atom_site_fract_y
 _atom_site_fract_z
 _atom_site_occupancy
  Nb  Nb0  1  0.819953  0.821146  0.500000  1
  Nb  Nb1  1  0.000000  0.174942  0.500000  1
  Nb  Nb2  1  0.333277  0.666013  0.000000  1
  Nb  Nb3  1  0.666723  0.332735  0.000000  1
  Nb  Nb4  1  0.000000  0.551867  0.000000  1
  Nb  Nb5  1  0.180047  0.001193  0.500000  1
  Cr  Cr6  1  0.445892  0.446559  0.000000  1
  Cr  Cr7  1  0.554108  0.000667  0.000000  1
  Co  Co8  1  0.625077  0.819632  0.000000  1
  Co  Co9  1  0.374923  0.194556  0.000000  1
  Co  Co10  1  0.000000  0.724449  0.500000  1
  Co  Co11  1  0.281142  0.280700  0.500000  1
  Co  Co12  1  0.868512  0.351137  0.500000  1
  Co  Co13  1  0.718858  0.999558  0.500000  1
  Co  Co14  1  0.818477  0.628492  0.000000  1
  Co  Co15  1  0.181523  0.810015  0.000000  1
  Co  Co16  1  0.357484  0.874185  0.500000  1
  Co  Co17  1  0.131488  0.482624  0.500000  1
  Co  Co18  1  0.642516  0.516701  0.500000  1
  Co  Co19  1  0.000000  0.000114  0.000000  1
  Co  Co20  1  0.516680  0.645951  0.500000  1
  Co  Co21  1  0.483320  0.129272  0.500000  1
  Co  Co22  1  0.195224  0.373218  0.000000  1
  Co  Co23  1  0.804776  0.177994  0.000000  1
  P  P24  1  0.000000  0.348819  0.000000  1
  P  P25  1  0.826556  0.514991  0.500000  1
  P  P26  1  0.682201  0.165588  0.500000  1
  P  P27  1  0.177364  0.176014  0.000000  1
  P  P28  1  0.641038  0.643029  0.000000  1
  P  P29  1  0.822636  0.998650  0.000000  1
  P  P30  1  0.516832  0.833549  0.500000  1
  P  P31  1  0.173444  0.688434  0.500000  1
  P  P32  1  0.358962  0.001991  0.000000  1
  P  P33  1  0.483168  0.316717  0.500000  1
  P  P34  1  0.000000  0.825108  0.000000  1
  P  P35  1  0.317799  0.483387  0.500000  1
