# generated using pymatgen
data_Dy6Er10Cd4OsPt3
_symmetry_space_group_name_H-M   'P 1'
_cell_length_a   9.64665586
_cell_length_b   9.64568831
_cell_length_c   9.65061424
_cell_angle_alpha   59.54191277
_cell_angle_beta   59.57395224
_cell_angle_gamma   59.49264277
_symmetry_Int_Tables_number   1
_chemical_formula_structural   Dy6Er10Cd4OsPt3
_chemical_formula_sum   'Dy6 Er10 Cd4 Os1 Pt3'
_cell_volume   628.26799096
_cell_formula_units_Z   1
loop_
 _symmetry_equiv_pos_site_id
 _symmetry_equiv_pos_as_xyz
  1  'x, y, z'
loop_
 _atom_site_type_symbol
 _atom_site_label
 _atom_site_symmetry_multiplicity
 _atom_site_fract_x
 _atom_site_fract_y
 _atom_site_fract_z
 _atom_site_occupancy
  Dy  Dy0  1  0.935967  0.565038  0.565220  1
  Dy  Dy1  1  0.557116  0.938653  0.938839  1
  Dy  Dy2  1  0.565124  0.935862  0.565237  1
  Dy  Dy3  1  0.938775  0.556911  0.938908  1
  Dy  Dy4  1  0.565085  0.565008  0.936138  1
  Dy  Dy5  1  0.938592  0.938522  0.557505  1
  Er  Er6  1  0.351403  0.351345  0.351530  1
  Er  Er7  1  0.350596  0.350668  0.947439  1
  Er  Er8  1  0.350194  0.947950  0.350286  1
  Er  Er9  1  0.947720  0.350392  0.350412  1
  Er  Er10  1  0.814952  0.188122  0.188310  1
  Er  Er11  1  0.187511  0.810293  0.810414  1
  Er  Er12  1  0.188137  0.815086  0.188274  1
  Er  Er13  1  0.810336  0.187437  0.810409  1
  Er  Er14  1  0.188249  0.188190  0.814752  1
  Er  Er15  1  0.810347  0.810306  0.187598  1
  Cd  Cd16  1  0.580648  0.580448  0.580664  1
  Cd  Cd17  1  0.580933  0.580866  0.254833  1
  Cd  Cd18  1  0.581016  0.254593  0.581077  1
  Cd  Cd19  1  0.254703  0.580872  0.581066  1
  Os  Os20  1  0.143608  0.144517  0.141952  1
  Pt  Pt21  1  0.143392  0.143357  0.572238  1
  Pt  Pt22  1  0.143392  0.572202  0.143439  1
  Pt  Pt23  1  0.572201  0.143359  0.143459  1
