# generated using pymatgen
data_Pr5Co16(MoP4)3
_symmetry_space_group_name_H-M   'P 1'
_cell_length_a   12.26618200
_cell_length_b   12.26618231
_cell_length_c   3.78363000
_cell_angle_alpha   90.00000000
_cell_angle_beta   90.00000000
_cell_angle_gamma   120.00000456
_symmetry_Int_Tables_number   1
_chemical_formula_structural   Pr5Co16(MoP4)3
_chemical_formula_sum   'Pr5 Co16 Mo3 P12'
_cell_volume   493.01268262
_cell_formula_units_Z   1
loop_
 _symmetry_equiv_pos_site_id
 _symmetry_equiv_pos_as_xyz
  1  'x, y, z'
loop_
 _atom_site_type_symbol
 _atom_site_label
 _atom_site_symmetry_multiplicity
 _atom_site_fract_x
 _atom_site_fract_y
 _atom_site_fract_z
 _atom_site_occupancy
  Pr  Pr0  1  0.666667  0.333333  0.000000  1
  Pr  Pr1  1  0.333333  0.666667  0.000000  1
  Pr  Pr2  1  0.813710  0.813710  0.500000  1
  Pr  Pr3  1  0.186290  0.000000  0.500000  1
  Pr  Pr4  1  0.000000  0.186290  0.500000  1
  Co  Co5  1  0.875204  0.357321  0.500000  1
  Co  Co6  1  0.642679  0.517884  0.500000  1
  Co  Co7  1  0.482116  0.124796  0.500000  1
  Co  Co8  1  0.357321  0.875204  0.500000  1
  Co  Co9  1  0.517884  0.642679  0.500000  1
  Co  Co10  1  0.124796  0.482116  0.500000  1
  Co  Co11  1  0.800089  0.177072  0.000000  1
  Co  Co12  1  0.822928  0.623016  0.000000  1
  Co  Co13  1  0.376984  0.199911  0.000000  1
  Co  Co14  1  0.177072  0.800089  0.000000  1
  Co  Co15  1  0.623016  0.822928  0.000000  1
  Co  Co16  1  0.199911  0.376984  0.000000  1
  Co  Co17  1  0.282204  0.282204  0.500000  1
  Co  Co18  1  0.717796  0.000000  0.500000  1
  Co  Co19  1  0.000000  0.717796  0.500000  1
  Co  Co20  1  0.000000  0.000000  0.000000  1
  Mo  Mo21  1  0.443989  0.443989  0.000000  1
  Mo  Mo22  1  0.556011  0.000000  0.000000  1
  Mo  Mo23  1  0.000000  0.556011  0.000000  1
  P  P24  1  0.687475  0.163412  0.500000  1
  P  P25  1  0.836588  0.524063  0.500000  1
  P  P26  1  0.475937  0.312525  0.500000  1
  P  P27  1  0.163412  0.687475  0.500000  1
  P  P28  1  0.524063  0.836588  0.500000  1
  P  P29  1  0.312525  0.475937  0.500000  1
  P  P30  1  0.181772  0.181772  0.000000  1
  P  P31  1  0.818228  0.000000  0.000000  1
  P  P32  1  0.000000  0.818228  0.000000  1
  P  P33  1  0.634011  0.634011  0.000000  1
  P  P34  1  0.365989  0.000000  0.000000  1
  P  P35  1  0.000000  0.365989  0.000000  1
