# generated using pymatgen
data_CaY(NbSe2)6
_symmetry_space_group_name_H-M   'P 1'
_cell_length_a   6.08938400
_cell_length_b   6.08938429
_cell_length_c   14.50920000
_cell_angle_alpha   90.00000000
_cell_angle_beta   90.00000000
_cell_angle_gamma   120.00000927
_symmetry_Int_Tables_number   1
_chemical_formula_structural   CaY(NbSe2)6
_chemical_formula_sum   'Ca1 Y1 Nb6 Se12'
_cell_volume   465.93013785
_cell_formula_units_Z   1
loop_
 _symmetry_equiv_pos_site_id
 _symmetry_equiv_pos_as_xyz
  1  'x, y, z'
loop_
 _atom_site_type_symbol
 _atom_site_label
 _atom_site_symmetry_multiplicity
 _atom_site_fract_x
 _atom_site_fract_y
 _atom_site_fract_z
 _atom_site_occupancy
  Ca  Ca0  1  0.666667  0.333333  0.750000  1
  Y  Y1  1  0.333333  0.666667  0.250000  1
  Nb  Nb2  1  0.333333  0.666667  0.006555  1
  Nb  Nb3  1  0.000000  0.000000  0.005188  1
  Nb  Nb4  1  0.666667  0.333333  0.003884  1
  Nb  Nb5  1  0.333333  0.666667  0.493445  1
  Nb  Nb6  1  0.000000  0.000000  0.494812  1
  Nb  Nb7  1  0.666667  0.333333  0.496116  1
  Se  Se8  1  0.674436  0.665540  0.379918  1
  Se  Se9  1  0.666203  0.672771  0.609357  1
  Se  Se10  1  0.006569  0.672771  0.890643  1
  Se  Se11  1  0.666203  0.993431  0.890643  1
  Se  Se12  1  0.674436  0.008896  0.120082  1
  Se  Se13  1  0.334460  0.008896  0.379918  1
  Se  Se14  1  0.006569  0.333797  0.609357  1
  Se  Se15  1  0.327229  0.993431  0.609357  1
  Se  Se16  1  0.991104  0.665540  0.120082  1
  Se  Se17  1  0.327229  0.333797  0.890643  1
  Se  Se18  1  0.991104  0.325564  0.379918  1
  Se  Se19  1  0.334460  0.325564  0.120082  1
