# generated using pymatgen
data_PuSeO5
_symmetry_space_group_name_H-M   'P 1'
_cell_length_a   9.56179200
_cell_length_b   4.25602769
_cell_length_c   5.78646478
_cell_angle_alpha   81.18373034
_cell_angle_beta   90.00000000
_cell_angle_gamma   90.00000000
_symmetry_Int_Tables_number   1
_chemical_formula_structural   PuSeO5
_chemical_formula_sum   'Pu2 Se2 O10'
_cell_volume   232.69940076
_cell_formula_units_Z   2
loop_
 _symmetry_equiv_pos_site_id
 _symmetry_equiv_pos_as_xyz
  1  'x, y, z'
loop_
 _atom_site_type_symbol
 _atom_site_label
 _atom_site_symmetry_multiplicity
 _atom_site_fract_x
 _atom_site_fract_y
 _atom_site_fract_z
 _atom_site_occupancy
  Pu  Pu0  1  0.500000  0.000000  0.000000  1
  Pu  Pu1  1  0.000000  0.000000  0.000000  1
  Se  Se2  1  0.750000  0.367863  0.290622  1
  Se  Se3  1  0.250000  0.632137  0.709378  1
  O  O4  1  0.414333  0.945997  0.275820  1
  O  O5  1  0.914333  0.054003  0.724180  1
  O  O6  1  0.585667  0.054003  0.724180  1
  O  O7  1  0.085667  0.945997  0.275820  1
  O  O8  1  0.250000  0.006837  0.794099  1
  O  O9  1  0.750000  0.993163  0.205901  1
  O  O10  1  0.105409  0.511500  0.884232  1
  O  O11  1  0.605409  0.488500  0.115768  1
  O  O12  1  0.894591  0.488500  0.115768  1
  O  O13  1  0.394591  0.511500  0.884232  1
