# generated using pymatgen
data_ErScAlB6
_symmetry_space_group_name_H-M   'P 1'
_cell_length_a   3.49415500
_cell_length_b   9.03434700
_cell_length_c   11.37991500
_cell_angle_alpha   90.00000000
_cell_angle_beta   90.00000000
_cell_angle_gamma   90.00000000
_symmetry_Int_Tables_number   1
_chemical_formula_structural   ErScAlB6
_chemical_formula_sum   'Er4 Sc4 Al4 B24'
_cell_volume   359.23442825
_cell_formula_units_Z   4
loop_
 _symmetry_equiv_pos_site_id
 _symmetry_equiv_pos_as_xyz
  1  'x, y, z'
loop_
 _atom_site_type_symbol
 _atom_site_label
 _atom_site_symmetry_multiplicity
 _atom_site_fract_x
 _atom_site_fract_y
 _atom_site_fract_z
 _atom_site_occupancy
  Er  Er0  1  0.000000  0.820857  0.085609  1
  Er  Er1  1  0.000000  0.179143  0.914391  1
  Er  Er2  1  0.000000  0.320857  0.414391  1
  Er  Er3  1  0.000000  0.679143  0.585609  1
  Sc  Sc4  1  0.000000  0.444470  0.127863  1
  Sc  Sc5  1  0.000000  0.555530  0.872137  1
  Sc  Sc6  1  0.000000  0.944470  0.372137  1
  Sc  Sc7  1  0.000000  0.055530  0.627863  1
  Al  Al8  1  0.000000  0.141926  0.181797  1
  Al  Al9  1  0.000000  0.858074  0.818203  1
  Al  Al10  1  0.000000  0.641926  0.318203  1
  Al  Al11  1  0.000000  0.358074  0.681797  1
  B  B12  1  0.500000  0.051622  0.064665  1
  B  B13  1  0.500000  0.948378  0.935335  1
  B  B14  1  0.500000  0.551622  0.435335  1
  B  B15  1  0.500000  0.448378  0.564665  1
  B  B16  1  0.500000  0.255111  0.080550  1
  B  B17  1  0.500000  0.744889  0.919450  1
  B  B18  1  0.500000  0.755111  0.419450  1
  B  B19  1  0.500000  0.244889  0.580550  1
  B  B20  1  0.500000  0.298203  0.236978  1
  B  B21  1  0.500000  0.701797  0.763022  1
  B  B22  1  0.500000  0.798203  0.263022  1
  B  B23  1  0.500000  0.201797  0.736978  1
  B  B24  1  0.500000  0.129518  0.318929  1
  B  B25  1  0.500000  0.870482  0.681071  1
  B  B26  1  0.500000  0.629518  0.181071  1
  B  B27  1  0.500000  0.370482  0.818929  1
  B  B28  1  0.500000  0.479306  0.286165  1
  B  B29  1  0.500000  0.520694  0.713835  1
  B  B30  1  0.500000  0.979306  0.213835  1
  B  B31  1  0.500000  0.020694  0.786165  1
  B  B32  1  0.500000  0.097913  0.473388  1
  B  B33  1  0.500000  0.902087  0.526612  1
  B  B34  1  0.500000  0.597913  0.026612  1
  B  B35  1  0.500000  0.402087  0.973388  1
