# generated using pymatgen
data_Li3La3ZnGe4
_symmetry_space_group_name_H-M   'P 1'
_cell_length_a   4.51943549
_cell_length_b   6.98117849
_cell_length_c   8.53457800
_cell_angle_alpha   114.65203468
_cell_angle_beta   105.35343207
_cell_angle_gamma   89.99999554
_symmetry_Int_Tables_number   1
_chemical_formula_structural   Li3La3ZnGe4
_chemical_formula_sum   'Li3 La3 Zn1 Ge4'
_cell_volume   234.11664148
_cell_formula_units_Z   1
loop_
 _symmetry_equiv_pos_site_id
 _symmetry_equiv_pos_as_xyz
  1  'x, y, z'
loop_
 _atom_site_type_symbol
 _atom_site_label
 _atom_site_symmetry_multiplicity
 _atom_site_fract_x
 _atom_site_fract_y
 _atom_site_fract_z
 _atom_site_occupancy
  Li  Li0  1  0.330228  0.017783  0.660458  1
  Li  Li1  1  0.328033  0.642473  0.656065  1
  Li  Li2  1  0.669758  0.357619  0.339516  1
  La  La3  1  0.000607  0.001782  0.001213  1
  La  La4  1  0.130872  0.630998  0.261745  1
  La  La5  1  0.870376  0.364082  0.740751  1
  Zn  Zn6  1  0.670487  0.978581  0.340973  1
  Ge  Ge7  1  0.499664  0.685395  0.999328  1
  Ge  Ge8  1  0.500433  0.316579  0.000867  1
  Ge  Ge9  1  0.784349  0.790876  0.568699  1
  Ge  Ge10  1  0.215193  0.213833  0.430388  1
