# generated using pymatgen
data_LiGd3SiSe7
_symmetry_space_group_name_H-M   'P 1'
_cell_length_a   10.46425400
_cell_length_b   10.46422456
_cell_length_c   5.97804600
_cell_angle_alpha   90.00000000
_cell_angle_beta   90.00000000
_cell_angle_gamma   120.00003616
_symmetry_Int_Tables_number   1
_chemical_formula_structural   LiGd3SiSe7
_chemical_formula_sum   'Li2 Gd6 Si2 Se14'
_cell_volume   566.89816318
_cell_formula_units_Z   2
loop_
 _symmetry_equiv_pos_site_id
 _symmetry_equiv_pos_as_xyz
  1  'x, y, z'
loop_
 _atom_site_type_symbol
 _atom_site_label
 _atom_site_symmetry_multiplicity
 _atom_site_fract_x
 _atom_site_fract_y
 _atom_site_fract_z
 _atom_site_occupancy
  Li  Li0  1  0.999582  0.000042  0.503620  1
  Li  Li1  1  0.000418  0.999958  0.003620  1
  Gd  Gd2  1  0.642843  0.774843  0.228825  1
  Gd  Gd3  1  0.131671  0.356853  0.227570  1
  Gd  Gd4  1  0.224299  0.866722  0.227060  1
  Gd  Gd5  1  0.357156  0.225156  0.728825  1
  Gd  Gd6  1  0.775701  0.133278  0.727060  1
  Gd  Gd7  1  0.868328  0.643147  0.727570  1
  Si  Si8  1  0.665750  0.332161  0.137732  1
  Si  Si9  1  0.334249  0.667839  0.637732  1
  Se  Se10  1  0.520255  0.100794  0.985978  1
  Se  Se11  1  0.897748  0.418607  0.987680  1
  Se  Se12  1  0.582137  0.479656  0.986046  1
  Se  Se13  1  0.333943  0.666173  0.016831  1
  Se  Se14  1  0.906077  0.749540  0.257644  1
  Se  Se15  1  0.843714  0.093643  0.257767  1
  Se  Se16  1  0.250366  0.156177  0.259245  1
  Se  Se17  1  0.479746  0.899205  0.485978  1
  Se  Se18  1  0.417862  0.520343  0.486046  1
  Se  Se19  1  0.102252  0.581393  0.487680  1
  Se  Se20  1  0.666058  0.333828  0.516832  1
  Se  Se21  1  0.093923  0.250460  0.757644  1
  Se  Se22  1  0.749634  0.843823  0.759243  1
  Se  Se23  1  0.156286  0.906357  0.757767  1
