# generated using pymatgen
data_Tm2Lu4Bi2W
_symmetry_space_group_name_H-M   'P 1'
_cell_length_a   8.12942500
_cell_length_b   8.13611449
_cell_length_c   4.35483700
_cell_angle_alpha   90.00000000
_cell_angle_beta   90.00000000
_cell_angle_gamma   119.97281787
_symmetry_Int_Tables_number   1
_chemical_formula_structural   Tm2Lu4Bi2W
_chemical_formula_sum   'Tm2 Lu4 Bi2 W1'
_cell_volume   249.51594627
_cell_formula_units_Z   1
loop_
 _symmetry_equiv_pos_site_id
 _symmetry_equiv_pos_as_xyz
  1  'x, y, z'
loop_
 _atom_site_type_symbol
 _atom_site_label
 _atom_site_symmetry_multiplicity
 _atom_site_fract_x
 _atom_site_fract_y
 _atom_site_fract_z
 _atom_site_occupancy
  Tm  Tm0  1  0.000167  0.615736  0.000000  1
  Tm  Tm1  1  0.384431  0.384264  0.000000  1
  Lu  Lu2  1  0.234470  0.000000  0.500000  1
  Lu  Lu3  1  0.999422  0.234458  0.500000  1
  Lu  Lu4  1  0.764964  0.765542  0.500000  1
  Lu  Lu5  1  0.617034  0.000000  0.000000  1
  Bi  Bi6  1  0.333731  0.667212  0.500000  1
  Bi  Bi7  1  0.666521  0.332788  0.500000  1
  W  W8  1  0.999262  0.000000  0.000000  1
