# generated using pymatgen
data_DyTm2U(Ga3Ir)6
_symmetry_space_group_name_H-M   'P 1'
_cell_length_a   7.59354782
_cell_length_b   7.58947923
_cell_length_c   9.43706100
_cell_angle_alpha   90.00000000
_cell_angle_beta   90.00000000
_cell_angle_gamma   119.81571005
_symmetry_Int_Tables_number   1
_chemical_formula_structural   DyTm2U(Ga3Ir)6
_chemical_formula_sum   'Dy1 Tm2 U1 Ga18 Ir6'
_cell_volume   471.87569479
_cell_formula_units_Z   1
loop_
 _symmetry_equiv_pos_site_id
 _symmetry_equiv_pos_as_xyz
  1  'x, y, z'
loop_
 _atom_site_type_symbol
 _atom_site_label
 _atom_site_symmetry_multiplicity
 _atom_site_fract_x
 _atom_site_fract_y
 _atom_site_fract_z
 _atom_site_occupancy
  Dy  Dy0  1  0.003840  0.331907  0.250000  1
  Tm  Tm1  1  0.669794  0.996693  0.750000  1
  Tm  Tm2  1  0.330023  0.002128  0.250000  1
  U  U3  1  0.997913  0.668968  0.750000  1
  Ga  Ga4  1  0.129966  0.129834  0.750000  1
  Ga  Ga5  1  0.872714  0.873292  0.250000  1
  Ga  Ga6  1  0.998119  0.331134  0.580815  1
  Ga  Ga7  1  0.001612  0.666294  0.417993  1
  Ga  Ga8  1  0.001612  0.666294  0.082007  1
  Ga  Ga9  1  0.337974  0.001544  0.919637  1
  Ga  Ga10  1  0.998119  0.331134  0.919185  1
  Ga  Ga11  1  0.665093  0.001682  0.081316  1
  Ga  Ga12  1  0.665093  0.001682  0.418684  1
  Ga  Ga13  1  0.337974  0.001544  0.580363  1
  Ga  Ga14  1  0.331617  0.330836  0.068673  1
  Ga  Ga15  1  0.665039  0.668149  0.933586  1
  Ga  Ga16  1  0.665039  0.668149  0.566414  1
  Ga  Ga17  1  0.331617  0.330836  0.431327  1
  Ga  Ga18  1  0.339370  0.545600  0.750000  1
  Ga  Ga19  1  0.660420  0.452390  0.250000  1
  Ga  Ga20  1  0.544597  0.339235  0.750000  1
  Ga  Ga21  1  0.453120  0.661685  0.250000  1
  Ir  Ir22  1  0.672615  0.330065  0.500958  1
  Ir  Ir23  1  0.327372  0.671382  0.501044  1
  Ir  Ir24  1  0.327372  0.671382  0.998956  1
  Ir  Ir25  1  0.672615  0.330065  0.999042  1
  Ir  Ir26  1  0.999683  0.998048  0.501487  1
  Ir  Ir27  1  0.999683  0.998048  0.998513  1
