# generated using pymatgen
data_DyNb(NiP)3
_symmetry_space_group_name_H-M   'P 1'
_cell_length_a   3.68956500
_cell_length_b   10.10799600
_cell_length_c   12.18570100
_cell_angle_alpha   90.00000000
_cell_angle_beta   90.00000000
_cell_angle_gamma   90.00000000
_symmetry_Int_Tables_number   1
_chemical_formula_structural   DyNb(NiP)3
_chemical_formula_sum   'Dy4 Nb4 Ni12 P12'
_cell_volume   454.45485234
_cell_formula_units_Z   4
loop_
 _symmetry_equiv_pos_site_id
 _symmetry_equiv_pos_as_xyz
  1  'x, y, z'
loop_
 _atom_site_type_symbol
 _atom_site_label
 _atom_site_symmetry_multiplicity
 _atom_site_fract_x
 _atom_site_fract_y
 _atom_site_fract_z
 _atom_site_occupancy
  Dy  Dy0  1  0.250000  0.072518  0.206152  1
  Dy  Dy1  1  0.750000  0.927482  0.793848  1
  Dy  Dy2  1  0.750000  0.572518  0.293848  1
  Dy  Dy3  1  0.250000  0.427482  0.706152  1
  Nb  Nb4  1  0.250000  0.162211  0.494985  1
  Nb  Nb5  1  0.750000  0.837789  0.505015  1
  Nb  Nb6  1  0.750000  0.662211  0.005015  1
  Nb  Nb7  1  0.250000  0.337789  0.994985  1
  Ni  Ni8  1  0.250000  0.730288  0.664737  1
  Ni  Ni9  1  0.750000  0.269712  0.335263  1
  Ni  Ni10  1  0.750000  0.230288  0.835263  1
  Ni  Ni11  1  0.250000  0.769712  0.164737  1
  Ni  Ni12  1  0.250000  0.368271  0.215841  1
  Ni  Ni13  1  0.750000  0.631729  0.784159  1
  Ni  Ni14  1  0.750000  0.868271  0.284159  1
  Ni  Ni15  1  0.250000  0.131729  0.715841  1
  Ni  Ni16  1  0.250000  0.600273  0.482381  1
  Ni  Ni17  1  0.750000  0.399727  0.517619  1
  Ni  Ni18  1  0.750000  0.100273  0.017619  1
  Ni  Ni19  1  0.250000  0.899727  0.982381  1
  P  P20  1  0.250000  0.945480  0.618826  1
  P  P21  1  0.750000  0.054520  0.381174  1
  P  P22  1  0.750000  0.445480  0.881174  1
  P  P23  1  0.250000  0.554520  0.118826  1
  P  P24  1  0.250000  0.390454  0.402732  1
  P  P25  1  0.750000  0.609546  0.597268  1
  P  P26  1  0.750000  0.890454  0.097268  1
  P  P27  1  0.250000  0.109546  0.902732  1
  P  P28  1  0.250000  0.772220  0.357433  1
  P  P29  1  0.750000  0.227780  0.642567  1
  P  P30  1  0.750000  0.272220  0.142567  1
  P  P31  1  0.250000  0.727780  0.857433  1
