# generated using pymatgen
data_Zr3Sc(MnP)4
_symmetry_space_group_name_H-M   'P 1'
_cell_length_a   3.63250100
_cell_length_b   6.45721511
_cell_length_c   7.52808913
_cell_angle_alpha   89.97870327
_cell_angle_beta   90.00000000
_cell_angle_gamma   90.00000000
_symmetry_Int_Tables_number   1
_chemical_formula_structural   Zr3Sc(MnP)4
_chemical_formula_sum   'Zr3 Sc1 Mn4 P4'
_cell_volume   176.57764457
_cell_formula_units_Z   1
loop_
 _symmetry_equiv_pos_site_id
 _symmetry_equiv_pos_as_xyz
  1  'x, y, z'
loop_
 _atom_site_type_symbol
 _atom_site_label
 _atom_site_symmetry_multiplicity
 _atom_site_fract_x
 _atom_site_fract_y
 _atom_site_fract_z
 _atom_site_occupancy
  Zr  Zr0  1  0.250000  0.030307  0.824284  1
  Zr  Zr1  1  0.750000  0.969022  0.175773  1
  Zr  Zr2  1  0.750000  0.469549  0.325309  1
  Sc  Sc3  1  0.250000  0.531269  0.674647  1
  Mn  Mn4  1  0.750000  0.364194  0.939913  1
  Mn  Mn5  1  0.250000  0.134512  0.440731  1
  Mn  Mn6  1  0.750000  0.865266  0.559993  1
  Mn  Mn7  1  0.250000  0.635944  0.059303  1
  P  P8  1  0.250000  0.269442  0.126305  1
  P  P9  1  0.250000  0.767783  0.376234  1
  P  P10  1  0.750000  0.728705  0.870920  1
  P  P11  1  0.750000  0.234008  0.626588  1
