# generated using pymatgen
data_Tm3Mg2ZnSi2Ag
_symmetry_space_group_name_H-M   'P 1'
_cell_length_a   6.95580500
_cell_length_b   7.03010433
_cell_length_c   4.32937100
_cell_angle_alpha   90.00000000
_cell_angle_beta   90.00000000
_cell_angle_gamma   119.65099580
_symmetry_Int_Tables_number   1
_chemical_formula_structural   Tm3Mg2ZnSi2Ag
_chemical_formula_sum   'Tm3 Mg2 Zn1 Si2 Ag1'
_cell_volume   183.98448958
_cell_formula_units_Z   1
loop_
 _symmetry_equiv_pos_site_id
 _symmetry_equiv_pos_as_xyz
  1  'x, y, z'
loop_
 _atom_site_type_symbol
 _atom_site_label
 _atom_site_symmetry_multiplicity
 _atom_site_fract_x
 _atom_site_fract_y
 _atom_site_fract_z
 _atom_site_occupancy
  Tm  Tm0  1  0.565126  0.000000  0.000000  1
  Tm  Tm1  1  0.999249  0.574228  0.000000  1
  Tm  Tm2  1  0.425021  0.425772  0.000000  1
  Mg  Mg3  1  0.004282  0.244722  0.500000  1
  Mg  Mg4  1  0.759560  0.755278  0.500000  1
  Zn  Zn5  1  0.254091  0.000000  0.500000  1
  Si  Si6  1  0.330105  0.673055  0.500000  1
  Si  Si7  1  0.657050  0.326945  0.500000  1
  Ag  Ag8  1  0.005514  0.000000  0.000000  1
