# generated using pymatgen
data_Sm2Gd3(OsO6)2
_symmetry_space_group_name_H-M   'P 1'
_cell_length_a   6.93148904
_cell_length_b   6.93148922
_cell_length_c   7.56361500
_cell_angle_alpha   74.18105342
_cell_angle_beta   74.18105299
_cell_angle_gamma   48.51548948
_symmetry_Int_Tables_number   1
_chemical_formula_structural   Sm2Gd3(OsO6)2
_chemical_formula_sum   'Sm2 Gd3 Os2 O12'
_cell_volume   259.78039075
_cell_formula_units_Z   1
loop_
 _symmetry_equiv_pos_site_id
 _symmetry_equiv_pos_as_xyz
  1  'x, y, z'
loop_
 _atom_site_type_symbol
 _atom_site_label
 _atom_site_symmetry_multiplicity
 _atom_site_fract_x
 _atom_site_fract_y
 _atom_site_fract_z
 _atom_site_occupancy
  Sm  Sm0  1  0.302899  0.302899  0.356060  1
  Sm  Sm1  1  0.697101  0.697101  0.643940  1
  Gd  Gd2  1  0.312335  0.312335  0.831467  1
  Gd  Gd3  1  0.687665  0.687665  0.168533  1
  Gd  Gd4  1  0.000000  0.000000  0.500000  1
  Os  Os5  1  0.781358  0.218642  0.000000  1
  Os  Os6  1  0.218642  0.781358  0.000000  1
  O  O7  1  0.915013  0.413986  0.918356  1
  O  O8  1  0.413986  0.915013  0.918356  1
  O  O9  1  0.084987  0.586014  0.081644  1
  O  O10  1  0.586014  0.084987  0.081644  1
  O  O11  1  0.099302  0.596112  0.575862  1
  O  O12  1  0.596112  0.099302  0.575862  1
  O  O13  1  0.900698  0.403888  0.424138  1
  O  O14  1  0.403888  0.900698  0.424138  1
  O  O15  1  0.001269  0.001269  0.797831  1
  O  O16  1  0.998731  0.998731  0.202169  1
  O  O17  1  0.501436  0.501436  0.829854  1
  O  O18  1  0.498564  0.498564  0.170146  1
