# generated using pymatgen
data_Dy2HoAl3Zn2Au
_symmetry_space_group_name_H-M   'P 1'
_cell_length_a   7.01942740
_cell_length_b   7.04363476
_cell_length_c   4.29251900
_cell_angle_alpha   90.00000000
_cell_angle_beta   90.00000000
_cell_angle_gamma   120.11414230
_symmetry_Int_Tables_number   1
_chemical_formula_structural   Dy2HoAl3Zn2Au
_chemical_formula_sum   'Dy2 Ho1 Al3 Zn2 Au1'
_cell_volume   183.58648577
_cell_formula_units_Z   1
loop_
 _symmetry_equiv_pos_site_id
 _symmetry_equiv_pos_as_xyz
  1  'x, y, z'
loop_
 _atom_site_type_symbol
 _atom_site_label
 _atom_site_symmetry_multiplicity
 _atom_site_fract_x
 _atom_site_fract_y
 _atom_site_fract_z
 _atom_site_occupancy
  Dy  Dy0  1  0.421838  0.422825  0.500000  1
  Dy  Dy1  1  0.578162  0.000987  0.500000  1
  Ho  Ho2  1  0.000000  0.578799  0.500000  1
  Al  Al3  1  0.757958  0.757682  0.000000  1
  Al  Al4  1  0.242042  0.999724  0.000000  1
  Al  Al5  1  0.000000  0.242372  0.000000  1
  Zn  Zn6  1  0.668727  0.334695  0.000000  1
  Zn  Zn7  1  0.331273  0.665969  0.000000  1
  Au  Au8  1  0.000000  0.996946  0.500000  1
