# generated using pymatgen
data_Zr6N5
_symmetry_space_group_name_H-M   'P 1'
_cell_length_a   5.65153798
_cell_length_b   5.65153859
_cell_length_c   5.66268558
_cell_angle_alpha   99.61062561
_cell_angle_beta   99.61063791
_cell_angle_gamma   119.80914559
_symmetry_Int_Tables_number   1
_chemical_formula_structural   Zr6N5
_chemical_formula_sum   'Zr6 N5'
_cell_volume   147.98089167
_cell_formula_units_Z   1
loop_
 _symmetry_equiv_pos_site_id
 _symmetry_equiv_pos_as_xyz
  1  'x, y, z'
loop_
 _atom_site_type_symbol
 _atom_site_label
 _atom_site_symmetry_multiplicity
 _atom_site_fract_x
 _atom_site_fract_y
 _atom_site_fract_z
 _atom_site_occupancy
  Zr  Zr0  1  0.429225  0.081936  0.252836  1
  Zr  Zr1  1  0.081936  0.429225  0.252836  1
  Zr  Zr2  1  0.739979  0.739979  0.258887  1
  Zr  Zr3  1  0.260022  0.260022  0.741114  1
  Zr  Zr4  1  0.918065  0.570776  0.747163  1
  Zr  Zr5  1  0.570776  0.918065  0.747163  1
  N  N6  1  0.664626  0.335373  0.000000  1
  N  N7  1  0.335373  0.664626  0.000000  1
  N  N8  1  0.833752  0.166249  0.500000  1
  N  N9  1  0.500000  0.500000  0.500000  1
  N  N10  1  0.166249  0.833752  0.500000  1
