# generated using pymatgen
data_Tb3HoZr4F28
_symmetry_space_group_name_H-M   'P 1'
_cell_length_a   5.76123070
_cell_length_b   9.11657312
_cell_length_c   12.26356773
_cell_angle_alpha   62.33981951
_cell_angle_beta   90.01736405
_cell_angle_gamma   90.00688579
_symmetry_Int_Tables_number   1
_chemical_formula_structural   Tb3HoZr4F28
_chemical_formula_sum   'Tb3 Ho1 Zr4 F28'
_cell_volume   570.50364011
_cell_formula_units_Z   1
loop_
 _symmetry_equiv_pos_site_id
 _symmetry_equiv_pos_as_xyz
  1  'x, y, z'
loop_
 _atom_site_type_symbol
 _atom_site_label
 _atom_site_symmetry_multiplicity
 _atom_site_fract_x
 _atom_site_fract_y
 _atom_site_fract_z
 _atom_site_occupancy
  Tb  Tb0  1  0.743235  0.815215  0.266354  1
  Tb  Tb1  1  0.243391  0.184804  0.233665  1
  Tb  Tb2  1  0.257083  0.183479  0.733824  1
  Ho  Ho3  1  0.756682  0.815344  0.766083  1
  Zr  Zr4  1  0.744734  0.273918  0.455282  1
  Zr  Zr5  1  0.244246  0.725855  0.044482  1
  Zr  Zr6  1  0.254977  0.725795  0.545499  1
  Zr  Zr7  1  0.755271  0.274708  0.954801  1
  F  F8  1  0.467767  0.712108  0.920773  1
  F  F9  1  0.967006  0.288906  0.578705  1
  F  F10  1  0.533456  0.288720  0.078689  1
  F  F11  1  0.034478  0.710916  0.421369  1
  F  F12  1  0.453922  0.281478  0.549299  1
  F  F13  1  0.952758  0.719577  0.949736  1
  F  F14  1  0.545042  0.718395  0.450963  1
  F  F15  1  0.045826  0.281383  0.049291  1
  F  F16  1  0.767406  0.526470  0.857863  1
  F  F17  1  0.267201  0.474646  0.641609  1
  F  F18  1  0.233177  0.474950  0.142242  1
  F  F19  1  0.732895  0.525050  0.357890  1
  F  F20  1  0.759909  0.023917  0.057754  1
  F  F21  1  0.259998  0.976472  0.441793  1
  F  F22  1  0.240108  0.976742  0.941790  1
  F  F23  1  0.739745  0.023001  0.559013  1
  F  F24  1  0.983011  0.734232  0.649500  1
  F  F25  1  0.484338  0.266443  0.850666  1
  F  F26  1  0.014453  0.266493  0.350460  1
  F  F27  1  0.513994  0.733560  0.149485  1
  F  F28  1  0.034924  0.746071  0.172670  1
  F  F29  1  0.533847  0.254170  0.327518  1
  F  F30  1  0.966383  0.253444  0.827706  1
  F  F31  1  0.467941  0.746735  0.672770  1
  F  F32  1  0.428180  0.972714  0.234881  1
  F  F33  1  0.927808  0.027427  0.265272  1
  F  F34  1  0.574834  0.025751  0.765326  1
  F  F35  1  0.069977  0.971106  0.734974  1
