# generated using pymatgen
data_TmFe3P3IrW
_symmetry_space_group_name_H-M   'P 1'
_cell_length_a   3.72043200
_cell_length_b   10.43366200
_cell_length_c   12.24316300
_cell_angle_alpha   90.00000000
_cell_angle_beta   90.00000000
_cell_angle_gamma   90.00000000
_symmetry_Int_Tables_number   1
_chemical_formula_structural   TmFe3P3IrW
_chemical_formula_sum   'Tm4 Fe12 P12 Ir4 W4'
_cell_volume   475.25179546
_cell_formula_units_Z   4
loop_
 _symmetry_equiv_pos_site_id
 _symmetry_equiv_pos_as_xyz
  1  'x, y, z'
loop_
 _atom_site_type_symbol
 _atom_site_label
 _atom_site_symmetry_multiplicity
 _atom_site_fract_x
 _atom_site_fract_y
 _atom_site_fract_z
 _atom_site_occupancy
  Tm  Tm0  1  0.250000  0.583334  0.714600  1
  Tm  Tm1  1  0.250000  0.916666  0.214600  1
  Tm  Tm2  1  0.750000  0.416666  0.285400  1
  Tm  Tm3  1  0.750000  0.083334  0.785400  1
  Fe  Fe4  1  0.250000  0.216892  0.171739  1
  Fe  Fe5  1  0.250000  0.283108  0.671739  1
  Fe  Fe6  1  0.750000  0.783108  0.828261  1
  Fe  Fe7  1  0.750000  0.716892  0.328261  1
  Fe  Fe8  1  0.250000  0.881198  0.693435  1
  Fe  Fe9  1  0.250000  0.618802  0.193435  1
  Fe  Fe10  1  0.750000  0.118802  0.306565  1
  Fe  Fe11  1  0.750000  0.381198  0.806565  1
  Fe  Fe12  1  0.250000  0.462584  0.937162  1
  Fe  Fe13  1  0.250000  0.037416  0.437162  1
  Fe  Fe14  1  0.750000  0.537416  0.062838  1
  Fe  Fe15  1  0.750000  0.962584  0.562838  1
  P  P16  1  0.250000  0.423007  0.114331  1
  P  P17  1  0.250000  0.076993  0.614331  1
  P  P18  1  0.750000  0.576993  0.885669  1
  P  P19  1  0.750000  0.923007  0.385669  1
  P  P20  1  0.250000  0.274505  0.854230  1
  P  P21  1  0.250000  0.225495  0.354230  1
  P  P22  1  0.750000  0.725495  0.145770  1
  P  P23  1  0.750000  0.774505  0.645770  1
  P  P24  1  0.250000  0.600843  0.373853  1
  P  P25  1  0.250000  0.899157  0.873853  1
  P  P26  1  0.750000  0.399157  0.626147  1
  P  P27  1  0.750000  0.100843  0.126147  1
  Ir  Ir28  1  0.250000  0.403014  0.473869  1
  Ir  Ir29  1  0.250000  0.096986  0.973869  1
  Ir  Ir30  1  0.750000  0.596986  0.526131  1
  Ir  Ir31  1  0.750000  0.903014  0.026131  1
  W  W32  1  0.250000  0.699561  0.988212  1
  W  W33  1  0.250000  0.800439  0.488212  1
  W  W34  1  0.750000  0.300439  0.011788  1
  W  W35  1  0.750000  0.199561  0.511788  1
