# generated using pymatgen
data_RbEuSe2O7
_symmetry_space_group_name_H-M   'P 1'
_cell_length_a   5.78830684
_cell_length_b   5.78830618
_cell_length_c   15.49304600
_cell_angle_alpha   79.23369994
_cell_angle_beta   100.76629881
_cell_angle_gamma   120.00000580
_symmetry_Int_Tables_number   1
_chemical_formula_structural   RbEuSe2O7
_chemical_formula_sum   'Rb2 Eu2 Se4 O14'
_cell_volume   438.95961418
_cell_formula_units_Z   2
loop_
 _symmetry_equiv_pos_site_id
 _symmetry_equiv_pos_as_xyz
  1  'x, y, z'
loop_
 _atom_site_type_symbol
 _atom_site_label
 _atom_site_symmetry_multiplicity
 _atom_site_fract_x
 _atom_site_fract_y
 _atom_site_fract_z
 _atom_site_occupancy
  Rb  Rb0  1  0.000000  0.000000  0.000000  1
  Rb  Rb1  1  0.499999  0.500000  0.500000  1
  Eu  Eu2  1  0.096228  0.903773  0.288685  1
  Eu  Eu3  1  0.903772  0.096228  0.711315  1
  Se  Se4  1  0.383187  0.616812  0.149561  1
  Se  Se5  1  0.776963  0.223037  0.330890  1
  Se  Se6  1  0.223037  0.776964  0.669111  1
  Se  Se7  1  0.616811  0.383188  0.850439  1
  O  O8  1  0.346982  0.653017  0.040951  1
  O  O9  1  0.708636  0.759598  0.189439  1
  O  O10  1  0.240402  0.291363  0.189439  1
  O  O11  1  0.240402  0.759598  0.189439  1
  O  O12  1  0.947060  0.052939  0.381340  1
  O  O13  1  0.947060  0.512782  0.381340  1
  O  O14  1  0.487216  0.052938  0.381340  1
  O  O15  1  0.512783  0.947062  0.618660  1
  O  O16  1  0.052938  0.487216  0.618660  1
  O  O17  1  0.052938  0.947061  0.618660  1
  O  O18  1  0.759599  0.240402  0.810561  1
  O  O19  1  0.759599  0.708636  0.810561  1
  O  O20  1  0.291364  0.240403  0.810561  1
  O  O21  1  0.653016  0.346983  0.959049  1
