# generated using pymatgen
data_Eu4MnTc3O14
_symmetry_space_group_name_H-M   'P 1'
_cell_length_a   7.42775293
_cell_length_b   7.35623837
_cell_length_c   7.42775400
_cell_angle_alpha   59.67789110
_cell_angle_beta   60.00000415
_cell_angle_gamma   59.67788710
_symmetry_Int_Tables_number   1
_chemical_formula_structural   Eu4MnTc3O14
_chemical_formula_sum   'Eu4 Mn1 Tc3 O14'
_cell_volume   285.57755519
_cell_formula_units_Z   1
loop_
 _symmetry_equiv_pos_site_id
 _symmetry_equiv_pos_as_xyz
  1  'x, y, z'
loop_
 _atom_site_type_symbol
 _atom_site_label
 _atom_site_symmetry_multiplicity
 _atom_site_fract_x
 _atom_site_fract_y
 _atom_site_fract_z
 _atom_site_occupancy
  Eu  Eu0  1  0.125000  0.625000  0.125000  1
  Eu  Eu1  1  0.125000  0.125000  0.625000  1
  Eu  Eu2  1  0.625000  0.125000  0.125000  1
  Eu  Eu3  1  0.125000  0.125000  0.125000  1
  Mn  Mn4  1  0.625000  0.125000  0.625000  1
  Tc  Tc5  1  0.625000  0.625000  0.625000  1
  Tc  Tc6  1  0.125000  0.625000  0.625000  1
  Tc  Tc7  1  0.625000  0.625000  0.125000  1
  O  O8  1  0.302381  0.692346  0.702891  1
  O  O9  1  0.546639  0.946025  0.960697  1
  O  O10  1  0.702891  0.692346  0.302381  1
  O  O11  1  0.289303  0.303975  0.703361  1
  O  O12  1  0.999408  0.001778  0.999408  1
  O  O13  1  0.302381  0.692346  0.302381  1
  O  O14  1  0.703361  0.303975  0.703361  1
  O  O15  1  0.947619  0.557654  0.947619  1
  O  O16  1  0.547109  0.557654  0.947619  1
  O  O17  1  0.960697  0.946025  0.546639  1
  O  O18  1  0.250592  0.248222  0.250592  1
  O  O19  1  0.546639  0.946025  0.546639  1
  O  O20  1  0.703361  0.303975  0.289303  1
  O  O21  1  0.947619  0.557654  0.547109  1
