# generated using pymatgen
data_Th4Co5Si10Os
_symmetry_space_group_name_H-M   'P 1'
_cell_length_a   8.05109618
_cell_length_b   8.05109833
_cell_length_c   8.05105691
_cell_angle_alpha   138.22501332
_cell_angle_beta   105.50726208
_cell_angle_gamma   89.24804419
_symmetry_Int_Tables_number   1
_chemical_formula_structural   Th4Co5Si10Os
_chemical_formula_sum   'Th4 Co5 Si10 Os1'
_cell_volume   320.60513957
_cell_formula_units_Z   1
loop_
 _symmetry_equiv_pos_site_id
 _symmetry_equiv_pos_as_xyz
  1  'x, y, z'
loop_
 _atom_site_type_symbol
 _atom_site_label
 _atom_site_symmetry_multiplicity
 _atom_site_fract_x
 _atom_site_fract_y
 _atom_site_fract_z
 _atom_site_occupancy
  Th  Th0  1  0.866068  0.635441  0.240098  1
  Th  Th1  1  0.133864  0.373994  0.769329  1
  Th  Th2  1  0.395340  0.125988  0.259874  1
  Th  Th3  1  0.604650  0.864558  0.730631  1
  Co  Co4  1  0.000047  0.250018  0.250030  1
  Co  Co5  1  0.250098  0.866533  0.390747  1
  Co  Co6  1  0.749919  0.140688  0.616405  1
  Co  Co7  1  0.475752  0.359318  0.109237  1
  Co  Co8  1  0.524223  0.633493  0.883597  1
  Si  Si9  1  0.499998  0.749987  0.249969  1
  Si  Si10  1  0.500006  0.250038  0.750010  1
  Si  Si11  1  0.233184  0.983121  0.749948  1
  Si  Si12  1  0.766787  0.516865  0.750063  1
  Si  Si13  1  0.763838  0.013791  0.249934  1
  Si  Si14  1  0.236132  0.486168  0.250040  1
  Si  Si15  1  0.045578  0.904048  0.163434  1
  Si  Si16  1  0.954406  0.117853  0.858479  1
  Si  Si17  1  0.740645  0.382137  0.336580  1
  Si  Si18  1  0.259432  0.595953  0.641573  1
  Os  Os19  1  0.000034  0.750008  0.750020  1
