# generated using pymatgen
data_Lu8Th4ReTc3
_symmetry_space_group_name_H-M   'P 1'
_cell_length_a   6.26449800
_cell_length_b   7.26966979
_cell_length_c   9.33382700
_cell_angle_alpha   90.00000000
_cell_angle_beta   90.00000000
_cell_angle_gamma   89.86974262
_symmetry_Int_Tables_number   1
_chemical_formula_structural   Lu8Th4ReTc3
_chemical_formula_sum   'Lu8 Th4 Re1 Tc3'
_cell_volume   425.06914733
_cell_formula_units_Z   1
loop_
 _symmetry_equiv_pos_site_id
 _symmetry_equiv_pos_as_xyz
  1  'x, y, z'
loop_
 _atom_site_type_symbol
 _atom_site_label
 _atom_site_symmetry_multiplicity
 _atom_site_fract_x
 _atom_site_fract_y
 _atom_site_fract_z
 _atom_site_occupancy
  Lu  Lu0  1  0.335182  0.673743  0.064122  1
  Lu  Lu1  1  0.164074  0.174396  0.433456  1
  Lu  Lu2  1  0.663812  0.326038  0.565581  1
  Lu  Lu3  1  0.834441  0.826334  0.933783  1
  Lu  Lu4  1  0.663812  0.326038  0.934419  1
  Lu  Lu5  1  0.834441  0.826334  0.566217  1
  Lu  Lu6  1  0.335182  0.673743  0.435878  1
  Lu  Lu7  1  0.164074  0.174396  0.066544  1
  Th  Th8  1  0.859280  0.547289  0.250000  1
  Th  Th9  1  0.635679  0.045274  0.250000  1
  Th  Th10  1  0.138739  0.453337  0.750000  1
  Th  Th11  1  0.360154  0.956753  0.750000  1
  Re  Re12  1  0.537149  0.627263  0.750000  1
  Tc  Tc13  1  0.022006  0.869315  0.250000  1
  Tc  Tc14  1  0.475395  0.368332  0.250000  1
  Tc  Tc15  1  0.976580  0.131416  0.750000  1
