# generated using pymatgen
data_Hf6Ga5Sn(IrRh)3
_symmetry_space_group_name_H-M   'P 1'
_cell_length_a   7.22190795
_cell_length_b   7.22646355
_cell_length_c   6.92706615
_cell_angle_alpha   89.99834838
_cell_angle_beta   89.98415807
_cell_angle_gamma   119.90135704
_symmetry_Int_Tables_number   1
_chemical_formula_structural   Hf6Ga5Sn(IrRh)3
_chemical_formula_sum   'Hf6 Ga5 Sn1 Ir3 Rh3'
_cell_volume   313.39245360
_cell_formula_units_Z   1
loop_
 _symmetry_equiv_pos_site_id
 _symmetry_equiv_pos_as_xyz
  1  'x, y, z'
loop_
 _atom_site_type_symbol
 _atom_site_label
 _atom_site_symmetry_multiplicity
 _atom_site_fract_x
 _atom_site_fract_y
 _atom_site_fract_z
 _atom_site_occupancy
  Hf  Hf0  1  0.999983  0.403255  0.747609  1
  Hf  Hf1  1  0.605122  0.610722  0.746290  1
  Hf  Hf2  1  0.397966  0.988339  0.747988  1
  Hf  Hf3  1  0.990078  0.398315  0.252061  1
  Hf  Hf4  1  0.609839  0.606349  0.253829  1
  Hf  Hf5  1  0.402497  0.998215  0.252758  1
  Ga  Ga6  1  0.274328  0.273750  0.500109  1
  Ga  Ga7  1  0.001995  0.724444  0.499823  1
  Ga  Ga8  1  0.997484  0.740870  0.999862  1
  Ga  Ga9  1  0.724777  0.003129  0.500233  1
  Ga  Ga10  1  0.743251  0.002403  0.000250  1
  Sn  Sn11  1  0.255574  0.252843  0.000341  1
  Ir  Ir12  1  0.334744  0.665913  0.493112  1
  Ir  Ir13  1  0.666641  0.335046  0.506405  1
  Ir  Ir14  1  0.335453  0.672066  0.006947  1
  Rh  Rh15  1  0.994235  0.994307  0.724514  1
  Rh  Rh16  1  0.994113  0.994439  0.275579  1
  Rh  Rh17  1  0.671919  0.335595  0.992292  1
