# generated using pymatgen
data_La18Y2Si15Ir
_symmetry_space_group_name_H-M   'P 1'
_cell_length_a   8.03011128
_cell_length_b   8.04217675
_cell_length_c   15.26613500
_cell_angle_alpha   90.41783621
_cell_angle_beta   89.41101430
_cell_angle_gamma   89.81500207
_symmetry_Int_Tables_number   1
_chemical_formula_structural   La18Y2Si15Ir
_chemical_formula_sum   'La18 Y2 Si15 Ir1'
_cell_volume   985.79681283
_cell_formula_units_Z   1
loop_
 _symmetry_equiv_pos_site_id
 _symmetry_equiv_pos_as_xyz
  1  'x, y, z'
loop_
 _atom_site_type_symbol
 _atom_site_label
 _atom_site_symmetry_multiplicity
 _atom_site_fract_x
 _atom_site_fract_y
 _atom_site_fract_z
 _atom_site_occupancy
  La  La0  1  0.979926  0.130921  0.129831  1
  La  La1  1  0.028692  0.867903  0.616149  1
  La  La2  1  0.628054  0.519387  0.874291  1
  La  La3  1  0.486250  0.377602  0.622069  1
  La  La4  1  0.511189  0.625750  0.130802  1
  La  La5  1  0.126638  0.978844  0.876336  1
  La  La6  1  0.989742  0.621446  0.056888  1
  La  La7  1  0.021137  0.368228  0.538954  1
  La  La8  1  0.622712  0.988065  0.950477  1
  La  La9  1  0.123157  0.507212  0.801732  1
  La  La10  1  0.871636  0.486658  0.301817  1
  La  La11  1  0.505151  0.122907  0.202528  1
  La  La12  1  0.495528  0.878597  0.694142  1
  La  La13  1  0.382302  0.021121  0.451470  1
  La  La14  1  0.710391  0.693224  0.496202  1
  La  La15  1  0.813041  0.189275  0.746985  1
  La  La16  1  0.180281  0.800784  0.266548  1
  La  La17  1  0.300409  0.305171  0.001890  1
  Y  Y18  1  0.373923  0.481790  0.375499  1
  Y  Y19  1  0.862590  0.017085  0.372624  1
  Si  Si20  1  0.918401  0.288522  0.941169  1
  Si  Si21  1  0.714419  0.084114  0.554318  1
  Si  Si22  1  0.215138  0.416146  0.198489  1
  Si  Si23  1  0.796487  0.577360  0.688943  1
  Si  Si24  1  0.423846  0.209401  0.807775  1
  Si  Si25  1  0.573091  0.791513  0.312370  1
  Si  Si26  1  0.286757  0.922086  0.063189  1
  Si  Si27  1  0.833226  0.803907  0.795696  1
  Si  Si28  1  0.160179  0.204196  0.312061  1
  Si  Si29  1  0.794026  0.837706  0.202347  1
  Si  Si30  1  0.310445  0.667480  0.536740  1
  Si  Si31  1  0.694420  0.332250  0.050137  1
  Si  Si32  1  0.665892  0.301259  0.443477  1
  Si  Si33  1  0.328853  0.694743  0.956306  1
  Si  Si34  1  0.203522  0.167173  0.697274  1
  Ir  Ir35  1  0.068556  0.720178  0.432472  1
