# generated using pymatgen
data_Sc4Re24W
_symmetry_space_group_name_H-M   'P 1'
_cell_length_a   8.43063967
_cell_length_b   8.43063856
_cell_length_c   8.43063914
_cell_angle_alpha   109.41437965
_cell_angle_beta   109.41437399
_cell_angle_gamma   109.41437660
_symmetry_Int_Tables_number   1
_chemical_formula_structural   Sc4Re24W
_chemical_formula_sum   'Sc4 Re24 W1'
_cell_volume   462.24291673
_cell_formula_units_Z   1
loop_
 _symmetry_equiv_pos_site_id
 _symmetry_equiv_pos_as_xyz
  1  'x, y, z'
loop_
 _atom_site_type_symbol
 _atom_site_label
 _atom_site_symmetry_multiplicity
 _atom_site_fract_x
 _atom_site_fract_y
 _atom_site_fract_z
 _atom_site_occupancy
  Sc  Sc0  1  0.000646  0.632600  0.000646  1
  Sc  Sc1  1  0.632600  0.000646  0.000646  1
  Sc  Sc2  1  0.000646  0.000646  0.632600  1
  Sc  Sc3  1  0.002075  0.002075  0.002075  1
  Re  Re4  1  0.995777  0.393885  0.675217  1
  Re  Re5  1  0.280526  0.596596  0.596596  1
  Re  Re6  1  0.720300  0.323454  0.323454  1
  Re  Re7  1  0.323454  0.720300  0.323454  1
  Re  Re8  1  0.675217  0.995777  0.393885  1
  Re  Re9  1  0.995777  0.675217  0.393885  1
  Re  Re10  1  0.596596  0.596596  0.280526  1
  Re  Re11  1  0.810250  0.810250  0.186390  1
  Re  Re12  1  0.377626  0.194902  0.001458  1
  Re  Re13  1  0.194902  0.377626  0.001458  1
  Re  Re14  1  0.624064  0.817443  0.624064  1
  Re  Re15  1  0.377626  0.001458  0.194902  1
  Re  Re16  1  0.001458  0.377626  0.194902  1
  Re  Re17  1  0.817443  0.624064  0.624064  1
  Re  Re18  1  0.186390  0.810250  0.810250  1
  Re  Re19  1  0.810250  0.186390  0.810250  1
  Re  Re20  1  0.194902  0.001458  0.377626  1
  Re  Re21  1  0.001458  0.194902  0.377626  1
  Re  Re22  1  0.624064  0.624064  0.817443  1
  Re  Re23  1  0.393885  0.995777  0.675217  1
  Re  Re24  1  0.596596  0.280526  0.596596  1
  Re  Re25  1  0.675217  0.393885  0.995777  1
  Re  Re26  1  0.393885  0.675217  0.995777  1
  Re  Re27  1  0.323454  0.323454  0.720300  1
  W  W28  1  0.372914  0.372914  0.372914  1
