# generated using pymatgen
data_Tb4Ce3Sc3Si8O3
_symmetry_space_group_name_H-M   'P 1'
_cell_length_a   10.35666700
_cell_length_b   10.33918340
_cell_length_c   4.25054700
_cell_angle_alpha   90.00000000
_cell_angle_beta   90.00000000
_cell_angle_gamma   120.05595053
_symmetry_Int_Tables_number   1
_chemical_formula_structural   Tb4Ce3Sc3Si8O3
_chemical_formula_sum   'Tb4 Ce3 Sc3 Si8 O3'
_cell_volume   393.94589290
_cell_formula_units_Z   1
loop_
 _symmetry_equiv_pos_site_id
 _symmetry_equiv_pos_as_xyz
  1  'x, y, z'
loop_
 _atom_site_type_symbol
 _atom_site_label
 _atom_site_symmetry_multiplicity
 _atom_site_fract_x
 _atom_site_fract_y
 _atom_site_fract_z
 _atom_site_occupancy
  Tb  Tb0  1  0.212779  0.785565  0.000000  1
  Tb  Tb1  1  0.214073  0.428058  0.000000  1
  Tb  Tb2  1  0.786016  0.571942  0.000000  1
  Tb  Tb3  1  0.427214  0.214435  0.000000  1
  Ce  Ce4  1  0.001874  0.000000  0.000000  1
  Ce  Ce5  1  0.570742  0.784446  0.000000  1
  Ce  Ce6  1  0.786297  0.215554  0.000000  1
  Sc  Sc7  1  0.499525  0.000000  0.500000  1
  Sc  Sc8  1  0.001898  0.501487  0.500000  1
  Sc  Sc9  1  0.500412  0.498513  0.500000  1
  Si  Si10  1  0.666136  0.334657  0.500000  1
  Si  Si11  1  0.000521  0.770384  0.500000  1
  Si  Si12  1  0.331478  0.665343  0.500000  1
  Si  Si13  1  0.230137  0.229616  0.500000  1
  Si  Si14  1  0.770820  0.770458  0.500000  1
  Si  Si15  1  0.770559  0.000000  0.500000  1
  Si  Si16  1  0.230032  0.000000  0.500000  1
  Si  Si17  1  0.000362  0.229542  0.500000  1
  O  O18  1  0.499717  0.499658  0.000000  1
  O  O19  1  0.499350  0.000000  0.000000  1
  O  O20  1  0.000059  0.500342  0.000000  1
