# generated using pymatgen
data_DyEr3(LuPt)4
_symmetry_space_group_name_H-M   'P 1'
_cell_length_a   4.73240500
_cell_length_b   7.07802386
_cell_length_c   8.59302009
_cell_angle_alpha   90.05974191
_cell_angle_beta   90.00000000
_cell_angle_gamma   90.00000000
_symmetry_Int_Tables_number   1
_chemical_formula_structural   DyEr3(LuPt)4
_chemical_formula_sum   'Dy1 Er3 Lu4 Pt4'
_cell_volume   287.83229309
_cell_formula_units_Z   1
loop_
 _symmetry_equiv_pos_site_id
 _symmetry_equiv_pos_as_xyz
  1  'x, y, z'
loop_
 _atom_site_type_symbol
 _atom_site_label
 _atom_site_symmetry_multiplicity
 _atom_site_fract_x
 _atom_site_fract_y
 _atom_site_fract_z
 _atom_site_occupancy
  Dy  Dy0  1  0.750000  0.513493  0.828871  1
  Er  Er1  1  0.250000  0.985775  0.329002  1
  Er  Er2  1  0.250000  0.485876  0.171026  1
  Er  Er3  1  0.750000  0.014160  0.670007  1
  Lu  Lu4  1  0.250000  0.355593  0.575376  1
  Lu  Lu5  1  0.250000  0.855877  0.923876  1
  Lu  Lu6  1  0.750000  0.644477  0.423548  1
  Lu  Lu7  1  0.750000  0.144011  0.076615  1
  Pt  Pt8  1  0.250000  0.253532  0.905235  1
  Pt  Pt9  1  0.250000  0.755199  0.594957  1
  Pt  Pt10  1  0.750000  0.746099  0.096805  1
  Pt  Pt11  1  0.750000  0.245908  0.404682  1
