# generated using pymatgen
data_Np3Zn2GaPt3
_symmetry_space_group_name_H-M   'P 1'
_cell_length_a   7.09541279
_cell_length_b   7.04281045
_cell_length_c   4.10743400
_cell_angle_alpha   90.00000000
_cell_angle_beta   90.00000000
_cell_angle_gamma   119.75506829
_symmetry_Int_Tables_number   1
_chemical_formula_structural   Np3Zn2GaPt3
_chemical_formula_sum   'Np3 Zn2 Ga1 Pt3'
_cell_volume   178.19334887
_cell_formula_units_Z   1
loop_
 _symmetry_equiv_pos_site_id
 _symmetry_equiv_pos_as_xyz
  1  'x, y, z'
loop_
 _atom_site_type_symbol
 _atom_site_label
 _atom_site_symmetry_multiplicity
 _atom_site_fract_x
 _atom_site_fract_y
 _atom_site_fract_z
 _atom_site_occupancy
  Np  Np0  1  0.417369  0.417047  0.500000  1
  Np  Np1  1  0.582631  0.999679  0.500000  1
  Np  Np2  1  0.000000  0.584358  0.500000  1
  Zn  Zn3  1  0.759143  0.758601  0.000000  1
  Zn  Zn4  1  0.240857  0.999457  0.000000  1
  Ga  Ga5  1  0.000000  0.239022  0.000000  1
  Pt  Pt6  1  0.667974  0.332477  0.000000  1
  Pt  Pt7  1  0.332026  0.664503  0.000000  1
  Pt  Pt8  1  0.000000  0.004856  0.500000  1
