# generated using pymatgen
data_Tb4HfPd15
_symmetry_space_group_name_H-M   'P 1'
_cell_length_a   4.10570500
_cell_length_b   4.10570500
_cell_length_c   20.54754800
_cell_angle_alpha   90.00000000
_cell_angle_beta   90.00000000
_cell_angle_gamma   90.00000000
_symmetry_Int_Tables_number   1
_chemical_formula_structural   Tb4HfPd15
_chemical_formula_sum   'Tb4 Hf1 Pd15'
_cell_volume   346.36618548
_cell_formula_units_Z   1
loop_
 _symmetry_equiv_pos_site_id
 _symmetry_equiv_pos_as_xyz
  1  'x, y, z'
loop_
 _atom_site_type_symbol
 _atom_site_label
 _atom_site_symmetry_multiplicity
 _atom_site_fract_x
 _atom_site_fract_y
 _atom_site_fract_z
 _atom_site_occupancy
  Tb  Tb0  1  0.000000  0.000000  0.197508  1
  Tb  Tb1  1  0.000000  0.000000  0.398675  1
  Tb  Tb2  1  0.000000  0.000000  0.601325  1
  Tb  Tb3  1  0.000000  0.000000  0.802492  1
  Hf  Hf4  1  0.000000  0.000000  0.000000  1
  Pd  Pd5  1  0.500000  0.500000  0.000000  1
  Pd  Pd6  1  0.500000  0.500000  0.195806  1
  Pd  Pd7  1  0.500000  0.500000  0.398849  1
  Pd  Pd8  1  0.500000  0.500000  0.601151  1
  Pd  Pd9  1  0.500000  0.500000  0.804194  1
  Pd  Pd10  1  0.500000  0.000000  0.093297  1
  Pd  Pd11  1  0.500000  0.000000  0.297541  1
  Pd  Pd12  1  0.500000  0.000000  0.500000  1
  Pd  Pd13  1  0.500000  0.000000  0.702459  1
  Pd  Pd14  1  0.500000  0.000000  0.906703  1
  Pd  Pd15  1  0.000000  0.500000  0.093297  1
  Pd  Pd16  1  0.000000  0.500000  0.297541  1
  Pd  Pd17  1  0.000000  0.500000  0.500000  1
  Pd  Pd18  1  0.000000  0.500000  0.702459  1
  Pd  Pd19  1  0.000000  0.500000  0.906703  1
