# generated using pymatgen
data_TePdF34
_symmetry_space_group_name_H-M   'P 1'
_cell_length_a   9.07221732
_cell_length_b   8.44569577
_cell_length_c   10.33244110
_cell_angle_alpha   83.93416961
_cell_angle_beta   87.63643156
_cell_angle_gamma   63.50979399
_symmetry_Int_Tables_number   1
_chemical_formula_structural   TePdF34
_chemical_formula_sum   'Te1 Pd1 F34'
_cell_volume   704.58289599
_cell_formula_units_Z   1
loop_
 _symmetry_equiv_pos_site_id
 _symmetry_equiv_pos_as_xyz
  1  'x, y, z'
loop_
 _atom_site_type_symbol
 _atom_site_label
 _atom_site_symmetry_multiplicity
 _atom_site_fract_x
 _atom_site_fract_y
 _atom_site_fract_z
 _atom_site_occupancy
  Te  Te0  1  0.866102  0.249545  0.760432  1
  Pd  Pd1  1  0.130887  0.752242  0.250662  1
  F  F2  1  0.606534  0.209121  0.477360  1
  F  F3  1  0.399261  0.790489  0.509802  1
  F  F4  1  0.837012  0.724490  0.725589  1
  F  F5  1  0.169826  0.312959  0.274853  1
  F  F6  1  0.109127  0.735192  0.874800  1
  F  F7  1  0.917480  0.232202  0.143911  1
  F  F8  1  0.563911  0.140317  0.372039  1
  F  F9  1  0.437499  0.853511  0.621089  1
  F  F10  1  0.651480  0.332182  0.697857  1
  F  F11  1  0.350368  0.667043  0.313205  1
  F  F12  1  0.939091  0.061117  0.657161  1
  F  F13  1  0.058393  0.944783  0.355670  1
  F  F14  1  0.907808  0.386211  0.623625  1
  F  F15  1  0.088076  0.615993  0.390362  1
  F  F16  1  0.866126  0.782061  0.596812  1
  F  F17  1  0.159682  0.187079  0.373574  1
  F  F18  1  0.794989  0.439026  0.862994  1
  F  F19  1  0.200509  0.557155  0.147656  1
  F  F20  1  0.219296  0.689898  0.767840  1
  F  F21  1  0.775807  0.308639  0.222967  1
  F  F22  1  0.913275  0.837465  0.185800  1
  F  F23  1  0.079200  0.168002  0.825187  1
  F  F24  1  0.822020  0.112108  0.895536  1
  F  F25  1  0.176166  0.888472  0.111738  1
  F  F26  1  0.470632  0.596285  0.998615  1
  F  F27  1  0.513428  0.411578  0.007291  1
  F  F28  1  0.440493  0.105358  0.870459  1
  F  F29  1  0.533057  0.901061  0.127803  1
  F  F30  1  0.289219  0.249678  0.603886  1
  F  F31  1  0.718307  0.749053  0.374925  1
  F  F32  1  0.255364  0.404002  0.667536  1
  F  F33  1  0.741349  0.590307  0.322642  1
  F  F34  1  0.546230  0.934855  0.829995  1
  F  F35  1  0.451994  0.080520  0.158328  1
