# generated using pymatgen
data_K2ZrZn3As4
_symmetry_space_group_name_H-M   'P 1'
_cell_length_a   7.75955081
_cell_length_b   7.75955045
_cell_length_c   6.00723400
_cell_angle_alpha   90.00000000
_cell_angle_beta   90.00000000
_cell_angle_gamma   134.39902135
_symmetry_Int_Tables_number   1
_chemical_formula_structural   K2ZrZn3As4
_chemical_formula_sum   'K2 Zr1 Zn3 As4'
_cell_volume   258.42860482
_cell_formula_units_Z   1
loop_
 _symmetry_equiv_pos_site_id
 _symmetry_equiv_pos_as_xyz
  1  'x, y, z'
loop_
 _atom_site_type_symbol
 _atom_site_label
 _atom_site_symmetry_multiplicity
 _atom_site_fract_x
 _atom_site_fract_y
 _atom_site_fract_z
 _atom_site_occupancy
  K  K0  1  0.500000  0.000000  0.250939  1
  K  K1  1  0.000000  0.500000  0.749061  1
  Zr  Zr2  1  0.000000  0.000000  0.000000  1
  Zn  Zn3  1  0.500000  0.500000  0.500000  1
  Zn  Zn4  1  0.500000  0.500000  0.000000  1
  Zn  Zn5  1  0.000000  0.000000  0.500000  1
  As  As6  1  0.642443  0.853377  0.748230  1
  As  As7  1  0.146623  0.357557  0.251770  1
  As  As8  1  0.853377  0.642443  0.251770  1
  As  As9  1  0.357557  0.146623  0.748230  1
