# generated using pymatgen
data_La8Tb12Si15Sb
_symmetry_space_group_name_H-M   'P 1'
_cell_length_a   7.87803244
_cell_length_b   7.85525229
_cell_length_c   14.68311500
_cell_angle_alpha   89.92649160
_cell_angle_beta   89.65788292
_cell_angle_gamma   90.16007628
_symmetry_Int_Tables_number   1
_chemical_formula_structural   La8Tb12Si15Sb
_chemical_formula_sum   'La8 Tb12 Si15 Sb1'
_cell_volume   908.62838387
_cell_formula_units_Z   1
loop_
 _symmetry_equiv_pos_site_id
 _symmetry_equiv_pos_as_xyz
  1  'x, y, z'
loop_
 _atom_site_type_symbol
 _atom_site_label
 _atom_site_symmetry_multiplicity
 _atom_site_fract_x
 _atom_site_fract_y
 _atom_site_fract_z
 _atom_site_occupancy
  La  La0  1  0.990276  0.634759  0.043465  1
  La  La1  1  0.012139  0.356748  0.546221  1
  La  La2  1  0.636885  0.989913  0.956368  1
  La  La3  1  0.138881  0.510606  0.792860  1
  La  La4  1  0.852911  0.483460  0.287267  1
  La  La5  1  0.506785  0.135239  0.204090  1
  La  La6  1  0.494611  0.864345  0.708261  1
  La  La7  1  0.366189  0.011591  0.456001  1
  Tb  Tb8  1  0.368499  0.488044  0.374903  1
  Tb  Tb9  1  0.852779  0.020467  0.369261  1
  Tb  Tb10  1  0.988211  0.137121  0.124544  1
  Tb  Tb11  1  0.014581  0.864282  0.629075  1
  Tb  Tb12  1  0.637246  0.509498  0.875453  1
  Tb  Tb13  1  0.493861  0.360218  0.627247  1
  Tb  Tb14  1  0.508929  0.636681  0.123738  1
  Tb  Tb15  1  0.136007  0.990354  0.875514  1
  Tb  Tb16  1  0.673321  0.687273  0.502919  1
  Tb  Tb17  1  0.817808  0.185163  0.750543  1
  Tb  Tb18  1  0.184178  0.816606  0.242743  1
  Tb  Tb19  1  0.315061  0.314997  0.999815  1
  Si  Si20  1  0.931114  0.287578  0.938393  1
  Si  Si21  1  0.716228  0.067283  0.561845  1
  Si  Si22  1  0.211332  0.432504  0.189301  1
  Si  Si23  1  0.793386  0.568196  0.689007  1
  Si  Si24  1  0.432794  0.213381  0.812959  1
  Si  Si25  1  0.564422  0.787965  0.310754  1
  Si  Si26  1  0.287245  0.932251  0.059383  1
  Si  Si27  1  0.844890  0.796286  0.807470  1
  Si  Si28  1  0.156514  0.202289  0.306778  1
  Si  Si29  1  0.795959  0.843116  0.191254  1
  Si  Si30  1  0.312302  0.653409  0.568084  1
  Si  Si31  1  0.701867  0.343953  0.056842  1
  Si  Si32  1  0.659987  0.302765  0.446244  1
  Si  Si33  1  0.343473  0.702346  0.942742  1
  Si  Si34  1  0.203462  0.156599  0.695216  1
  Sb  Sb35  1  0.055868  0.712714  0.433439  1
