# generated using pymatgen
data_SmMg2(H6Ir)2
_symmetry_space_group_name_H-M   'P 1'
_cell_length_a   4.66053500
_cell_length_b   4.66053587
_cell_length_c   7.78957800
_cell_angle_alpha   90.00000000
_cell_angle_beta   90.00000000
_cell_angle_gamma   119.99998672
_symmetry_Int_Tables_number   1
_chemical_formula_structural   SmMg2(H6Ir)2
_chemical_formula_sum   'Sm1 Mg2 H12 Ir2'
_cell_volume   146.52652466
_cell_formula_units_Z   1
loop_
 _symmetry_equiv_pos_site_id
 _symmetry_equiv_pos_as_xyz
  1  'x, y, z'
loop_
 _atom_site_type_symbol
 _atom_site_label
 _atom_site_symmetry_multiplicity
 _atom_site_fract_x
 _atom_site_fract_y
 _atom_site_fract_z
 _atom_site_occupancy
  Sm  Sm0  1  0.000000  0.000000  0.000000  1
  Mg  Mg1  1  0.666667  0.333333  0.367538  1
  Mg  Mg2  1  0.333333  0.666667  0.632462  1
  H  H3  1  0.160860  0.839140  0.379821  1
  H  H4  1  0.678279  0.839140  0.379821  1
  H  H5  1  0.160860  0.321721  0.379821  1
  H  H6  1  0.839140  0.160860  0.620179  1
  H  H7  1  0.321721  0.160860  0.620179  1
  H  H8  1  0.839140  0.678279  0.620179  1
  H  H9  1  0.497066  0.994133  0.866030  1
  H  H10  1  0.497066  0.502934  0.866030  1
  H  H11  1  0.005867  0.502934  0.866030  1
  H  H12  1  0.502934  0.005867  0.133970  1
  H  H13  1  0.502934  0.497066  0.133970  1
  H  H14  1  0.994133  0.497066  0.133970  1
  Ir  Ir15  1  0.666667  0.333333  0.735049  1
  Ir  Ir16  1  0.333333  0.666667  0.264951  1
