# generated using pymatgen
data_Ta7Nb(Fe4Si7)2
_symmetry_space_group_name_H-M   'P 1'
_cell_length_a   9.22018459
_cell_length_b   9.22018543
_cell_length_c   9.20979244
_cell_angle_alpha   94.26953002
_cell_angle_beta   94.26953318
_cell_angle_gamma   148.35236333
_symmetry_Int_Tables_number   1
_chemical_formula_structural   Ta7Nb(Fe4Si7)2
_chemical_formula_sum   'Ta7 Nb1 Fe8 Si14'
_cell_volume   395.19672956
_cell_formula_units_Z   1
loop_
 _symmetry_equiv_pos_site_id
 _symmetry_equiv_pos_as_xyz
  1  'x, y, z'
loop_
 _atom_site_type_symbol
 _atom_site_label
 _atom_site_symmetry_multiplicity
 _atom_site_fract_x
 _atom_site_fract_y
 _atom_site_fract_z
 _atom_site_occupancy
  Ta  Ta0  1  0.307959  0.499727  0.807739  1
  Ta  Ta1  1  0.691644  0.499782  0.191432  1
  Ta  Ta2  1  0.500273  0.692041  0.192261  1
  Ta  Ta3  1  0.500218  0.308356  0.808568  1
  Ta  Ta4  1  0.135108  0.134574  0.269819  1
  Ta  Ta5  1  0.865426  0.864892  0.730181  1
  Ta  Ta6  1  0.134601  0.865399  0.000000  1
  Nb  Nb7  1  0.865756  0.134244  0.000000  1
  Fe  Fe8  1  0.398978  0.899476  0.798927  1
  Fe  Fe9  1  0.100524  0.601022  0.201073  1
  Fe  Fe10  1  0.899795  0.100205  0.500000  1
  Fe  Fe11  1  0.600351  0.399649  0.500000  1
  Fe  Fe12  1  0.600274  0.100886  0.201308  1
  Fe  Fe13  1  0.899114  0.399726  0.798692  1
  Fe  Fe14  1  0.100124  0.899876  0.500000  1
  Fe  Fe15  1  0.399714  0.600286  0.500000  1
  Si  Si16  1  0.291113  0.291014  0.581327  1
  Si  Si17  1  0.708986  0.708887  0.418673  1
  Si  Si18  1  0.290530  0.709470  0.000000  1
  Si  Si19  1  0.709704  0.290296  0.000000  1
  Si  Si20  1  0.094685  0.499628  0.594236  1
  Si  Si21  1  0.905862  0.500946  0.405605  1
  Si  Si22  1  0.500372  0.905315  0.405764  1
  Si  Si23  1  0.499054  0.094138  0.594395  1
  Si  Si24  1  0.249385  0.249504  0.999998  1
  Si  Si25  1  0.750496  0.750615  0.000002  1
  Si  Si26  1  0.298450  0.000000  0.298683  1
  Si  Si27  1  0.701515  0.000007  0.701737  1
  Si  Si28  1  0.000000  0.701550  0.701317  1
  Si  Si29  1  0.999993  0.298485  0.298263  1
