# generated using pymatgen
data_Er5(GaTe)2
_symmetry_space_group_name_H-M   'P 1'
_cell_length_a   7.85373989
_cell_length_b   7.85374014
_cell_length_c   14.82548600
_cell_angle_alpha   90.00000000
_cell_angle_beta   90.00000000
_cell_angle_gamma   149.93886981
_symmetry_Int_Tables_number   1
_chemical_formula_structural   Er5(GaTe)2
_chemical_formula_sum   'Er10 Ga4 Te4'
_cell_volume   458.07180175
_cell_formula_units_Z   2
loop_
 _symmetry_equiv_pos_site_id
 _symmetry_equiv_pos_as_xyz
  1  'x, y, z'
loop_
 _atom_site_type_symbol
 _atom_site_label
 _atom_site_symmetry_multiplicity
 _atom_site_fract_x
 _atom_site_fract_y
 _atom_site_fract_z
 _atom_site_occupancy
  Er  Er0  1  0.034185  0.965815  0.884261  1
  Er  Er1  1  0.965815  0.034185  0.115739  1
  Er  Er2  1  0.746863  0.253137  0.618881  1
  Er  Er3  1  0.965815  0.034185  0.384261  1
  Er  Er4  1  0.391458  0.608542  0.750000  1
  Er  Er5  1  0.253137  0.746863  0.381119  1
  Er  Er6  1  0.253137  0.746863  0.118881  1
  Er  Er7  1  0.746863  0.253137  0.881119  1
  Er  Er8  1  0.608542  0.391458  0.250000  1
  Er  Er9  1  0.034185  0.965815  0.615739  1
  Ga  Ga10  1  0.416567  0.583433  0.250000  1
  Ga  Ga11  1  0.192922  0.807078  0.750000  1
  Ga  Ga12  1  0.583433  0.416567  0.750000  1
  Ga  Ga13  1  0.807078  0.192922  0.250000  1
  Te  Te14  1  0.384822  0.615178  0.537515  1
  Te  Te15  1  0.615178  0.384822  0.462485  1
  Te  Te16  1  0.384822  0.615178  0.962485  1
  Te  Te17  1  0.615178  0.384822  0.037515  1
