# generated using pymatgen
data_Li(Zn5Pd)2
_symmetry_space_group_name_H-M   'P 1'
_cell_length_a   7.92702413
_cell_length_b   7.92702443
_cell_length_c   7.92527697
_cell_angle_alpha   70.68052674
_cell_angle_beta   70.68052480
_cell_angle_gamma   109.56947126
_symmetry_Int_Tables_number   1
_chemical_formula_structural   Li(Zn5Pd)2
_chemical_formula_sum   'Li2 Zn20 Pd4'
_cell_volume   384.33157058
_cell_formula_units_Z   2
loop_
 _symmetry_equiv_pos_site_id
 _symmetry_equiv_pos_as_xyz
  1  'x, y, z'
loop_
 _atom_site_type_symbol
 _atom_site_label
 _atom_site_symmetry_multiplicity
 _atom_site_fract_x
 _atom_site_fract_y
 _atom_site_fract_z
 _atom_site_occupancy
  Li  Li0  1  0.998364  0.352996  0.647071  1
  Li  Li1  1  0.352996  0.998364  0.647071  1
  Zn  Zn2  1  0.003245  0.003245  0.786049  1
  Zn  Zn3  1  0.776062  0.776062  0.223343  1
  Zn  Zn4  1  0.218415  0.000413  0.996948  1
  Zn  Zn5  1  0.000413  0.218415  0.996948  1
  Zn  Zn6  1  0.270669  0.270669  0.384216  1
  Zn  Zn7  1  0.004968  0.731726  0.647034  1
  Zn  Zn8  1  0.731726  0.004968  0.647034  1
  Zn  Zn9  1  0.650645  0.650645  0.625513  1
  Zn  Zn10  1  0.370379  0.647033  0.352316  1
  Zn  Zn11  1  0.647033  0.370379  0.352316  1
  Zn  Zn12  1  0.351124  0.729598  0.992057  1
  Zn  Zn13  1  0.623860  0.270236  0.723944  1
  Zn  Zn14  1  0.352318  0.001468  0.274793  1
  Zn  Zn15  1  0.729598  0.351124  0.992057  1
  Zn  Zn16  1  0.001468  0.352318  0.274793  1
  Zn  Zn17  1  0.270236  0.623860  0.723944  1
  Zn  Zn18  1  0.644746  0.644746  0.997764  1
  Zn  Zn19  1  0.001356  0.645280  0.356399  1
  Zn  Zn20  1  0.645280  0.001356  0.356399  1
  Zn  Zn21  1  0.355215  0.355215  0.003583  1
  Pd  Pd22  1  0.001774  0.001774  0.344073  1
  Pd  Pd23  1  0.349122  0.349122  0.653421  1
  Pd  Pd24  1  0.651444  0.997545  0.000458  1
  Pd  Pd25  1  0.997545  0.651444  0.000458  1
