# generated using pymatgen
data_Ru(RhO3)2
_symmetry_space_group_name_H-M   'P 1'
_cell_length_a   4.55774900
_cell_length_b   4.55774900
_cell_length_c   9.40201900
_cell_angle_alpha   90.00000000
_cell_angle_beta   90.00000000
_cell_angle_gamma   90.00000000
_symmetry_Int_Tables_number   1
_chemical_formula_structural   Ru(RhO3)2
_chemical_formula_sum   'Ru2 Rh4 O12'
_cell_volume   195.30885474
_cell_formula_units_Z   2
loop_
 _symmetry_equiv_pos_site_id
 _symmetry_equiv_pos_as_xyz
  1  'x, y, z'
loop_
 _atom_site_type_symbol
 _atom_site_label
 _atom_site_symmetry_multiplicity
 _atom_site_fract_x
 _atom_site_fract_y
 _atom_site_fract_z
 _atom_site_occupancy
  Ru  Ru0  1  0.000000  0.000000  0.000000  1
  Ru  Ru1  1  0.500000  0.500000  0.500000  1
  Rh  Rh2  1  0.000000  0.000000  0.333099  1
  Rh  Rh3  1  0.000000  0.000000  0.666901  1
  Rh  Rh4  1  0.500000  0.500000  0.833099  1
  Rh  Rh5  1  0.500000  0.500000  0.166901  1
  O  O6  1  0.301639  0.301639  0.000000  1
  O  O7  1  0.698361  0.698361  0.000000  1
  O  O8  1  0.198361  0.801639  0.500000  1
  O  O9  1  0.801639  0.198361  0.500000  1
  O  O10  1  0.308884  0.308884  0.335281  1
  O  O11  1  0.691116  0.691116  0.664719  1
  O  O12  1  0.691116  0.691116  0.335281  1
  O  O13  1  0.191116  0.808884  0.835281  1
  O  O14  1  0.191116  0.808884  0.164719  1
  O  O15  1  0.308884  0.308884  0.664719  1
  O  O16  1  0.808884  0.191116  0.164719  1
  O  O17  1  0.808884  0.191116  0.835281  1
