# generated using pymatgen
data_Lu3NiSn3IrRh
_symmetry_space_group_name_H-M   'P 1'
_cell_length_a   7.44501200
_cell_length_b   7.44501241
_cell_length_c   3.75210200
_cell_angle_alpha   90.00000000
_cell_angle_beta   90.00000000
_cell_angle_gamma   119.99999817
_symmetry_Int_Tables_number   1
_chemical_formula_structural   Lu3NiSn3IrRh
_chemical_formula_sum   'Lu3 Ni1 Sn3 Ir1 Rh1'
_cell_volume   180.10928578
_cell_formula_units_Z   1
loop_
 _symmetry_equiv_pos_site_id
 _symmetry_equiv_pos_as_xyz
  1  'x, y, z'
loop_
 _atom_site_type_symbol
 _atom_site_label
 _atom_site_symmetry_multiplicity
 _atom_site_fract_x
 _atom_site_fract_y
 _atom_site_fract_z
 _atom_site_occupancy
  Lu  Lu0  1  0.999264  0.405476  0.500000  1
  Lu  Lu1  1  0.594524  0.593787  0.500000  1
  Lu  Lu2  1  0.406213  0.000736  0.500000  1
  Ni  Ni3  1  0.000000  0.000000  0.500000  1
  Sn  Sn4  1  0.000676  0.745312  0.000000  1
  Sn  Sn5  1  0.254688  0.255365  0.000000  1
  Sn  Sn6  1  0.744635  0.999324  0.000000  1
  Ir  Ir7  1  0.666667  0.333333  0.000000  1
  Rh  Rh8  1  0.333333  0.666667  0.000000  1
