# generated using pymatgen
data_Th3Co2(Si2Rh)2
_symmetry_space_group_name_H-M   'P 1'
_cell_length_a   4.08950488
_cell_length_b   4.10773305
_cell_length_c   12.31916750
_cell_angle_alpha   80.40275275
_cell_angle_beta   80.44575752
_cell_angle_gamma   89.99999150
_symmetry_Int_Tables_number   1
_chemical_formula_structural   Th3Co2(Si2Rh)2
_chemical_formula_sum   'Th3 Co2 Si4 Rh2'
_cell_volume   201.13642923
_cell_formula_units_Z   1
loop_
 _symmetry_equiv_pos_site_id
 _symmetry_equiv_pos_as_xyz
  1  'x, y, z'
loop_
 _atom_site_type_symbol
 _atom_site_label
 _atom_site_symmetry_multiplicity
 _atom_site_fract_x
 _atom_site_fract_y
 _atom_site_fract_z
 _atom_site_occupancy
  Th  Th0  1  0.000000  0.000000  0.000000  1
  Th  Th1  1  0.856916  0.356916  0.286171  1
  Th  Th2  1  0.143084  0.643084  0.713829  1
  Co  Co3  1  0.597500  0.097500  0.804999  1
  Co  Co4  1  0.402500  0.902500  0.195001  1
  Si  Si5  1  0.693938  0.193938  0.612126  1
  Si  Si6  1  0.306062  0.806062  0.387874  1
  Si  Si7  1  0.449465  0.449465  0.101069  1
  Si  Si8  1  0.550535  0.550535  0.898931  1
  Rh  Rh9  1  0.249483  0.249483  0.501036  1
  Rh  Rh10  1  0.750517  0.750517  0.498964  1
