# generated using pymatgen
data_Sm3Y3V2(Co4P3)4
_symmetry_space_group_name_H-M   'P 1'
_cell_length_a   3.71590900
_cell_length_b   10.60139206
_cell_length_c   12.29392907
_cell_angle_alpha   89.98753207
_cell_angle_beta   90.00000000
_cell_angle_gamma   90.00000000
_symmetry_Int_Tables_number   1
_chemical_formula_structural   Sm3Y3V2(Co4P3)4
_chemical_formula_sum   'Sm3 Y3 V2 Co16 P12'
_cell_volume   484.30467219
_cell_formula_units_Z   1
loop_
 _symmetry_equiv_pos_site_id
 _symmetry_equiv_pos_as_xyz
  1  'x, y, z'
loop_
 _atom_site_type_symbol
 _atom_site_label
 _atom_site_symmetry_multiplicity
 _atom_site_fract_x
 _atom_site_fract_y
 _atom_site_fract_z
 _atom_site_occupancy
  Sm  Sm0  1  0.000000  0.500143  0.523170  1
  Sm  Sm1  1  0.500000  0.999943  0.476502  1
  Sm  Sm2  1  0.000000  0.318733  0.795554  1
  Y  Y3  1  0.500000  0.818363  0.204185  1
  Y  Y4  1  0.500000  0.181582  0.203989  1
  Y  Y5  1  0.000000  0.682089  0.796011  1
  V  V6  1  0.500000  0.500132  0.153105  1
  V  V7  1  0.000000  0.999497  0.847152  1
  Co  Co8  1  0.500000  0.501334  0.703242  1
  Co  Co9  1  0.000000  0.999840  0.296290  1
  Co  Co10  1  0.000000  0.500691  0.987655  1
  Co  Co11  1  0.500000  0.999347  0.013460  1
  Co  Co12  1  0.500000  0.332534  0.994147  1
  Co  Co13  1  0.500000  0.668169  0.993487  1
  Co  Co14  1  0.000000  0.167050  0.007540  1
  Co  Co15  1  0.000000  0.832362  0.007073  1
  Co  Co16  1  0.500000  0.295615  0.429838  1
  Co  Co17  1  0.500000  0.704421  0.430394  1
  Co  Co18  1  0.000000  0.204008  0.568478  1
  Co  Co19  1  0.000000  0.795687  0.569421  1
  Co  Co20  1  0.500000  0.878967  0.709134  1
  Co  Co21  1  0.500000  0.119683  0.708319  1
  Co  Co22  1  0.000000  0.620757  0.291006  1
  Co  Co23  1  0.000000  0.379199  0.290782  1
  P  P24  1  0.500000  0.501465  0.883865  1
  P  P25  1  0.000000  0.999722  0.117367  1
  P  P26  1  0.500000  0.500004  0.344336  1
  P  P27  1  0.000000  0.000009  0.655601  1
  P  P28  1  0.500000  0.308850  0.614613  1
  P  P29  1  0.500000  0.691064  0.616384  1
  P  P30  1  0.000000  0.190531  0.383076  1
  P  P31  1  0.000000  0.809247  0.383527  1
  P  P32  1  0.500000  0.846187  0.892702  1
  P  P33  1  0.500000  0.152500  0.893653  1
  P  P34  1  0.000000  0.654116  0.107654  1
  P  P35  1  0.000000  0.346159  0.107287  1
