# generated using pymatgen
data_Zr12Si12Ru3Pt
_symmetry_space_group_name_H-M   'P 1'
_cell_length_a   3.91776700
_cell_length_b   10.45798213
_cell_length_c   11.82112611
_cell_angle_alpha   90.08645360
_cell_angle_beta   90.00000000
_cell_angle_gamma   90.00000000
_symmetry_Int_Tables_number   1
_chemical_formula_structural   Zr12Si12Ru3Pt
_chemical_formula_sum   'Zr12 Si12 Ru3 Pt1'
_cell_volume   484.33388610
_cell_formula_units_Z   1
loop_
 _symmetry_equiv_pos_site_id
 _symmetry_equiv_pos_as_xyz
  1  'x, y, z'
loop_
 _atom_site_type_symbol
 _atom_site_label
 _atom_site_symmetry_multiplicity
 _atom_site_fract_x
 _atom_site_fract_y
 _atom_site_fract_z
 _atom_site_occupancy
  Zr  Zr0  1  0.250000  0.876564  0.022582  1
  Zr  Zr1  1  0.250000  0.623620  0.520484  1
  Zr  Zr2  1  0.750000  0.123203  0.979126  1
  Zr  Zr3  1  0.750000  0.377132  0.478757  1
  Zr  Zr4  1  0.250000  0.927147  0.595003  1
  Zr  Zr5  1  0.250000  0.572575  0.098012  1
  Zr  Zr6  1  0.750000  0.072809  0.402589  1
  Zr  Zr7  1  0.750000  0.426433  0.903058  1
  Zr  Zr8  1  0.250000  0.656035  0.800841  1
  Zr  Zr9  1  0.250000  0.842494  0.300359  1
  Zr  Zr10  1  0.750000  0.341237  0.199759  1
  Zr  Zr11  1  0.750000  0.160826  0.699311  1
  Si  Si12  1  0.250000  0.021015  0.825341  1
  Si  Si13  1  0.250000  0.484828  0.324650  1
  Si  Si14  1  0.750000  0.984981  0.175117  1
  Si  Si15  1  0.750000  0.514859  0.675598  1
  Si  Si16  1  0.250000  0.251819  0.842914  1
  Si  Si17  1  0.250000  0.249889  0.342384  1
  Si  Si18  1  0.750000  0.749857  0.157144  1
  Si  Si19  1  0.750000  0.747357  0.654773  1
  Si  Si20  1  0.250000  0.195944  0.542358  1
  Si  Si21  1  0.250000  0.304947  0.043656  1
  Si  Si22  1  0.750000  0.805876  0.456410  1
  Si  Si23  1  0.750000  0.688496  0.959592  1
  Ru  Ru24  1  0.250000  0.386543  0.680846  1
  Ru  Ru25  1  0.250000  0.114303  0.179874  1
  Ru  Ru26  1  0.750000  0.614888  0.320483  1
  Pt  Pt27  1  0.750000  0.884323  0.818981  1
