# generated using pymatgen
data_KBaTaSe4
_symmetry_space_group_name_H-M   'P 1'
_cell_length_a   7.36057800
_cell_length_b   9.70402200
_cell_length_c   13.27832400
_cell_angle_alpha   90.00000000
_cell_angle_beta   90.00000000
_cell_angle_gamma   90.00000000
_symmetry_Int_Tables_number   1
_chemical_formula_structural   KBaTaSe4
_chemical_formula_sum   'K4 Ba4 Ta4 Se16'
_cell_volume   948.43364801
_cell_formula_units_Z   4
loop_
 _symmetry_equiv_pos_site_id
 _symmetry_equiv_pos_as_xyz
  1  'x, y, z'
loop_
 _atom_site_type_symbol
 _atom_site_label
 _atom_site_symmetry_multiplicity
 _atom_site_fract_x
 _atom_site_fract_y
 _atom_site_fract_z
 _atom_site_occupancy
  K  K0  1  0.250000  0.634559  0.574226  1
  K  K1  1  0.750000  0.365441  0.425774  1
  K  K2  1  0.250000  0.134559  0.925774  1
  K  K3  1  0.750000  0.865441  0.074226  1
  Ba  Ba4  1  0.750000  0.020912  0.673361  1
  Ba  Ba5  1  0.750000  0.520912  0.826639  1
  Ba  Ba6  1  0.250000  0.479088  0.173361  1
  Ba  Ba7  1  0.250000  0.979088  0.326639  1
  Ta  Ta8  1  0.250000  0.728773  0.924094  1
  Ta  Ta9  1  0.750000  0.771227  0.424094  1
  Ta  Ta10  1  0.750000  0.271227  0.075906  1
  Ta  Ta11  1  0.250000  0.228773  0.575906  1
  Se  Se12  1  0.250000  0.980419  0.583270  1
  Se  Se13  1  0.750000  0.019581  0.416730  1
  Se  Se14  1  0.250000  0.480419  0.916730  1
  Se  Se15  1  0.750000  0.519581  0.083270  1
  Se  Se16  1  0.488268  0.680042  0.340419  1
  Se  Se17  1  0.988268  0.319958  0.659581  1
  Se  Se18  1  0.011732  0.180042  0.159581  1
  Se  Se19  1  0.511732  0.819958  0.840419  1
  Se  Se20  1  0.511732  0.319958  0.659581  1
  Se  Se21  1  0.011732  0.680042  0.340419  1
  Se  Se22  1  0.988268  0.819958  0.840419  1
  Se  Se23  1  0.488268  0.180042  0.159581  1
  Se  Se24  1  0.750000  0.192927  0.903354  1
  Se  Se25  1  0.250000  0.807073  0.096646  1
  Se  Se26  1  0.750000  0.692927  0.596646  1
  Se  Se27  1  0.250000  0.307073  0.403354  1
