# generated using pymatgen
data_CaDyAlIr2
_symmetry_space_group_name_H-M   'P 1'
_cell_length_a   5.61630009
_cell_length_b   5.61629990
_cell_length_c   5.61630033
_cell_angle_alpha   138.04834646
_cell_angle_beta   117.69541468
_cell_angle_gamma   77.96668393
_symmetry_Int_Tables_number   1
_chemical_formula_structural   CaDyAlIr2
_chemical_formula_sum   'Ca1 Dy1 Al1 Ir2'
_cell_volume   102.00512610
_cell_formula_units_Z   1
loop_
 _symmetry_equiv_pos_site_id
 _symmetry_equiv_pos_as_xyz
  1  'x, y, z'
loop_
 _atom_site_type_symbol
 _atom_site_label
 _atom_site_symmetry_multiplicity
 _atom_site_fract_x
 _atom_site_fract_y
 _atom_site_fract_z
 _atom_site_occupancy
  Ca  Ca0  1  0.295880  0.795879  0.499999  1
  Dy  Dy1  1  0.699968  0.199968  0.500000  1
  Al  Al2  1  0.999906  0.999906  0.000000  1
  Ir  Ir3  1  0.736235  0.502123  0.234112  1
  Ir  Ir4  1  0.268012  0.502122  0.765888  1
