# generated using pymatgen
data_Sr2ZnTe4(ClO5)2
_symmetry_space_group_name_H-M   'P 1'
_cell_length_a   5.70256544
_cell_length_b   7.49842799
_cell_length_c   9.01948045
_cell_angle_alpha   74.55755839
_cell_angle_beta   80.62745653
_cell_angle_gamma   75.87177682
_symmetry_Int_Tables_number   1
_chemical_formula_structural   Sr2ZnTe4(ClO5)2
_chemical_formula_sum   'Sr2 Zn1 Te4 Cl2 O10'
_cell_volume   358.52615637
_cell_formula_units_Z   1
loop_
 _symmetry_equiv_pos_site_id
 _symmetry_equiv_pos_as_xyz
  1  'x, y, z'
loop_
 _atom_site_type_symbol
 _atom_site_label
 _atom_site_symmetry_multiplicity
 _atom_site_fract_x
 _atom_site_fract_y
 _atom_site_fract_z
 _atom_site_occupancy
  Sr  Sr0  1  0.845448  0.882601  0.885991  1
  Sr  Sr1  1  0.154552  0.117399  0.114009  1
  Zn  Zn2  1  0.000000  0.000000  0.500000  1
  Te  Te3  1  0.382358  0.179221  0.604118  1
  Te  Te4  1  0.405071  0.599421  0.143266  1
  Te  Te5  1  0.594929  0.400579  0.856734  1
  Te  Te6  1  0.617642  0.820779  0.395882  1
  Cl  Cl7  1  0.870628  0.354756  0.360112  1
  Cl  Cl8  1  0.129372  0.645244  0.639888  1
  O  O9  1  0.671267  0.588842  0.978815  1
  O  O10  1  0.353343  0.039435  0.381385  1
  O  O11  1  0.189613  0.803653  0.037211  1
  O  O12  1  0.112514  0.065638  0.677352  1
  O  O13  1  0.810387  0.196347  0.962789  1
  O  O14  1  0.328733  0.411158  0.021185  1
  O  O15  1  0.560802  0.810078  0.187023  1
  O  O16  1  0.646657  0.960565  0.618615  1
  O  O17  1  0.887486  0.934362  0.322648  1
  O  O18  1  0.439198  0.189922  0.812977  1
