# generated using pymatgen
data_Lu20Sn9Pb7
_symmetry_space_group_name_H-M   'P 1'
_cell_length_a   8.00350907
_cell_length_b   8.04129402
_cell_length_c   15.25735830
_cell_angle_alpha   89.98403293
_cell_angle_beta   89.96158851
_cell_angle_gamma   90.00452580
_symmetry_Int_Tables_number   1
_chemical_formula_structural   Lu20Sn9Pb7
_chemical_formula_sum   'Lu20 Sn9 Pb7'
_cell_volume   981.94149421
_cell_formula_units_Z   1
loop_
 _symmetry_equiv_pos_site_id
 _symmetry_equiv_pos_as_xyz
  1  'x, y, z'
loop_
 _atom_site_type_symbol
 _atom_site_label
 _atom_site_symmetry_multiplicity
 _atom_site_fract_x
 _atom_site_fract_y
 _atom_site_fract_z
 _atom_site_occupancy
  Lu  Lu0  1  0.380258  0.839750  0.878113  1
  Lu  Lu1  1  0.880544  0.660861  0.623401  1
  Lu  Lu2  1  0.618706  0.161451  0.376534  1
  Lu  Lu3  1  0.120407  0.335823  0.122720  1
  Lu  Lu4  1  0.617141  0.161497  0.122800  1
  Lu  Lu5  1  0.118875  0.338607  0.376608  1
  Lu  Lu6  1  0.380528  0.838652  0.623174  1
  Lu  Lu7  1  0.880234  0.661149  0.876717  1
  Lu  Lu8  1  0.536390  0.323462  0.897393  1
  Lu  Lu9  1  0.037801  0.175525  0.603469  1
  Lu  Lu10  1  0.461512  0.675727  0.396023  1
  Lu  Lu11  1  0.965871  0.826677  0.102629  1
  Lu  Lu12  1  0.461466  0.678419  0.103095  1
  Lu  Lu13  1  0.961898  0.824470  0.396136  1
  Lu  Lu14  1  0.538449  0.325002  0.603683  1
  Lu  Lu15  1  0.040062  0.173975  0.897877  1
  Lu  Lu16  1  0.210419  0.503887  0.750089  1
  Lu  Lu17  1  0.710513  0.995833  0.750065  1
  Lu  Lu18  1  0.789573  0.495828  0.249615  1
  Lu  Lu19  1  0.289187  0.004087  0.248630  1
  Sn  Sn20  1  0.282060  0.031746  0.041886  1
  Sn  Sn21  1  0.575637  0.622877  0.750514  1
  Sn  Sn22  1  0.076059  0.877021  0.750139  1
  Sn  Sn23  1  0.423708  0.377989  0.250001  1
  Sn  Sn24  1  0.923315  0.122528  0.249992  1
  Sn  Sn25  1  0.346181  0.149446  0.750140  1
  Sn  Sn26  1  0.846426  0.349829  0.750689  1
  Sn  Sn27  1  0.654611  0.850954  0.249663  1
  Sn  Sn28  1  0.153816  0.648952  0.249628  1
  Pb  Pb29  1  0.780485  0.468436  0.458703  1
  Pb  Pb30  1  0.718994  0.967851  0.540953  1
  Pb  Pb31  1  0.218521  0.532366  0.959220  1
  Pb  Pb32  1  0.719563  0.967604  0.959039  1
  Pb  Pb33  1  0.219181  0.531900  0.541143  1
  Pb  Pb34  1  0.280473  0.031825  0.458443  1
  Pb  Pb35  1  0.781137  0.467992  0.041075  1
