# generated using pymatgen
data_La8Nd2B2Br15
_symmetry_space_group_name_H-M   'P 1'
_cell_length_a   9.54485097
_cell_length_b   10.41494797
_cell_length_c   11.25603210
_cell_angle_alpha   91.13451972
_cell_angle_beta   114.49923511
_cell_angle_gamma   110.88041649
_symmetry_Int_Tables_number   1
_chemical_formula_structural   La8Nd2B2Br15
_chemical_formula_sum   'La8 Nd2 B2 Br15'
_cell_volume   932.67240376
_cell_formula_units_Z   1
loop_
 _symmetry_equiv_pos_site_id
 _symmetry_equiv_pos_as_xyz
  1  'x, y, z'
loop_
 _atom_site_type_symbol
 _atom_site_label
 _atom_site_symmetry_multiplicity
 _atom_site_fract_x
 _atom_site_fract_y
 _atom_site_fract_z
 _atom_site_occupancy
  La  La0  1  0.805413  0.411874  0.277086  1
  La  La1  1  0.194587  0.588126  0.722914  1
  La  La2  1  0.679489  0.746510  0.820475  1
  La  La3  1  0.320511  0.253490  0.179525  1
  La  La4  1  0.526147  0.704603  0.097459  1
  La  La5  1  0.473853  0.295397  0.902541  1
  La  La6  1  0.587964  0.037012  0.327058  1
  La  La7  1  0.412036  0.962988  0.672942  1
  Nd  Nd8  1  0.720696  0.073034  0.047018  1
  Nd  Nd9  1  0.279304  0.926966  0.952982  1
  B  B10  1  0.466034  0.815912  0.873517  1
  B  B11  1  0.533966  0.184088  0.126483  1
  Br  Br12  1  0.000000  0.000000  0.000000  1
  Br  Br13  1  0.636590  0.883073  0.583185  1
  Br  Br14  1  0.363410  0.116927  0.416815  1
  Br  Br15  1  0.883450  0.299088  0.528130  1
  Br  Br16  1  0.116550  0.700912  0.471870  1
  Br  Br17  1  0.285300  0.763919  0.174861  1
  Br  Br18  1  0.714700  0.236081  0.825139  1
  Br  Br19  1  0.051428  0.337650  0.222784  1
  Br  Br20  1  0.161003  0.054141  0.707033  1
  Br  Br21  1  0.838997  0.945859  0.292967  1
  Br  Br22  1  0.229889  0.409678  0.943668  1
  Br  Br23  1  0.770111  0.590322  0.056332  1
  Br  Br24  1  0.408417  0.463646  0.660185  1
  Br  Br25  1  0.591583  0.536354  0.339815  1
  Br  Br26  1  0.948572  0.662350  0.777216  1
