# generated using pymatgen
data_Cs8Na4Dy3HoSb8
_symmetry_space_group_name_H-M   'P 1'
_cell_length_a   11.65376315
_cell_length_b   11.65376219
_cell_length_c   7.59506804
_cell_angle_alpha   89.99112537
_cell_angle_beta   90.00887484
_cell_angle_gamma   99.79672791
_symmetry_Int_Tables_number   1
_chemical_formula_structural   Cs8Na4Dy3HoSb8
_chemical_formula_sum   'Cs8 Na4 Dy3 Ho1 Sb8'
_cell_volume   1016.44602355
_cell_formula_units_Z   1
loop_
 _symmetry_equiv_pos_site_id
 _symmetry_equiv_pos_as_xyz
  1  'x, y, z'
loop_
 _atom_site_type_symbol
 _atom_site_label
 _atom_site_symmetry_multiplicity
 _atom_site_fract_x
 _atom_site_fract_y
 _atom_site_fract_z
 _atom_site_occupancy
  Cs  Cs0  1  0.070407  0.429534  0.249958  1
  Cs  Cs1  1  0.429534  0.070407  0.750042  1
  Cs  Cs2  1  0.929608  0.570408  0.750019  1
  Cs  Cs3  1  0.570408  0.929608  0.249981  1
  Cs  Cs4  1  0.677272  0.322722  0.212681  1
  Cs  Cs5  1  0.822794  0.177259  0.712751  1
  Cs  Cs6  1  0.322722  0.677272  0.787319  1
  Cs  Cs7  1  0.177259  0.822794  0.287249  1
  Na  Na8  1  0.382101  0.382101  0.000000  1
  Na  Na9  1  0.117829  0.117829  0.500000  1
  Na  Na10  1  0.617830  0.617830  0.000000  1
  Na  Na11  1  0.882180  0.882180  0.500000  1
  Dy  Dy12  1  0.369044  0.369044  0.500000  1
  Dy  Dy13  1  0.869241  0.869241  0.000000  1
  Dy  Dy14  1  0.630915  0.630915  0.500000  1
  Ho  Ho15  1  0.130796  0.130796  0.000000  1
  Sb  Sb16  1  0.841971  0.658026  0.250019  1
  Sb  Sb17  1  0.658026  0.841971  0.749981  1
  Sb  Sb18  1  0.158015  0.341488  0.750525  1
  Sb  Sb19  1  0.341488  0.158015  0.249475  1
  Sb  Sb20  1  0.905064  0.095534  0.210478  1
  Sb  Sb21  1  0.595400  0.404561  0.710825  1
  Sb  Sb22  1  0.095534  0.905064  0.789522  1
  Sb  Sb23  1  0.404561  0.595400  0.289175  1
