# generated using pymatgen
data_TbTm14Lu5(CoSb2)4
_symmetry_space_group_name_H-M   'P 1'
_cell_length_a   7.73350696
_cell_length_b   8.71179012
_cell_length_c   12.03502146
_cell_angle_alpha   89.98636824
_cell_angle_beta   90.06402868
_cell_angle_gamma   89.98631710
_symmetry_Int_Tables_number   1
_chemical_formula_structural   TbTm14Lu5(CoSb2)4
_chemical_formula_sum   'Tb1 Tm14 Lu5 Co4 Sb8'
_cell_volume   810.83121260
_cell_formula_units_Z   1
loop_
 _symmetry_equiv_pos_site_id
 _symmetry_equiv_pos_as_xyz
  1  'x, y, z'
loop_
 _atom_site_type_symbol
 _atom_site_label
 _atom_site_symmetry_multiplicity
 _atom_site_fract_x
 _atom_site_fract_y
 _atom_site_fract_z
 _atom_site_occupancy
  Tb  Tb0  1  0.877246  0.749904  0.807136  1
  Tm  Tm1  1  0.155390  0.749860  0.203679  1
  Tm  Tm2  1  0.655413  0.250182  0.296483  1
  Tm  Tm3  1  0.844377  0.249929  0.796097  1
  Tm  Tm4  1  0.345514  0.749979  0.703432  1
  Tm  Tm5  1  0.447846  0.750081  0.997681  1
  Tm  Tm6  1  0.947704  0.250123  0.501846  1
  Tm  Tm7  1  0.550974  0.250135  0.002433  1
  Tm  Tm8  1  0.051766  0.749724  0.497902  1
  Tm  Tm9  1  0.621015  0.749906  0.309530  1
  Tm  Tm10  1  0.121079  0.249878  0.191235  1
  Tm  Tm11  1  0.379578  0.250270  0.690376  1
  Tm  Tm12  1  0.824197  0.964095  0.066092  1
  Tm  Tm13  1  0.324094  0.036611  0.434799  1
  Tm  Tm14  1  0.176570  0.461209  0.935449  1
  Lu  Lu15  1  0.674829  0.537014  0.564738  1
  Lu  Lu16  1  0.175658  0.038785  0.935566  1
  Lu  Lu17  1  0.675026  0.963067  0.564793  1
  Lu  Lu18  1  0.825125  0.535911  0.066060  1
  Lu  Lu19  1  0.325292  0.463193  0.434990  1
  Co  Co20  1  0.433356  0.749739  0.491256  1
  Co  Co21  1  0.932473  0.249951  0.009241  1
  Co  Co22  1  0.567613  0.250307  0.508526  1
  Co  Co23  1  0.067561  0.749951  0.991713  1
  Sb  Sb24  1  0.930786  0.991523  0.328016  1
  Sb  Sb25  1  0.430756  0.008159  0.172181  1
  Sb  Sb26  1  0.070715  0.490576  0.671295  1
  Sb  Sb27  1  0.567659  0.507297  0.827875  1
  Sb  Sb28  1  0.070948  0.009448  0.671440  1
  Sb  Sb29  1  0.567211  0.992842  0.828035  1
  Sb  Sb30  1  0.931219  0.508396  0.327970  1
  Sb  Sb31  1  0.431005  0.491953  0.172136  1
