# generated using pymatgen
data_Hf2AlGaIrPd
_symmetry_space_group_name_H-M   'P 1'
_cell_length_a   7.26972800
_cell_length_b   7.26972739
_cell_length_c   6.80587200
_cell_angle_alpha   90.00000000
_cell_angle_beta   90.00000000
_cell_angle_gamma   119.99999367
_symmetry_Int_Tables_number   1
_chemical_formula_structural   Hf2AlGaIrPd
_chemical_formula_sum   'Hf6 Al3 Ga3 Ir3 Pd3'
_cell_volume   311.49474443
_cell_formula_units_Z   3
loop_
 _symmetry_equiv_pos_site_id
 _symmetry_equiv_pos_as_xyz
  1  'x, y, z'
loop_
 _atom_site_type_symbol
 _atom_site_label
 _atom_site_symmetry_multiplicity
 _atom_site_fract_x
 _atom_site_fract_y
 _atom_site_fract_z
 _atom_site_occupancy
  Hf  Hf0  1  0.598934  0.597649  0.253077  1
  Hf  Hf1  1  0.013185  0.408218  0.746861  1
  Hf  Hf2  1  0.402351  0.001285  0.253077  1
  Hf  Hf3  1  0.998715  0.401066  0.253077  1
  Hf  Hf4  1  0.395033  0.986815  0.746861  1
  Hf  Hf5  1  0.591782  0.604967  0.746861  1
  Al  Al6  1  0.264423  0.260523  0.500410  1
  Al  Al7  1  0.739477  0.003900  0.500410  1
  Al  Al8  1  0.996100  0.735577  0.500410  1
  Ga  Ga9  1  0.729630  0.002819  0.000503  1
  Ga  Ga10  1  0.273189  0.270370  0.000503  1
  Ga  Ga11  1  0.997181  0.726811  0.000503  1
  Ir  Ir12  1  0.333333  0.666667  0.491099  1
  Ir  Ir13  1  0.333333  0.666667  0.009982  1
  Ir  Ir14  1  0.666667  0.333333  0.507675  1
  Pd  Pd15  1  0.000000  0.000000  0.754984  1
  Pd  Pd16  1  0.000000  0.000000  0.245978  1
  Pd  Pd17  1  0.666667  0.333333  0.987735  1
