# generated using pymatgen
data_Hf6BN4
_symmetry_space_group_name_H-M   'P 1'
_cell_length_a   5.63123543
_cell_length_b   5.63123441
_cell_length_c   5.60675527
_cell_angle_alpha   99.69449072
_cell_angle_beta   99.69448391
_cell_angle_gamma   119.78066449
_symmetry_Int_Tables_number   1
_chemical_formula_structural   Hf6BN4
_chemical_formula_sum   'Hf6 B1 N4'
_cell_volume   145.36021089
_cell_formula_units_Z   1
loop_
 _symmetry_equiv_pos_site_id
 _symmetry_equiv_pos_as_xyz
  1  'x, y, z'
loop_
 _atom_site_type_symbol
 _atom_site_label
 _atom_site_symmetry_multiplicity
 _atom_site_fract_x
 _atom_site_fract_y
 _atom_site_fract_z
 _atom_site_occupancy
  Hf  Hf0  1  0.432310  0.085497  0.251080  1
  Hf  Hf1  1  0.083631  0.426244  0.248260  1
  Hf  Hf2  1  0.734950  0.736989  0.260706  1
  Hf  Hf3  1  0.263012  0.265051  0.739294  1
  Hf  Hf4  1  0.914503  0.567690  0.748918  1
  Hf  Hf5  1  0.573756  0.916369  0.751738  1
  B  B6  1  0.166329  0.833670  0.500000  1
  N  N7  1  0.666587  0.333412  0.000000  1
  N  N8  1  0.332861  0.667138  0.000000  1
  N  N9  1  0.831869  0.168130  0.500000  1
  N  N10  1  0.500190  0.499808  0.500000  1
