# generated using pymatgen
data_CeNd3(HgAu2)2
_symmetry_space_group_name_H-M   'P 1'
_cell_length_a   8.20589706
_cell_length_b   8.20589706
_cell_length_c   3.85134500
_cell_angle_alpha   90.00000000
_cell_angle_beta   90.00000000
_cell_angle_gamma   89.55434858
_symmetry_Int_Tables_number   1
_chemical_formula_structural   CeNd3(HgAu2)2
_chemical_formula_sum   'Ce1 Nd3 Hg2 Au4'
_cell_volume   259.32919717
_cell_formula_units_Z   1
loop_
 _symmetry_equiv_pos_site_id
 _symmetry_equiv_pos_as_xyz
  1  'x, y, z'
loop_
 _atom_site_type_symbol
 _atom_site_label
 _atom_site_symmetry_multiplicity
 _atom_site_fract_x
 _atom_site_fract_y
 _atom_site_fract_z
 _atom_site_occupancy
  Ce  Ce0  1  0.326808  0.173192  0.500001  1
  Nd  Nd1  1  0.826045  0.325961  0.500001  1
  Nd  Nd2  1  0.174039  0.673955  0.500001  1
  Nd  Nd3  1  0.673939  0.826061  0.500001  1
  Hg  Hg4  1  0.000930  0.000700  0.000000  1
  Hg  Hg5  1  0.499300  0.499070  0.000000  1
  Au  Au6  1  0.622659  0.127111  0.000000  1
  Au  Au7  1  0.127911  0.372089  0.000000  1
  Au  Au8  1  0.875482  0.624519  0.000000  1
  Au  Au9  1  0.372889  0.877342  0.000000  1
