# generated using pymatgen
data_Tb2Er2Ni13Pt
_symmetry_space_group_name_H-M   'P 1'
_cell_length_a   4.93574604
_cell_length_b   4.93574528
_cell_length_c   12.56454105
_cell_angle_alpha   78.67256571
_cell_angle_beta   78.67256582
_cell_angle_gamma   60.00000529
_symmetry_Int_Tables_number   1
_chemical_formula_structural   Tb2Er2Ni13Pt
_chemical_formula_sum   'Tb2 Er2 Ni13 Pt1'
_cell_volume   258.17578353
_cell_formula_units_Z   1
loop_
 _symmetry_equiv_pos_site_id
 _symmetry_equiv_pos_as_xyz
  1  'x, y, z'
loop_
 _atom_site_type_symbol
 _atom_site_label
 _atom_site_symmetry_multiplicity
 _atom_site_fract_x
 _atom_site_fract_y
 _atom_site_fract_z
 _atom_site_occupancy
  Tb  Tb0  1  0.949886  0.949886  0.150342  1
  Tb  Tb1  1  0.050114  0.050114  0.849658  1
  Er  Er2  1  0.854466  0.854466  0.436603  1
  Er  Er3  1  0.145534  0.145534  0.563397  1
  Ni  Ni4  1  0.720548  0.720548  0.838355  1
  Ni  Ni5  1  0.279452  0.279452  0.161645  1
  Ni  Ni6  1  0.612698  0.612698  0.161907  1
  Ni  Ni7  1  0.387302  0.387302  0.838093  1
  Ni  Ni8  1  0.000000  0.500000  0.000000  1
  Ni  Ni9  1  0.500000  0.000000  0.000000  1
  Ni  Ni10  1  0.500000  0.500000  0.000000  1
  Ni  Ni11  1  0.390743  0.390743  0.322466  1
  Ni  Ni12  1  0.896046  0.390743  0.322466  1
  Ni  Ni13  1  0.390743  0.896046  0.322466  1
  Ni  Ni14  1  0.609257  0.609257  0.677534  1
  Ni  Ni15  1  0.103954  0.609257  0.677534  1
  Ni  Ni16  1  0.609257  0.103954  0.677534  1
  Pt  Pt17  1  0.500000  0.500000  0.500000  1
