# generated using pymatgen
data_CsZrPaTe5
_symmetry_space_group_name_H-M   'P 1'
_cell_length_a   6.35983000
_cell_length_b   8.57686200
_cell_length_c   10.61166500
_cell_angle_alpha   90.00000000
_cell_angle_beta   90.00000000
_cell_angle_gamma   90.00000000
_symmetry_Int_Tables_number   1
_chemical_formula_structural   CsZrPaTe5
_chemical_formula_sum   'Cs2 Zr2 Pa2 Te10'
_cell_volume   578.83856832
_cell_formula_units_Z   2
loop_
 _symmetry_equiv_pos_site_id
 _symmetry_equiv_pos_as_xyz
  1  'x, y, z'
loop_
 _atom_site_type_symbol
 _atom_site_label
 _atom_site_symmetry_multiplicity
 _atom_site_fract_x
 _atom_site_fract_y
 _atom_site_fract_z
 _atom_site_occupancy
  Cs  Cs0  1  0.749999  0.500000  0.215466  1
  Cs  Cs1  1  0.249999  0.500000  0.784534  1
  Zr  Zr2  1  0.000000  0.000000  0.000000  1
  Zr  Zr3  1  0.500001  0.000000  0.000000  1
  Pa  Pa4  1  0.249999  0.000000  0.334961  1
  Pa  Pa5  1  0.749999  0.000000  0.665038  1
  Te  Te6  1  0.249999  0.247044  0.121343  1
  Te  Te7  1  0.249999  0.752955  0.121343  1
  Te  Te8  1  0.749999  0.000000  0.231469  1
  Te  Te9  1  0.000000  0.237115  0.500000  1
  Te  Te10  1  0.500001  0.237115  0.500000  1
  Te  Te11  1  0.000000  0.762885  0.500000  1
  Te  Te12  1  0.500001  0.762885  0.500000  1
  Te  Te13  1  0.249999  0.000000  0.768531  1
  Te  Te14  1  0.749999  0.247044  0.878658  1
  Te  Te15  1  0.749999  0.752955  0.878658  1
