# generated using pymatgen
data_Sc4Tc4MoOs3
_symmetry_space_group_name_H-M   'P 1'
_cell_length_a   5.21648000
_cell_length_b   5.26780867
_cell_length_c   8.67872100
_cell_angle_alpha   90.00000000
_cell_angle_beta   90.00000000
_cell_angle_gamma   121.04641445
_symmetry_Int_Tables_number   1
_chemical_formula_structural   Sc4Tc4MoOs3
_chemical_formula_sum   'Sc4 Tc4 Mo1 Os3'
_cell_volume   204.32300906
_cell_formula_units_Z   1
loop_
 _symmetry_equiv_pos_site_id
 _symmetry_equiv_pos_as_xyz
  1  'x, y, z'
loop_
 _atom_site_type_symbol
 _atom_site_label
 _atom_site_symmetry_multiplicity
 _atom_site_fract_x
 _atom_site_fract_y
 _atom_site_fract_z
 _atom_site_occupancy
  Sc  Sc0  1  0.337266  0.667345  0.435319  1
  Sc  Sc1  1  0.664868  0.333279  0.563740  1
  Sc  Sc2  1  0.664868  0.333279  0.936260  1
  Sc  Sc3  1  0.337266  0.667345  0.064681  1
  Tc  Tc4  1  0.171945  0.346501  0.750000  1
  Tc  Tc5  1  0.172957  0.825891  0.750000  1
  Tc  Tc6  1  0.827764  0.656470  0.250000  1
  Tc  Tc7  1  0.653688  0.827578  0.750000  1
  Mo  Mo8  1  0.337362  0.169893  0.250000  1
  Os  Os9  1  0.003145  0.999045  0.997647  1
  Os  Os10  1  0.825725  0.174329  0.250000  1
  Os  Os11  1  0.003145  0.999045  0.502353  1
