# generated using pymatgen
data_Ho3Er5Sc11Si16Ru
_symmetry_space_group_name_H-M   'P 1'
_cell_length_a   6.98325801
_cell_length_b   7.34044675
_cell_length_c   13.85997102
_cell_angle_alpha   90.00372987
_cell_angle_beta   89.99520662
_cell_angle_gamma   90.09606754
_symmetry_Int_Tables_number   1
_chemical_formula_structural   Ho3Er5Sc11Si16Ru
_chemical_formula_sum   'Ho3 Er5 Sc11 Si16 Ru1'
_cell_volume   710.46434913
_cell_formula_units_Z   1
loop_
 _symmetry_equiv_pos_site_id
 _symmetry_equiv_pos_as_xyz
  1  'x, y, z'
loop_
 _atom_site_type_symbol
 _atom_site_label
 _atom_site_symmetry_multiplicity
 _atom_site_fract_x
 _atom_site_fract_y
 _atom_site_fract_z
 _atom_site_occupancy
  Ho  Ho0  1  0.011984  0.178291  0.406563  1
  Ho  Ho1  1  0.511156  0.323362  0.405161  1
  Ho  Ho2  1  0.488639  0.673218  0.597630  1
  Er  Er3  1  0.012023  0.178326  0.093469  1
  Er  Er4  1  0.992584  0.817886  0.901081  1
  Er  Er5  1  0.488603  0.673198  0.902359  1
  Er  Er6  1  0.992574  0.817891  0.598931  1
  Er  Er7  1  0.511182  0.323277  0.094861  1
  Sc  Sc8  1  0.841117  0.495844  0.249977  1
  Sc  Sc9  1  0.341766  0.003606  0.249972  1
  Sc  Sc10  1  0.657558  0.995877  0.750013  1
  Sc  Sc11  1  0.325991  0.176985  0.627122  1
  Sc  Sc12  1  0.672068  0.824723  0.374383  1
  Sc  Sc13  1  0.172717  0.674029  0.376594  1
  Sc  Sc14  1  0.672059  0.824712  0.125593  1
  Sc  Sc15  1  0.826172  0.330908  0.628267  1
  Sc  Sc16  1  0.326007  0.177036  0.872895  1
  Sc  Sc17  1  0.826147  0.330896  0.871757  1
  Sc  Sc18  1  0.172735  0.674037  0.123383  1
  Si  Si19  1  0.028967  0.116375  0.750009  1
  Si  Si20  1  0.973159  0.885882  0.249979  1
  Si  Si21  1  0.469174  0.615243  0.249976  1
  Si  Si22  1  0.515811  0.395456  0.750034  1
  Si  Si23  1  0.284737  0.863154  0.750034  1
  Si  Si24  1  0.716508  0.129854  0.249935  1
  Si  Si25  1  0.214797  0.370611  0.249938  1
  Si  Si26  1  0.794662  0.629719  0.750028  1
  Si  Si27  1  0.157064  0.465535  0.546987  1
  Si  Si28  1  0.843106  0.535851  0.463344  1
  Si  Si29  1  0.344899  0.964800  0.463123  1
  Si  Si30  1  0.842993  0.535751  0.036678  1
  Si  Si31  1  0.659047  0.034425  0.539806  1
  Si  Si32  1  0.157199  0.465530  0.953011  1
  Si  Si33  1  0.659043  0.034427  0.960201  1
  Si  Si34  1  0.344851  0.964843  0.036889  1
  Ru  Ru35  1  0.150903  0.498444  0.750016  1
