# generated using pymatgen
data_Dy2YAl12CuRu3
_symmetry_space_group_name_H-M   'P 1'
_cell_length_a   8.82184813
_cell_length_b   8.82355750
_cell_length_c   9.47082100
_cell_angle_alpha   90.00000000
_cell_angle_beta   90.00000000
_cell_angle_gamma   119.54596090
_symmetry_Int_Tables_number   1
_chemical_formula_structural   Dy2YAl12CuRu3
_chemical_formula_sum   'Dy4 Y2 Al24 Cu2 Ru6'
_cell_volume   641.34308196
_cell_formula_units_Z   2
loop_
 _symmetry_equiv_pos_site_id
 _symmetry_equiv_pos_as_xyz
  1  'x, y, z'
loop_
 _atom_site_type_symbol
 _atom_site_label
 _atom_site_symmetry_multiplicity
 _atom_site_fract_x
 _atom_site_fract_y
 _atom_site_fract_z
 _atom_site_occupancy
  Dy  Dy0  1  0.615783  0.810783  0.250000  1
  Dy  Dy1  1  0.806077  0.193903  0.750000  1
  Dy  Dy2  1  0.810779  0.615677  0.750000  1
  Dy  Dy3  1  0.384274  0.189203  0.750000  1
  Y  Y4  1  0.194068  0.806274  0.250000  1
  Y  Y5  1  0.189503  0.383959  0.250000  1
  Al  Al6  1  0.560840  0.439352  0.250000  1
  Al  Al7  1  0.560292  0.122043  0.250000  1
  Al  Al8  1  0.877957  0.439727  0.250000  1
  Al  Al9  1  0.439323  0.560739  0.750000  1
  Al  Al10  1  0.439738  0.877912  0.750000  1
  Al  Al11  1  0.122135  0.560346  0.750000  1
  Al  Al12  1  0.324036  0.157238  0.422216  1
  Al  Al13  1  0.836235  0.163658  0.423471  1
  Al  Al14  1  0.842643  0.676035  0.422236  1
  Al  Al15  1  0.676077  0.842779  0.577894  1
  Al  Al16  1  0.163633  0.836311  0.576830  1
  Al  Al17  1  0.157164  0.323933  0.577991  1
  Al  Al18  1  0.676077  0.842779  0.922106  1
  Al  Al19  1  0.163633  0.836311  0.923170  1
  Al  Al20  1  0.157164  0.323933  0.922009  1
  Al  Al21  1  0.324036  0.157238  0.077784  1
  Al  Al22  1  0.836235  0.163658  0.076529  1
  Al  Al23  1  0.842643  0.676035  0.077764  1
  Al  Al24  1  0.667795  0.332146  0.520099  1
  Al  Al25  1  0.332200  0.667904  0.480075  1
  Al  Al26  1  0.332200  0.667904  0.019925  1
  Al  Al27  1  0.667795  0.332146  0.979901  1
  Al  Al28  1  0.997812  0.001515  0.250000  1
  Al  Al29  1  0.001755  0.998013  0.750000  1
  Cu  Cu30  1  0.500086  0.500056  0.500073  1
  Cu  Cu31  1  0.500086  0.500056  0.999927  1
  Ru  Ru32  1  0.000076  0.000116  0.499894  1
  Ru  Ru33  1  0.000076  0.000116  0.000106  1
  Ru  Ru34  1  0.500135  0.000154  0.500099  1
  Ru  Ru35  1  0.999752  0.499949  0.500272  1
  Ru  Ru36  1  0.500135  0.000154  0.999901  1
  Ru  Ru37  1  0.999752  0.499949  0.999728  1
