# generated using pymatgen
data_ThRe3Si2W
_symmetry_space_group_name_H-M   'P 1'
_cell_length_a   7.92261400
_cell_length_b   7.21317727
_cell_length_c   4.17286700
_cell_angle_alpha   90.00000000
_cell_angle_beta   90.00000000
_cell_angle_gamma   90.02868135
_symmetry_Int_Tables_number   1
_chemical_formula_structural   ThRe3Si2W
_chemical_formula_sum   'Th2 Re6 Si4 W2'
_cell_volume   238.46771542
_cell_formula_units_Z   2
loop_
 _symmetry_equiv_pos_site_id
 _symmetry_equiv_pos_as_xyz
  1  'x, y, z'
loop_
 _atom_site_type_symbol
 _atom_site_label
 _atom_site_symmetry_multiplicity
 _atom_site_fract_x
 _atom_site_fract_y
 _atom_site_fract_z
 _atom_site_occupancy
  Th  Th0  1  0.500000  0.500000  0.000000  1
  Th  Th1  1  0.000000  0.000000  0.500000  1
  Re  Re2  1  0.105907  0.345008  0.000000  1
  Re  Re3  1  0.894093  0.654992  0.000000  1
  Re  Re4  1  0.158601  0.573882  0.500000  1
  Re  Re5  1  0.841399  0.426118  0.500000  1
  Re  Re6  1  0.335340  0.072553  0.000000  1
  Re  Re7  1  0.664660  0.927447  0.000000  1
  Si  Si8  1  0.693728  0.728884  0.500000  1
  Si  Si9  1  0.306272  0.271116  0.500000  1
  Si  Si10  1  0.189970  0.769061  0.000000  1
  Si  Si11  1  0.810030  0.230939  0.000000  1
  W  W12  1  0.608191  0.155019  0.500000  1
  W  W13  1  0.391809  0.844981  0.500000  1
