# generated using pymatgen
data_Ho4Lu4B24IrRu3
_symmetry_space_group_name_H-M   'P 1'
_cell_length_a   3.61869400
_cell_length_b   9.06771371
_cell_length_c   11.42640606
_cell_angle_alpha   90.01664852
_cell_angle_beta   90.00000000
_cell_angle_gamma   90.00000000
_symmetry_Int_Tables_number   1
_chemical_formula_structural   Ho4Lu4B24IrRu3
_chemical_formula_sum   'Ho4 Lu4 B24 Ir1 Ru3'
_cell_volume   374.93785913
_cell_formula_units_Z   1
loop_
 _symmetry_equiv_pos_site_id
 _symmetry_equiv_pos_as_xyz
  1  'x, y, z'
loop_
 _atom_site_type_symbol
 _atom_site_label
 _atom_site_symmetry_multiplicity
 _atom_site_fract_x
 _atom_site_fract_y
 _atom_site_fract_z
 _atom_site_occupancy
  Ho  Ho0  1  0.000000  0.318359  0.414428  1
  Ho  Ho1  1  0.000000  0.679655  0.589008  1
  Ho  Ho2  1  0.000000  0.822665  0.084207  1
  Ho  Ho3  1  0.000000  0.179272  0.913172  1
  Lu  Lu4  1  0.000000  0.945968  0.373513  1
  Lu  Lu5  1  0.000000  0.055922  0.626755  1
  Lu  Lu6  1  0.000000  0.441841  0.125277  1
  Lu  Lu7  1  0.000000  0.555796  0.873481  1
  B  B8  1  0.500000  0.554139  0.433767  1
  B  B9  1  0.500000  0.445700  0.566969  1
  B  B10  1  0.500000  0.054540  0.066929  1
  B  B11  1  0.500000  0.945849  0.932765  1
  B  B12  1  0.500000  0.750839  0.421119  1
  B  B13  1  0.500000  0.250106  0.580178  1
  B  B14  1  0.500000  0.249311  0.079888  1
  B  B15  1  0.500000  0.750621  0.919947  1
  B  B16  1  0.500000  0.792998  0.265407  1
  B  B17  1  0.500000  0.208054  0.733950  1
  B  B18  1  0.500000  0.292271  0.234414  1
  B  B19  1  0.500000  0.707840  0.766058  1
  B  B20  1  0.500000  0.630956  0.183049  1
  B  B21  1  0.500000  0.369295  0.815425  1
  B  B22  1  0.500000  0.130977  0.315644  1
  B  B23  1  0.500000  0.868909  0.684661  1
  B  B24  1  0.500000  0.982393  0.213481  1
  B  B25  1  0.500000  0.017504  0.786352  1
  B  B26  1  0.500000  0.481297  0.286000  1
  B  B27  1  0.500000  0.517462  0.713789  1
  B  B28  1  0.500000  0.606329  0.029434  1
  B  B29  1  0.500000  0.393724  0.970827  1
  B  B30  1  0.500000  0.105825  0.471001  1
  B  B31  1  0.500000  0.893592  0.528880  1
  Ir  Ir32  1  0.000000  0.638219  0.320744  1
  Ru  Ru33  1  0.000000  0.361774  0.679250  1
  Ru  Ru34  1  0.000000  0.138578  0.179919  1
  Ru  Ru35  1  0.000000  0.861417  0.820313  1
