# generated using pymatgen
data_Ho4Sc4B24Ir3Rh
_symmetry_space_group_name_H-M   'P 1'
_cell_length_a   3.54395700
_cell_length_b   9.00091822
_cell_length_c   11.36250027
_cell_angle_alpha   89.97480633
_cell_angle_beta   90.00000000
_cell_angle_gamma   90.00000000
_symmetry_Int_Tables_number   1
_chemical_formula_structural   Ho4Sc4B24Ir3Rh
_chemical_formula_sum   'Ho4 Sc4 B24 Ir3 Rh1'
_cell_volume   362.45085141
_cell_formula_units_Z   1
loop_
 _symmetry_equiv_pos_site_id
 _symmetry_equiv_pos_as_xyz
  1  'x, y, z'
loop_
 _atom_site_type_symbol
 _atom_site_label
 _atom_site_symmetry_multiplicity
 _atom_site_fract_x
 _atom_site_fract_y
 _atom_site_fract_z
 _atom_site_occupancy
  Ho  Ho0  1  0.500000  0.319572  0.413509  1
  Ho  Ho1  1  0.500000  0.680241  0.585846  1
  Ho  Ho2  1  0.500000  0.179843  0.914738  1
  Ho  Ho3  1  0.500000  0.820672  0.086119  1
  Sc  Sc4  1  0.500000  0.444611  0.124455  1
  Sc  Sc5  1  0.500000  0.554992  0.875852  1
  Sc  Sc6  1  0.500000  0.054850  0.624229  1
  Sc  Sc7  1  0.500000  0.945323  0.375345  1
  B  B8  1  0.000000  0.100466  0.472827  1
  B  B9  1  0.000000  0.899622  0.527056  1
  B  B10  1  0.000000  0.399443  0.972886  1
  B  B11  1  0.000000  0.600423  0.027132  1
  B  B12  1  0.000000  0.130176  0.318444  1
  B  B13  1  0.000000  0.869863  0.681374  1
  B  B14  1  0.000000  0.370034  0.818672  1
  B  B15  1  0.000000  0.630016  0.181604  1
  B  B16  1  0.000000  0.054500  0.065525  1
  B  B17  1  0.000000  0.945482  0.934524  1
  B  B18  1  0.000000  0.445220  0.565572  1
  B  B19  1  0.000000  0.554698  0.434308  1
  B  B20  1  0.000000  0.481447  0.285140  1
  B  B21  1  0.000000  0.518376  0.714835  1
  B  B22  1  0.000000  0.018280  0.785238  1
  B  B23  1  0.000000  0.981796  0.214663  1
  B  B24  1  0.000000  0.253688  0.080308  1
  B  B25  1  0.000000  0.746253  0.919880  1
  B  B26  1  0.000000  0.245961  0.580132  1
  B  B27  1  0.000000  0.754021  0.419857  1
  B  B28  1  0.000000  0.295762  0.235725  1
  B  B29  1  0.000000  0.704203  0.764333  1
  B  B30  1  0.000000  0.204297  0.735558  1
  B  B31  1  0.000000  0.795976  0.264410  1
  Ir  Ir32  1  0.500000  0.858309  0.818208  1
  Ir  Ir33  1  0.500000  0.358801  0.681346  1
  Ir  Ir34  1  0.500000  0.641370  0.318845  1
  Rh  Rh35  1  0.500000  0.141413  0.181507  1
