# generated using pymatgen
data_Li12TbHo5In6
_symmetry_space_group_name_H-M   'P 1'
_cell_length_a   4.83807300
_cell_length_b   6.83575900
_cell_length_c   14.49969700
_cell_angle_alpha   90.00000000
_cell_angle_beta   89.99995263
_cell_angle_gamma   90.00000000
_symmetry_Int_Tables_number   1
_chemical_formula_structural   Li12TbHo5In6
_chemical_formula_sum   'Li12 Tb1 Ho5 In6'
_cell_volume   479.53254447
_cell_formula_units_Z   1
loop_
 _symmetry_equiv_pos_site_id
 _symmetry_equiv_pos_as_xyz
  1  'x, y, z'
loop_
 _atom_site_type_symbol
 _atom_site_label
 _atom_site_symmetry_multiplicity
 _atom_site_fract_x
 _atom_site_fract_y
 _atom_site_fract_z
 _atom_site_occupancy
  Li  Li0  1  0.499999  0.250034  0.000072  1
  Li  Li1  1  0.499999  0.749966  0.000072  1
  Li  Li2  1  0.000583  0.249691  0.166673  1
  Li  Li3  1  0.000583  0.750308  0.166673  1
  Li  Li4  1  0.500580  0.250333  0.333336  1
  Li  Li5  1  0.500580  0.749666  0.333336  1
  Li  Li6  1  0.999999  0.249905  0.499991  1
  Li  Li7  1  0.999999  0.750094  0.499991  1
  Li  Li8  1  0.499418  0.250245  0.666592  1
  Li  Li9  1  0.499418  0.749754  0.666592  1
  Li  Li10  1  0.999418  0.249500  0.833336  1
  Li  Li11  1  0.999418  0.750499  0.833336  1
  Tb  Tb12  1  0.499369  0.500000  0.833371  1
  Ho  Ho13  1  0.000001  0.000000  0.999945  1
  Ho  Ho14  1  0.500650  0.500000  0.166595  1
  Ho  Ho15  1  0.000651  0.000000  0.333374  1
  Ho  Ho16  1  0.499999  0.500000  0.500034  1
  Ho  Ho17  1  0.999350  0.000000  0.666681  1
  In  In18  1  0.999993  0.500000  0.000181  1
  In  In19  1  0.500470  0.000000  0.166505  1
  In  In20  1  0.000468  0.500000  0.333495  1
  In  In21  1  0.500000  0.000000  0.499999  1
  In  In22  1  0.999530  0.500000  0.666325  1
  In  In23  1  0.499530  0.000000  0.833495  1
