# generated using pymatgen
data_LaPr(GaPt)2
_symmetry_space_group_name_H-M   'P 1'
_cell_length_a   4.52438700
_cell_length_b   7.21182900
_cell_length_c   7.96555600
_cell_angle_alpha   90.00000000
_cell_angle_beta   90.00000000
_cell_angle_gamma   90.00000000
_symmetry_Int_Tables_number   1
_chemical_formula_structural   LaPr(GaPt)2
_chemical_formula_sum   'La2 Pr2 Ga4 Pt4'
_cell_volume   259.90896609
_cell_formula_units_Z   2
loop_
 _symmetry_equiv_pos_site_id
 _symmetry_equiv_pos_as_xyz
  1  'x, y, z'
loop_
 _atom_site_type_symbol
 _atom_site_label
 _atom_site_symmetry_multiplicity
 _atom_site_fract_x
 _atom_site_fract_y
 _atom_site_fract_z
 _atom_site_occupancy
  La  La0  1  0.750000  0.976872  0.305641  1
  La  La1  1  0.750000  0.476872  0.194359  1
  Pr  Pr2  1  0.250000  0.023310  0.697889  1
  Pr  Pr3  1  0.250000  0.523310  0.802111  1
  Ga  Ga4  1  0.250000  0.165490  0.070497  1
  Ga  Ga5  1  0.250000  0.665490  0.429503  1
  Ga  Ga6  1  0.750000  0.835179  0.925370  1
  Ga  Ga7  1  0.750000  0.335179  0.574630  1
  Pt  Pt8  1  0.250000  0.279144  0.399752  1
  Pt  Pt9  1  0.250000  0.779144  0.100248  1
  Pt  Pt10  1  0.750000  0.720005  0.600535  1
  Pt  Pt11  1  0.750000  0.220005  0.899465  1
