# generated using pymatgen
data_La6Tb(DyRh3)2
_symmetry_space_group_name_H-M   'P 1'
_cell_length_a   7.64069503
_cell_length_b   7.64069520
_cell_length_c   7.64069499
_cell_angle_alpha   70.85693139
_cell_angle_beta   70.85693959
_cell_angle_gamma   70.85692892
_symmetry_Int_Tables_number   1
_chemical_formula_structural   La6Tb(DyRh3)2
_chemical_formula_sum   'La6 Tb1 Dy2 Rh6'
_cell_volume   385.76751924
_cell_formula_units_Z   1
loop_
 _symmetry_equiv_pos_site_id
 _symmetry_equiv_pos_as_xyz
  1  'x, y, z'
loop_
 _atom_site_type_symbol
 _atom_site_label
 _atom_site_symmetry_multiplicity
 _atom_site_fract_x
 _atom_site_fract_y
 _atom_site_fract_z
 _atom_site_occupancy
  La  La0  1  0.160334  0.389204  0.670786  1
  La  La1  1  0.670786  0.160334  0.389204  1
  La  La2  1  0.389204  0.670786  0.160334  1
  La  La3  1  0.839741  0.610637  0.329270  1
  La  La4  1  0.329270  0.839741  0.610637  1
  La  La5  1  0.610637  0.329270  0.839741  1
  Tb  Tb6  1  0.802061  0.802061  0.802061  1
  Dy  Dy7  1  0.000067  0.000067  0.000067  1
  Dy  Dy8  1  0.197841  0.197841  0.197841  1
  Rh  Rh9  1  0.958506  0.160632  0.592641  1
  Rh  Rh10  1  0.592641  0.958506  0.160632  1
  Rh  Rh11  1  0.160632  0.592641  0.958506  1
  Rh  Rh12  1  0.041737  0.839524  0.407017  1
  Rh  Rh13  1  0.407017  0.041737  0.839524  1
  Rh  Rh14  1  0.839524  0.407017  0.041737  1
