# generated using pymatgen
data_YHo5Al24(PdRu3)2
_symmetry_space_group_name_H-M   'P 1'
_cell_length_a   8.81737419
_cell_length_b   8.79802106
_cell_length_c   9.55303018
_cell_angle_alpha   90.04582364
_cell_angle_beta   90.07553075
_cell_angle_gamma   119.59298589
_symmetry_Int_Tables_number   1
_chemical_formula_structural   YHo5Al24(PdRu3)2
_chemical_formula_sum   'Y1 Ho5 Al24 Pd2 Ru6'
_cell_volume   644.40913644
_cell_formula_units_Z   1
loop_
 _symmetry_equiv_pos_site_id
 _symmetry_equiv_pos_as_xyz
  1  'x, y, z'
loop_
 _atom_site_type_symbol
 _atom_site_label
 _atom_site_symmetry_multiplicity
 _atom_site_fract_x
 _atom_site_fract_y
 _atom_site_fract_z
 _atom_site_occupancy
  Y  Y0  1  0.190333  0.385813  0.252781  1
  Ho  Ho1  1  0.809623  0.613313  0.746922  1
  Ho  Ho2  1  0.615571  0.808942  0.251760  1
  Ho  Ho3  1  0.384630  0.191315  0.748234  1
  Ho  Ho4  1  0.191643  0.805428  0.252328  1
  Ho  Ho5  1  0.808384  0.194881  0.747670  1
  Al  Al6  1  0.327448  0.664810  0.024357  1
  Al  Al7  1  0.672607  0.335528  0.975127  1
  Al  Al8  1  0.666706  0.332810  0.522021  1
  Al  Al9  1  0.333373  0.667403  0.478372  1
  Al  Al10  1  0.163888  0.327004  0.577057  1
  Al  Al11  1  0.836138  0.673121  0.423385  1
  Al  Al12  1  0.673997  0.836984  0.575649  1
  Al  Al13  1  0.842845  0.675989  0.079196  1
  Al  Al14  1  0.326258  0.162937  0.424658  1
  Al  Al15  1  0.157107  0.324025  0.920367  1
  Al  Al16  1  0.163566  0.837362  0.577480  1
  Al  Al17  1  0.322434  0.161360  0.080264  1
  Al  Al18  1  0.836132  0.162621  0.422812  1
  Al  Al19  1  0.677818  0.838477  0.919390  1
  Al  Al20  1  0.842056  0.167614  0.079101  1
  Al  Al21  1  0.157586  0.832325  0.920552  1
  Al  Al22  1  0.561626  0.124174  0.252225  1
  Al  Al23  1  0.438397  0.875852  0.747780  1
  Al  Al24  1  0.877584  0.439775  0.249071  1
  Al  Al25  1  0.122249  0.560417  0.750976  1
  Al  Al26  1  0.562634  0.437900  0.252734  1
  Al  Al27  1  0.437806  0.562263  0.747412  1
  Al  Al28  1  0.997426  0.998758  0.250518  1
  Al  Al29  1  0.002084  0.000252  0.749454  1
  Pd  Pd30  1  0.499970  0.999969  0.000056  1
  Pd  Pd31  1  0.500007  0.499941  0.000003  1
  Ru  Ru32  1  0.999870  0.500083  0.999869  1
  Ru  Ru33  1  0.500046  0.000092  0.500006  1
  Ru  Ru34  1  0.999821  0.500161  0.500249  1
  Ru  Ru35  1  0.500224  0.500097  0.500163  1
  Ru  Ru36  1  0.000058  0.000099  0.000054  1
  Ru  Ru37  1  0.000056  0.000100  0.499945  1
