# generated using pymatgen
data_Tb6Lu4Sn5Bi
_symmetry_space_group_name_H-M   'P 1'
_cell_length_a   8.95624301
_cell_length_b   8.95624274
_cell_length_c   6.45405300
_cell_angle_alpha   90.00000000
_cell_angle_beta   90.00000000
_cell_angle_gamma   120.00447461
_symmetry_Int_Tables_number   1
_chemical_formula_structural   Tb6Lu4Sn5Bi
_chemical_formula_sum   'Tb6 Lu4 Sn5 Bi1'
_cell_volume   448.32741813
_cell_formula_units_Z   1
loop_
 _symmetry_equiv_pos_site_id
 _symmetry_equiv_pos_as_xyz
  1  'x, y, z'
loop_
 _atom_site_type_symbol
 _atom_site_label
 _atom_site_symmetry_multiplicity
 _atom_site_fract_x
 _atom_site_fract_y
 _atom_site_fract_z
 _atom_site_occupancy
  Tb  Tb0  1  0.762570  0.762570  0.750000  1
  Tb  Tb1  1  0.238797  0.995831  0.750000  1
  Tb  Tb2  1  0.995831  0.238797  0.750000  1
  Tb  Tb3  1  0.239301  0.239301  0.250000  1
  Tb  Tb4  1  0.759807  0.000397  0.250000  1
  Tb  Tb5  1  0.000397  0.759807  0.250000  1
  Lu  Lu6  1  0.668979  0.332682  0.001505  1
  Lu  Lu7  1  0.332682  0.668979  0.001505  1
  Lu  Lu8  1  0.332682  0.668979  0.498495  1
  Lu  Lu9  1  0.668979  0.332682  0.498495  1
  Sn  Sn10  1  0.602195  0.999622  0.750000  1
  Sn  Sn11  1  0.999622  0.602195  0.750000  1
  Sn  Sn12  1  0.603371  0.603371  0.250000  1
  Sn  Sn13  1  0.397464  0.000800  0.250000  1
  Sn  Sn14  1  0.000800  0.397464  0.250000  1
  Bi  Bi15  1  0.396523  0.396523  0.750000  1
