# generated using pymatgen
data_BaNbPbSe2ClO8
_symmetry_space_group_name_H-M   'P 1'
_cell_length_a   5.50400100
_cell_length_b   8.75775950
_cell_length_c   10.99775800
_cell_angle_alpha   67.72292125
_cell_angle_beta   90.00000000
_cell_angle_gamma   90.00000000
_symmetry_Int_Tables_number   1
_chemical_formula_structural   BaNbPbSe2ClO8
_chemical_formula_sum   'Ba2 Nb2 Pb2 Se4 Cl2 O16'
_cell_volume   490.55429147
_cell_formula_units_Z   2
loop_
 _symmetry_equiv_pos_site_id
 _symmetry_equiv_pos_as_xyz
  1  'x, y, z'
loop_
 _atom_site_type_symbol
 _atom_site_label
 _atom_site_symmetry_multiplicity
 _atom_site_fract_x
 _atom_site_fract_y
 _atom_site_fract_z
 _atom_site_occupancy
  Ba  Ba0  1  0.964215  0.176687  0.816548  1
  Ba  Ba1  1  0.464215  0.823313  0.183452  1
  Nb  Nb2  1  0.481748  0.342601  0.065842  1
  Nb  Nb3  1  0.981748  0.657399  0.934158  1
  Pb  Pb4  1  0.977831  0.691276  0.517643  1
  Pb  Pb5  1  0.477831  0.308724  0.482357  1
  Se  Se6  1  0.482229  0.881814  0.796433  1
  Se  Se7  1  0.982229  0.118186  0.203567  1
  Se  Se8  1  0.491339  0.490339  0.724628  1
  Se  Se9  1  0.991339  0.509661  0.275372  1
  Cl  Cl10  1  0.005009  0.141574  0.535664  1
  Cl  Cl11  1  0.505009  0.858426  0.464336  1
  O  O12  1  0.696579  0.828207  0.928789  1
  O  O13  1  0.196579  0.171793  0.071211  1
  O  O14  1  0.214220  0.872574  0.888028  1
  O  O15  1  0.714220  0.127426  0.111972  1
  O  O16  1  0.521919  0.086949  0.732951  1
  O  O17  1  0.021919  0.913051  0.267049  1
  O  O18  1  0.710873  0.446625  0.628817  1
  O  O19  1  0.210873  0.553375  0.371183  1
  O  O20  1  0.238278  0.428704  0.663344  1
  O  O21  1  0.738278  0.571296  0.336656  1
  O  O22  1  0.542563  0.320332  0.870815  1
  O  O23  1  0.042563  0.679668  0.129185  1
  O  O24  1  0.288015  0.532512  0.963449  1
  O  O25  1  0.788015  0.467488  0.036551  1
  O  O26  1  0.420563  0.324422  0.231914  1
  O  O27  1  0.920563  0.675578  0.768086  1
