# generated using pymatgen
data_Sb3MoPb4O13
_symmetry_space_group_name_H-M   'P 1'
_cell_length_a   7.56958397
_cell_length_b   7.56978823
_cell_length_c   7.56982143
_cell_angle_alpha   60.40993939
_cell_angle_beta   60.40951396
_cell_angle_gamma   60.41128826
_symmetry_Int_Tables_number   1
_chemical_formula_structural   Sb3MoPb4O13
_chemical_formula_sum   'Sb3 Mo1 Pb4 O13'
_cell_volume   309.55422611
_cell_formula_units_Z   1
loop_
 _symmetry_equiv_pos_site_id
 _symmetry_equiv_pos_as_xyz
  1  'x, y, z'
loop_
 _atom_site_type_symbol
 _atom_site_label
 _atom_site_symmetry_multiplicity
 _atom_site_fract_x
 _atom_site_fract_y
 _atom_site_fract_z
 _atom_site_occupancy
  Sb  Sb0  1  0.000782  0.499776  0.499820  1
  Sb  Sb1  1  0.499839  0.499762  0.000848  1
  Sb  Sb2  1  0.499743  0.000909  0.499773  1
  Mo  Mo3  1  0.499738  0.499718  0.499711  1
  Pb  Pb4  1  0.999106  0.998593  0.999166  1
  Pb  Pb5  1  0.501760  0.000438  0.000435  1
  Pb  Pb6  1  0.000586  0.000522  0.501686  1
  Pb  Pb7  1  0.000623  0.501739  0.000223  1
  O  O8  1  0.841613  0.420573  0.420557  1
  O  O9  1  0.423491  0.819466  0.819458  1
  O  O10  1  0.420470  0.420659  0.841630  1
  O  O11  1  0.819422  0.819488  0.423443  1
  O  O12  1  0.819408  0.423541  0.819433  1
  O  O13  1  0.420516  0.841626  0.420582  1
  O  O14  1  0.161808  0.576734  0.576834  1
  O  O15  1  0.575253  0.182091  0.182082  1
  O  O16  1  0.576753  0.576747  0.161887  1
  O  O17  1  0.182039  0.182076  0.575359  1
  O  O18  1  0.182058  0.575372  0.182067  1
  O  O19  1  0.576717  0.161882  0.576803  1
  O  O20  1  0.123276  0.123287  0.123203  1
