# generated using pymatgen
data_La3Th(GaRh)4
_symmetry_space_group_name_H-M   'P 1'
_cell_length_a   4.38255300
_cell_length_b   7.04322092
_cell_length_c   8.11271289
_cell_angle_alpha   89.99526861
_cell_angle_beta   90.00000000
_cell_angle_gamma   90.00000000
_symmetry_Int_Tables_number   1
_chemical_formula_structural   La3Th(GaRh)4
_chemical_formula_sum   'La3 Th1 Ga4 Rh4'
_cell_volume   250.41745236
_cell_formula_units_Z   1
loop_
 _symmetry_equiv_pos_site_id
 _symmetry_equiv_pos_as_xyz
  1  'x, y, z'
loop_
 _atom_site_type_symbol
 _atom_site_label
 _atom_site_symmetry_multiplicity
 _atom_site_fract_x
 _atom_site_fract_y
 _atom_site_fract_z
 _atom_site_occupancy
  La  La0  1  0.750000  0.460321  0.814259  1
  La  La1  1  0.750000  0.958689  0.683751  1
  La  La2  1  0.250000  0.039722  0.317423  1
  Th  Th3  1  0.250000  0.541503  0.182020  1
  Ga  Ga4  1  0.250000  0.633667  0.563108  1
  Ga  Ga5  1  0.750000  0.361512  0.436881  1
  Ga  Ga6  1  0.750000  0.870303  0.064369  1
  Ga  Ga7  1  0.250000  0.136400  0.935486  1
  Rh  Rh8  1  0.250000  0.758060  0.892094  1
  Rh  Rh9  1  0.750000  0.250540  0.120297  1
  Rh  Rh10  1  0.750000  0.728700  0.372179  1
  Rh  Rh11  1  0.250000  0.260582  0.618134  1
