# generated using pymatgen
data_Ca20Zn8SnHg3
_symmetry_space_group_name_H-M   'P 1'
_cell_length_a   7.95633100
_cell_length_b   7.95633100
_cell_length_c   15.10767600
_cell_angle_alpha   90.00000000
_cell_angle_beta   90.00000000
_cell_angle_gamma   90.00000000
_symmetry_Int_Tables_number   1
_chemical_formula_structural   Ca20Zn8SnHg3
_chemical_formula_sum   'Ca20 Zn8 Sn1 Hg3'
_cell_volume   956.36428041
_cell_formula_units_Z   1
loop_
 _symmetry_equiv_pos_site_id
 _symmetry_equiv_pos_as_xyz
  1  'x, y, z'
loop_
 _atom_site_type_symbol
 _atom_site_label
 _atom_site_symmetry_multiplicity
 _atom_site_fract_x
 _atom_site_fract_y
 _atom_site_fract_z
 _atom_site_occupancy
  Ca  Ca0  1  0.671930  0.167526  0.102014  1
  Ca  Ca1  1  0.169155  0.670503  0.605087  1
  Ca  Ca2  1  0.328070  0.832474  0.102014  1
  Ca  Ca3  1  0.830845  0.329497  0.605087  1
  Ca  Ca4  1  0.832474  0.671930  0.102014  1
  Ca  Ca5  1  0.329497  0.169155  0.605087  1
  Ca  Ca6  1  0.167526  0.328070  0.102014  1
  Ca  Ca7  1  0.670503  0.830845  0.605087  1
  Ca  Ca8  1  0.832474  0.328070  0.897986  1
  Ca  Ca9  1  0.329497  0.830845  0.394913  1
  Ca  Ca10  1  0.167526  0.671930  0.897986  1
  Ca  Ca11  1  0.670503  0.169155  0.394913  1
  Ca  Ca12  1  0.671930  0.832474  0.897986  1
  Ca  Ca13  1  0.169155  0.329497  0.394913  1
  Ca  Ca14  1  0.328070  0.167526  0.897986  1
  Ca  Ca15  1  0.830845  0.670503  0.394913  1
  Ca  Ca16  1  0.500000  0.500000  0.756004  1
  Ca  Ca17  1  0.000000  0.000000  0.248315  1
  Ca  Ca18  1  0.000000  0.000000  0.751685  1
  Ca  Ca19  1  0.500000  0.500000  0.243996  1
  Zn  Zn20  1  0.617368  0.117978  0.750747  1
  Zn  Zn21  1  0.117978  0.617368  0.249253  1
  Zn  Zn22  1  0.882022  0.382632  0.249253  1
  Zn  Zn23  1  0.382632  0.882022  0.750747  1
  Zn  Zn24  1  0.882022  0.617368  0.750747  1
  Zn  Zn25  1  0.382632  0.117978  0.249253  1
  Zn  Zn26  1  0.117978  0.382632  0.750747  1
  Zn  Zn27  1  0.617368  0.882022  0.249253  1
  Sn  Sn28  1  0.000000  0.000000  0.000000  1
  Hg  Hg29  1  0.500000  0.500000  0.500000  1
  Hg  Hg30  1  0.500000  0.500000  0.000000  1
  Hg  Hg31  1  0.000000  0.000000  0.500000  1
