# generated using pymatgen
data_TbY2U5F30
_symmetry_space_group_name_H-M   'P 1'
_cell_length_a   8.60802817
_cell_length_b   8.61348173
_cell_length_c   8.60802926
_cell_angle_alpha   100.34877317
_cell_angle_beta   100.10440771
_cell_angle_gamma   100.34877603
_symmetry_Int_Tables_number   1
_chemical_formula_structural   TbY2U5F30
_chemical_formula_sum   'Tb1 Y2 U5 F30'
_cell_volume   603.25148963
_cell_formula_units_Z   1
loop_
 _symmetry_equiv_pos_site_id
 _symmetry_equiv_pos_as_xyz
  1  'x, y, z'
loop_
 _atom_site_type_symbol
 _atom_site_label
 _atom_site_symmetry_multiplicity
 _atom_site_fract_x
 _atom_site_fract_y
 _atom_site_fract_z
 _atom_site_occupancy
  Tb  Tb0  1  0.822272  0.250000  0.677728  1
  Y  Y1  1  0.251999  0.250000  0.248001  1
  Y  Y2  1  0.181602  0.750000  0.318398  1
  U  U3  1  0.245194  0.675665  0.821088  1
  U  U4  1  0.678912  0.824335  0.254806  1
  U  U5  1  0.749573  0.750000  0.750427  1
  U  U6  1  0.319017  0.177296  0.744628  1
  U  U7  1  0.755372  0.322704  0.180983  1
  F  F8  1  0.956253  0.538695  0.249626  1
  F  F9  1  0.817003  0.347177  0.447987  1
  F  F10  1  0.491670  0.722648  0.718666  1
  F  F11  1  0.351258  0.449850  0.818634  1
  F  F12  1  0.008357  0.784620  0.775125  1
  F  F13  1  0.750415  0.035135  0.463850  1
  F  F14  1  0.939945  0.842447  0.314907  1
  F  F15  1  0.224862  0.218666  0.982417  1
  F  F16  1  0.774769  0.004279  0.776312  1
  F  F17  1  0.318851  0.942244  0.848804  1
  F  F18  1  0.280018  0.277609  0.514618  1
  F  F19  1  0.456375  0.816895  0.348430  1
  F  F20  1  0.535649  0.250000  0.964351  1
  F  F21  1  0.269653  0.512674  0.277210  1
  F  F22  1  0.151570  0.683105  0.043625  1
  F  F23  1  0.839585  0.315368  0.948195  1
  F  F24  1  0.723688  0.495721  0.725231  1
  F  F25  1  0.466176  0.750000  0.033824  1
  F  F26  1  0.551805  0.184632  0.660415  1
  F  F27  1  0.724875  0.715380  0.491643  1
  F  F28  1  0.681366  0.050150  0.148742  1
  F  F29  1  0.222790  0.987326  0.230347  1
  F  F30  1  0.781334  0.777352  0.008330  1
  F  F31  1  0.052013  0.152823  0.682997  1
  F  F32  1  0.250374  0.961305  0.543747  1
  F  F33  1  0.985382  0.222391  0.219982  1
  F  F34  1  0.651196  0.557756  0.181149  1
  F  F35  1  0.517583  0.281334  0.275138  1
  F  F36  1  0.185093  0.657553  0.560055  1
  F  F37  1  0.036150  0.464865  0.749585  1
