# generated using pymatgen
data_BiIF34
_symmetry_space_group_name_H-M   'P 1'
_cell_length_a   9.04144456
_cell_length_b   8.54827444
_cell_length_c   10.01936694
_cell_angle_alpha   81.51422808
_cell_angle_beta   87.36731884
_cell_angle_gamma   66.10682686
_symmetry_Int_Tables_number   1
_chemical_formula_structural   BiIF34
_chemical_formula_sum   'Bi1 I1 F34'
_cell_volume   700.18832249
_cell_formula_units_Z   1
loop_
 _symmetry_equiv_pos_site_id
 _symmetry_equiv_pos_as_xyz
  1  'x, y, z'
loop_
 _atom_site_type_symbol
 _atom_site_label
 _atom_site_symmetry_multiplicity
 _atom_site_fract_x
 _atom_site_fract_y
 _atom_site_fract_z
 _atom_site_occupancy
  Bi  Bi0  1  0.135888  0.753388  0.241167  1
  I  I1  1  0.866130  0.246402  0.763876  1
  F  F2  1  0.603232  0.200002  0.482890  1
  F  F3  1  0.402536  0.786520  0.505217  1
  F  F4  1  0.822850  0.720720  0.724775  1
  F  F5  1  0.171628  0.316639  0.293513  1
  F  F6  1  0.094032  0.747608  0.867032  1
  F  F7  1  0.923843  0.218382  0.147376  1
  F  F8  1  0.553022  0.145142  0.371748  1
  F  F9  1  0.437229  0.855371  0.617463  1
  F  F10  1  0.652755  0.322537  0.702771  1
  F  F11  1  0.367570  0.674674  0.310643  1
  F  F12  1  0.931036  0.067926  0.658897  1
  F  F13  1  0.050722  0.937217  0.370542  1
  F  F14  1  0.904703  0.387199  0.618433  1
  F  F15  1  0.086137  0.604097  0.404170  1
  F  F16  1  0.871169  0.789769  0.600487  1
  F  F17  1  0.148704  0.173849  0.371939  1
  F  F18  1  0.801894  0.427533  0.866492  1
  F  F19  1  0.209776  0.543691  0.139427  1
  F  F20  1  0.208989  0.694454  0.762860  1
  F  F21  1  0.784259  0.322760  0.215203  1
  F  F22  1  0.911053  0.833344  0.156606  1
  F  F23  1  0.077432  0.173338  0.826833  1
  F  F24  1  0.824710  0.104569  0.906968  1
  F  F25  1  0.178955  0.917849  0.089547  1
  F  F26  1  0.483429  0.589679  0.982797  1
  F  F27  1  0.518557  0.409706  0.010922  1
  F  F28  1  0.451636  0.093252  0.869307  1
  F  F29  1  0.532238  0.925319  0.136284  1
  F  F30  1  0.284949  0.242829  0.607860  1
  F  F31  1  0.709245  0.757450  0.382880  1
  F  F32  1  0.258940  0.388683  0.673851  1
  F  F33  1  0.749504  0.601734  0.326888  1
  F  F34  1  0.550649  0.926954  0.834457  1
  F  F35  1  0.440597  0.099409  0.157877  1
