# generated using pymatgen
data_YAl2GaAu
_symmetry_space_group_name_H-M   'P 1'
_cell_length_a   4.18027357
_cell_length_b   4.18027401
_cell_length_c   6.33646969
_cell_angle_alpha   70.73983863
_cell_angle_beta   70.73983586
_cell_angle_gamma   90.00000828
_symmetry_Int_Tables_number   1
_chemical_formula_structural   YAl2GaAu
_chemical_formula_sum   'Y1 Al2 Ga1 Au1'
_cell_volume   97.94171286
_cell_formula_units_Z   1
loop_
 _symmetry_equiv_pos_site_id
 _symmetry_equiv_pos_as_xyz
  1  'x, y, z'
loop_
 _atom_site_type_symbol
 _atom_site_label
 _atom_site_symmetry_multiplicity
 _atom_site_fract_x
 _atom_site_fract_y
 _atom_site_fract_z
 _atom_site_occupancy
  Y  Y0  1  0.984830  0.984830  0.030339  1
  Al  Al1  1  0.749918  0.249918  0.500164  1
  Al  Al2  1  0.249918  0.749918  0.500164  1
  Ga  Ga3  1  0.395580  0.395580  0.208841  1
  Au  Au4  1  0.619754  0.619754  0.760491  1
