# generated using pymatgen
data_LuHf3(Al3Co)6
_symmetry_space_group_name_H-M   'P 1'
_cell_length_a   7.28635812
_cell_length_b   7.27928617
_cell_length_c   9.04622000
_cell_angle_alpha   90.00000000
_cell_angle_beta   90.00000000
_cell_angle_gamma   119.42158428
_symmetry_Int_Tables_number   1
_chemical_formula_structural   LuHf3(Al3Co)6
_chemical_formula_sum   'Lu1 Hf3 Al18 Co6'
_cell_volume   417.92560034
_cell_formula_units_Z   1
loop_
 _symmetry_equiv_pos_site_id
 _symmetry_equiv_pos_as_xyz
  1  'x, y, z'
loop_
 _atom_site_type_symbol
 _atom_site_label
 _atom_site_symmetry_multiplicity
 _atom_site_fract_x
 _atom_site_fract_y
 _atom_site_fract_z
 _atom_site_occupancy
  Lu  Lu0  1  0.327276  0.007866  0.750000  1
  Hf  Hf1  1  0.992664  0.672770  0.250000  1
  Hf  Hf2  1  0.006464  0.327415  0.750000  1
  Hf  Hf3  1  0.673242  0.992865  0.250000  1
  Al  Al4  1  0.117676  0.118378  0.250000  1
  Al  Al5  1  0.876597  0.880055  0.750000  1
  Al  Al6  1  0.329909  0.331663  0.544713  1
  Al  Al7  1  0.670276  0.670132  0.050807  1
  Al  Al8  1  0.329909  0.331663  0.955287  1
  Al  Al9  1  0.670276  0.670132  0.449193  1
  Al  Al10  1  0.338571  0.560446  0.250000  1
  Al  Al11  1  0.665697  0.444225  0.750000  1
  Al  Al12  1  0.561895  0.339531  0.250000  1
  Al  Al13  1  0.439059  0.655663  0.750000  1
  Al  Al14  1  0.994099  0.335011  0.074749  1
  Al  Al15  1  0.003763  0.663233  0.571166  1
  Al  Al16  1  0.335519  0.994666  0.423292  1
  Al  Al17  1  0.666795  0.005328  0.928761  1
  Al  Al18  1  0.003763  0.663233  0.928834  1
  Al  Al19  1  0.994099  0.335011  0.425251  1
  Al  Al20  1  0.666795  0.005328  0.571239  1
  Al  Al21  1  0.335519  0.994666  0.076708  1
  Co  Co22  1  0.998652  0.999028  0.001649  1
  Co  Co23  1  0.998652  0.999028  0.498351  1
  Co  Co24  1  0.673064  0.328746  0.001462  1
  Co  Co25  1  0.328353  0.672586  0.498108  1
  Co  Co26  1  0.328353  0.672586  0.001892  1
  Co  Co27  1  0.673064  0.328746  0.498538  1
