# generated using pymatgen
data_Pr5(In2Pd)2
_symmetry_space_group_name_H-M   'P 1'
_cell_length_a   8.34362600
_cell_length_b   18.90097200
_cell_length_c   3.82626300
_cell_angle_alpha   90.00000000
_cell_angle_beta   90.00000000
_cell_angle_gamma   90.00000000
_symmetry_Int_Tables_number   1
_chemical_formula_structural   Pr5(In2Pd)2
_chemical_formula_sum   'Pr10 In8 Pd4'
_cell_volume   603.41178181
_cell_formula_units_Z   2
loop_
 _symmetry_equiv_pos_site_id
 _symmetry_equiv_pos_as_xyz
  1  'x, y, z'
loop_
 _atom_site_type_symbol
 _atom_site_label
 _atom_site_symmetry_multiplicity
 _atom_site_fract_x
 _atom_site_fract_y
 _atom_site_fract_z
 _atom_site_occupancy
  Pr  Pr0  1  0.500000  0.500000  0.000000  1
  Pr  Pr1  1  0.000000  0.000000  0.000000  1
  Pr  Pr2  1  0.743153  0.280519  0.000000  1
  Pr  Pr3  1  0.256847  0.719481  0.000000  1
  Pr  Pr4  1  0.756847  0.780519  0.000000  1
  Pr  Pr5  1  0.243153  0.219481  0.000000  1
  Pr  Pr6  1  0.620158  0.082907  0.000000  1
  Pr  Pr7  1  0.379842  0.917093  0.000000  1
  Pr  Pr8  1  0.879842  0.582907  0.000000  1
  Pr  Pr9  1  0.120158  0.417093  0.000000  1
  In  In10  1  0.708629  0.929627  0.500000  1
  In  In11  1  0.291371  0.070373  0.500000  1
  In  In12  1  0.791371  0.429627  0.500000  1
  In  In13  1  0.208629  0.570373  0.500000  1
  In  In14  1  0.574120  0.651061  0.500000  1
  In  In15  1  0.425880  0.348939  0.500000  1
  In  In16  1  0.925880  0.151061  0.500000  1
  In  In17  1  0.074120  0.848939  0.500000  1
  Pd  Pd18  1  0.522954  0.196277  0.500000  1
  Pd  Pd19  1  0.477046  0.803723  0.500000  1
  Pd  Pd20  1  0.977046  0.696277  0.500000  1
  Pd  Pd21  1  0.022954  0.303723  0.500000  1
