# generated using pymatgen
data_Hf2Cr2Co10P7
_symmetry_space_group_name_H-M   'P 1'
_cell_length_a   8.87458604
_cell_length_b   8.89985327
_cell_length_c   3.56745300
_cell_angle_alpha   90.00000000
_cell_angle_beta   90.00000000
_cell_angle_gamma   119.85565315
_symmetry_Int_Tables_number   1
_chemical_formula_structural   Hf2Cr2Co10P7
_chemical_formula_sum   'Hf2 Cr2 Co10 P7'
_cell_volume   244.37102095
_cell_formula_units_Z   1
loop_
 _symmetry_equiv_pos_site_id
 _symmetry_equiv_pos_as_xyz
  1  'x, y, z'
loop_
 _atom_site_type_symbol
 _atom_site_label
 _atom_site_symmetry_multiplicity
 _atom_site_fract_x
 _atom_site_fract_y
 _atom_site_fract_z
 _atom_site_occupancy
  Hf  Hf0  1  0.665428  0.330952  0.500000  1
  Hf  Hf1  1  0.336198  0.668690  0.000000  1
  Cr  Cr2  1  0.219976  0.098040  0.500000  1
  Cr  Cr3  1  0.903751  0.122305  0.500000  1
  Co  Co4  1  0.722200  0.880304  0.000000  1
  Co  Co5  1  0.934661  0.371919  0.000000  1
  Co  Co6  1  0.162727  0.285577  0.000000  1
  Co  Co7  1  0.386528  0.440803  0.500000  1
  Co  Co8  1  0.119521  0.838650  0.000000  1
  Co  Co9  1  0.436911  0.064333  0.000000  1
  Co  Co10  1  0.052383  0.613148  0.500000  1
  Co  Co11  1  0.560452  0.945544  0.500000  1
  Co  Co12  1  0.626959  0.562201  0.000000  1
  Co  Co13  1  0.868602  0.772438  0.500000  1
  P  P14  1  0.412573  0.294791  0.000000  1
  P  P15  1  0.288098  0.882660  0.500000  1
  P  P16  1  0.704513  0.117002  0.000000  1
  P  P17  1  0.592629  0.711017  0.500000  1
  P  P18  1  0.882504  0.587706  0.000000  1
  P  P19  1  0.119667  0.410384  0.500000  1
  P  P20  1  0.003722  0.001532  0.000000  1
