# generated using pymatgen
data_Dy10Ga3NiBi2
_symmetry_space_group_name_H-M   'P 1'
_cell_length_a   8.58074111
_cell_length_b   8.58074122
_cell_length_c   8.75870907
_cell_angle_alpha   124.36000883
_cell_angle_beta   124.36001399
_cell_angle_gamma   81.24594367
_symmetry_Int_Tables_number   1
_chemical_formula_structural   Dy10Ga3NiBi2
_chemical_formula_sum   'Dy10 Ga3 Ni1 Bi2'
_cell_volume   426.17884240
_cell_formula_units_Z   1
loop_
 _symmetry_equiv_pos_site_id
 _symmetry_equiv_pos_as_xyz
  1  'x, y, z'
loop_
 _atom_site_type_symbol
 _atom_site_label
 _atom_site_symmetry_multiplicity
 _atom_site_fract_x
 _atom_site_fract_y
 _atom_site_fract_z
 _atom_site_occupancy
  Dy  Dy0  1  0.995466  0.997406  0.992872  1
  Dy  Dy1  1  0.502594  0.504534  0.007128  1
  Dy  Dy2  1  0.780301  0.296356  0.795982  1
  Dy  Dy3  1  0.203644  0.719699  0.204018  1
  Dy  Dy4  1  0.484318  0.000373  0.204018  1
  Dy  Dy5  1  0.303171  0.460137  0.500000  1
  Dy  Dy6  1  0.039863  0.196829  0.500000  1
  Dy  Dy7  1  0.499627  0.015682  0.795982  1
  Dy  Dy8  1  0.704269  0.515809  0.500000  1
  Dy  Dy9  1  0.984191  0.795731  0.500000  1
  Ga  Ga10  1  0.146001  0.644544  0.790545  1
  Ga  Ga11  1  0.855456  0.353999  0.209455  1
  Ga  Ga12  1  0.634388  0.865612  0.500000  1
  Ni  Ni13  1  0.377511  0.122489  0.500000  1
  Bi  Bi14  1  0.244600  0.255400  0.000000  1
  Bi  Bi15  1  0.744600  0.755400  0.000000  1
