# generated using pymatgen
data_YTe28
_symmetry_space_group_name_H-M   'P 1'
_cell_length_a   10.61377637
_cell_length_b   11.41763895
_cell_length_c   12.84033837
_cell_angle_alpha   119.18054618
_cell_angle_beta   114.91574655
_cell_angle_gamma   90.73326570
_symmetry_Int_Tables_number   1
_chemical_formula_structural   YTe28
_chemical_formula_sum   'Y1 Te28'
_cell_volume   1184.41639065
_cell_formula_units_Z   1
loop_
 _symmetry_equiv_pos_site_id
 _symmetry_equiv_pos_as_xyz
  1  'x, y, z'
loop_
 _atom_site_type_symbol
 _atom_site_label
 _atom_site_symmetry_multiplicity
 _atom_site_fract_x
 _atom_site_fract_y
 _atom_site_fract_z
 _atom_site_occupancy
  Y  Y0  1  0.500000  0.000000  0.000000  1
  Te  Te1  1  0.173005  0.100494  0.404328  1
  Te  Te2  1  0.599726  0.137963  0.451853  1
  Te  Te3  1  0.272475  0.296921  0.860786  1
  Te  Te4  1  0.823557  0.322957  0.860709  1
  Te  Te5  1  0.202513  0.520114  0.682048  1
  Te  Te6  1  0.792013  0.543285  0.662240  1
  Te  Te7  1  0.400274  0.862037  0.548147  1
  Te  Te8  1  0.826995  0.899506  0.595672  1
  Te  Te9  1  0.176443  0.677043  0.139291  1
  Te  Te10  1  0.727525  0.703079  0.139214  1
  Te  Te11  1  0.207987  0.456715  0.337760  1
  Te  Te12  1  0.797487  0.479886  0.317952  1
  Te  Te13  1  0.756077  0.040412  0.795626  1
  Te  Te14  1  0.263478  0.010896  0.758639  1
  Te  Te15  1  0.879966  0.640712  0.944745  1
  Te  Te16  1  0.397339  0.722687  0.963125  1
  Te  Te17  1  0.562731  0.246514  0.284111  1
  Te  Te18  1  0.009298  0.293663  0.333419  1
  Te  Te19  1  0.736522  0.989104  0.241361  1
  Te  Te20  1  0.243923  0.959588  0.204374  1
  Te  Te21  1  0.602661  0.277313  0.036875  1
  Te  Te22  1  0.120034  0.359288  0.055255  1
  Te  Te23  1  0.990702  0.706337  0.666581  1
  Te  Te24  1  0.437269  0.753486  0.715889  1
  Te  Te25  1  0.026758  0.332167  0.686575  1
  Te  Te26  1  0.494203  0.277661  0.627670  1
  Te  Te27  1  0.505797  0.722339  0.372330  1
  Te  Te28  1  0.973242  0.667833  0.313425  1
