# generated using pymatgen
data_RbGeAsIrRh
_symmetry_space_group_name_H-M   'P 1'
_cell_length_a   7.71606020
_cell_length_b   7.71606039
_cell_length_c   7.71605970
_cell_angle_alpha   149.28645859
_cell_angle_beta   149.30422706
_cell_angle_gamma   43.97675356
_symmetry_Int_Tables_number   1
_chemical_formula_structural   RbGeAsIrRh
_chemical_formula_sum   'Rb1 Ge1 As1 Ir1 Rh1'
_cell_volume   119.43534219
_cell_formula_units_Z   1
loop_
 _symmetry_equiv_pos_site_id
 _symmetry_equiv_pos_as_xyz
  1  'x, y, z'
loop_
 _atom_site_type_symbol
 _atom_site_label
 _atom_site_symmetry_multiplicity
 _atom_site_fract_x
 _atom_site_fract_y
 _atom_site_fract_z
 _atom_site_occupancy
  Rb  Rb0  1  0.002404  0.002404  0.000000  1
  Ge  Ge1  1  0.346340  0.346340  0.000000  1
  As  As2  1  0.654616  0.654616  0.000000  1
  Ir  Ir3  1  0.748140  0.248140  0.500000  1
  Rh  Rh4  1  0.248500  0.748500  0.500000  1
