# generated using pymatgen
data_DyTh3(Al3Re)2
_symmetry_space_group_name_H-M   'P 1'
_cell_length_a   5.55866600
_cell_length_b   5.55866689
_cell_length_c   9.18004900
_cell_angle_alpha   90.00000000
_cell_angle_beta   90.00000000
_cell_angle_gamma   119.99999468
_symmetry_Int_Tables_number   1
_chemical_formula_structural   DyTh3(Al3Re)2
_chemical_formula_sum   'Dy1 Th3 Al6 Re2'
_cell_volume   245.65006506
_cell_formula_units_Z   1
loop_
 _symmetry_equiv_pos_site_id
 _symmetry_equiv_pos_as_xyz
  1  'x, y, z'
loop_
 _atom_site_type_symbol
 _atom_site_label
 _atom_site_symmetry_multiplicity
 _atom_site_fract_x
 _atom_site_fract_y
 _atom_site_fract_z
 _atom_site_occupancy
  Dy  Dy0  1  0.333333  0.666666  0.943899  1
  Th  Th1  1  0.666667  0.333333  0.051097  1
  Th  Th2  1  0.666667  0.333333  0.453992  1
  Th  Th3  1  0.333333  0.666666  0.546170  1
  Al  Al4  1  0.162179  0.324360  0.246860  1
  Al  Al5  1  0.162178  0.837820  0.246860  1
  Al  Al6  1  0.675641  0.837820  0.246860  1
  Al  Al7  1  0.323292  0.161646  0.753647  1
  Al  Al8  1  0.838353  0.161646  0.753647  1
  Al  Al9  1  0.838353  0.676706  0.753647  1
  Re  Re10  1  0.000000  0.000000  0.001240  1
  Re  Re11  1  0.000000  0.000000  0.502086  1
