# generated using pymatgen
data_PrSbO
_symmetry_space_group_name_H-M   'P 1'
_cell_length_a   4.24288113
_cell_length_b   4.24288111
_cell_length_c   7.82279366
_cell_angle_alpha   89.29598965
_cell_angle_beta   89.29599286
_cell_angle_gamma   89.99925255
_symmetry_Int_Tables_number   1
_chemical_formula_structural   PrSbO
_chemical_formula_sum   'Pr2 Sb2 O2'
_cell_volume   140.80498422
_cell_formula_units_Z   2
loop_
 _symmetry_equiv_pos_site_id
 _symmetry_equiv_pos_as_xyz
  1  'x, y, z'
loop_
 _atom_site_type_symbol
 _atom_site_label
 _atom_site_symmetry_multiplicity
 _atom_site_fract_x
 _atom_site_fract_y
 _atom_site_fract_z
 _atom_site_occupancy
  Pr  Pr0  1  0.746984  0.746984  0.641538  1
  Pr  Pr1  1  0.253016  0.253016  0.358462  1
  Sb  Sb2  1  0.762663  0.762663  0.056398  1
  Sb  Sb3  1  0.237337  0.237337  0.943602  1
  O  O4  1  0.749665  0.250335  0.500000  1
  O  O5  1  0.250335  0.749665  0.500000  1
