# generated using pymatgen
data_Zr6Zn20Cu3Se
_symmetry_space_group_name_H-M   'P 1'
_cell_length_a   8.69141977
_cell_length_b   8.69139296
_cell_length_c   8.73090100
_cell_angle_alpha   59.84947487
_cell_angle_beta   59.84921921
_cell_angle_gamma   60.30061651
_symmetry_Int_Tables_number   1
_chemical_formula_structural   Zr6Zn20Cu3Se
_chemical_formula_sum   'Zr6 Zn20 Cu3 Se1'
_cell_volume   466.34132105
_cell_formula_units_Z   1
loop_
 _symmetry_equiv_pos_site_id
 _symmetry_equiv_pos_as_xyz
  1  'x, y, z'
loop_
 _atom_site_type_symbol
 _atom_site_label
 _atom_site_symmetry_multiplicity
 _atom_site_fract_x
 _atom_site_fract_y
 _atom_site_fract_z
 _atom_site_occupancy
  Zr  Zr0  1  0.711845  0.288151  0.288144  1
  Zr  Zr1  1  0.288153  0.711845  0.711864  1
  Zr  Zr2  1  0.288145  0.711854  0.288131  1
  Zr  Zr3  1  0.711853  0.288146  0.711867  1
  Zr  Zr4  1  0.285577  0.285573  0.714425  1
  Zr  Zr5  1  0.714435  0.714433  0.285567  1
  Zn  Zn6  1  0.118374  0.118386  0.126412  1
  Zn  Zn7  1  0.881623  0.881615  0.873593  1
  Zn  Zn8  1  0.118385  0.118379  0.636830  1
  Zn  Zn9  1  0.126423  0.636833  0.118368  1
  Zn  Zn10  1  0.881617  0.881627  0.363172  1
  Zn  Zn11  1  0.873577  0.363169  0.881631  1
  Zn  Zn12  1  0.636832  0.126425  0.118377  1
  Zn  Zn13  1  0.363168  0.873578  0.881622  1
  Zn  Zn14  1  0.500001  0.999998  0.000002  1
  Zn  Zn15  1  0.000001  0.500001  0.500000  1
  Zn  Zn16  1  0.999997  0.500001  0.000003  1
  Zn  Zn17  1  0.500001  0.000002  0.499999  1
  Zn  Zn18  1  0.335068  0.335070  0.329776  1
  Zn  Zn19  1  0.664938  0.664932  0.670220  1
  Zn  Zn20  1  0.335067  0.335063  0.000086  1
  Zn  Zn21  1  0.329771  0.000094  0.335066  1
  Zn  Zn22  1  0.664930  0.664932  0.999909  1
  Zn  Zn23  1  0.670226  0.999911  0.664935  1
  Zn  Zn24  1  0.000091  0.329772  0.335071  1
  Zn  Zn25  1  0.999911  0.670225  0.664932  1
  Cu  Cu26  1  0.999991  0.999996  0.500026  1
  Cu  Cu27  1  0.499997  0.499993  0.999979  1
  Cu  Cu28  1  0.000004  0.000010  0.999986  1
  Se  Se29  1  0.500000  0.499988  0.500007  1
