# generated using pymatgen
data_Sc6Ga6Ir11Ru
_symmetry_space_group_name_H-M   'P 1'
_cell_length_a   4.43414000
_cell_length_b   6.24211300
_cell_length_c   13.28232600
_cell_angle_alpha   89.99966655
_cell_angle_beta   89.99989655
_cell_angle_gamma   90.00015096
_symmetry_Int_Tables_number   1
_chemical_formula_structural   Sc6Ga6Ir11Ru
_chemical_formula_sum   'Sc6 Ga6 Ir11 Ru1'
_cell_volume   367.63357098
_cell_formula_units_Z   1
loop_
 _symmetry_equiv_pos_site_id
 _symmetry_equiv_pos_as_xyz
  1  'x, y, z'
loop_
 _atom_site_type_symbol
 _atom_site_label
 _atom_site_symmetry_multiplicity
 _atom_site_fract_x
 _atom_site_fract_y
 _atom_site_fract_z
 _atom_site_occupancy
  Sc  Sc0  1  0.000000  0.501861  0.998283  1
  Sc  Sc1  1  0.499992  0.999847  0.166272  1
  Sc  Sc2  1  0.999988  0.500018  0.333329  1
  Sc  Sc3  1  0.500002  0.999846  0.500398  1
  Sc  Sc4  1  0.000010  0.501862  0.668377  1
  Sc  Sc5  1  0.500010  0.996853  0.833330  1
  Ga  Ga6  1  0.000001  0.997904  0.998166  1
  Ga  Ga7  1  0.500002  0.500499  0.166288  1
  Ga  Ga8  1  0.999989  0.999832  0.333340  1
  Ga  Ga9  1  0.500000  0.500503  0.500376  1
  Ga  Ga10  1  0.000011  0.997902  0.668503  1
  Ga  Ga11  1  0.499997  0.503342  0.833338  1
  Ir  Ir12  1  0.500001  0.249997  0.000583  1
  Ir  Ir13  1  0.500000  0.749928  0.000887  1
  Ir  Ir14  1  0.999992  0.249997  0.166685  1
  Ir  Ir15  1  0.999993  0.750181  0.167276  1
  Ir  Ir16  1  0.499990  0.250182  0.333334  1
  Ir  Ir17  1  0.499990  0.749813  0.333334  1
  Ir  Ir18  1  0.999999  0.250003  0.499986  1
  Ir  Ir19  1  0.000001  0.750178  0.499387  1
  Ir  Ir20  1  0.500013  0.250006  0.666087  1
  Ir  Ir21  1  0.500011  0.749924  0.665784  1
  Ir  Ir22  1  0.000009  0.249869  0.833332  1
  Ru  Ru23  1  0.000007  0.749656  0.833325  1
