# generated using pymatgen
data_Zr10Ga2Sn5Sb
_symmetry_space_group_name_H-M   'P 1'
_cell_length_a   8.74749100
_cell_length_b   8.73513078
_cell_length_c   5.88756600
_cell_angle_alpha   90.00000000
_cell_angle_beta   90.00000000
_cell_angle_gamma   120.04681510
_symmetry_Int_Tables_number   1
_chemical_formula_structural   Zr10Ga2Sn5Sb
_chemical_formula_sum   'Zr10 Ga2 Sn5 Sb1'
_cell_volume   389.41642814
_cell_formula_units_Z   1
loop_
 _symmetry_equiv_pos_site_id
 _symmetry_equiv_pos_as_xyz
  1  'x, y, z'
loop_
 _atom_site_type_symbol
 _atom_site_label
 _atom_site_symmetry_multiplicity
 _atom_site_fract_x
 _atom_site_fract_y
 _atom_site_fract_z
 _atom_site_occupancy
  Zr  Zr0  1  0.999089  0.266112  0.250000  1
  Zr  Zr1  1  0.732453  0.000000  0.750000  1
  Zr  Zr2  1  0.732977  0.733888  0.250000  1
  Zr  Zr3  1  0.666558  0.332603  0.500266  1
  Zr  Zr4  1  0.000564  0.733463  0.750000  1
  Zr  Zr5  1  0.267101  0.266537  0.750000  1
  Zr  Zr6  1  0.333954  0.667397  0.999734  1
  Zr  Zr7  1  0.666558  0.332603  0.999734  1
  Zr  Zr8  1  0.333954  0.667397  0.500266  1
  Zr  Zr9  1  0.267655  0.000000  0.250000  1
  Ga  Ga10  1  0.000444  0.000000  0.999545  1
  Ga  Ga11  1  0.000444  0.000000  0.500455  1
  Sn  Sn12  1  0.387397  0.000000  0.750000  1
  Sn  Sn13  1  0.387864  0.387939  0.250000  1
  Sn  Sn14  1  0.999925  0.612061  0.250000  1
  Sn  Sn15  1  0.000567  0.388498  0.750000  1
  Sn  Sn16  1  0.612068  0.611502  0.750000  1
  Sb  Sb17  1  0.610424  0.000000  0.250000  1
