# generated using pymatgen
data_TbYb2CoSn6
_symmetry_space_group_name_H-M   'P 1'
_cell_length_a   8.36311095
_cell_length_b   8.36311150
_cell_length_c   13.28443300
_cell_angle_alpha   90.00000000
_cell_angle_beta   90.00000000
_cell_angle_gamma   147.49054364
_symmetry_Int_Tables_number   1
_chemical_formula_structural   TbYb2CoSn6
_chemical_formula_sum   'Tb2 Yb4 Co2 Sn12'
_cell_volume   499.35313802
_cell_formula_units_Z   2
loop_
 _symmetry_equiv_pos_site_id
 _symmetry_equiv_pos_as_xyz
  1  'x, y, z'
loop_
 _atom_site_type_symbol
 _atom_site_label
 _atom_site_symmetry_multiplicity
 _atom_site_fract_x
 _atom_site_fract_y
 _atom_site_fract_z
 _atom_site_occupancy
  Tb  Tb0  1  0.901491  0.098509  0.750000  1
  Tb  Tb1  1  0.098509  0.901491  0.250000  1
  Yb  Yb2  1  0.900693  0.099307  0.097117  1
  Yb  Yb3  1  0.099307  0.900693  0.597117  1
  Yb  Yb4  1  0.099307  0.900693  0.902883  1
  Yb  Yb5  1  0.900693  0.099307  0.402883  1
  Co  Co6  1  0.295216  0.704784  0.250000  1
  Co  Co7  1  0.704784  0.295216  0.750000  1
  Sn  Sn8  1  0.756530  0.243470  0.570798  1
  Sn  Sn9  1  0.425827  0.574173  0.577721  1
  Sn  Sn10  1  0.574173  0.425827  0.422279  1
  Sn  Sn11  1  0.732486  0.267514  0.250000  1
  Sn  Sn12  1  0.267514  0.732486  0.750000  1
  Sn  Sn13  1  0.243470  0.756530  0.070798  1
  Sn  Sn14  1  0.243470  0.756530  0.429202  1
  Sn  Sn15  1  0.574173  0.425827  0.077721  1
  Sn  Sn16  1  0.453783  0.546217  0.250000  1
  Sn  Sn17  1  0.546217  0.453783  0.750000  1
  Sn  Sn18  1  0.756530  0.243470  0.929202  1
  Sn  Sn19  1  0.425827  0.574173  0.922279  1
