# generated using pymatgen
data_Tb2YZr(Co5As3)4
_symmetry_space_group_name_H-M   'P 1'
_cell_length_a   3.77689000
_cell_length_b   12.15604174
_cell_length_c   10.66479481
_cell_angle_alpha   89.95771038
_cell_angle_beta   90.00000000
_cell_angle_gamma   90.00000000
_symmetry_Int_Tables_number   1
_chemical_formula_structural   Tb2YZr(Co5As3)4
_chemical_formula_sum   'Tb2 Y1 Zr1 Co20 As12'
_cell_volume   489.64227230
_cell_formula_units_Z   1
loop_
 _symmetry_equiv_pos_site_id
 _symmetry_equiv_pos_as_xyz
  1  'x, y, z'
loop_
 _atom_site_type_symbol
 _atom_site_label
 _atom_site_symmetry_multiplicity
 _atom_site_fract_x
 _atom_site_fract_y
 _atom_site_fract_z
 _atom_site_occupancy
  Tb  Tb0  1  0.750000  0.701839  0.081695  1
  Tb  Tb1  1  0.250000  0.798284  0.582083  1
  Y  Y2  1  0.750000  0.201869  0.417955  1
  Zr  Zr3  1  0.250000  0.299700  0.920321  1
  Co  Co4  1  0.750000  0.696284  0.383818  1
  Co  Co5  1  0.250000  0.303003  0.618325  1
  Co  Co6  1  0.250000  0.803716  0.884253  1
  Co  Co7  1  0.750000  0.198675  0.112828  1
  Co  Co8  1  0.750000  0.991866  0.212176  1
  Co  Co9  1  0.250000  0.008507  0.787435  1
  Co  Co10  1  0.250000  0.507934  0.713811  1
  Co  Co11  1  0.750000  0.490142  0.286319  1
  Co  Co12  1  0.750000  0.677037  0.784690  1
  Co  Co13  1  0.250000  0.321732  0.214758  1
  Co  Co14  1  0.250000  0.822102  0.283501  1
  Co  Co15  1  0.750000  0.178674  0.718182  1
  Co  Co16  1  0.750000  0.934204  0.969217  1
  Co  Co17  1  0.250000  0.071315  0.028358  1
  Co  Co18  1  0.250000  0.567288  0.469846  1
  Co  Co19  1  0.750000  0.431165  0.532328  1
  Co  Co20  1  0.750000  0.988693  0.593198  1
  Co  Co21  1  0.250000  0.011892  0.407021  1
  Co  Co22  1  0.250000  0.509446  0.090155  1
  Co  Co23  1  0.750000  0.484190  0.906900  1
  As  As24  1  0.750000  0.613320  0.585116  1
  As  As25  1  0.250000  0.385782  0.415300  1
  As  As26  1  0.250000  0.887851  0.084679  1
  As  As27  1  0.750000  0.117354  0.914902  1
  As  As28  1  0.750000  0.890509  0.399002  1
  As  As29  1  0.250000  0.109575  0.601018  1
  As  As30  1  0.250000  0.609439  0.899037  1
  As  As31  1  0.750000  0.389366  0.098799  1
  As  As32  1  0.750000  0.870715  0.769925  1
  As  As33  1  0.250000  0.129193  0.230204  1
  As  As34  1  0.250000  0.628299  0.269093  1
  As  As35  1  0.750000  0.369042  0.733750  1
