# generated using pymatgen
data_Li3Y4Si6Ir
_symmetry_space_group_name_H-M   'P 1'
_cell_length_a   9.21024152
_cell_length_b   9.21023978
_cell_length_c   6.74207900
_cell_angle_alpha   90.55076149
_cell_angle_beta   89.44923862
_cell_angle_gamma   153.35293727
_symmetry_Int_Tables_number   1
_chemical_formula_structural   Li3Y4Si6Ir
_chemical_formula_sum   'Li3 Y4 Si6 Ir1'
_cell_volume   256.49012738
_cell_formula_units_Z   1
loop_
 _symmetry_equiv_pos_site_id
 _symmetry_equiv_pos_as_xyz
  1  'x, y, z'
loop_
 _atom_site_type_symbol
 _atom_site_label
 _atom_site_symmetry_multiplicity
 _atom_site_fract_x
 _atom_site_fract_y
 _atom_site_fract_z
 _atom_site_occupancy
  Li  Li0  1  0.190064  0.809936  0.438721  1
  Li  Li1  1  0.190699  0.809301  0.059011  1
  Li  Li2  1  0.811604  0.188396  0.938849  1
  Y  Y3  1  0.550297  0.449703  0.252901  1
  Y  Y4  1  0.448360  0.551640  0.750066  1
  Y  Y5  1  0.344434  0.655566  0.254439  1
  Y  Y6  1  0.655630  0.344370  0.739949  1
  Si  Si7  1  0.941216  0.058784  0.078214  1
  Si  Si8  1  0.059965  0.940035  0.929522  1
  Si  Si9  1  0.057590  0.942410  0.575030  1
  Si  Si10  1  0.935462  0.064538  0.435062  1
  Si  Si11  1  0.722506  0.277494  0.266864  1
  Si  Si12  1  0.283498  0.716502  0.721034  1
  Ir  Ir13  1  0.808674  0.191326  0.560337  1
