# generated using pymatgen
data_TaNb3CrSiB2
_symmetry_space_group_name_H-M   'P 1'
_cell_length_a   7.22201710
_cell_length_b   7.22201822
_cell_length_c   7.22150086
_cell_angle_alpha   130.08046680
_cell_angle_beta   130.08047931
_cell_angle_gamma   73.27372898
_symmetry_Int_Tables_number   1
_chemical_formula_structural   TaNb3CrSiB2
_chemical_formula_sum   'Ta2 Nb6 Cr2 Si2 B4'
_cell_volume   215.27863237
_cell_formula_units_Z   2
loop_
 _symmetry_equiv_pos_site_id
 _symmetry_equiv_pos_as_xyz
  1  'x, y, z'
loop_
 _atom_site_type_symbol
 _atom_site_label
 _atom_site_symmetry_multiplicity
 _atom_site_fract_x
 _atom_site_fract_y
 _atom_site_fract_z
 _atom_site_occupancy
  Ta  Ta0  1  0.806441  0.306441  0.840899  1
  Ta  Ta1  1  0.193559  0.693559  0.159101  1
  Nb  Nb2  1  0.465924  0.965924  0.158968  1
  Nb  Nb3  1  0.306952  0.465737  0.499613  1
  Nb  Nb4  1  0.034263  0.193048  0.500387  1
  Nb  Nb5  1  0.534076  0.034076  0.841032  1
  Nb  Nb6  1  0.693048  0.534263  0.500387  1
  Nb  Nb7  1  0.965737  0.806952  0.499613  1
  Cr  Cr8  1  0.000000  0.000000  0.000000  1
  Cr  Cr9  1  0.500000  0.500000  0.000000  1
  Si  Si10  1  0.249590  0.250410  0.000000  1
  Si  Si11  1  0.750410  0.749590  0.000000  1
  B  B12  1  0.119325  0.619325  0.739059  1
  B  B13  1  0.880675  0.380675  0.260941  1
  B  B14  1  0.618270  0.881730  0.500000  1
  B  B15  1  0.381730  0.118270  0.500000  1
