# generated using pymatgen
data_Er5Tm7Os3Rh
_symmetry_space_group_name_H-M   'P 1'
_cell_length_a   7.30617245
_cell_length_b   8.94402917
_cell_length_c   6.27199620
_cell_angle_alpha   89.97778631
_cell_angle_beta   89.88942587
_cell_angle_gamma   90.00028163
_symmetry_Int_Tables_number   1
_chemical_formula_structural   Er5Tm7Os3Rh
_chemical_formula_sum   'Er5 Tm7 Os3 Rh1'
_cell_volume   409.85295490
_cell_formula_units_Z   1
loop_
 _symmetry_equiv_pos_site_id
 _symmetry_equiv_pos_as_xyz
  1  'x, y, z'
loop_
 _atom_site_type_symbol
 _atom_site_label
 _atom_site_symmetry_multiplicity
 _atom_site_fract_x
 _atom_site_fract_y
 _atom_site_fract_z
 _atom_site_occupancy
  Er  Er0  1  0.038737  0.250084  0.628899  1
  Er  Er1  1  0.961417  0.749901  0.372767  1
  Er  Er2  1  0.462356  0.749951  0.129469  1
  Er  Er3  1  0.539456  0.250038  0.870051  1
  Er  Er4  1  0.172943  0.060418  0.165840  1
  Tm  Tm5  1  0.824506  0.937059  0.830705  1
  Tm  Tm6  1  0.323402  0.933554  0.671926  1
  Tm  Tm7  1  0.824595  0.562877  0.830756  1
  Tm  Tm8  1  0.678226  0.061302  0.331640  1
  Tm  Tm9  1  0.172663  0.439610  0.165727  1
  Tm  Tm10  1  0.678257  0.438696  0.331654  1
  Tm  Tm11  1  0.323327  0.566359  0.671959  1
  Os  Os12  1  0.615769  0.750026  0.538380  1
  Os  Os13  1  0.116552  0.749805  0.962831  1
  Os  Os14  1  0.883313  0.250176  0.038534  1
  Rh  Rh15  1  0.384481  0.250145  0.458862  1
