# generated using pymatgen
data_Ce4HoEr3(ReB6)4
_symmetry_space_group_name_H-M   'P 1'
_cell_length_a   3.71451700
_cell_length_b   9.18360602
_cell_length_c   11.57288903
_cell_angle_alpha   90.00834613
_cell_angle_beta   90.00000000
_cell_angle_gamma   90.00000000
_symmetry_Int_Tables_number   1
_chemical_formula_structural   Ce4HoEr3(ReB6)4
_chemical_formula_sum   'Ce4 Ho1 Er3 Re4 B24'
_cell_volume   394.78203262
_cell_formula_units_Z   1
loop_
 _symmetry_equiv_pos_site_id
 _symmetry_equiv_pos_as_xyz
  1  'x, y, z'
loop_
 _atom_site_type_symbol
 _atom_site_label
 _atom_site_symmetry_multiplicity
 _atom_site_fract_x
 _atom_site_fract_y
 _atom_site_fract_z
 _atom_site_occupancy
  Ce  Ce0  1  0.000000  0.322807  0.414150  1
  Ce  Ce1  1  0.000000  0.677172  0.585857  1
  Ce  Ce2  1  0.000000  0.822578  0.085850  1
  Ce  Ce3  1  0.000000  0.177372  0.914247  1
  Ho  Ho4  1  0.000000  0.944639  0.372870  1
  Er  Er5  1  0.000000  0.055494  0.627465  1
  Er  Er6  1  0.000000  0.444580  0.127227  1
  Er  Er7  1  0.000000  0.555482  0.872651  1
  Re  Re8  1  0.000000  0.638467  0.320803  1
  Re  Re9  1  0.000000  0.361255  0.679039  1
  Re  Re10  1  0.000000  0.139255  0.179137  1
  Re  Re11  1  0.000000  0.860854  0.820849  1
  B  B12  1  0.500000  0.554391  0.431540  1
  B  B13  1  0.500000  0.445358  0.568382  1
  B  B14  1  0.500000  0.054692  0.068357  1
  B  B15  1  0.500000  0.945317  0.931617  1
  B  B16  1  0.500000  0.748841  0.418584  1
  B  B17  1  0.500000  0.250833  0.581416  1
  B  B18  1  0.500000  0.249426  0.081408  1
  B  B19  1  0.500000  0.750652  0.918613  1
  B  B20  1  0.500000  0.791563  0.266012  1
  B  B21  1  0.500000  0.208175  0.733934  1
  B  B22  1  0.500000  0.292082  0.233814  1
  B  B23  1  0.500000  0.708051  0.766101  1
  B  B24  1  0.500000  0.631278  0.185653  1
  B  B25  1  0.500000  0.368636  0.814236  1
  B  B26  1  0.500000  0.131845  0.314110  1
  B  B27  1  0.500000  0.868444  0.685842  1
  B  B28  1  0.500000  0.983909  0.213022  1
  B  B29  1  0.500000  0.016273  0.786849  1
  B  B30  1  0.500000  0.483573  0.286712  1
  B  B31  1  0.500000  0.516361  0.713174  1
  B  B32  1  0.500000  0.605019  0.028979  1
  B  B33  1  0.500000  0.395018  0.970954  1
  B  B34  1  0.500000  0.106034  0.471062  1
  B  B35  1  0.500000  0.894276  0.529485  1
