# generated using pymatgen
data_Sm3Y3(IrI3)2
_symmetry_space_group_name_H-M   'P 1'
_cell_length_a   4.26572300
_cell_length_b   8.98446331
_cell_length_c   12.43678700
_cell_angle_alpha   86.33263043
_cell_angle_beta   90.00000000
_cell_angle_gamma   90.00000000
_symmetry_Int_Tables_number   1
_chemical_formula_structural   Sm3Y3(IrI3)2
_chemical_formula_sum   'Sm3 Y3 Ir2 I6'
_cell_volume   475.66667934
_cell_formula_units_Z   1
loop_
 _symmetry_equiv_pos_site_id
 _symmetry_equiv_pos_as_xyz
  1  'x, y, z'
loop_
 _atom_site_type_symbol
 _atom_site_label
 _atom_site_symmetry_multiplicity
 _atom_site_fract_x
 _atom_site_fract_y
 _atom_site_fract_z
 _atom_site_occupancy
  Sm  Sm0  1  0.250000  0.901897  0.321280  1
  Sm  Sm1  1  0.250000  0.260473  0.898120  1
  Sm  Sm2  1  0.750000  0.739564  0.101370  1
  Y  Y3  1  0.750000  0.133379  0.128968  1
  Y  Y4  1  0.250000  0.866650  0.870387  1
  Y  Y5  1  0.750000  0.098435  0.681904  1
  Ir  Ir6  1  0.750000  0.054697  0.904958  1
  Ir  Ir7  1  0.250000  0.945743  0.093343  1
  I  I8  1  0.250000  0.349325  0.635883  1
  I  I9  1  0.750000  0.643007  0.363438  1
  I  I10  1  0.750000  0.147590  0.392236  1
  I  I11  1  0.250000  0.859819  0.609413  1
  I  I12  1  0.250000  0.418560  0.134880  1
  I  I13  1  0.750000  0.580859  0.863821  1
