# generated using pymatgen
data_Tm2SnRh5
_symmetry_space_group_name_H-M   'P 1'
_cell_length_a   5.68058271
_cell_length_b   5.68058316
_cell_length_c   8.53326000
_cell_angle_alpha   90.00000000
_cell_angle_beta   90.00000000
_cell_angle_gamma   97.25576043
_symmetry_Int_Tables_number   1
_chemical_formula_structural   Tm2SnRh5
_chemical_formula_sum   'Tm4 Sn2 Rh10'
_cell_volume   273.15494710
_cell_formula_units_Z   2
loop_
 _symmetry_equiv_pos_site_id
 _symmetry_equiv_pos_as_xyz
  1  'x, y, z'
loop_
 _atom_site_type_symbol
 _atom_site_label
 _atom_site_symmetry_multiplicity
 _atom_site_fract_x
 _atom_site_fract_y
 _atom_site_fract_z
 _atom_site_occupancy
  Tm  Tm0  1  0.780285  0.219715  0.500000  1
  Tm  Tm1  1  0.219715  0.780285  0.000000  1
  Tm  Tm2  1  0.219715  0.780285  0.500000  1
  Tm  Tm3  1  0.780285  0.219715  0.000000  1
  Sn  Sn4  1  0.501951  0.501951  0.750000  1
  Sn  Sn5  1  0.498049  0.498049  0.250000  1
  Rh  Rh6  1  0.725163  0.725163  0.001079  1
  Rh  Rh7  1  0.725163  0.725163  0.498921  1
  Rh  Rh8  1  0.274837  0.274837  0.998921  1
  Rh  Rh9  1  0.274837  0.274837  0.501079  1
  Rh  Rh10  1  0.499772  0.000596  0.750000  1
  Rh  Rh11  1  0.500228  0.999404  0.250000  1
  Rh  Rh12  1  0.000368  0.000368  0.250000  1
  Rh  Rh13  1  0.999632  0.999632  0.750000  1
  Rh  Rh14  1  0.000596  0.499772  0.750000  1
  Rh  Rh15  1  0.999404  0.500228  0.250000  1
