# generated using pymatgen
data_Tm3Zn2In3Ni
_symmetry_space_group_name_H-M   'P 1'
_cell_length_a   3.97464800
_cell_length_b   7.43043657
_cell_length_c   7.42795960
_cell_angle_alpha   120.01103090
_cell_angle_beta   90.00000000
_cell_angle_gamma   90.00000000
_symmetry_Int_Tables_number   1
_chemical_formula_structural   Tm3Zn2In3Ni
_chemical_formula_sum   'Tm3 Zn2 In3 Ni1'
_cell_volume   189.96119122
_cell_formula_units_Z   1
loop_
 _symmetry_equiv_pos_site_id
 _symmetry_equiv_pos_as_xyz
  1  'x, y, z'
loop_
 _atom_site_type_symbol
 _atom_site_label
 _atom_site_symmetry_multiplicity
 _atom_site_fract_x
 _atom_site_fract_y
 _atom_site_fract_z
 _atom_site_occupancy
  Tm  Tm0  1  0.500000  0.399613  0.000000  1
  Tm  Tm1  1  0.500000  0.600570  0.600536  1
  Tm  Tm2  1  0.500000  0.000033  0.399464  1
  Zn  Zn3  1  0.000000  0.666722  0.333341  1
  Zn  Zn4  1  0.000000  0.333381  0.666659  1
  In  In5  1  0.000000  0.749729  0.000000  1
  In  In6  1  0.000000  0.250638  0.250447  1
  In  In7  1  0.000000  0.000191  0.749553  1
  Ni  Ni8  1  0.500000  0.999223  0.000000  1
