# generated using pymatgen
data_Sr6Sc2(TeO6)3
_symmetry_space_group_name_H-M   'P 1'
_cell_length_a   9.97562630
_cell_length_b   9.97562631
_cell_length_c   9.97562546
_cell_angle_alpha   146.55574810
_cell_angle_beta   131.92011599
_cell_angle_gamma   59.83338019
_symmetry_Int_Tables_number   1
_chemical_formula_structural   Sr6Sc2(TeO6)3
_chemical_formula_sum   'Sr6 Sc2 Te3 O18'
_cell_volume   403.41631443
_cell_formula_units_Z   1
loop_
 _symmetry_equiv_pos_site_id
 _symmetry_equiv_pos_as_xyz
  1  'x, y, z'
loop_
 _atom_site_type_symbol
 _atom_site_label
 _atom_site_symmetry_multiplicity
 _atom_site_fract_x
 _atom_site_fract_y
 _atom_site_fract_z
 _atom_site_occupancy
  Sr  Sr0  1  0.780266  0.500000  0.280266  1
  Sr  Sr1  1  0.386363  0.153259  0.233104  1
  Sr  Sr2  1  0.079845  0.846741  0.233104  1
  Sr  Sr3  1  0.219734  0.500000  0.719734  1
  Sr  Sr4  1  0.920155  0.153259  0.766896  1
  Sr  Sr5  1  0.613637  0.846741  0.766896  1
  Sc  Sc6  1  0.665740  0.665740  0.000000  1
  Sc  Sc7  1  0.334260  0.334260  0.000000  1
  Te  Te8  1  0.500000  0.000000  0.500000  1
  Te  Te9  1  0.171263  0.671263  0.500000  1
  Te  Te10  1  0.828737  0.328737  0.500000  1
  O  O11  1  0.733195  0.000000  0.733195  1
  O  O12  1  0.412750  0.670376  0.742373  1
  O  O13  1  0.071998  0.329624  0.742373  1
  O  O14  1  0.581082  0.839217  0.258134  1
  O  O15  1  0.250029  0.510088  0.260060  1
  O  O16  1  0.907339  0.172096  0.264755  1
  O  O17  1  0.418918  0.677052  0.258134  1
  O  O18  1  0.092661  0.357416  0.264755  1
  O  O19  1  0.749971  0.010031  0.260060  1
  O  O20  1  0.266805  0.000000  0.266805  1
  O  O21  1  0.928002  0.670376  0.257627  1
  O  O22  1  0.587250  0.329624  0.257627  1
  O  O23  1  0.418918  0.160783  0.741866  1
  O  O24  1  0.092661  0.827904  0.735245  1
  O  O25  1  0.749971  0.489912  0.739940  1
  O  O26  1  0.581082  0.322948  0.741866  1
  O  O27  1  0.250029  0.989969  0.739940  1
  O  O28  1  0.907339  0.642585  0.735245  1
