# generated using pymatgen
data_Pr2Dy4Rh17Au
_symmetry_space_group_name_H-M   'P 1'
_cell_length_a   5.29961200
_cell_length_b   5.30853003
_cell_length_c   17.54995000
_cell_angle_alpha   90.00000000
_cell_angle_beta   90.00000000
_cell_angle_gamma   120.04145995
_symmetry_Int_Tables_number   1
_chemical_formula_structural   Pr2Dy4Rh17Au
_chemical_formula_sum   'Pr2 Dy4 Rh17 Au1'
_cell_volume   427.40862139
_cell_formula_units_Z   1
loop_
 _symmetry_equiv_pos_site_id
 _symmetry_equiv_pos_as_xyz
  1  'x, y, z'
loop_
 _atom_site_type_symbol
 _atom_site_label
 _atom_site_symmetry_multiplicity
 _atom_site_fract_x
 _atom_site_fract_y
 _atom_site_fract_z
 _atom_site_occupancy
  Pr  Pr0  1  0.333313  0.666594  0.750000  1
  Pr  Pr1  1  0.666524  0.333223  0.250000  1
  Dy  Dy2  1  0.333367  0.666694  0.957403  1
  Dy  Dy3  1  0.666629  0.333305  0.040091  1
  Dy  Dy4  1  0.666629  0.333305  0.459909  1
  Dy  Dy5  1  0.333367  0.666694  0.542597  1
  Rh  Rh6  1  0.167365  0.832823  0.378380  1
  Rh  Rh7  1  0.167352  0.334609  0.378406  1
  Rh  Rh8  1  0.665290  0.832648  0.378533  1
  Rh  Rh9  1  0.832773  0.167210  0.625261  1
  Rh  Rh10  1  0.832785  0.665521  0.625074  1
  Rh  Rh11  1  0.334670  0.167315  0.624712  1
  Rh  Rh12  1  0.832773  0.167210  0.874739  1
  Rh  Rh13  1  0.832785  0.665521  0.874926  1
  Rh  Rh14  1  0.334670  0.167315  0.875288  1
  Rh  Rh15  1  0.167365  0.832823  0.121620  1
  Rh  Rh16  1  0.167352  0.334609  0.121594  1
  Rh  Rh17  1  0.665290  0.832648  0.121467  1
  Rh  Rh18  1  0.664373  0.332941  0.750000  1
  Rh  Rh19  1  0.999638  0.999813  0.250000  1
  Rh  Rh20  1  0.002700  0.000554  0.750000  1
  Rh  Rh21  1  0.999809  0.999979  0.500328  1
  Rh  Rh22  1  0.999809  0.999979  0.999672  1
  Au  Au23  1  0.333373  0.666666  0.250000  1
