# generated using pymatgen
data_Ni6BiPb3S4
_symmetry_space_group_name_H-M   'P 1'
_cell_length_a   6.86963360
_cell_length_b   6.86963410
_cell_length_c   7.94249714
_cell_angle_alpha   56.64465646
_cell_angle_beta   56.64465215
_cell_angle_gamma   72.89506908
_symmetry_Int_Tables_number   1
_chemical_formula_structural   Ni6BiPb3S4
_chemical_formula_sum   'Ni6 Bi1 Pb3 S4'
_cell_volume   261.48994040
_cell_formula_units_Z   1
loop_
 _symmetry_equiv_pos_site_id
 _symmetry_equiv_pos_as_xyz
  1  'x, y, z'
loop_
 _atom_site_type_symbol
 _atom_site_label
 _atom_site_symmetry_multiplicity
 _atom_site_fract_x
 _atom_site_fract_y
 _atom_site_fract_z
 _atom_site_occupancy
  Ni  Ni0  1  0.736728  0.736728  0.277556  1
  Ni  Ni1  1  0.498953  0.007554  0.995530  1
  Ni  Ni2  1  0.743946  0.258878  0.993264  1
  Ni  Ni3  1  0.258878  0.743946  0.993264  1
  Ni  Ni4  1  0.255046  0.255046  0.746873  1
  Ni  Ni5  1  0.007554  0.498953  0.995530  1
  Bi  Bi6  1  0.500121  0.500121  0.752127  1
  Pb  Pb7  1  0.001975  0.001975  0.254123  1
  Pb  Pb8  1  0.997740  0.997740  0.744585  1
  Pb  Pb9  1  0.494655  0.494655  0.254364  1
  S  S10  1  0.471329  0.999067  0.284237  1
  S  S11  1  0.999067  0.471329  0.284237  1
  S  S12  1  0.530823  0.003184  0.712155  1
  S  S13  1  0.003184  0.530823  0.712155  1
