# generated using pymatgen
data_K3Y(IO3)6
_symmetry_space_group_name_H-M   'P 1'
_cell_length_a   7.16512885
_cell_length_b   7.24620662
_cell_length_c   10.91463066
_cell_angle_alpha   98.79658848
_cell_angle_beta   108.20921906
_cell_angle_gamma   103.09531372
_symmetry_Int_Tables_number   1
_chemical_formula_structural   K3Y(IO3)6
_chemical_formula_sum   'K3 Y1 I6 O18'
_cell_volume   508.75023908
_cell_formula_units_Z   1
loop_
 _symmetry_equiv_pos_site_id
 _symmetry_equiv_pos_as_xyz
  1  'x, y, z'
loop_
 _atom_site_type_symbol
 _atom_site_label
 _atom_site_symmetry_multiplicity
 _atom_site_fract_x
 _atom_site_fract_y
 _atom_site_fract_z
 _atom_site_occupancy
  K  K0  1  0.377500  0.540110  0.293747  1
  K  K1  1  0.622500  0.459890  0.706253  1
  K  K2  1  0.000000  0.500000  0.500000  1
  Y  Y3  1  0.000000  0.000000  0.000000  1
  I  I4  1  0.560357  0.034180  0.195380  1
  I  I5  1  0.439643  0.965820  0.804620  1
  I  I6  1  0.777778  0.532937  0.104141  1
  I  I7  1  0.222222  0.467063  0.895859  1
  I  I8  1  0.134113  0.061361  0.383460  1
  I  I9  1  0.865887  0.938639  0.616540  1
  O  O10  1  0.589227  0.654677  0.127203  1
  O  O11  1  0.410773  0.345323  0.872797  1
  O  O12  1  0.009352  0.358526  0.737164  1
  O  O13  1  0.990648  0.641474  0.262836  1
  O  O14  1  0.612322  0.300972  0.236398  1
  O  O15  1  0.387678  0.699028  0.763602  1
  O  O16  1  0.056149  0.107215  0.214802  1
  O  O17  1  0.943851  0.892785  0.785198  1
  O  O18  1  0.319904  0.963524  0.044418  1
  O  O19  1  0.680096  0.036476  0.955582  1
  O  O20  1  0.293474  0.308191  0.472223  1
  O  O21  1  0.706526  0.691809  0.527777  1
  O  O22  1  0.890006  0.079430  0.403635  1
  O  O23  1  0.109994  0.920570  0.596365  1
  O  O24  1  0.558904  0.036656  0.686944  1
  O  O25  1  0.441096  0.963344  0.313056  1
  O  O26  1  0.122122  0.324524  0.001794  1
  O  O27  1  0.877878  0.675476  0.998206  1
