# generated using pymatgen
data_Cs(DyI3)2
_symmetry_space_group_name_H-M   'P 1'
_cell_length_a   8.98534100
_cell_length_b   8.98534149
_cell_length_c   14.51379500
_cell_angle_alpha   90.00000000
_cell_angle_beta   90.00000000
_cell_angle_gamma   119.99998715
_symmetry_Int_Tables_number   1
_chemical_formula_structural   Cs(DyI3)2
_chemical_formula_sum   'Cs2 Dy4 I12'
_cell_volume   1014.80085233
_cell_formula_units_Z   2
loop_
 _symmetry_equiv_pos_site_id
 _symmetry_equiv_pos_as_xyz
  1  'x, y, z'
loop_
 _atom_site_type_symbol
 _atom_site_label
 _atom_site_symmetry_multiplicity
 _atom_site_fract_x
 _atom_site_fract_y
 _atom_site_fract_z
 _atom_site_occupancy
  Cs  Cs0  1  0.333333  0.666667  0.872820  1
  Cs  Cs1  1  0.666667  0.333333  0.372820  1
  Dy  Dy2  1  0.000000  0.000000  0.125804  1
  Dy  Dy3  1  0.000000  0.000000  0.375923  1
  Dy  Dy4  1  0.000000  0.000000  0.625804  1
  Dy  Dy5  1  0.000000  0.000000  0.875923  1
  I  I6  1  0.974421  0.713015  0.001927  1
  I  I7  1  0.257285  0.967639  0.249801  1
  I  I8  1  0.032361  0.289646  0.249801  1
  I  I9  1  0.286985  0.261407  0.001927  1
  I  I10  1  0.261407  0.286985  0.501927  1
  I  I11  1  0.738593  0.025579  0.001927  1
  I  I12  1  0.289646  0.032361  0.749801  1
  I  I13  1  0.710354  0.742715  0.249801  1
  I  I14  1  0.742715  0.710354  0.749801  1
  I  I15  1  0.025579  0.738593  0.501927  1
  I  I16  1  0.713015  0.974421  0.501927  1
  I  I17  1  0.967639  0.257285  0.749801  1
