# generated using pymatgen
data_Ti8Pt3RhO2
_symmetry_space_group_name_H-M   'P 1'
_cell_length_a   8.29173047
_cell_length_b   8.29173093
_cell_length_c   8.32546700
_cell_angle_alpha   59.86530695
_cell_angle_beta   59.86530514
_cell_angle_gamma   59.76098742
_symmetry_Int_Tables_number   1
_chemical_formula_structural   Ti8Pt3RhO2
_chemical_formula_sum   'Ti16 Pt6 Rh2 O4'
_cell_volume   403.18964135
_cell_formula_units_Z   2
loop_
 _symmetry_equiv_pos_site_id
 _symmetry_equiv_pos_as_xyz
  1  'x, y, z'
loop_
 _atom_site_type_symbol
 _atom_site_label
 _atom_site_symmetry_multiplicity
 _atom_site_fract_x
 _atom_site_fract_y
 _atom_site_fract_z
 _atom_site_occupancy
  Ti  Ti0  1  0.817908  0.186553  0.816998  1
  Ti  Ti1  1  0.184333  0.816972  0.182956  1
  Ti  Ti2  1  0.433028  0.065667  0.434261  1
  Ti  Ti3  1  0.433028  0.065667  0.067044  1
  Ti  Ti4  1  0.063447  0.432092  0.433002  1
  Ti  Ti5  1  0.063447  0.432092  0.071459  1
  Ti  Ti6  1  0.180409  0.186295  0.816648  1
  Ti  Ti7  1  0.432004  0.432668  0.067664  1
  Ti  Ti8  1  0.123321  0.621946  0.627366  1
  Ti  Ti9  1  0.629418  0.620582  0.125000  1
  Ti  Ti10  1  0.629418  0.620582  0.625000  1
  Ti  Ti11  1  0.628054  0.126679  0.622634  1
  Ti  Ti12  1  0.184333  0.816972  0.815739  1
  Ti  Ti13  1  0.817908  0.186553  0.178541  1
  Ti  Ti14  1  0.063705  0.069591  0.433352  1
  Ti  Ti15  1  0.817332  0.817996  0.182336  1
  Pt  Pt16  1  0.408726  0.776218  0.407529  1
  Pt  Pt17  1  0.843317  0.842173  0.471312  1
  Pt  Pt18  1  0.843317  0.842173  0.843198  1
  Pt  Pt19  1  0.473782  0.841274  0.842471  1
  Pt  Pt20  1  0.407827  0.406683  0.406802  1
  Pt  Pt21  1  0.407827  0.406683  0.778688  1
  Rh  Rh22  1  0.842344  0.474147  0.841755  1
  Rh  Rh23  1  0.775853  0.407656  0.408245  1
  O  O24  1  0.123698  0.126302  0.625000  1
  O  O25  1  0.624729  0.126210  0.124531  1
  O  O26  1  0.123698  0.126302  0.125000  1
  O  O27  1  0.123790  0.625271  0.125469  1
