# generated using pymatgen
data_Ti5AlIr9Rh
_symmetry_space_group_name_H-M   'P 1'
_cell_length_a   4.03478900
_cell_length_b   5.43920363
_cell_length_c   10.73546036
_cell_angle_alpha   89.10275799
_cell_angle_beta   90.00000000
_cell_angle_gamma   90.00000000
_symmetry_Int_Tables_number   1
_chemical_formula_structural   Ti5AlIr9Rh
_chemical_formula_sum   'Ti5 Al1 Ir9 Rh1'
_cell_volume   235.57194408
_cell_formula_units_Z   1
loop_
 _symmetry_equiv_pos_site_id
 _symmetry_equiv_pos_as_xyz
  1  'x, y, z'
loop_
 _atom_site_type_symbol
 _atom_site_label
 _atom_site_symmetry_multiplicity
 _atom_site_fract_x
 _atom_site_fract_y
 _atom_site_fract_z
 _atom_site_occupancy
  Ti  Ti0  1  0.000000  0.500000  0.500000  1
  Ti  Ti1  1  0.500000  0.319632  0.138399  1
  Ti  Ti2  1  0.500000  0.680368  0.861601  1
  Ti  Ti3  1  0.500000  0.822003  0.357201  1
  Ti  Ti4  1  0.500000  0.177997  0.642799  1
  Al  Al5  1  0.000000  0.000000  0.000000  1
  Ir  Ir6  1  0.000000  0.000000  0.500000  1
  Ir  Ir7  1  0.000000  0.064573  0.246419  1
  Ir  Ir8  1  0.000000  0.935427  0.753581  1
  Ir  Ir9  1  0.000000  0.566158  0.252166  1
  Ir  Ir10  1  0.000000  0.433842  0.747834  1
  Ir  Ir11  1  0.500000  0.306125  0.389422  1
  Ir  Ir12  1  0.500000  0.693875  0.610578  1
  Ir  Ir13  1  0.500000  0.808063  0.111665  1
  Ir  Ir14  1  0.500000  0.191937  0.888335  1
  Rh  Rh15  1  0.000000  0.500000  0.000000  1
