# generated using pymatgen
data_Ho8Er4AlCo4Pb
_symmetry_space_group_name_H-M   'P 1'
_cell_length_a   8.31825099
_cell_length_b   8.30197987
_cell_length_c   8.30198019
_cell_angle_alpha   111.85108621
_cell_angle_beta   109.47704724
_cell_angle_gamma   107.04646706
_symmetry_Int_Tables_number   1
_chemical_formula_structural   Ho8Er4AlCo4Pb
_chemical_formula_sum   'Ho8 Er4 Al1 Co4 Pb1'
_cell_volume   440.97063282
_cell_formula_units_Z   1
loop_
 _symmetry_equiv_pos_site_id
 _symmetry_equiv_pos_as_xyz
  1  'x, y, z'
loop_
 _atom_site_type_symbol
 _atom_site_label
 _atom_site_symmetry_multiplicity
 _atom_site_fract_x
 _atom_site_fract_y
 _atom_site_fract_z
 _atom_site_occupancy
  Ho  Ho0  1  0.322946  0.137915  0.813795  1
  Ho  Ho1  1  0.677054  0.490848  0.814968  1
  Ho  Ho2  1  0.563574  0.266504  0.296900  1
  Ho  Ho3  1  0.436426  0.733326  0.702931  1
  Ho  Ho4  1  0.180849  0.780673  0.961834  1
  Ho  Ho5  1  0.819151  0.780985  0.599826  1
  Ho  Ho6  1  0.180054  0.219315  0.399647  1
  Ho  Ho7  1  0.819946  0.219595  0.039261  1
  Er  Er8  1  0.968734  0.265975  0.702921  1
  Er  Er9  1  0.031266  0.734186  0.297240  1
  Er  Er10  1  0.676982  0.861629  0.185891  1
  Er  Er11  1  0.323018  0.508910  0.184648  1
  Al  Al12  1  0.000000  0.500335  0.500335  1
  Co  Co13  1  0.112803  0.114207  0.998420  1
  Co  Co14  1  0.887197  0.885616  0.001405  1
  Co  Co15  1  0.665034  0.500894  0.165121  1
  Co  Co16  1  0.334966  0.500086  0.835859  1
  Pb  Pb17  1  0.500000  0.999000  0.499000  1
