# generated using pymatgen
data_CsHo(SO4)2
_symmetry_space_group_name_H-M   'P 1'
_cell_length_a   5.47612600
_cell_length_b   5.47612717
_cell_length_c   8.76519300
_cell_angle_alpha   90.00000000
_cell_angle_beta   90.00000000
_cell_angle_gamma   120.00000503
_symmetry_Int_Tables_number   1
_chemical_formula_structural   CsHo(SO4)2
_chemical_formula_sum   'Cs1 Ho1 S2 O8'
_cell_volume   227.63500636
_cell_formula_units_Z   1
loop_
 _symmetry_equiv_pos_site_id
 _symmetry_equiv_pos_as_xyz
  1  'x, y, z'
loop_
 _atom_site_type_symbol
 _atom_site_label
 _atom_site_symmetry_multiplicity
 _atom_site_fract_x
 _atom_site_fract_y
 _atom_site_fract_z
 _atom_site_occupancy
  Cs  Cs0  1  0.000000  0.000000  0.500000  1
  Ho  Ho1  1  0.000000  0.000000  0.000000  1
  S  S2  1  0.333333  0.666667  0.215662  1
  S  S3  1  0.666667  0.333333  0.784338  1
  O  O4  1  0.172773  0.371800  0.155430  1
  O  O5  1  0.628200  0.800972  0.155430  1
  O  O6  1  0.371800  0.172773  0.844570  1
  O  O7  1  0.199028  0.827227  0.155430  1
  O  O8  1  0.800972  0.628200  0.844570  1
  O  O9  1  0.827227  0.199028  0.844570  1
  O  O10  1  0.333333  0.666667  0.382002  1
  O  O11  1  0.666667  0.333333  0.617998  1
