# generated using pymatgen
data_Hf5Zr5AlSn6Sb
_symmetry_space_group_name_H-M   'P 1'
_cell_length_a   8.75525214
_cell_length_b   8.75647000
_cell_length_c   5.91675209
_cell_angle_alpha   89.98991041
_cell_angle_beta   90.02017545
_cell_angle_gamma   119.99539933
_symmetry_Int_Tables_number   1
_chemical_formula_structural   Hf5Zr5AlSn6Sb
_chemical_formula_sum   'Hf5 Zr5 Al1 Sn6 Sb1'
_cell_volume   392.85458943
_cell_formula_units_Z   1
loop_
 _symmetry_equiv_pos_site_id
 _symmetry_equiv_pos_as_xyz
  1  'x, y, z'
loop_
 _atom_site_type_symbol
 _atom_site_label
 _atom_site_symmetry_multiplicity
 _atom_site_fract_x
 _atom_site_fract_y
 _atom_site_fract_z
 _atom_site_occupancy
  Hf  Hf0  1  0.333154  0.666974  0.000161  1
  Hf  Hf1  1  0.666236  0.333092  0.499870  1
  Hf  Hf2  1  0.666181  0.333026  0.000161  1
  Hf  Hf3  1  0.333142  0.666908  0.499870  1
  Hf  Hf4  1  0.276851  0.000000  0.260922  1
  Zr  Zr5  1  0.275720  0.275185  0.739120  1
  Zr  Zr6  1  0.000534  0.724815  0.739120  1
  Zr  Zr7  1  0.999701  0.276033  0.260261  1
  Zr  Zr8  1  0.723668  0.723967  0.260261  1
  Zr  Zr9  1  0.724471  0.000000  0.739887  1
  Al  Al10  1  0.000343  0.000000  0.499288  1
  Sn  Sn11  1  0.610480  0.000000  0.248412  1
  Sn  Sn12  1  0.611269  0.611280  0.751614  1
  Sn  Sn13  1  0.999989  0.388720  0.751614  1
  Sn  Sn14  1  0.000417  0.612117  0.248341  1
  Sn  Sn15  1  0.388301  0.387883  0.248341  1
  Sn  Sn16  1  0.388772  0.000000  0.751505  1
  Sb  Sb17  1  0.000771  0.000000  0.001251  1
