# generated using pymatgen
data_Nd10Cd3Tc
_symmetry_space_group_name_H-M   'P 1'
_cell_length_a   9.85287700
_cell_length_b   9.85287694
_cell_length_c   10.36007200
_cell_angle_alpha   90.00000000
_cell_angle_beta   90.00000000
_cell_angle_gamma   119.99999685
_symmetry_Int_Tables_number   1
_chemical_formula_structural   Nd10Cd3Tc
_chemical_formula_sum   'Nd20 Cd6 Tc2'
_cell_volume   871.00277549
_cell_formula_units_Z   2
loop_
 _symmetry_equiv_pos_site_id
 _symmetry_equiv_pos_as_xyz
  1  'x, y, z'
loop_
 _atom_site_type_symbol
 _atom_site_label
 _atom_site_symmetry_multiplicity
 _atom_site_fract_x
 _atom_site_fract_y
 _atom_site_fract_z
 _atom_site_occupancy
  Nd  Nd0  1  0.000000  0.000000  0.500000  1
  Nd  Nd1  1  0.000000  0.000000  0.000000  1
  Nd  Nd2  1  0.208792  0.791208  0.437866  1
  Nd  Nd3  1  0.208792  0.417584  0.437866  1
  Nd  Nd4  1  0.582416  0.791208  0.437866  1
  Nd  Nd5  1  0.791208  0.208792  0.562134  1
  Nd  Nd6  1  0.791208  0.582416  0.562134  1
  Nd  Nd7  1  0.417584  0.208792  0.562134  1
  Nd  Nd8  1  0.791208  0.208792  0.937866  1
  Nd  Nd9  1  0.791208  0.582416  0.937866  1
  Nd  Nd10  1  0.417584  0.208792  0.937866  1
  Nd  Nd11  1  0.208792  0.791208  0.062134  1
  Nd  Nd12  1  0.208792  0.417584  0.062134  1
  Nd  Nd13  1  0.582416  0.791208  0.062134  1
  Nd  Nd14  1  0.538821  0.461179  0.250000  1
  Nd  Nd15  1  0.538821  0.077643  0.250000  1
  Nd  Nd16  1  0.922357  0.461179  0.250000  1
  Nd  Nd17  1  0.461179  0.538821  0.750000  1
  Nd  Nd18  1  0.461179  0.922357  0.750000  1
  Nd  Nd19  1  0.077643  0.538821  0.750000  1
  Cd  Cd20  1  0.886373  0.113627  0.250000  1
  Cd  Cd21  1  0.886373  0.772746  0.250000  1
  Cd  Cd22  1  0.227254  0.113627  0.250000  1
  Cd  Cd23  1  0.113627  0.886373  0.750000  1
  Cd  Cd24  1  0.113627  0.227254  0.750000  1
  Cd  Cd25  1  0.772746  0.886373  0.750000  1
  Tc  Tc26  1  0.333333  0.666667  0.250000  1
  Tc  Tc27  1  0.666667  0.333333  0.750000  1
