# generated using pymatgen
data_Hf7Sc8Si16W5
_symmetry_space_group_name_H-M   'P 1'
_cell_length_a   6.72056328
_cell_length_b   6.92564820
_cell_length_c   13.29049624
_cell_angle_alpha   89.89227413
_cell_angle_beta   90.22628582
_cell_angle_gamma   89.81395325
_symmetry_Int_Tables_number   1
_chemical_formula_structural   Hf7Sc8Si16W5
_chemical_formula_sum   'Hf7 Sc8 Si16 W5'
_cell_volume   618.58707937
_cell_formula_units_Z   1
loop_
 _symmetry_equiv_pos_site_id
 _symmetry_equiv_pos_as_xyz
  1  'x, y, z'
loop_
 _atom_site_type_symbol
 _atom_site_label
 _atom_site_symmetry_multiplicity
 _atom_site_fract_x
 _atom_site_fract_y
 _atom_site_fract_z
 _atom_site_occupancy
  Hf  Hf0  1  0.664806  0.173391  0.624133  1
  Hf  Hf1  1  0.170264  0.326730  0.872824  1
  Hf  Hf2  1  0.329578  0.826649  0.126114  1
  Hf  Hf3  1  0.833600  0.670306  0.376354  1
  Hf  Hf4  1  0.329704  0.824932  0.376636  1
  Hf  Hf5  1  0.830161  0.672944  0.126142  1
  Hf  Hf6  1  0.670758  0.173311  0.871561  1
  Sc  Sc7  1  0.500376  0.674729  0.595090  1
  Sc  Sc8  1  0.006848  0.824236  0.900788  1
  Sc  Sc9  1  0.495544  0.322698  0.097153  1
  Sc  Sc10  1  0.997926  0.177382  0.408440  1
  Sc  Sc11  1  0.497553  0.323395  0.403650  1
  Sc  Sc12  1  0.994497  0.175754  0.096009  1
  Sc  Sc13  1  0.502555  0.674176  0.902447  1
  Sc  Sc14  1  0.003524  0.823377  0.595225  1
  Si  Si15  1  0.666697  0.973171  0.456776  1
  Si  Si16  1  0.166269  0.527404  0.041837  1
  Si  Si17  1  0.334805  0.027095  0.956533  1
  Si  Si18  1  0.843757  0.471297  0.546311  1
  Si  Si19  1  0.322222  0.038075  0.543522  1
  Si  Si20  1  0.834610  0.472923  0.956300  1
  Si  Si21  1  0.664561  0.972398  0.042041  1
  Si  Si22  1  0.172168  0.528176  0.465639  1
  Si  Si23  1  0.465360  0.395269  0.747683  1
  Si  Si24  1  0.972864  0.109355  0.745476  1
  Si  Si25  1  0.530348  0.602848  0.251039  1
  Si  Si26  1  0.028898  0.897545  0.251549  1
  Si  Si27  1  0.706998  0.855553  0.747773  1
  Si  Si28  1  0.204640  0.642032  0.748020  1
  Si  Si29  1  0.291834  0.144288  0.251264  1
  Si  Si30  1  0.795100  0.353227  0.250610  1
  W  W31  1  0.171307  0.329710  0.627456  1
  W  W32  1  0.841846  0.492852  0.747714  1
  W  W33  1  0.341513  0.005675  0.747844  1
  W  W34  1  0.159365  0.502947  0.251325  1
  W  W35  1  0.657148  0.994152  0.250722  1
