# generated using pymatgen
data_Nb3CrReSi3W
_symmetry_space_group_name_H-M   'P 1'
_cell_length_a   6.79905300
_cell_length_b   6.85509849
_cell_length_c   3.34011500
_cell_angle_alpha   90.00000000
_cell_angle_beta   90.00000000
_cell_angle_gamma   119.88162291
_symmetry_Int_Tables_number   1
_chemical_formula_structural   Nb3CrReSi3W
_chemical_formula_sum   'Nb3 Cr1 Re1 Si3 W1'
_cell_volume   134.98048638
_cell_formula_units_Z   1
loop_
 _symmetry_equiv_pos_site_id
 _symmetry_equiv_pos_as_xyz
  1  'x, y, z'
loop_
 _atom_site_type_symbol
 _atom_site_label
 _atom_site_symmetry_multiplicity
 _atom_site_fract_x
 _atom_site_fract_y
 _atom_site_fract_z
 _atom_site_occupancy
  Nb  Nb0  1  0.405553  0.992359  0.500000  1
  Nb  Nb1  1  0.995152  0.401993  0.500000  1
  Nb  Nb2  1  0.606294  0.604825  0.500000  1
  Cr  Cr3  1  0.742513  0.000146  0.000000  1
  Re  Re4  1  0.256801  0.255721  0.000000  1
  Si  Si5  1  0.338354  0.664815  0.000000  1
  Si  Si6  1  0.663384  0.327251  0.000000  1
  Si  Si7  1  0.990803  0.006605  0.500000  1
  W  W8  1  0.001144  0.746285  0.000000  1
