# generated using pymatgen
data_Hf3Ti3Si2P
_symmetry_space_group_name_H-M   'P 1'
_cell_length_a   6.90875300
_cell_length_b   6.90875272
_cell_length_c   3.68543200
_cell_angle_alpha   90.00000000
_cell_angle_beta   90.00000000
_cell_angle_gamma   120.00000611
_symmetry_Int_Tables_number   1
_chemical_formula_structural   Hf3Ti3Si2P
_chemical_formula_sum   'Hf3 Ti3 Si2 P1'
_cell_volume   152.34153332
_cell_formula_units_Z   1
loop_
 _symmetry_equiv_pos_site_id
 _symmetry_equiv_pos_as_xyz
  1  'x, y, z'
loop_
 _atom_site_type_symbol
 _atom_site_label
 _atom_site_symmetry_multiplicity
 _atom_site_fract_x
 _atom_site_fract_y
 _atom_site_fract_z
 _atom_site_occupancy
  Hf  Hf0  1  0.409743  0.406816  0.500000  1
  Hf  Hf1  1  0.593184  0.002927  0.500000  1
  Hf  Hf2  1  0.997073  0.590257  0.500000  1
  Ti  Ti3  1  0.751076  0.749689  0.000000  1
  Ti  Ti4  1  0.250311  0.001387  0.000000  1
  Ti  Ti5  1  0.998613  0.248924  0.000000  1
  Si  Si6  1  0.333333  0.666667  0.000000  1
  Si  Si7  1  0.000000  0.000000  0.500000  1
  P  P8  1  0.666667  0.333333  0.000000  1
