# generated using pymatgen
data_ScNb2B2Os2Ru3
_symmetry_space_group_name_H-M   'P 1'
_cell_length_a   9.47058525
_cell_length_b   9.54275431
_cell_length_c   3.06830800
_cell_angle_alpha   90.00000000
_cell_angle_beta   90.00000000
_cell_angle_gamma   89.92060299
_symmetry_Int_Tables_number   1
_chemical_formula_structural   ScNb2B2Os2Ru3
_chemical_formula_sum   'Sc2 Nb4 B4 Os4 Ru6'
_cell_volume   277.29950600
_cell_formula_units_Z   2
loop_
 _symmetry_equiv_pos_site_id
 _symmetry_equiv_pos_as_xyz
  1  'x, y, z'
loop_
 _atom_site_type_symbol
 _atom_site_label
 _atom_site_symmetry_multiplicity
 _atom_site_fract_x
 _atom_site_fract_y
 _atom_site_fract_z
 _atom_site_occupancy
  Sc  Sc0  1  0.825462  0.675338  0.000000  1
  Sc  Sc1  1  0.174538  0.324662  0.000000  1
  Nb  Nb2  1  0.324407  0.823064  0.000000  1
  Nb  Nb3  1  0.675593  0.176936  0.000000  1
  Nb  Nb4  1  0.500000  0.500000  0.000000  1
  Nb  Nb5  1  0.000000  0.000000  0.000000  1
  B  B6  1  0.622965  0.876633  0.000000  1
  B  B7  1  0.377035  0.123367  0.000000  1
  B  B8  1  0.119102  0.619882  0.000000  1
  B  B9  1  0.880898  0.380118  0.000000  1
  Os  Os10  1  0.564077  0.721886  0.500000  1
  Os  Os11  1  0.435923  0.278114  0.500000  1
  Os  Os12  1  0.078039  0.782297  0.500000  1
  Os  Os13  1  0.921961  0.217703  0.500000  1
  Ru  Ru14  1  0.283389  0.573973  0.500000  1
  Ru  Ru15  1  0.716611  0.426027  0.500000  1
  Ru  Ru16  1  0.220358  0.065345  0.500000  1
  Ru  Ru17  1  0.779642  0.934655  0.500000  1
  Ru  Ru18  1  0.500000  0.000000  0.500000  1
  Ru  Ru19  1  0.000000  0.500000  0.500000  1
