# generated using pymatgen
data_CeTh2Zn3PdPt2
_symmetry_space_group_name_H-M   'P 1'
_cell_length_a   7.47558200
_cell_length_b   7.45402151
_cell_length_c   3.95654300
_cell_angle_alpha   90.00000000
_cell_angle_beta   90.00000000
_cell_angle_gamma   120.09572815
_symmetry_Int_Tables_number   1
_chemical_formula_structural   CeTh2Zn3PdPt2
_chemical_formula_sum   'Ce1 Th2 Zn3 Pd1 Pt2'
_cell_volume   190.74907261
_cell_formula_units_Z   1
loop_
 _symmetry_equiv_pos_site_id
 _symmetry_equiv_pos_as_xyz
  1  'x, y, z'
loop_
 _atom_site_type_symbol
 _atom_site_label
 _atom_site_symmetry_multiplicity
 _atom_site_fract_x
 _atom_site_fract_y
 _atom_site_fract_z
 _atom_site_occupancy
  Ce  Ce0  1  0.410388  0.000000  0.000000  1
  Th  Th1  1  0.999529  0.410582  0.000000  1
  Th  Th2  1  0.588946  0.589418  0.000000  1
  Zn  Zn3  1  0.004720  0.760469  0.500000  1
  Zn  Zn4  1  0.244251  0.239531  0.500000  1
  Zn  Zn5  1  0.753683  0.000000  0.500000  1
  Pd  Pd6  1  0.997581  0.000000  0.000000  1
  Pt  Pt7  1  0.667513  0.334125  0.500000  1
  Pt  Pt8  1  0.333387  0.665875  0.500000  1
