# generated using pymatgen
data_YTeBrO3
_symmetry_space_group_name_H-M   'P 1'
_cell_length_a   7.41917700
_cell_length_b   7.05393300
_cell_length_c   9.16891000
_cell_angle_alpha   90.00000000
_cell_angle_beta   90.00000000
_cell_angle_gamma   90.00000000
_symmetry_Int_Tables_number   1
_chemical_formula_structural   YTeBrO3
_chemical_formula_sum   'Y4 Te4 Br4 O12'
_cell_volume   479.84919696
_cell_formula_units_Z   4
loop_
 _symmetry_equiv_pos_site_id
 _symmetry_equiv_pos_as_xyz
  1  'x, y, z'
loop_
 _atom_site_type_symbol
 _atom_site_label
 _atom_site_symmetry_multiplicity
 _atom_site_fract_x
 _atom_site_fract_y
 _atom_site_fract_z
 _atom_site_occupancy
  Y  Y0  1  0.594655  0.250000  0.028029  1
  Y  Y1  1  0.094656  0.250000  0.471971  1
  Y  Y2  1  0.905344  0.750000  0.528030  1
  Y  Y3  1  0.405345  0.750000  0.971970  1
  Te  Te4  1  0.816666  0.750000  0.128983  1
  Te  Te5  1  0.316666  0.750000  0.371017  1
  Te  Te6  1  0.683334  0.250000  0.628982  1
  Te  Te7  1  0.183335  0.250000  0.871018  1
  Br  Br8  1  0.948014  0.250000  0.178083  1
  Br  Br9  1  0.448013  0.250000  0.321917  1
  Br  Br10  1  0.551986  0.750000  0.678083  1
  Br  Br11  1  0.051987  0.750000  0.821917  1
  O  O12  1  0.645283  0.566798  0.062711  1
  O  O13  1  0.645283  0.933203  0.062711  1
  O  O14  1  0.250020  0.750000  0.173883  1
  O  O15  1  0.750019  0.750000  0.326118  1
  O  O16  1  0.145282  0.566798  0.437288  1
  O  O17  1  0.145282  0.933203  0.437288  1
  O  O18  1  0.854717  0.066797  0.562712  1
  O  O19  1  0.854717  0.433202  0.562712  1
  O  O20  1  0.249980  0.250000  0.673883  1
  O  O21  1  0.749981  0.250000  0.826117  1
  O  O22  1  0.354717  0.066797  0.937288  1
  O  O23  1  0.354717  0.433202  0.937288  1
