# generated using pymatgen
data_Ca2Co9Mo3As7
_symmetry_space_group_name_H-M   'P 1'
_cell_length_a   3.84604900
_cell_length_b   9.43641019
_cell_length_c   9.43641000
_cell_angle_alpha   119.99999933
_cell_angle_beta   90.00000000
_cell_angle_gamma   90.00000000
_symmetry_Int_Tables_number   1
_chemical_formula_structural   Ca2Co9Mo3As7
_chemical_formula_sum   'Ca2 Co9 Mo3 As7'
_cell_volume   296.59174602
_cell_formula_units_Z   1
loop_
 _symmetry_equiv_pos_site_id
 _symmetry_equiv_pos_as_xyz
  1  'x, y, z'
loop_
 _atom_site_type_symbol
 _atom_site_label
 _atom_site_symmetry_multiplicity
 _atom_site_fract_x
 _atom_site_fract_y
 _atom_site_fract_z
 _atom_site_occupancy
  Ca  Ca0  1  0.000000  0.666667  0.333333  1
  Ca  Ca1  1  0.500000  0.333333  0.666667  1
  Co  Co2  1  0.000000  0.572262  0.942896  1
  Co  Co3  1  0.000000  0.370634  0.427738  1
  Co  Co4  1  0.000000  0.057104  0.629366  1
  Co  Co5  1  0.000000  0.878309  0.158109  1
  Co  Co6  1  0.000000  0.279800  0.121691  1
  Co  Co7  1  0.000000  0.841891  0.720200  1
  Co  Co8  1  0.500000  0.951076  0.382633  1
  Co  Co9  1  0.500000  0.431555  0.048924  1
  Co  Co10  1  0.500000  0.617367  0.568445  1
  Mo  Mo11  1  0.500000  0.783833  0.902344  1
  Mo  Mo12  1  0.500000  0.118511  0.216167  1
  Mo  Mo13  1  0.500000  0.097656  0.881489  1
  As  As14  1  0.000000  0.000000  0.000000  1
  As  As15  1  0.500000  0.707656  0.120070  1
  As  As16  1  0.500000  0.412415  0.292344  1
  As  As17  1  0.500000  0.879930  0.587585  1
  As  As18  1  0.000000  0.584845  0.699256  1
  As  As19  1  0.000000  0.114412  0.415155  1
  As  As20  1  0.000000  0.300744  0.885588  1
