# generated using pymatgen
data_DyPu6UC12
_symmetry_space_group_name_H-M   'P 1'
_cell_length_a   7.08213297
_cell_length_b   7.10179095
_cell_length_c   7.06709283
_cell_angle_alpha   109.63351630
_cell_angle_beta   109.35011107
_cell_angle_gamma   109.52512339
_symmetry_Int_Tables_number   1
_chemical_formula_structural   DyPu6UC12
_chemical_formula_sum   'Dy1 Pu6 U1 C12'
_cell_volume   273.29905777
_cell_formula_units_Z   1
loop_
 _symmetry_equiv_pos_site_id
 _symmetry_equiv_pos_as_xyz
  1  'x, y, z'
loop_
 _atom_site_type_symbol
 _atom_site_label
 _atom_site_symmetry_multiplicity
 _atom_site_fract_x
 _atom_site_fract_y
 _atom_site_fract_z
 _atom_site_occupancy
  Dy  Dy0  1  0.498995  0.004739  0.902437  1
  Pu  Pu1  1  0.601485  0.600065  0.598953  1
  Pu  Pu2  1  0.504984  0.000640  0.402959  1
  Pu  Pu3  1  0.005149  0.403449  0.507971  1
  Pu  Pu4  1  0.399837  0.503251  0.995413  1
  Pu  Pu5  1  0.997289  0.895348  0.496336  1
  Pu  Pu6  1  0.899971  0.502193  0.002133  1
  U  U7  1  0.103992  0.106060  0.104510  1
  C  C8  1  0.794022  0.035216  0.748474  1
  C  C9  1  0.974894  0.211892  0.766167  1
  C  C10  1  0.217704  0.507589  0.296571  1
  C  C11  1  0.295295  0.218558  0.509751  1
  C  C12  1  0.761286  0.971734  0.211636  1
  C  C13  1  0.208765  0.762212  0.975315  1
  C  C14  1  0.707938  0.452198  0.256153  1
  C  C15  1  0.462402  0.258082  0.711798  1
  C  C16  1  0.499432  0.296252  0.215273  1
  C  C17  1  0.247432  0.711230  0.449975  1
  C  C18  1  0.763825  0.794114  0.052883  1
  C  C19  1  0.055302  0.765178  0.795292  1
