# generated using pymatgen
data_Be(CoW)6
_symmetry_space_group_name_H-M   'P 1'
_cell_length_a   8.87011049
_cell_length_b   8.87011114
_cell_length_c   8.87010930
_cell_angle_alpha   31.12006396
_cell_angle_beta   31.12006122
_cell_angle_gamma   31.12006550
_symmetry_Int_Tables_number   1
_chemical_formula_structural   Be(CoW)6
_chemical_formula_sum   'Be1 Co6 W6'
_cell_volume   165.40486467
_cell_formula_units_Z   1
loop_
 _symmetry_equiv_pos_site_id
 _symmetry_equiv_pos_as_xyz
  1  'x, y, z'
loop_
 _atom_site_type_symbol
 _atom_site_label
 _atom_site_symmetry_multiplicity
 _atom_site_fract_x
 _atom_site_fract_y
 _atom_site_fract_z
 _atom_site_occupancy
  Be  Be0  1  0.000000  0.000000  0.000000  1
  Co  Co1  1  0.908797  0.407487  0.908797  1
  Co  Co2  1  0.908797  0.908797  0.407487  1
  Co  Co3  1  0.407487  0.908797  0.908797  1
  Co  Co4  1  0.091203  0.592513  0.091203  1
  Co  Co5  1  0.091203  0.091203  0.592513  1
  Co  Co6  1  0.592513  0.091203  0.091203  1
  W  W7  1  0.830289  0.830289  0.830289  1
  W  W8  1  0.169711  0.169711  0.169711  1
  W  W9  1  0.654220  0.654220  0.654220  1
  W  W10  1  0.345780  0.345780  0.345780  1
  W  W11  1  0.550327  0.550327  0.550327  1
  W  W12  1  0.449673  0.449673  0.449673  1
