# generated using pymatgen
data_SmCu3PtAu
_symmetry_space_group_name_H-M   'P 1'
_cell_length_a   5.21302198
_cell_length_b   5.21302294
_cell_length_c   5.21302198
_cell_angle_alpha   58.85589546
_cell_angle_beta   58.85589895
_cell_angle_gamma   58.85588923
_symmetry_Int_Tables_number   1
_chemical_formula_structural   SmCu3PtAu
_chemical_formula_sum   'Sm1 Cu3 Pt1 Au1'
_cell_volume   97.55722832
_cell_formula_units_Z   1
loop_
 _symmetry_equiv_pos_site_id
 _symmetry_equiv_pos_as_xyz
  1  'x, y, z'
loop_
 _atom_site_type_symbol
 _atom_site_label
 _atom_site_symmetry_multiplicity
 _atom_site_fract_x
 _atom_site_fract_y
 _atom_site_fract_z
 _atom_site_occupancy
  Sm  Sm0  1  0.251679  0.251679  0.251679  1
  Cu  Cu1  1  0.623020  0.623020  0.119506  1
  Cu  Cu2  1  0.623020  0.119506  0.623020  1
  Cu  Cu3  1  0.119506  0.623020  0.623020  1
  Pt  Pt4  1  0.622088  0.622088  0.622088  1
  Au  Au5  1  0.010686  0.010686  0.010686  1
