# generated using pymatgen
data_KBi(PtO2)4
_symmetry_space_group_name_H-M   'P 1'
_cell_length_a   5.86512103
_cell_length_b   6.24620092
_cell_length_c   6.91962900
_cell_angle_alpha   116.79585123
_cell_angle_beta   96.28371469
_cell_angle_gamma   110.08839382
_symmetry_Int_Tables_number   1
_chemical_formula_structural   KBi(PtO2)4
_chemical_formula_sum   'K1 Bi1 Pt4 O8'
_cell_volume   201.67436875
_cell_formula_units_Z   1
loop_
 _symmetry_equiv_pos_site_id
 _symmetry_equiv_pos_as_xyz
  1  'x, y, z'
loop_
 _atom_site_type_symbol
 _atom_site_label
 _atom_site_symmetry_multiplicity
 _atom_site_fract_x
 _atom_site_fract_y
 _atom_site_fract_z
 _atom_site_occupancy
  K  K0  1  0.873609  0.246538  0.122036  1
  Bi  Bi1  1  0.143543  0.743737  0.815644  1
  Pt  Pt2  1  0.496793  0.499061  0.502804  1
  Pt  Pt3  1  0.997854  0.001672  0.505477  1
  Pt  Pt4  1  0.503590  0.503191  0.006691  1
  Pt  Pt5  1  0.495286  0.001262  0.498447  1
  O  O6  1  0.499062  0.862966  0.718519  1
  O  O7  1  0.473694  0.133885  0.285812  1
  O  O8  1  0.834447  0.819544  0.171897  1
  O  O9  1  0.173683  0.166766  0.837223  1
  O  O10  1  0.867867  0.657594  0.504764  1
  O  O11  1  0.136658  0.358658  0.524272  1
  O  O12  1  0.374589  0.600519  0.277674  1
  O  O13  1  0.629323  0.404607  0.728741  1
