# generated using pymatgen
data_Y5Bi3O14
_symmetry_space_group_name_H-M   'P 1'
_cell_length_a   6.60063146
_cell_length_b   6.61628708
_cell_length_c   7.77058322
_cell_angle_alpha   106.87713493
_cell_angle_beta   89.79017074
_cell_angle_gamma   98.51526288
_symmetry_Int_Tables_number   1
_chemical_formula_structural   Y5Bi3O14
_chemical_formula_sum   'Y5 Bi3 O14'
_cell_volume   320.88103988
_cell_formula_units_Z   1
loop_
 _symmetry_equiv_pos_site_id
 _symmetry_equiv_pos_as_xyz
  1  'x, y, z'
loop_
 _atom_site_type_symbol
 _atom_site_label
 _atom_site_symmetry_multiplicity
 _atom_site_fract_x
 _atom_site_fract_y
 _atom_site_fract_z
 _atom_site_occupancy
  Y  Y0  1  0.461783  0.006950  0.253248  1
  Y  Y1  1  0.537812  0.998797  0.750711  1
  Y  Y2  1  0.271205  0.534857  0.882597  1
  Y  Y3  1  0.737545  0.461432  0.112920  1
  Y  Y4  1  0.741456  0.477547  0.617911  1
  Bi  Bi5  1  0.994054  0.999822  0.500460  1
  Bi  Bi6  1  0.999369  0.996281  0.997769  1
  Bi  Bi7  1  0.281119  0.532066  0.387920  1
  O  O8  1  0.452377  0.652100  0.165743  1
  O  O9  1  0.555637  0.353343  0.835352  1
  O  O10  1  0.301793  0.919628  0.950597  1
  O  O11  1  0.699125  0.077346  0.050669  1
  O  O12  1  0.297404  0.931573  0.516980  1
  O  O13  1  0.698167  0.084295  0.491715  1
  O  O14  1  0.550122  0.362122  0.343639  1
  O  O15  1  0.461115  0.639600  0.657408  1
  O  O16  1  0.926599  0.661698  0.952002  1
  O  O17  1  0.070419  0.326012  0.028484  1
  O  O18  1  0.065605  0.342318  0.628734  1
  O  O19  1  0.904740  0.663684  0.379903  1
  O  O20  1  0.871990  0.899979  0.725484  1
  O  O21  1  0.120565  0.078551  0.269754  1
