# generated using pymatgen
data_MnNb8TcS16
_symmetry_space_group_name_H-M   'P 1'
_cell_length_a   6.69777300
_cell_length_b   6.69777226
_cell_length_c   12.27071000
_cell_angle_alpha   90.00000000
_cell_angle_beta   90.00000000
_cell_angle_gamma   119.99999872
_symmetry_Int_Tables_number   1
_chemical_formula_structural   MnNb8TcS16
_chemical_formula_sum   'Mn1 Nb8 Tc1 S16'
_cell_volume   476.71753896
_cell_formula_units_Z   1
loop_
 _symmetry_equiv_pos_site_id
 _symmetry_equiv_pos_as_xyz
  1  'x, y, z'
loop_
 _atom_site_type_symbol
 _atom_site_label
 _atom_site_symmetry_multiplicity
 _atom_site_fract_x
 _atom_site_fract_y
 _atom_site_fract_z
 _atom_site_occupancy
  Mn  Mn0  1  0.000000  0.000000  0.500000  1
  Nb  Nb1  1  0.000000  0.000000  0.247177  1
  Nb  Nb2  1  0.000000  0.000000  0.752823  1
  Nb  Nb3  1  0.493988  0.987977  0.756381  1
  Nb  Nb4  1  0.012023  0.506012  0.756381  1
  Nb  Nb5  1  0.493988  0.506012  0.756381  1
  Nb  Nb6  1  0.506012  0.012023  0.243619  1
  Nb  Nb7  1  0.987977  0.493988  0.243619  1
  Nb  Nb8  1  0.506012  0.493988  0.243619  1
  Tc  Tc9  1  0.000000  0.000000  0.000000  1
  S  S10  1  0.333333  0.666667  0.888090  1
  S  S11  1  0.666667  0.333333  0.111910  1
  S  S12  1  0.666667  0.333333  0.374284  1
  S  S13  1  0.333333  0.666667  0.625716  1
  S  S14  1  0.835441  0.670883  0.882000  1
  S  S15  1  0.329117  0.164559  0.882000  1
  S  S16  1  0.835441  0.164559  0.882000  1
  S  S17  1  0.164559  0.329117  0.118000  1
  S  S18  1  0.670883  0.835441  0.118000  1
  S  S19  1  0.164559  0.835441  0.118000  1
  S  S20  1  0.168661  0.337322  0.373308  1
  S  S21  1  0.662678  0.831339  0.373308  1
  S  S22  1  0.168661  0.831339  0.373308  1
  S  S23  1  0.831339  0.662678  0.626692  1
  S  S24  1  0.337322  0.168661  0.626692  1
  S  S25  1  0.831339  0.168661  0.626692  1
