# generated using pymatgen
data_Tb3HoAl3(Ga5Ir2)3
_symmetry_space_group_name_H-M   'P 1'
_cell_length_a   7.57474014
_cell_length_b   7.57577743
_cell_length_c   9.52202500
_cell_angle_alpha   89.99454153
_cell_angle_beta   89.99351753
_cell_angle_gamma   119.66221561
_symmetry_Int_Tables_number   1
_chemical_formula_structural   Tb3HoAl3(Ga5Ir2)3
_chemical_formula_sum   'Tb3 Ho1 Al3 Ga15 Ir6'
_cell_volume   474.81351265
_cell_formula_units_Z   1
loop_
 _symmetry_equiv_pos_site_id
 _symmetry_equiv_pos_as_xyz
  1  'x, y, z'
loop_
 _atom_site_type_symbol
 _atom_site_label
 _atom_site_symmetry_multiplicity
 _atom_site_fract_x
 _atom_site_fract_y
 _atom_site_fract_z
 _atom_site_occupancy
  Tb  Tb0  1  0.000543  0.671463  0.250068  1
  Tb  Tb1  1  0.999455  0.329870  0.749303  1
  Tb  Tb2  1  0.671482  0.000563  0.250067  1
  Ho  Ho3  1  0.329872  0.999295  0.749300  1
  Al  Al4  1  0.663751  0.663751  0.448995  1
  Al  Al5  1  0.668356  0.668363  0.051127  1
  Al  Al6  1  0.331751  0.331514  0.948162  1
  Ga  Ga7  1  0.128784  0.128767  0.249077  1
  Ga  Ga8  1  0.872845  0.872627  0.749183  1
  Ga  Ga9  1  0.000335  0.336024  0.079557  1
  Ga  Ga10  1  0.000420  0.665087  0.920299  1
  Ga  Ga11  1  0.999439  0.664670  0.579730  1
  Ga  Ga12  1  0.336233  0.001951  0.418632  1
  Ga  Ga13  1  0.001980  0.336244  0.418392  1
  Ga  Ga14  1  0.663933  0.999116  0.579744  1
  Ga  Ga15  1  0.664361  0.000070  0.920288  1
  Ga  Ga16  1  0.336026  0.000300  0.079315  1
  Ga  Ga17  1  0.327984  0.327651  0.565334  1
  Ga  Ga18  1  0.348270  0.551082  0.249790  1
  Ga  Ga19  1  0.655879  0.450488  0.750123  1
  Ga  Ga20  1  0.551037  0.348225  0.249783  1
  Ga  Ga21  1  0.450830  0.656424  0.750118  1
  Ir  Ir22  1  0.668945  0.330486  0.999421  1
  Ir  Ir23  1  0.330485  0.669017  0.999440  1
  Ir  Ir24  1  0.329979  0.671767  0.499307  1
  Ir  Ir25  1  0.671718  0.330010  0.499285  1
  Ir  Ir26  1  0.000229  0.000120  0.999023  1
  Ir  Ir27  1  0.995076  0.995050  0.497140  1
