# generated using pymatgen
data_Rb5HgAu5
_symmetry_space_group_name_H-M   'P 1'
_cell_length_a   15.93574211
_cell_length_b   15.93574234
_cell_length_c   5.40131300
_cell_angle_alpha   90.00000000
_cell_angle_beta   90.00000000
_cell_angle_gamma   161.86210143
_symmetry_Int_Tables_number   1
_chemical_formula_structural   Rb5HgAu5
_chemical_formula_sum   'Rb5 Hg1 Au5'
_cell_volume   427.00223786
_cell_formula_units_Z   1
loop_
 _symmetry_equiv_pos_site_id
 _symmetry_equiv_pos_as_xyz
  1  'x, y, z'
loop_
 _atom_site_type_symbol
 _atom_site_label
 _atom_site_symmetry_multiplicity
 _atom_site_fract_x
 _atom_site_fract_y
 _atom_site_fract_z
 _atom_site_occupancy
  Rb  Rb0  1  0.994921  0.005079  0.000000  1
  Rb  Rb1  1  0.617810  0.382188  0.000000  1
  Rb  Rb2  1  0.382023  0.617975  0.000000  1
  Rb  Rb3  1  0.807984  0.192014  0.500001  1
  Rb  Rb4  1  0.200330  0.799668  0.500001  1
  Hg  Hg5  1  0.081004  0.918995  0.500001  1
  Au  Au6  1  0.736664  0.263334  0.000000  1
  Au  Au7  1  0.266660  0.733338  0.000000  1
  Au  Au8  1  0.923754  0.076245  0.500001  1
  Au  Au9  1  0.539128  0.460870  0.500001  1
  Au  Au10  1  0.449716  0.550282  0.500001  1
