# generated using pymatgen
data_Ce2Cr2(Tc5C)3
_symmetry_space_group_name_H-M   'P 1'
_cell_length_a   6.94552857
_cell_length_b   6.94537356
_cell_length_c   6.94552773
_cell_angle_alpha   82.80428828
_cell_angle_beta   83.09525816
_cell_angle_gamma   82.80429609
_symmetry_Int_Tables_number   1
_chemical_formula_structural   Ce2Cr2(Tc5C)3
_chemical_formula_sum   'Ce2 Cr2 Tc15 C3'
_cell_volume   327.92563363
_cell_formula_units_Z   1
loop_
 _symmetry_equiv_pos_site_id
 _symmetry_equiv_pos_as_xyz
  1  'x, y, z'
loop_
 _atom_site_type_symbol
 _atom_site_label
 _atom_site_symmetry_multiplicity
 _atom_site_fract_x
 _atom_site_fract_y
 _atom_site_fract_z
 _atom_site_occupancy
  Ce  Ce0  1  0.649689  0.649672  0.649689  1
  Ce  Ce1  1  0.350311  0.350328  0.350311  1
  Cr  Cr2  1  0.000000  0.000000  0.500000  1
  Cr  Cr3  1  0.500000  0.000000  0.000000  1
  Tc  Tc4  1  0.000000  0.500000  0.000000  1
  Tc  Tc5  1  0.280348  0.725657  0.999053  1
  Tc  Tc6  1  0.722178  0.000000  0.277822  1
  Tc  Tc7  1  0.000947  0.274343  0.719652  1
  Tc  Tc8  1  0.277822  0.000000  0.722178  1
  Tc  Tc9  1  0.999053  0.725657  0.280348  1
  Tc  Tc10  1  0.719652  0.274343  0.000947  1
  Tc  Tc11  1  0.350494  0.344855  0.862177  1
  Tc  Tc12  1  0.344991  0.866776  0.344991  1
  Tc  Tc13  1  0.862177  0.344855  0.350494  1
  Tc  Tc14  1  0.649506  0.655145  0.137823  1
  Tc  Tc15  1  0.655009  0.133224  0.655009  1
  Tc  Tc16  1  0.137823  0.655145  0.649506  1
  Tc  Tc17  1  0.900485  0.901407  0.900485  1
  Tc  Tc18  1  0.099515  0.098593  0.099515  1
  C  C19  1  0.500000  0.500000  0.000000  1
  C  C20  1  0.500000  0.000000  0.500000  1
  C  C21  1  0.000000  0.500000  0.500000  1
