# generated using pymatgen
data_Cs3KBa4Y4(Si2O7)4
_symmetry_space_group_name_H-M   'P 1'
_cell_length_a   5.78733300
_cell_length_b   9.88554093
_cell_length_c   14.40485700
_cell_angle_alpha   63.00460321
_cell_angle_beta   90.00000000
_cell_angle_gamma   90.00000000
_symmetry_Int_Tables_number   1
_chemical_formula_structural   Cs3KBa4Y4(Si2O7)4
_chemical_formula_sum   'Cs3 K1 Ba4 Y4 Si8 O28'
_cell_volume   734.32197091
_cell_formula_units_Z   1
loop_
 _symmetry_equiv_pos_site_id
 _symmetry_equiv_pos_as_xyz
  1  'x, y, z'
loop_
 _atom_site_type_symbol
 _atom_site_label
 _atom_site_symmetry_multiplicity
 _atom_site_fract_x
 _atom_site_fract_y
 _atom_site_fract_z
 _atom_site_occupancy
  Cs  Cs0  1  0.761505  0.018874  0.343693  1
  Cs  Cs1  1  0.260862  0.980747  0.157259  1
  Cs  Cs2  1  0.739248  0.019785  0.838322  1
  K  K3  1  0.237074  0.997134  0.634428  1
  Ba  Ba4  1  0.272683  0.534172  0.328259  1
  Ba  Ba5  1  0.228613  0.534248  0.828599  1
  Ba  Ba6  1  0.727435  0.468622  0.672446  1
  Ba  Ba7  1  0.773122  0.466805  0.170760  1
  Y  Y8  1  0.241584  0.740673  0.016538  1
  Y  Y9  1  0.759252  0.257713  0.982028  1
  Y  Y10  1  0.259593  0.740598  0.518931  1
  Y  Y11  1  0.738862  0.260958  0.483365  1
  Si  Si12  1  0.224245  0.329954  0.623281  1
  Si  Si13  1  0.745467  0.827244  0.644222  1
  Si  Si14  1  0.255985  0.176484  0.359185  1
  Si  Si15  1  0.755513  0.823650  0.141936  1
  Si  Si16  1  0.772603  0.666280  0.378986  1
  Si  Si17  1  0.731320  0.663973  0.878994  1
  Si  Si18  1  0.244179  0.173376  0.857012  1
  Si  Si19  1  0.272082  0.333397  0.122314  1
  O  O20  1  0.005659  0.265477  0.853690  1
  O  O21  1  0.243698  0.484279  0.638931  1
  O  O22  1  0.468962  0.699259  0.904540  1
  O  O23  1  0.763581  0.005796  0.067738  1
  O  O24  1  0.736527  0.510638  0.862433  1
  O  O25  1  0.532853  0.302098  0.092599  1
  O  O26  1  0.496961  0.266511  0.354352  1
  O  O27  1  0.816275  0.803234  0.763699  1
  O  O28  1  0.575991  0.672721  0.457841  1
  O  O29  1  0.264384  0.994728  0.436325  1
  O  O30  1  0.703925  0.806504  0.261727  1
  O  O31  1  0.497233  0.743697  0.648429  1
  O  O32  1  0.283507  0.181229  0.738480  1
  O  O33  1  0.073600  0.325953  0.044777  1
  O  O34  1  0.463381  0.263698  0.875257  1
  O  O35  1  0.955004  0.740114  0.616346  1
  O  O36  1  0.034527  0.698373  0.407246  1
  O  O37  1  0.959736  0.304881  0.594356  1
  O  O38  1  0.924084  0.665656  0.960554  1
  O  O39  1  0.540013  0.735376  0.119569  1
  O  O40  1  0.206194  0.192013  0.240052  1
  O  O41  1  0.040221  0.264681  0.381306  1
  O  O42  1  0.996615  0.733879  0.145938  1
  O  O43  1  0.416362  0.322039  0.543615  1
  O  O44  1  0.263687  0.487702  0.137409  1
  O  O45  1  0.761950  0.512226  0.363949  1
  O  O46  1  0.738012  0.009953  0.572931  1
  O  O47  1  0.235830  0.992599  0.935351  1
