# generated using pymatgen
data_Rb2Co3Br8
_symmetry_space_group_name_H-M   'P 1'
_cell_length_a   10.44771084
_cell_length_b   10.44771090
_cell_length_c   7.28065700
_cell_angle_alpha   83.95499167
_cell_angle_beta   83.95498612
_cell_angle_gamma   142.33702320
_symmetry_Int_Tables_number   1
_chemical_formula_structural   Rb2Co3Br8
_chemical_formula_sum   'Rb2 Co3 Br8'
_cell_volume   459.01499840
_cell_formula_units_Z   1
loop_
 _symmetry_equiv_pos_site_id
 _symmetry_equiv_pos_as_xyz
  1  'x, y, z'
loop_
 _atom_site_type_symbol
 _atom_site_label
 _atom_site_symmetry_multiplicity
 _atom_site_fract_x
 _atom_site_fract_y
 _atom_site_fract_z
 _atom_site_occupancy
  Rb  Rb0  1  0.646314  0.910949  0.533257  1
  Rb  Rb1  1  0.910949  0.646314  0.533257  1
  Co  Co2  1  0.005079  0.005079  0.024535  1
  Co  Co3  1  0.928632  0.318246  0.917314  1
  Co  Co4  1  0.318246  0.928632  0.917314  1
  Br  Br5  1  0.675823  0.675823  0.270472  1
  Br  Br6  1  0.990624  0.990624  0.705443  1
  Br  Br7  1  0.540172  0.944909  0.032609  1
  Br  Br8  1  0.944909  0.540172  0.032609  1
  Br  Br9  1  0.077165  0.456229  0.576494  1
  Br  Br10  1  0.456229  0.077165  0.576494  1
  Br  Br11  1  0.306724  0.113521  0.072276  1
  Br  Br12  1  0.113521  0.306724  0.072276  1
