# generated using pymatgen
data_K4BaNp5O15
_symmetry_space_group_name_H-M   'P 1'
_cell_length_a   9.67487449
_cell_length_b   9.67487414
_cell_length_c   7.48560403
_cell_angle_alpha   75.00749585
_cell_angle_beta   75.00749736
_cell_angle_gamma   36.90395560
_symmetry_Int_Tables_number   1
_chemical_formula_structural   K4BaNp5O15
_chemical_formula_sum   'K4 Ba1 Np5 O15'
_cell_volume   404.79105416
_cell_formula_units_Z   1
loop_
 _symmetry_equiv_pos_site_id
 _symmetry_equiv_pos_as_xyz
  1  'x, y, z'
loop_
 _atom_site_type_symbol
 _atom_site_label
 _atom_site_symmetry_multiplicity
 _atom_site_fract_x
 _atom_site_fract_y
 _atom_site_fract_z
 _atom_site_occupancy
  K  K0  1  0.600426  0.600426  0.598782  1
  K  K1  1  0.200523  0.200523  0.200786  1
  K  K2  1  0.799477  0.799477  0.799214  1
  K  K3  1  0.399574  0.399574  0.401218  1
  Ba  Ba4  1  0.000000  0.000000  0.000000  1
  Np  Np5  1  0.200748  0.200748  0.698481  1
  Np  Np6  1  0.799252  0.799252  0.301519  1
  Np  Np7  1  0.398980  0.398980  0.899846  1
  Np  Np8  1  0.000000  0.000000  0.500000  1
  Np  Np9  1  0.601020  0.601020  0.100154  1
  O  O10  1  0.391342  0.902929  0.901534  1
  O  O11  1  0.000000  0.500000  0.500000  1
  O  O12  1  0.608658  0.097071  0.098466  1
  O  O13  1  0.195772  0.706077  0.706648  1
  O  O14  1  0.804228  0.293923  0.293352  1
  O  O15  1  0.299874  0.299874  0.799531  1
  O  O16  1  0.902211  0.902211  0.391302  1
  O  O17  1  0.500000  0.500000  0.000000  1
  O  O18  1  0.097789  0.097789  0.608698  1
  O  O19  1  0.700126  0.700126  0.200469  1
  O  O20  1  0.500000  0.000000  0.500000  1
  O  O21  1  0.097071  0.608658  0.098466  1
  O  O22  1  0.706077  0.195772  0.706648  1
  O  O23  1  0.293923  0.804228  0.293352  1
  O  O24  1  0.902929  0.391342  0.901534  1
