# generated using pymatgen
data_Tb7Lu3Th6(MgTc)4
_symmetry_space_group_name_H-M   'P 1'
_cell_length_a   9.75094603
_cell_length_b   9.83542360
_cell_length_c   9.80394010
_cell_angle_alpha   59.28043888
_cell_angle_beta   60.23698503
_cell_angle_gamma   60.16458629
_symmetry_Int_Tables_number   1
_chemical_formula_structural   Tb7Lu3Th6(MgTc)4
_chemical_formula_sum   'Tb7 Lu3 Th6 Mg4 Tc4'
_cell_volume   663.13961937
_cell_formula_units_Z   1
loop_
 _symmetry_equiv_pos_site_id
 _symmetry_equiv_pos_as_xyz
  1  'x, y, z'
loop_
 _atom_site_type_symbol
 _atom_site_label
 _atom_site_symmetry_multiplicity
 _atom_site_fract_x
 _atom_site_fract_y
 _atom_site_fract_z
 _atom_site_occupancy
  Tb  Tb0  1  0.061262  0.062021  0.438743  1
  Tb  Tb1  1  0.185849  0.814652  0.817223  1
  Tb  Tb2  1  0.811621  0.187505  0.186444  1
  Tb  Tb3  1  0.807898  0.190049  0.813858  1
  Tb  Tb4  1  0.190204  0.808127  0.189872  1
  Tb  Tb5  1  0.809666  0.812744  0.188617  1
  Tb  Tb6  1  0.189025  0.190387  0.809549  1
  Lu  Lu7  1  0.440945  0.060359  0.437085  1
  Lu  Lu8  1  0.060853  0.440834  0.060462  1
  Lu  Lu9  1  0.439639  0.437313  0.060819  1
  Th  Th10  1  0.594317  0.596480  0.595394  1
  Th  Th11  1  0.599483  0.592275  0.211004  1
  Th  Th12  1  0.597103  0.212109  0.593209  1
  Th  Th13  1  0.210087  0.596914  0.599515  1
  Th  Th14  1  0.066600  0.435341  0.433653  1
  Th  Th15  1  0.432257  0.068702  0.067891  1
  Mg  Mg16  1  0.832127  0.828134  0.829537  1
  Mg  Mg17  1  0.827760  0.831473  0.510102  1
  Mg  Mg18  1  0.828220  0.510232  0.831652  1
  Mg  Mg19  1  0.510585  0.828381  0.828527  1
  Tc  Tc20  1  0.377315  0.394523  0.395958  1
  Tc  Tc21  1  0.397701  0.373836  0.830967  1
  Tc  Tc22  1  0.399883  0.829899  0.373108  1
  Tc  Tc23  1  0.829601  0.397712  0.396812  1
