# generated using pymatgen
data_ErLu4Bi3C
_symmetry_space_group_name_H-M   'P 1'
_cell_length_a   9.02644000
_cell_length_b   9.02644057
_cell_length_c   6.37326100
_cell_angle_alpha   90.00000000
_cell_angle_beta   90.00000000
_cell_angle_gamma   119.99999792
_symmetry_Int_Tables_number   1
_chemical_formula_structural   ErLu4Bi3C
_chemical_formula_sum   'Er2 Lu8 Bi6 C2'
_cell_volume   449.70257219
_cell_formula_units_Z   2
loop_
 _symmetry_equiv_pos_site_id
 _symmetry_equiv_pos_as_xyz
  1  'x, y, z'
loop_
 _atom_site_type_symbol
 _atom_site_label
 _atom_site_symmetry_multiplicity
 _atom_site_fract_x
 _atom_site_fract_y
 _atom_site_fract_z
 _atom_site_occupancy
  Er  Er0  1  0.666667  0.333333  0.500000  1
  Er  Er1  1  0.333333  0.666667  0.500000  1
  Lu  Lu2  1  0.333333  0.666667  0.000000  1
  Lu  Lu3  1  0.666667  0.333333  0.000000  1
  Lu  Lu4  1  0.795903  0.795903  0.249917  1
  Lu  Lu5  1  0.204097  0.000000  0.249917  1
  Lu  Lu6  1  0.000000  0.204097  0.249917  1
  Lu  Lu7  1  0.204097  0.204097  0.750083  1
  Lu  Lu8  1  0.795903  0.000000  0.750083  1
  Lu  Lu9  1  0.000000  0.795903  0.750083  1
  Bi  Bi10  1  0.399882  0.399882  0.249521  1
  Bi  Bi11  1  0.600118  0.000000  0.249521  1
  Bi  Bi12  1  0.000000  0.600118  0.249521  1
  Bi  Bi13  1  0.600118  0.600118  0.750479  1
  Bi  Bi14  1  0.399882  0.000000  0.750479  1
  Bi  Bi15  1  0.000000  0.399882  0.750479  1
  C  C16  1  0.000000  0.000000  0.500000  1
  C  C17  1  0.000000  0.000000  0.000000  1
