# generated using pymatgen
data_RbInGeSe4
_symmetry_space_group_name_H-M   'P 1'
_cell_length_a   17.89812500
_cell_length_b   7.48421143
_cell_length_c   8.09349900
_cell_angle_alpha   69.36448721
_cell_angle_beta   90.00000000
_cell_angle_gamma   90.00000000
_symmetry_Int_Tables_number   1
_chemical_formula_structural   RbInGeSe4
_chemical_formula_sum   'Rb4 In4 Ge4 Se16'
_cell_volume   1014.59355654
_cell_formula_units_Z   4
loop_
 _symmetry_equiv_pos_site_id
 _symmetry_equiv_pos_as_xyz
  1  'x, y, z'
loop_
 _atom_site_type_symbol
 _atom_site_label
 _atom_site_symmetry_multiplicity
 _atom_site_fract_x
 _atom_site_fract_y
 _atom_site_fract_z
 _atom_site_occupancy
  Rb  Rb0  1  0.394280  0.964969  0.184308  1
  Rb  Rb1  1  0.894280  0.035031  0.815692  1
  Rb  Rb2  1  0.602035  0.514296  0.824934  1
  Rb  Rb3  1  0.102035  0.485704  0.175066  1
  In  In4  1  0.585308  0.157118  0.481156  1
  In  In5  1  0.085308  0.842882  0.518844  1
  In  In6  1  0.275562  0.595107  0.702860  1
  In  In7  1  0.775562  0.404893  0.297140  1
  Ge  Ge8  1  0.419777  0.322372  0.539922  1
  Ge  Ge9  1  0.919777  0.677628  0.460078  1
  Ge  Ge10  1  0.725794  0.908648  0.265109  1
  Ge  Ge11  1  0.225794  0.091352  0.734891  1
  Se  Se12  1  0.600392  0.866890  0.374125  1
  Se  Se13  1  0.100392  0.133110  0.625875  1
  Se  Se14  1  0.417512  0.602136  0.616806  1
  Se  Se15  1  0.917512  0.397864  0.383194  1
  Se  Se16  1  0.800295  0.782409  0.531667  1
  Se  Se17  1  0.300295  0.217591  0.468333  1
  Se  Se18  1  0.203743  0.726399  0.409561  1
  Se  Se19  1  0.703743  0.273601  0.590439  1
  Se  Se20  1  0.759883  0.221202  0.076485  1
  Se  Se21  1  0.259883  0.778798  0.923515  1
  Se  Se22  1  0.238805  0.260206  0.932899  1
  Se  Se23  1  0.738805  0.739794  0.067101  1
  Se  Se24  1  0.990815  0.920603  0.246446  1
  Se  Se25  1  0.490815  0.079397  0.753554  1
  Se  Se26  1  0.985797  0.608130  0.733324  1
  Se  Se27  1  0.485797  0.391870  0.266676  1
