# generated using pymatgen
data_Nb2BH2
_symmetry_space_group_name_H-M   'P 1'
_cell_length_a   3.27606200
_cell_length_b   3.27606207
_cell_length_c   5.26906700
_cell_angle_alpha   90.00000000
_cell_angle_beta   90.00000000
_cell_angle_gamma   119.99999927
_symmetry_Int_Tables_number   1
_chemical_formula_structural   Nb2BH2
_chemical_formula_sum   'Nb2 B1 H2'
_cell_volume   48.97433978
_cell_formula_units_Z   1
loop_
 _symmetry_equiv_pos_site_id
 _symmetry_equiv_pos_as_xyz
  1  'x, y, z'
loop_
 _atom_site_type_symbol
 _atom_site_label
 _atom_site_symmetry_multiplicity
 _atom_site_fract_x
 _atom_site_fract_y
 _atom_site_fract_z
 _atom_site_occupancy
  Nb  Nb0  1  0.333334  0.666668  0.237680  1
  Nb  Nb1  1  0.666666  0.333334  0.762320  1
  B  B2  1  0.000000  0.000000  0.000000  1
  H  H3  1  0.666666  0.333334  0.385093  1
  H  H4  1  0.333334  0.666668  0.614907  1
