# generated using pymatgen
data_Er16MgCd3Ir3Ru
_symmetry_space_group_name_H-M   'P 1'
_cell_length_a   9.60839870
_cell_length_b   9.60839772
_cell_length_c   9.60839992
_cell_angle_alpha   59.44722939
_cell_angle_beta   59.44723428
_cell_angle_gamma   59.44722676
_symmetry_Int_Tables_number   1
_chemical_formula_structural   Er16MgCd3Ir3Ru
_chemical_formula_sum   'Er16 Mg1 Cd3 Ir3 Ru1'
_cell_volume   619.35830407
_cell_formula_units_Z   1
loop_
 _symmetry_equiv_pos_site_id
 _symmetry_equiv_pos_as_xyz
  1  'x, y, z'
loop_
 _atom_site_type_symbol
 _atom_site_label
 _atom_site_symmetry_multiplicity
 _atom_site_fract_x
 _atom_site_fract_y
 _atom_site_fract_z
 _atom_site_occupancy
  Er  Er0  1  0.599948  0.599948  0.599948  1
  Er  Er1  1  0.597632  0.597632  0.208134  1
  Er  Er2  1  0.597632  0.208134  0.597632  1
  Er  Er3  1  0.208134  0.597632  0.597632  1
  Er  Er4  1  0.061237  0.439399  0.439399  1
  Er  Er5  1  0.436938  0.061103  0.061103  1
  Er  Er6  1  0.439399  0.061237  0.439399  1
  Er  Er7  1  0.061103  0.436938  0.061103  1
  Er  Er8  1  0.439399  0.439399  0.061237  1
  Er  Er9  1  0.061103  0.061103  0.436938  1
  Er  Er10  1  0.189071  0.812422  0.812422  1
  Er  Er11  1  0.811026  0.187636  0.187636  1
  Er  Er12  1  0.812422  0.189071  0.812422  1
  Er  Er13  1  0.187636  0.811026  0.187636  1
  Er  Er14  1  0.812422  0.812422  0.189071  1
  Er  Er15  1  0.187636  0.187636  0.811026  1
  Mg  Mg16  1  0.824851  0.824851  0.824851  1
  Cd  Cd17  1  0.831176  0.831176  0.505271  1
  Cd  Cd18  1  0.831176  0.505271  0.831176  1
  Cd  Cd19  1  0.505271  0.831176  0.831176  1
  Ir  Ir20  1  0.393604  0.393604  0.826095  1
  Ir  Ir21  1  0.393604  0.826095  0.393604  1
  Ir  Ir22  1  0.826095  0.393604  0.393604  1
  Ru  Ru23  1  0.391490  0.391490  0.391490  1
