# generated using pymatgen
data_CeThMnCoSi2
_symmetry_space_group_name_H-M   'P 1'
_cell_length_a   4.06147200
_cell_length_b   4.07535800
_cell_length_c   6.79546800
_cell_angle_alpha   90.00000000
_cell_angle_beta   90.00000000
_cell_angle_gamma   90.00000000
_symmetry_Int_Tables_number   1
_chemical_formula_structural   CeThMnCoSi2
_chemical_formula_sum   'Ce1 Th1 Mn1 Co1 Si2'
_cell_volume   112.47826292
_cell_formula_units_Z   1
loop_
 _symmetry_equiv_pos_site_id
 _symmetry_equiv_pos_as_xyz
  1  'x, y, z'
loop_
 _atom_site_type_symbol
 _atom_site_label
 _atom_site_symmetry_multiplicity
 _atom_site_fract_x
 _atom_site_fract_y
 _atom_site_fract_z
 _atom_site_occupancy
  Ce  Ce0  1  0.000000  0.500000  0.307370  1
  Th  Th1  1  0.500000  0.000000  0.683590  1
  Mn  Mn2  1  0.500000  0.500000  0.002470  1
  Co  Co3  1  0.000000  0.000000  0.001865  1
  Si  Si4  1  0.500000  0.000000  0.180141  1
  Si  Si5  1  0.000000  0.500000  0.824563  1
