# generated using pymatgen
data_PaTlI6
_symmetry_space_group_name_H-M   'P 1'
_cell_length_a   8.73894835
_cell_length_b   8.73894868
_cell_length_c   8.73895058
_cell_angle_alpha   58.05145878
_cell_angle_beta   58.05145626
_cell_angle_gamma   58.05145341
_symmetry_Int_Tables_number   1
_chemical_formula_structural   PaTlI6
_chemical_formula_sum   'Pa1 Tl1 I6'
_cell_volume   450.82632418
_cell_formula_units_Z   1
loop_
 _symmetry_equiv_pos_site_id
 _symmetry_equiv_pos_as_xyz
  1  'x, y, z'
loop_
 _atom_site_type_symbol
 _atom_site_label
 _atom_site_symmetry_multiplicity
 _atom_site_fract_x
 _atom_site_fract_y
 _atom_site_fract_z
 _atom_site_occupancy
  Pa  Pa0  1  0.333404  0.333404  0.333404  1
  Tl  Tl1  1  0.666087  0.666087  0.666087  1
  I  I2  1  0.697371  0.411191  0.129520  1
  I  I3  1  0.540431  0.972884  0.249114  1
  I  I4  1  0.129519  0.697371  0.411190  1
  I  I5  1  0.972884  0.249113  0.540431  1
  I  I6  1  0.411191  0.129519  0.697371  1
  I  I7  1  0.249114  0.540431  0.972883  1
