# generated using pymatgen
data_Ta12Al8Pd3PtC4
_symmetry_space_group_name_H-M   'P 1'
_cell_length_a   8.36269110
_cell_length_b   8.33900205
_cell_length_c   8.33900200
_cell_angle_alpha   60.00000812
_cell_angle_beta   60.09366911
_cell_angle_gamma   60.09367241
_symmetry_Int_Tables_number   1
_chemical_formula_structural   Ta12Al8Pd3PtC4
_chemical_formula_sum   'Ta12 Al8 Pd3 Pt1 C4'
_cell_volume   411.78704752
_cell_formula_units_Z   1
loop_
 _symmetry_equiv_pos_site_id
 _symmetry_equiv_pos_as_xyz
  1  'x, y, z'
loop_
 _atom_site_type_symbol
 _atom_site_label
 _atom_site_symmetry_multiplicity
 _atom_site_fract_x
 _atom_site_fract_y
 _atom_site_fract_z
 _atom_site_occupancy
  Ta  Ta0  1  0.567628  0.932957  0.566458  1
  Ta  Ta1  1  0.319695  0.681164  0.681164  1
  Ta  Ta2  1  0.682372  0.317043  0.317043  1
  Ta  Ta3  1  0.319695  0.681164  0.317976  1
  Ta  Ta4  1  0.682372  0.683542  0.317043  1
  Ta  Ta5  1  0.319695  0.317976  0.681164  1
  Ta  Ta6  1  0.567628  0.566458  0.932957  1
  Ta  Ta7  1  0.930305  0.568836  0.568836  1
  Ta  Ta8  1  0.567628  0.932957  0.932957  1
  Ta  Ta9  1  0.930305  0.932024  0.568836  1
  Ta  Ta10  1  0.682372  0.317043  0.683542  1
  Ta  Ta11  1  0.930305  0.568836  0.932024  1
  Al  Al12  1  0.917719  0.915105  0.915105  1
  Al  Al13  1  0.994975  0.335008  0.335008  1
  Al  Al14  1  0.332281  0.997929  0.334895  1
  Al  Al15  1  0.332281  0.334895  0.997929  1
  Al  Al16  1  0.917719  0.252071  0.915105  1
  Al  Al17  1  0.917719  0.915105  0.252071  1
  Al  Al18  1  0.255025  0.914992  0.914992  1
  Al  Al19  1  0.332281  0.334895  0.334895  1
  Pd  Pd20  1  0.125000  0.125000  0.125000  1
  Pd  Pd21  1  0.125000  0.625000  0.125000  1
  Pd  Pd22  1  0.125000  0.125000  0.625000  1
  Pt  Pt23  1  0.625000  0.125000  0.125000  1
  C  C24  1  0.625000  0.625000  0.625000  1
  C  C25  1  0.125000  0.625000  0.625000  1
  C  C26  1  0.625000  0.125000  0.625000  1
  C  C27  1  0.625000  0.625000  0.125000  1
