# generated using pymatgen
data_Tb3Ho5Tl2InCo
_symmetry_space_group_name_H-M   'P 1'
_cell_length_a   10.31912700
_cell_length_b   10.32992906
_cell_length_c   7.11636600
_cell_angle_alpha   89.99709385
_cell_angle_beta   90.00007662
_cell_angle_gamma   119.96530442
_symmetry_Int_Tables_number   1
_chemical_formula_structural   Tb3Ho5Tl2InCo
_chemical_formula_sum   'Tb6 Ho10 Tl4 In2 Co2'
_cell_volume   657.17484884
_cell_formula_units_Z   2
loop_
 _symmetry_equiv_pos_site_id
 _symmetry_equiv_pos_as_xyz
  1  'x, y, z'
loop_
 _atom_site_type_symbol
 _atom_site_label
 _atom_site_symmetry_multiplicity
 _atom_site_fract_x
 _atom_site_fract_y
 _atom_site_fract_z
 _atom_site_occupancy
  Tb  Tb0  1  0.535912  0.071825  0.502873  1
  Tb  Tb1  1  0.926714  0.464514  0.504331  1
  Tb  Tb2  1  0.537810  0.464508  0.504329  1
  Tb  Tb3  1  0.462956  0.925900  0.006824  1
  Tb  Tb4  1  0.074482  0.537164  0.006495  1
  Tb  Tb5  1  0.462687  0.537161  0.006488  1
  Ho  Ho6  1  0.177615  0.355222  0.708449  1
  Ho  Ho7  1  0.644913  0.822780  0.710720  1
  Ho  Ho8  1  0.177871  0.822777  0.710718  1
  Ho  Ho9  1  0.822010  0.644016  0.208505  1
  Ho  Ho10  1  0.355608  0.178143  0.208697  1
  Ho  Ho11  1  0.822533  0.178144  0.208697  1
  Ho  Ho12  1  0.666598  0.333199  0.897756  1
  Ho  Ho13  1  0.333631  0.667254  0.398188  1
  Ho  Ho14  1  0.999196  0.998394  0.490178  1
  Ho  Ho15  1  0.999234  0.998473  0.994202  1
  Tl  Tl16  1  0.836895  0.673787  0.757204  1
  Tl  Tl17  1  0.326370  0.163230  0.757124  1
  Tl  Tl18  1  0.836860  0.163241  0.757133  1
  Tl  Tl19  1  0.163111  0.326230  0.257937  1
  In  In20  1  0.674347  0.837229  0.254850  1
  In  In21  1  0.162868  0.837249  0.254816  1
  Co  Co22  1  0.666665  0.333337  0.275671  1
  Co  Co23  1  0.333116  0.666221  0.775861  1
