# generated using pymatgen
data_Zr10CuSb5
_symmetry_space_group_name_H-M   'P 1'
_cell_length_a   5.54606693
_cell_length_b   8.39921232
_cell_length_c   8.39921288
_cell_angle_alpha   96.25777180
_cell_angle_beta   109.27813220
_cell_angle_gamma   70.72187764
_symmetry_Int_Tables_number   1
_chemical_formula_structural   Zr10CuSb5
_chemical_formula_sum   'Zr10 Cu1 Sb5'
_cell_volume   348.60942492
_cell_formula_units_Z   1
loop_
 _symmetry_equiv_pos_site_id
 _symmetry_equiv_pos_as_xyz
  1  'x, y, z'
loop_
 _atom_site_type_symbol
 _atom_site_label
 _atom_site_symmetry_multiplicity
 _atom_site_fract_x
 _atom_site_fract_y
 _atom_site_fract_z
 _atom_site_occupancy
  Zr  Zr0  1  0.416091  0.860636  0.706238  1
  Zr  Zr1  1  0.570488  0.139364  0.293762  1
  Zr  Zr2  1  0.929512  0.293762  0.139364  1
  Zr  Zr3  1  0.083909  0.706238  0.860636  1
  Zr  Zr4  1  0.709852  0.706238  0.139364  1
  Zr  Zr5  1  0.276727  0.293762  0.860636  1
  Zr  Zr6  1  0.790148  0.139364  0.706238  1
  Zr  Zr7  1  0.223273  0.860636  0.293762  1
  Zr  Zr8  1  0.250000  0.500000  0.500000  1
  Zr  Zr9  1  0.750000  0.500000  0.500000  1
  Cu  Cu10  1  0.250000  0.000000  0.000000  1
  Sb  Sb11  1  0.336701  0.500000  0.173402  1
  Sb  Sb12  1  0.663299  0.500000  0.826598  1
  Sb  Sb13  1  0.836701  0.826598  0.500000  1
  Sb  Sb14  1  0.163299  0.173402  0.500000  1
  Sb  Sb15  1  0.750000  0.000000  0.000000  1
