# generated using pymatgen
data_RbAu(BrO3)4
_symmetry_space_group_name_H-M   'P 1'
_cell_length_a   5.82406700
_cell_length_b   7.66928317
_cell_length_c   8.69880875
_cell_angle_alpha   109.49375070
_cell_angle_beta   90.00000000
_cell_angle_gamma   112.31515920
_symmetry_Int_Tables_number   1
_chemical_formula_structural   RbAu(BrO3)4
_chemical_formula_sum   'Rb1 Au1 Br4 O12'
_cell_volume   335.24643829
_cell_formula_units_Z   1
loop_
 _symmetry_equiv_pos_site_id
 _symmetry_equiv_pos_as_xyz
  1  'x, y, z'
loop_
 _atom_site_type_symbol
 _atom_site_label
 _atom_site_symmetry_multiplicity
 _atom_site_fract_x
 _atom_site_fract_y
 _atom_site_fract_z
 _atom_site_occupancy
  Rb  Rb0  1  0.048143  0.000000  0.000000  1
  Au  Au1  1  0.237246  0.000000  0.500000  1
  Br  Br2  1  0.256759  0.634048  0.162958  1
  Br  Br3  1  0.622710  0.365952  0.837042  1
  Br  Br4  1  0.667672  0.281426  0.355524  1
  Br  Br5  1  0.386246  0.718574  0.644476  1
  O  O6  1  0.106359  0.803910  0.265890  1
  O  O7  1  0.302449  0.196090  0.734110  1
  O  O8  1  0.095258  0.423826  0.196429  1
  O  O9  1  0.671433  0.576173  0.803571  1
  O  O10  1  0.155851  0.600128  0.972686  1
  O  O11  1  0.555722  0.399872  0.027314  1
  O  O12  1  0.631524  0.071559  0.200321  1
  O  O13  1  0.559966  0.928441  0.799679  1
  O  O14  1  0.829745  0.289054  0.515519  1
  O  O15  1  0.540691  0.710946  0.484481  1
  O  O16  1  0.352698  0.229391  0.410926  1
  O  O17  1  0.123307  0.770609  0.589074  1
