# generated using pymatgen
data_La9Dy(SnBi)4
_symmetry_space_group_name_H-M   'P 1'
_cell_length_a   9.20755948
_cell_length_b   9.20756069
_cell_length_c   8.64341800
_cell_angle_alpha   89.85016994
_cell_angle_beta   89.85017615
_cell_angle_gamma   124.85298163
_symmetry_Int_Tables_number   1
_chemical_formula_structural   La9Dy(SnBi)4
_chemical_formula_sum   'La9 Dy1 Sn4 Bi4'
_cell_volume   601.32657525
_cell_formula_units_Z   1
loop_
 _symmetry_equiv_pos_site_id
 _symmetry_equiv_pos_as_xyz
  1  'x, y, z'
loop_
 _atom_site_type_symbol
 _atom_site_label
 _atom_site_symmetry_multiplicity
 _atom_site_fract_x
 _atom_site_fract_y
 _atom_site_fract_z
 _atom_site_occupancy
  La  La0  1  0.033660  0.306441  0.334058  1
  La  La1  1  0.966340  0.693559  0.665942  1
  La  La2  1  0.464846  0.196205  0.833842  1
  La  La3  1  0.803795  0.535154  0.166158  1
  La  La4  1  0.535154  0.803795  0.166158  1
  La  La5  1  0.196205  0.464846  0.833842  1
  La  La6  1  0.693559  0.966340  0.665942  1
  La  La7  1  0.306441  0.033660  0.334058  1
  La  La8  1  0.000000  0.000000  0.000000  1
  Dy  Dy9  1  0.500000  0.500000  0.500000  1
  Sn  Sn10  1  0.370230  0.370230  0.134589  1
  Sn  Sn11  1  0.629770  0.629770  0.865411  1
  Sn  Sn12  1  0.134127  0.134127  0.627262  1
  Sn  Sn13  1  0.865873  0.865873  0.372738  1
  Bi  Bi14  1  0.795273  0.204727  0.000000  1
  Bi  Bi15  1  0.204727  0.795273  0.000000  1
  Bi  Bi16  1  0.699019  0.300981  0.500000  1
  Bi  Bi17  1  0.300981  0.699019  0.500000  1
