# generated using pymatgen
data_LaNdTh(ZnPt)4
_symmetry_space_group_name_H-M   'P 1'
_cell_length_a   8.43518796
_cell_length_b   8.43518744
_cell_length_c   8.43518677
_cell_angle_alpha   152.10177586
_cell_angle_beta   125.77068846
_cell_angle_gamma   62.07452345
_symmetry_Int_Tables_number   1
_chemical_formula_structural   LaNdTh(ZnPt)4
_chemical_formula_sum   'La1 Nd1 Th1 Zn4 Pt4'
_cell_volume   226.00256266
_cell_formula_units_Z   1
loop_
 _symmetry_equiv_pos_site_id
 _symmetry_equiv_pos_as_xyz
  1  'x, y, z'
loop_
 _atom_site_type_symbol
 _atom_site_label
 _atom_site_symmetry_multiplicity
 _atom_site_fract_x
 _atom_site_fract_y
 _atom_site_fract_z
 _atom_site_occupancy
  La  La0  1  0.501016  0.001016  0.500000  1
  Nd  Nd1  1  0.871872  0.871872  0.000000  1
  Th  Th2  1  0.123983  0.123983  0.000000  1
  Zn  Zn3  1  0.480478  0.675031  0.805447  1
  Zn  Zn4  1  0.869584  0.675031  0.194553  1
  Zn  Zn5  1  0.127594  0.326239  0.801355  1
  Zn  Zn6  1  0.524884  0.326239  0.198645  1
  Pt  Pt7  1  0.275990  0.775990  0.500000  1
  Pt  Pt8  1  0.718949  0.218949  0.500000  1
  Pt  Pt9  1  0.807807  0.502825  0.304982  1
  Pt  Pt10  1  0.197843  0.502825  0.695018  1
