# generated using pymatgen
data_Nd2Ru3W
_symmetry_space_group_name_H-M   'P 1'
_cell_length_a   5.25483075
_cell_length_b   5.25482954
_cell_length_c   5.25483217
_cell_angle_alpha   66.33722459
_cell_angle_beta   66.33719928
_cell_angle_gamma   66.33722940
_symmetry_Int_Tables_number   1
_chemical_formula_structural   Nd2Ru3W
_chemical_formula_sum   'Nd2 Ru3 W1'
_cell_volume   116.62979834
_cell_formula_units_Z   1
loop_
 _symmetry_equiv_pos_site_id
 _symmetry_equiv_pos_as_xyz
  1  'x, y, z'
loop_
 _atom_site_type_symbol
 _atom_site_label
 _atom_site_symmetry_multiplicity
 _atom_site_fract_x
 _atom_site_fract_y
 _atom_site_fract_z
 _atom_site_occupancy
  Nd  Nd0  1  0.126634  0.126634  0.126634  1
  Nd  Nd1  1  0.873366  0.873366  0.873366  1
  Ru  Ru2  1  0.500000  0.000000  0.500000  1
  Ru  Ru3  1  0.000000  0.500000  0.500000  1
  Ru  Ru4  1  0.500000  0.500000  0.000000  1
  W  W5  1  0.500000  0.500000  0.500000  1
