# generated using pymatgen
data_Tb17Ho3(Ir3Rh)3
_symmetry_space_group_name_H-M   'P 1'
_cell_length_a   10.92245101
_cell_length_b   10.92179701
_cell_length_c   6.40619600
_cell_angle_alpha   90.00000000
_cell_angle_beta   90.00000000
_cell_angle_gamma   89.99434498
_symmetry_Int_Tables_number   1
_chemical_formula_structural   Tb17Ho3(Ir3Rh)3
_chemical_formula_sum   'Tb17 Ho3 Ir9 Rh3'
_cell_volume   764.21300869
_cell_formula_units_Z   1
loop_
 _symmetry_equiv_pos_site_id
 _symmetry_equiv_pos_as_xyz
  1  'x, y, z'
loop_
 _atom_site_type_symbol
 _atom_site_label
 _atom_site_symmetry_multiplicity
 _atom_site_fract_x
 _atom_site_fract_y
 _atom_site_fract_z
 _atom_site_occupancy
  Tb  Tb0  1  0.290329  0.088462  0.378811  1
  Tb  Tb1  1  0.290107  0.911257  0.878830  1
  Tb  Tb2  1  0.709893  0.088743  0.878830  1
  Tb  Tb3  1  0.709671  0.911538  0.378811  1
  Tb  Tb4  1  0.588736  0.790037  0.878763  1
  Tb  Tb5  1  0.588400  0.209874  0.378882  1
  Tb  Tb6  1  0.411600  0.790126  0.378882  1
  Tb  Tb7  1  0.411264  0.209963  0.878763  1
  Tb  Tb8  1  0.209255  0.411619  0.620255  1
  Tb  Tb9  1  0.209565  0.588659  0.122441  1
  Tb  Tb10  1  0.790435  0.411341  0.122441  1
  Tb  Tb11  1  0.790745  0.588381  0.620255  1
  Tb  Tb12  1  0.911342  0.709496  0.122364  1
  Tb  Tb13  1  0.911553  0.290940  0.620325  1
  Tb  Tb14  1  0.088447  0.709060  0.620325  1
  Tb  Tb15  1  0.088658  0.290504  0.122364  1
  Tb  Tb16  1  0.000000  0.000000  0.500219  1
  Ho  Ho17  1  0.000000  0.000000  0.000055  1
  Ho  Ho18  1  0.500000  0.500000  0.000077  1
  Ho  Ho19  1  0.500000  0.500000  0.500201  1
  Ir  Ir20  1  0.845833  0.153169  0.249323  1
  Ir  Ir21  1  0.845995  0.846546  0.750287  1
  Ir  Ir22  1  0.154005  0.153454  0.750287  1
  Ir  Ir23  1  0.154167  0.846831  0.249323  1
  Ir  Ir24  1  0.653129  0.346323  0.749836  1
  Ir  Ir25  1  0.652843  0.653849  0.249783  1
  Ir  Ir26  1  0.347157  0.346151  0.249783  1
  Ir  Ir27  1  0.346871  0.653677  0.749836  1
  Ir  Ir28  1  0.000000  0.500000  0.377579  1
  Rh  Rh29  1  0.500000  0.000000  0.121715  1
  Rh  Rh30  1  0.500000  0.000000  0.621841  1
  Rh  Rh31  1  0.000000  0.500000  0.878518  1
