# generated using pymatgen
data_Sc2BiI2
_symmetry_space_group_name_H-M   'P 1'
_cell_length_a   11.35187756
_cell_length_b   11.35187758
_cell_length_c   11.35187830
_cell_angle_alpha   21.30856689
_cell_angle_beta   21.30856518
_cell_angle_gamma   21.30856865
_symmetry_Int_Tables_number   1
_chemical_formula_structural   Sc2BiI2
_chemical_formula_sum   'Sc2 Bi1 I2'
_cell_volume   169.22179170
_cell_formula_units_Z   1
loop_
 _symmetry_equiv_pos_site_id
 _symmetry_equiv_pos_as_xyz
  1  'x, y, z'
loop_
 _atom_site_type_symbol
 _atom_site_label
 _atom_site_symmetry_multiplicity
 _atom_site_fract_x
 _atom_site_fract_y
 _atom_site_fract_z
 _atom_site_occupancy
  Sc  Sc0  1  0.615968  0.615968  0.615968  1
  Sc  Sc1  1  0.384032  0.384033  0.384032  1
  Bi  Bi2  1  0.000000  0.000000  0.000000  1
  I  I3  1  0.228133  0.228133  0.228133  1
  I  I4  1  0.771867  0.771867  0.771867  1
