# generated using pymatgen
data_Tm12GaFe3Pb
_symmetry_space_group_name_H-M   'P 1'
_cell_length_a   8.21385531
_cell_length_b   8.21385525
_cell_length_c   8.21385489
_cell_angle_alpha   108.47971817
_cell_angle_beta   109.28778767
_cell_angle_gamma   110.65364340
_symmetry_Int_Tables_number   1
_chemical_formula_structural   Tm12GaFe3Pb
_chemical_formula_sum   'Tm12 Ga1 Fe3 Pb1'
_cell_volume   426.44105601
_cell_formula_units_Z   1
loop_
 _symmetry_equiv_pos_site_id
 _symmetry_equiv_pos_as_xyz
  1  'x, y, z'
loop_
 _atom_site_type_symbol
 _atom_site_label
 _atom_site_symmetry_multiplicity
 _atom_site_fract_x
 _atom_site_fract_y
 _atom_site_fract_z
 _atom_site_occupancy
  Tm  Tm0  1  0.190061  0.416783  0.226723  1
  Tm  Tm1  1  0.809939  0.583217  0.773277  1
  Tm  Tm2  1  0.190061  0.963339  0.773277  1
  Tm  Tm3  1  0.941227  0.190571  0.750655  1
  Tm  Tm4  1  0.809939  0.036661  0.226723  1
  Tm  Tm5  1  0.058773  0.809429  0.249345  1
  Tm  Tm6  1  0.439916  0.190571  0.249345  1
  Tm  Tm7  1  0.560084  0.809429  0.750655  1
  Tm  Tm8  1  0.311394  0.304235  0.615631  1
  Tm  Tm9  1  0.688606  0.695765  0.384369  1
  Tm  Tm10  1  0.688606  0.304235  0.992841  1
  Tm  Tm11  1  0.311394  0.695765  0.007159  1
  Ga  Ga12  1  0.500000  0.000000  0.500000  1
  Fe  Fe13  1  0.385523  0.385523  0.000000  1
  Fe  Fe14  1  0.614477  0.614477  0.000000  1
  Fe  Fe15  1  0.000000  0.000000  0.000000  1
  Pb  Pb16  1  0.000000  0.500000  0.500000  1
