# generated using pymatgen
data_Nd4Y2Zn4Pd12Rh
_symmetry_space_group_name_H-M   'P 1'
_cell_length_a   8.33936962
_cell_length_b   8.33936989
_cell_length_c   8.34069200
_cell_angle_alpha   109.47614718
_cell_angle_beta   109.47614783
_cell_angle_gamma   109.45495020
_symmetry_Int_Tables_number   1
_chemical_formula_structural   Nd4Y2Zn4Pd12Rh
_chemical_formula_sum   'Nd4 Y2 Zn4 Pd12 Rh1'
_cell_volume   446.56124112
_cell_formula_units_Z   1
loop_
 _symmetry_equiv_pos_site_id
 _symmetry_equiv_pos_as_xyz
  1  'x, y, z'
loop_
 _atom_site_type_symbol
 _atom_site_label
 _atom_site_symmetry_multiplicity
 _atom_site_fract_x
 _atom_site_fract_y
 _atom_site_fract_z
 _atom_site_occupancy
  Nd  Nd0  1  0.703895  0.703895  0.998917  1
  Nd  Nd1  1  0.296969  0.999461  0.296429  1
  Nd  Nd2  1  0.999461  0.296969  0.296429  1
  Nd  Nd3  1  0.295022  0.295022  0.998917  1
  Y  Y4  1  0.700620  0.999460  0.700080  1
  Y  Y5  1  0.999460  0.700620  0.700080  1
  Zn  Zn6  1  0.999862  0.999862  0.502997  1
  Zn  Zn7  1  0.999876  0.499876  0.999753  1
  Zn  Zn8  1  0.499876  0.999876  0.999753  1
  Zn  Zn9  1  0.503134  0.503134  0.502997  1
  Pd  Pd10  1  0.332537  0.332537  0.665073  1
  Pd  Pd11  1  0.667373  0.000270  0.334874  1
  Pd  Pd12  1  0.000270  0.667373  0.334874  1
  Pd  Pd13  1  0.668129  0.331372  0.999502  1
  Pd  Pd14  1  0.334605  0.667500  0.334874  1
  Pd  Pd15  1  0.999206  0.333472  0.667652  1
  Pd  Pd16  1  0.331372  0.668129  0.999502  1
  Pd  Pd17  1  0.333472  0.999206  0.667652  1
  Pd  Pd18  1  0.667500  0.334605  0.334874  1
  Pd  Pd19  1  0.669268  0.669268  0.338538  1
  Pd  Pd20  1  0.668445  0.334180  0.667652  1
  Pd  Pd21  1  0.334180  0.668445  0.667652  1
  Rh  Rh22  1  0.995464  0.995464  0.990928  1
