# generated using pymatgen
data_Tm3Al3Zn2Pd
_symmetry_space_group_name_H-M   'P 1'
_cell_length_a   6.95155100
_cell_length_b   6.95155146
_cell_length_c   4.19779300
_cell_angle_alpha   90.00000000
_cell_angle_beta   90.00000000
_cell_angle_gamma   120.00000259
_symmetry_Int_Tables_number   1
_chemical_formula_structural   Tm3Al3Zn2Pd
_chemical_formula_sum   'Tm3 Al3 Zn2 Pd1'
_cell_volume   175.67707606
_cell_formula_units_Z   1
loop_
 _symmetry_equiv_pos_site_id
 _symmetry_equiv_pos_as_xyz
  1  'x, y, z'
loop_
 _atom_site_type_symbol
 _atom_site_label
 _atom_site_symmetry_multiplicity
 _atom_site_fract_x
 _atom_site_fract_y
 _atom_site_fract_z
 _atom_site_occupancy
  Tm  Tm0  1  0.417068  0.000000  0.000000  1
  Tm  Tm1  1  0.000000  0.417068  0.000000  1
  Tm  Tm2  1  0.582933  0.582932  0.000000  1
  Al  Al3  1  0.762971  0.000000  0.500001  1
  Al  Al4  1  0.237030  0.237030  0.500001  1
  Al  Al5  1  0.000000  0.762970  0.500001  1
  Zn  Zn6  1  0.666667  0.333333  0.500001  1
  Zn  Zn7  1  0.333333  0.666667  0.500001  1
  Pd  Pd8  1  0.000000  0.000000  0.000000  1
