# generated using pymatgen
data_Cs6Lu3PBr18
_symmetry_space_group_name_H-M   'P 1'
_cell_length_a   7.96406500
_cell_length_b   7.96406509
_cell_length_c   20.12438000
_cell_angle_alpha   90.00000000
_cell_angle_beta   90.00000000
_cell_angle_gamma   119.99999547
_symmetry_Int_Tables_number   1
_chemical_formula_structural   Cs6Lu3PBr18
_chemical_formula_sum   'Cs6 Lu3 P1 Br18'
_cell_volume   1105.40839275
_cell_formula_units_Z   1
loop_
 _symmetry_equiv_pos_site_id
 _symmetry_equiv_pos_as_xyz
  1  'x, y, z'
loop_
 _atom_site_type_symbol
 _atom_site_label
 _atom_site_symmetry_multiplicity
 _atom_site_fract_x
 _atom_site_fract_y
 _atom_site_fract_z
 _atom_site_occupancy
  Cs  Cs0  1  0.333333  0.666667  0.065294  1
  Cs  Cs1  1  0.666667  0.333333  0.924034  1
  Cs  Cs2  1  0.666667  0.333333  0.577735  1
  Cs  Cs3  1  0.333333  0.666667  0.424048  1
  Cs  Cs4  1  0.000000  0.000000  0.247958  1
  Cs  Cs5  1  0.000000  0.000000  0.760167  1
  Lu  Lu6  1  0.666667  0.333333  0.344897  1
  Lu  Lu7  1  0.666667  0.333333  0.155746  1
  Lu  Lu8  1  0.333333  0.666667  0.836927  1
  P  P9  1  0.333333  0.666667  0.652472  1
  Br  Br10  1  0.185177  0.370355  0.590654  1
  Br  Br11  1  0.831819  0.663638  0.413391  1
  Br  Br12  1  0.629645  0.814823  0.590654  1
  Br  Br13  1  0.832066  0.664132  0.090227  1
  Br  Br14  1  0.336362  0.168181  0.413391  1
  Br  Br15  1  0.170221  0.340440  0.909713  1
  Br  Br16  1  0.185177  0.814823  0.590654  1
  Br  Br17  1  0.335868  0.167934  0.090227  1
  Br  Br18  1  0.831819  0.168181  0.413391  1
  Br  Br19  1  0.659560  0.829779  0.909713  1
  Br  Br20  1  0.832066  0.167934  0.090227  1
  Br  Br21  1  0.170221  0.829779  0.909713  1
  Br  Br22  1  0.511158  0.022315  0.251716  1
  Br  Br23  1  0.491694  0.983389  0.747872  1
  Br  Br24  1  0.977685  0.488842  0.251716  1
  Br  Br25  1  0.016611  0.508306  0.747872  1
  Br  Br26  1  0.511158  0.488842  0.251716  1
  Br  Br27  1  0.491694  0.508306  0.747872  1
