# generated using pymatgen
data_GdNp3(Tl2Br5)4
_symmetry_space_group_name_H-M   'P 1'
_cell_length_a   8.58976870
_cell_length_b   9.13546100
_cell_length_c   13.83921800
_cell_angle_alpha   90.00000000
_cell_angle_beta   90.19686572
_cell_angle_gamma   90.00000000
_symmetry_Int_Tables_number   1
_chemical_formula_structural   GdNp3(Tl2Br5)4
_chemical_formula_sum   'Gd1 Np3 Tl8 Br20'
_cell_volume   1085.97774331
_cell_formula_units_Z   1
loop_
 _symmetry_equiv_pos_site_id
 _symmetry_equiv_pos_as_xyz
  1  'x, y, z'
loop_
 _atom_site_type_symbol
 _atom_site_label
 _atom_site_symmetry_multiplicity
 _atom_site_fract_x
 _atom_site_fract_y
 _atom_site_fract_z
 _atom_site_occupancy
  Gd  Gd0  1  0.928392  0.750000  0.003424  1
  Np  Np1  1  0.569905  0.750000  0.503078  1
  Np  Np2  1  0.429514  0.250000  0.496129  1
  Np  Np3  1  0.070623  0.250000  0.996171  1
  Tl  Tl4  1  0.542862  0.500835  0.827888  1
  Tl  Tl5  1  0.456043  0.500259  0.171934  1
  Tl  Tl6  1  0.043121  0.500569  0.674472  1
  Tl  Tl7  1  0.456043  0.999741  0.171934  1
  Tl  Tl8  1  0.956863  0.499929  0.325639  1
  Tl  Tl9  1  0.542862  0.999165  0.827888  1
  Tl  Tl10  1  0.956863  0.000071  0.325639  1
  Tl  Tl11  1  0.043121  0.999431  0.674472  1
  Br  Br12  1  0.835779  0.750000  0.801488  1
  Br  Br13  1  0.164688  0.250000  0.200568  1
  Br  Br14  1  0.334678  0.250000  0.701510  1
  Br  Br15  1  0.665103  0.750000  0.298977  1
  Br  Br16  1  0.369162  0.750000  0.674155  1
  Br  Br17  1  0.632932  0.250000  0.324921  1
  Br  Br18  1  0.868154  0.250000  0.824090  1
  Br  Br19  1  0.130230  0.750000  0.172310  1
  Br  Br20  1  0.918189  0.750000  0.509347  1
  Br  Br21  1  0.080211  0.250000  0.490824  1
  Br  Br22  1  0.417953  0.250000  0.989953  1
  Br  Br23  1  0.585764  0.750000  0.011429  1
  Br  Br24  1  0.661853  0.041435  0.582402  1
  Br  Br25  1  0.338744  0.958274  0.417955  1
  Br  Br26  1  0.160041  0.955295  0.921367  1
  Br  Br27  1  0.338744  0.541726  0.417955  1
  Br  Br28  1  0.839834  0.040112  0.079158  1
  Br  Br29  1  0.661853  0.458565  0.582402  1
  Br  Br30  1  0.839834  0.459888  0.079158  1
  Br  Br31  1  0.160041  0.544705  0.921367  1
