# generated using pymatgen
data_CaAc2Mg3Tl2In
_symmetry_space_group_name_H-M   'P 1'
_cell_length_a   8.06740200
_cell_length_b   7.90086522
_cell_length_c   4.94520900
_cell_angle_alpha   90.00000000
_cell_angle_beta   90.00000000
_cell_angle_gamma   120.69975724
_symmetry_Int_Tables_number   1
_chemical_formula_structural   CaAc2Mg3Tl2In
_chemical_formula_sum   'Ca1 Ac2 Mg3 Tl2 In1'
_cell_volume   271.03035774
_cell_formula_units_Z   1
loop_
 _symmetry_equiv_pos_site_id
 _symmetry_equiv_pos_as_xyz
  1  'x, y, z'
loop_
 _atom_site_type_symbol
 _atom_site_label
 _atom_site_symmetry_multiplicity
 _atom_site_fract_x
 _atom_site_fract_y
 _atom_site_fract_z
 _atom_site_occupancy
  Ca  Ca0  1  0.573046  0.000000  0.000000  1
  Ac  Ac1  1  0.003604  0.571982  0.000000  1
  Ac  Ac2  1  0.431622  0.428018  0.000000  1
  Mg  Mg3  1  0.763638  0.764042  0.500000  1
  Mg  Mg4  1  0.235318  0.000000  0.500000  1
  Mg  Mg5  1  0.999596  0.235958  0.500000  1
  Tl  Tl6  1  0.663457  0.319417  0.500000  1
  Tl  Tl7  1  0.344039  0.680583  0.500000  1
  In  In8  1  0.985679  0.000000  0.000000  1
