# generated using pymatgen
data_K2Zr9Ti3(BI14)2
_symmetry_space_group_name_H-M   'P 1'
_cell_length_a   11.03216534
_cell_length_b   11.03216590
_cell_length_c   13.00069215
_cell_angle_alpha   89.53979526
_cell_angle_beta   89.53979342
_cell_angle_gamma   92.57118235
_symmetry_Int_Tables_number   1
_chemical_formula_structural   K2Zr9Ti3(BI14)2
_chemical_formula_sum   'K2 Zr9 Ti3 B2 I28'
_cell_volume   1580.59732500
_cell_formula_units_Z   1
loop_
 _symmetry_equiv_pos_site_id
 _symmetry_equiv_pos_as_xyz
  1  'x, y, z'
loop_
 _atom_site_type_symbol
 _atom_site_label
 _atom_site_symmetry_multiplicity
 _atom_site_fract_x
 _atom_site_fract_y
 _atom_site_fract_z
 _atom_site_occupancy
  K  K0  1  0.499722  0.499722  0.998677  1
  K  K1  1  0.000505  0.000505  0.501215  1
  Zr  Zr2  1  0.869030  0.869030  0.098417  1
  Zr  Zr3  1  0.952870  0.166192  0.109396  1
  Zr  Zr4  1  0.046374  0.832908  0.891032  1
  Zr  Zr5  1  0.546037  0.333104  0.608950  1
  Zr  Zr6  1  0.668780  0.455517  0.389589  1
  Zr  Zr7  1  0.455517  0.668780  0.389589  1
  Zr  Zr8  1  0.333104  0.546037  0.608950  1
  Zr  Zr9  1  0.832908  0.046374  0.891032  1
  Zr  Zr10  1  0.166192  0.952870  0.109396  1
  Ti  Ti11  1  0.380272  0.380272  0.409005  1
  Ti  Ti12  1  0.620795  0.620795  0.589878  1
  Ti  Ti13  1  0.120248  0.120248  0.909141  1
  B  B14  1  0.998356  0.998356  0.001101  1
  B  B15  1  0.500736  0.500736  0.499130  1
  I  I16  1  0.106970  0.346191  0.002181  1
  I  I17  1  0.893796  0.642378  0.992441  1
  I  I18  1  0.393412  0.153328  0.503233  1
  I  I19  1  0.847704  0.607687  0.495847  1
  I  I20  1  0.607687  0.847704  0.495847  1
  I  I21  1  0.153328  0.393412  0.503233  1
  I  I22  1  0.642378  0.893796  0.992441  1
  I  I23  1  0.346191  0.106970  0.002181  1
  I  I24  1  0.746104  0.252788  0.000428  1
  I  I25  1  0.252788  0.746104  0.000428  1
  I  I26  1  0.754253  0.249034  0.500016  1
  I  I27  1  0.249034  0.754253  0.500016  1
  I  I28  1  0.895031  0.395728  0.248906  1
  I  I29  1  0.107125  0.606418  0.749416  1
  I  I30  1  0.606418  0.107125  0.749416  1
  I  I31  1  0.395728  0.895031  0.248906  1
  I  I32  1  0.144988  0.144988  0.261604  1
  I  I33  1  0.855227  0.855227  0.738017  1
  I  I34  1  0.352875  0.352875  0.762455  1
  I  I35  1  0.650725  0.650725  0.235109  1
  I  I36  1  0.292952  0.530767  0.255350  1
  I  I37  1  0.708494  0.470354  0.743510  1
  I  I38  1  0.211039  0.972137  0.755992  1
  I  I39  1  0.035192  0.785856  0.251838  1
  I  I40  1  0.785856  0.035192  0.251838  1
  I  I41  1  0.972137  0.211039  0.755992  1
  I  I42  1  0.470354  0.708494  0.743510  1
  I  I43  1  0.530767  0.292952  0.255350  1
