# generated using pymatgen
data_CaSmPt4
_symmetry_space_group_name_H-M   'P 1'
_cell_length_a   5.47448828
_cell_length_b   5.47448806
_cell_length_c   5.47448900
_cell_angle_alpha   60.00000033
_cell_angle_beta   60.00000167
_cell_angle_gamma   60.00000675
_symmetry_Int_Tables_number   1
_chemical_formula_structural   CaSmPt4
_chemical_formula_sum   'Ca1 Sm1 Pt4'
_cell_volume   116.01540514
_cell_formula_units_Z   1
loop_
 _symmetry_equiv_pos_site_id
 _symmetry_equiv_pos_as_xyz
  1  'x, y, z'
loop_
 _atom_site_type_symbol
 _atom_site_label
 _atom_site_symmetry_multiplicity
 _atom_site_fract_x
 _atom_site_fract_y
 _atom_site_fract_z
 _atom_site_occupancy
  Ca  Ca0  1  0.250000  0.250000  0.250000  1
  Sm  Sm1  1  0.000000  0.000000  0.000000  1
  Pt  Pt2  1  0.125692  0.624769  0.624769  1
  Pt  Pt3  1  0.624769  0.624769  0.624769  1
  Pt  Pt4  1  0.624769  0.624769  0.125692  1
  Pt  Pt5  1  0.624769  0.125692  0.624769  1
