# generated using pymatgen
data_SmThNp2N6
_symmetry_space_group_name_H-M   'P 1'
_cell_length_a   5.83819700
_cell_length_b   6.01951200
_cell_length_c   8.40525600
_cell_angle_alpha   90.00000000
_cell_angle_beta   90.00000000
_cell_angle_gamma   90.00000000
_symmetry_Int_Tables_number   1
_chemical_formula_structural   SmThNp2N6
_chemical_formula_sum   'Sm2 Th2 Np4 N12'
_cell_volume   295.38672608
_cell_formula_units_Z   2
loop_
 _symmetry_equiv_pos_site_id
 _symmetry_equiv_pos_as_xyz
  1  'x, y, z'
loop_
 _atom_site_type_symbol
 _atom_site_label
 _atom_site_symmetry_multiplicity
 _atom_site_fract_x
 _atom_site_fract_y
 _atom_site_fract_z
 _atom_site_occupancy
  Sm  Sm0  1  0.512813  0.550576  0.250000  1
  Sm  Sm1  1  0.987187  0.050576  0.250000  1
  Th  Th2  1  0.489613  0.447944  0.750000  1
  Th  Th3  1  0.010387  0.947944  0.750000  1
  Np  Np4  1  0.999594  0.499695  0.004218  1
  Np  Np5  1  0.500406  0.999695  0.495782  1
  Np  Np6  1  0.999594  0.499695  0.495782  1
  Np  Np7  1  0.500406  0.999695  0.004218  1
  N  N8  1  0.387907  0.952796  0.250000  1
  N  N9  1  0.112093  0.452796  0.250000  1
  N  N10  1  0.615345  0.042584  0.750000  1
  N  N11  1  0.884655  0.542584  0.750000  1
  N  N12  1  0.791818  0.811508  0.054951  1
  N  N13  1  0.708182  0.311508  0.445049  1
  N  N14  1  0.212130  0.191847  0.563620  1
  N  N15  1  0.287870  0.691847  0.936380  1
  N  N16  1  0.212130  0.191847  0.936380  1
  N  N17  1  0.287870  0.691847  0.563620  1
  N  N18  1  0.791818  0.811508  0.445049  1
  N  N19  1  0.708182  0.311508  0.054951  1
