# generated using pymatgen
data_Al8Ga3Tc4
_symmetry_space_group_name_H-M   'P 1'
_cell_length_a   5.17666802
_cell_length_b   5.17211714
_cell_length_c   9.04776110
_cell_angle_alpha   105.15836960
_cell_angle_beta   90.49313325
_cell_angle_gamma   99.46350358
_symmetry_Int_Tables_number   1
_chemical_formula_structural   Al8Ga3Tc4
_chemical_formula_sum   'Al8 Ga3 Tc4'
_cell_volume   230.29803988
_cell_formula_units_Z   1
loop_
 _symmetry_equiv_pos_site_id
 _symmetry_equiv_pos_as_xyz
  1  'x, y, z'
loop_
 _atom_site_type_symbol
 _atom_site_label
 _atom_site_symmetry_multiplicity
 _atom_site_fract_x
 _atom_site_fract_y
 _atom_site_fract_z
 _atom_site_occupancy
  Al  Al0  1  0.798719  0.261784  0.635041  1
  Al  Al1  1  0.850383  0.534737  0.128183  1
  Al  Al2  1  0.149617  0.465263  0.871817  1
  Al  Al3  1  0.500855  0.897947  0.126894  1
  Al  Al4  1  0.499145  0.102053  0.873106  1
  Al  Al5  1  0.563272  0.320365  0.375864  1
  Al  Al6  1  0.436728  0.679635  0.624136  1
  Al  Al7  1  0.201281  0.738216  0.364959  1
  Ga  Ga8  1  0.000000  0.000000  0.000000  1
  Ga  Ga9  1  0.944373  0.804426  0.669399  1
  Ga  Ga10  1  0.055627  0.195574  0.330601  1
  Tc  Tc11  1  0.282083  0.155726  0.604101  1
  Tc  Tc12  1  0.717917  0.844274  0.395899  1
  Tc  Tc13  1  0.662456  0.611625  0.869000  1
  Tc  Tc14  1  0.337544  0.388375  0.131000  1
