# generated using pymatgen
data_Pr3Al12Ru2PtRh
_symmetry_space_group_name_H-M   'P 1'
_cell_length_a   8.94492211
_cell_length_b   8.94080592
_cell_length_c   9.68803857
_cell_angle_alpha   90.23624235
_cell_angle_beta   89.77324179
_cell_angle_gamma   119.71218289
_symmetry_Int_Tables_number   1
_chemical_formula_structural   Pr3Al12Ru2PtRh
_chemical_formula_sum   'Pr6 Al24 Ru4 Pt2 Rh2'
_cell_volume   672.92589345
_cell_formula_units_Z   2
loop_
 _symmetry_equiv_pos_site_id
 _symmetry_equiv_pos_as_xyz
  1  'x, y, z'
loop_
 _atom_site_type_symbol
 _atom_site_label
 _atom_site_symmetry_multiplicity
 _atom_site_fract_x
 _atom_site_fract_y
 _atom_site_fract_z
 _atom_site_occupancy
  Pr  Pr0  1  0.189369  0.381370  0.251148  1
  Pr  Pr1  1  0.810631  0.618630  0.748852  1
  Pr  Pr2  1  0.618455  0.810540  0.251788  1
  Pr  Pr3  1  0.381545  0.189460  0.748212  1
  Pr  Pr4  1  0.190271  0.809431  0.249175  1
  Pr  Pr5  1  0.809729  0.190569  0.750825  1
  Al  Al6  1  0.336653  0.668612  0.019836  1
  Al  Al7  1  0.663347  0.331388  0.980164  1
  Al  Al8  1  0.669760  0.330278  0.517444  1
  Al  Al9  1  0.330240  0.669722  0.482556  1
  Al  Al10  1  0.158830  0.325040  0.574646  1
  Al  Al11  1  0.841170  0.674960  0.425354  1
  Al  Al12  1  0.674808  0.841367  0.574627  1
  Al  Al13  1  0.835050  0.675695  0.074774  1
  Al  Al14  1  0.325192  0.158633  0.425373  1
  Al  Al15  1  0.164950  0.324305  0.925226  1
  Al  Al16  1  0.164039  0.836737  0.574303  1
  Al  Al17  1  0.324978  0.162495  0.074612  1
  Al  Al18  1  0.835961  0.163263  0.425697  1
  Al  Al19  1  0.675022  0.837505  0.925388  1
  Al  Al20  1  0.834571  0.159962  0.075846  1
  Al  Al21  1  0.165429  0.840038  0.924154  1
  Al  Al22  1  0.563186  0.127352  0.251081  1
  Al  Al23  1  0.436814  0.872648  0.748919  1
  Al  Al24  1  0.870984  0.435801  0.253898  1
  Al  Al25  1  0.129016  0.564199  0.746102  1
  Al  Al26  1  0.564340  0.435403  0.245969  1
  Al  Al27  1  0.435660  0.564597  0.754031  1
  Al  Al28  1  0.999171  0.001354  0.250271  1
  Al  Al29  1  0.000829  0.998646  0.749729  1
  Ru  Ru30  1  0.500000  0.000000  0.500000  1
  Ru  Ru31  1  0.000000  0.500000  0.500000  1
  Ru  Ru32  1  0.000000  0.000000  0.000000  1
  Ru  Ru33  1  0.000000  0.000000  0.500000  1
  Pt  Pt34  1  0.000000  0.500000  0.000000  1
  Pt  Pt35  1  0.500000  0.500000  0.500000  1
  Rh  Rh36  1  0.500000  0.000000  0.000000  1
  Rh  Rh37  1  0.500000  0.500000  0.000000  1
