# generated using pymatgen
data_Li12Si4Ni3Rh
_symmetry_space_group_name_H-M   'P 1'
_cell_length_a   6.43174421
_cell_length_b   6.43174421
_cell_length_c   6.43174421
_cell_angle_alpha   89.97929529
_cell_angle_beta   89.97929529
_cell_angle_gamma   89.97929529
_symmetry_Int_Tables_number   1
_chemical_formula_structural   Li12Si4Ni3Rh
_chemical_formula_sum   'Li12 Si4 Ni3 Rh1'
_cell_volume   266.06405614
_cell_formula_units_Z   1
loop_
 _symmetry_equiv_pos_site_id
 _symmetry_equiv_pos_as_xyz
  1  'x, y, z'
loop_
 _atom_site_type_symbol
 _atom_site_label
 _atom_site_symmetry_multiplicity
 _atom_site_fract_x
 _atom_site_fract_y
 _atom_site_fract_z
 _atom_site_occupancy
  Li  Li0  1  0.126775  0.199781  0.452796  1
  Li  Li1  1  0.370545  0.799802  0.956111  1
  Li  Li2  1  0.875549  0.701671  0.046497  1
  Li  Li3  1  0.452796  0.126775  0.199781  1
  Li  Li4  1  0.625366  0.298244  0.545101  1
  Li  Li5  1  0.956111  0.370545  0.799802  1
  Li  Li6  1  0.046497  0.875549  0.701671  1
  Li  Li7  1  0.545101  0.625366  0.298244  1
  Li  Li8  1  0.199781  0.452796  0.126775  1
  Li  Li9  1  0.701671  0.046497  0.875549  1
  Li  Li10  1  0.298244  0.545101  0.625366  1
  Li  Li11  1  0.799802  0.956111  0.370545  1
  Si  Si12  1  0.068618  0.068618  0.068618  1
  Si  Si13  1  0.427150  0.936530  0.566870  1
  Si  Si14  1  0.936530  0.566870  0.427150  1
  Si  Si15  1  0.566870  0.427150  0.936530  1
  Ni  Ni16  1  0.823154  0.319335  0.178546  1
  Ni  Ni17  1  0.319335  0.178546  0.823154  1
  Ni  Ni18  1  0.178546  0.823154  0.319335  1
  Rh  Rh19  1  0.681558  0.681558  0.681558  1
