# generated using pymatgen
data_Mg4As2Pd9Rh
_symmetry_space_group_name_H-M   'P 1'
_cell_length_a   4.13543900
_cell_length_b   5.57917669
_cell_length_c   10.75815115
_cell_angle_alpha   89.63279823
_cell_angle_beta   90.00000000
_cell_angle_gamma   90.00000000
_symmetry_Int_Tables_number   1
_chemical_formula_structural   Mg4As2Pd9Rh
_chemical_formula_sum   'Mg4 As2 Pd9 Rh1'
_cell_volume   248.21067590
_cell_formula_units_Z   1
loop_
 _symmetry_equiv_pos_site_id
 _symmetry_equiv_pos_as_xyz
  1  'x, y, z'
loop_
 _atom_site_type_symbol
 _atom_site_label
 _atom_site_symmetry_multiplicity
 _atom_site_fract_x
 _atom_site_fract_y
 _atom_site_fract_z
 _atom_site_occupancy
  Mg  Mg0  1  0.500000  0.155325  0.147727  1
  Mg  Mg1  1  0.500000  0.844059  0.855317  1
  Mg  Mg2  1  0.500000  0.344253  0.642653  1
  Mg  Mg3  1  0.500000  0.652876  0.356440  1
  As  As4  1  0.000000  0.012615  0.495281  1
  As  As5  1  0.000000  0.498263  0.000955  1
  Pd  Pd6  1  0.500000  0.820751  0.604471  1
  Pd  Pd7  1  0.500000  0.319738  0.895322  1
  Pd  Pd8  1  0.500000  0.679623  0.104050  1
  Pd  Pd9  1  0.000000  0.412022  0.238122  1
  Pd  Pd10  1  0.000000  0.585762  0.763217  1
  Pd  Pd11  1  0.000000  0.085943  0.735518  1
  Pd  Pd12  1  0.000000  0.910192  0.261371  1
  Pd  Pd13  1  0.000000  0.001112  0.999697  1
  Pd  Pd14  1  0.000000  0.504351  0.500346  1
  Rh  Rh15  1  0.500000  0.173116  0.399514  1
