# generated using pymatgen
data_DyY7(HoIr2)2
_symmetry_space_group_name_H-M   'P 1'
_cell_length_a   6.51160786
_cell_length_b   7.23736371
_cell_length_c   8.55561501
_cell_angle_alpha   96.51530804
_cell_angle_beta   112.39641483
_cell_angle_gamma   90.14813327
_symmetry_Int_Tables_number   1
_chemical_formula_structural   DyY7(HoIr2)2
_chemical_formula_sum   'Dy1 Y7 Ho2 Ir4'
_cell_volume   369.91738912
_cell_formula_units_Z   1
loop_
 _symmetry_equiv_pos_site_id
 _symmetry_equiv_pos_as_xyz
  1  'x, y, z'
loop_
 _atom_site_type_symbol
 _atom_site_label
 _atom_site_symmetry_multiplicity
 _atom_site_fract_x
 _atom_site_fract_y
 _atom_site_fract_z
 _atom_site_occupancy
  Dy  Dy0  1  0.971522  0.916755  0.181903  1
  Y  Y1  1  0.789405  0.582410  0.818105  1
  Y  Y2  1  0.028717  0.082238  0.818093  1
  Y  Y3  1  0.210665  0.417827  0.181926  1
  Y  Y4  1  0.653644  0.817554  0.441232  1
  Y  Y5  1  0.212193  0.682567  0.558799  1
  Y  Y6  1  0.346399  0.182367  0.558812  1
  Y  Y7  1  0.787725  0.317425  0.441027  1
  Ho  Ho8  1  0.428644  0.750049  0.999954  1
  Ho  Ho9  1  0.571474  0.249985  0.000059  1
  Ir  Ir10  1  0.823027  0.573532  0.217056  1
  Ir  Ir11  1  0.605485  0.927591  0.783066  1
  Ir  Ir12  1  0.177582  0.427608  0.782854  1
  Ir  Ir13  1  0.393517  0.072093  0.217116  1
