# generated using pymatgen
data_NdDyReB6
_symmetry_space_group_name_H-M   'P 1'
_cell_length_a   3.73468800
_cell_length_b   9.25771500
_cell_length_c   11.71432600
_cell_angle_alpha   90.00000000
_cell_angle_beta   90.00000000
_cell_angle_gamma   90.00000000
_symmetry_Int_Tables_number   1
_chemical_formula_structural   NdDyReB6
_chemical_formula_sum   'Nd4 Dy4 Re4 B24'
_cell_volume   405.01903910
_cell_formula_units_Z   4
loop_
 _symmetry_equiv_pos_site_id
 _symmetry_equiv_pos_as_xyz
  1  'x, y, z'
loop_
 _atom_site_type_symbol
 _atom_site_label
 _atom_site_symmetry_multiplicity
 _atom_site_fract_x
 _atom_site_fract_y
 _atom_site_fract_z
 _atom_site_occupancy
  Nd  Nd0  1  0.000000  0.322974  0.413977  1
  Nd  Nd1  1  0.000000  0.677026  0.586023  1
  Nd  Nd2  1  0.000000  0.822974  0.086023  1
  Nd  Nd3  1  0.000000  0.177026  0.913977  1
  Dy  Dy4  1  0.000000  0.943159  0.369356  1
  Dy  Dy5  1  0.000000  0.056841  0.630644  1
  Dy  Dy6  1  0.000000  0.443159  0.130644  1
  Dy  Dy7  1  0.000000  0.556841  0.869356  1
  Re  Re8  1  0.000000  0.639551  0.319602  1
  Re  Re9  1  0.000000  0.360449  0.680398  1
  Re  Re10  1  0.000000  0.139551  0.180398  1
  Re  Re11  1  0.000000  0.860449  0.819602  1
  B  B12  1  0.500000  0.554997  0.430709  1
  B  B13  1  0.500000  0.445003  0.569291  1
  B  B14  1  0.500000  0.054997  0.069291  1
  B  B15  1  0.500000  0.945003  0.930709  1
  B  B16  1  0.500000  0.749545  0.416254  1
  B  B17  1  0.500000  0.250455  0.583746  1
  B  B18  1  0.500000  0.249545  0.083746  1
  B  B19  1  0.500000  0.750455  0.916254  1
  B  B20  1  0.500000  0.791385  0.266455  1
  B  B21  1  0.500000  0.208615  0.733545  1
  B  B22  1  0.500000  0.291385  0.233545  1
  B  B23  1  0.500000  0.708615  0.766455  1
  B  B24  1  0.500000  0.630175  0.186882  1
  B  B25  1  0.500000  0.369825  0.813118  1
  B  B26  1  0.500000  0.130175  0.313118  1
  B  B27  1  0.500000  0.869825  0.686882  1
  B  B28  1  0.500000  0.984438  0.212921  1
  B  B29  1  0.500000  0.015562  0.787079  1
  B  B30  1  0.500000  0.484438  0.287079  1
  B  B31  1  0.500000  0.515562  0.712921  1
  B  B32  1  0.500000  0.596825  0.026892  1
  B  B33  1  0.500000  0.403175  0.973108  1
  B  B34  1  0.500000  0.096825  0.473108  1
  B  B35  1  0.500000  0.903175  0.526892  1
