# generated using pymatgen
data_Yb6ErLuBi6
_symmetry_space_group_name_H-M   'P 1'
_cell_length_a   8.13315971
_cell_length_b   8.33641468
_cell_length_c   8.33641404
_cell_angle_alpha   109.95984381
_cell_angle_beta   108.97806478
_cell_angle_gamma   108.97806373
_symmetry_Int_Tables_number   1
_chemical_formula_structural   Yb6ErLuBi6
_chemical_formula_sum   'Yb6 Er1 Lu1 Bi6'
_cell_volume   437.72673747
_cell_formula_units_Z   1
loop_
 _symmetry_equiv_pos_site_id
 _symmetry_equiv_pos_as_xyz
  1  'x, y, z'
loop_
 _atom_site_type_symbol
 _atom_site_label
 _atom_site_symmetry_multiplicity
 _atom_site_fract_x
 _atom_site_fract_y
 _atom_site_fract_z
 _atom_site_occupancy
  Yb  Yb0  1  0.500766  0.999279  0.646627  1
  Yb  Yb1  1  0.354292  0.352602  0.353648  1
  Yb  Yb2  1  0.501690  0.001047  0.147398  1
  Yb  Yb3  1  0.001487  0.647348  0.500721  1
  Yb  Yb4  1  0.854139  0.853373  0.852652  1
  Yb  Yb5  1  0.000643  0.146352  0.498953  1
  Er  Er6  1  0.143021  0.500000  0.000000  1
  Lu  Lu7  1  0.642771  0.500000  0.000000  1
  Bi  Bi8  1  0.377561  0.621907  0.758180  1
  Bi  Bi9  1  0.876171  0.257668  0.122247  1
  Bi  Bi10  1  0.619380  0.741820  0.363726  1
  Bi  Bi11  1  0.118502  0.864579  0.242332  1
  Bi  Bi12  1  0.255654  0.136274  0.878093  1
  Bi  Bi13  1  0.753924  0.377753  0.635421  1
