# generated using pymatgen
data_AgIr3RhPb3O14
_symmetry_space_group_name_H-M   'P 1'
_cell_length_a   7.34182702
_cell_length_b   7.26952733
_cell_length_c   7.34182800
_cell_angle_alpha   59.67045844
_cell_angle_beta   60.00000458
_cell_angle_gamma   59.67045689
_symmetry_Int_Tables_number   1
_chemical_formula_structural   AgIr3RhPb3O14
_chemical_formula_sum   'Ag1 Ir3 Rh1 Pb3 O14'
_cell_volume   275.68824936
_cell_formula_units_Z   1
loop_
 _symmetry_equiv_pos_site_id
 _symmetry_equiv_pos_as_xyz
  1  'x, y, z'
loop_
 _atom_site_type_symbol
 _atom_site_label
 _atom_site_symmetry_multiplicity
 _atom_site_fract_x
 _atom_site_fract_y
 _atom_site_fract_z
 _atom_site_occupancy
  Ag  Ag0  1  0.125000  0.625000  0.125000  1
  Ir  Ir1  1  0.125000  0.625000  0.625000  1
  Ir  Ir2  1  0.625000  0.625000  0.125000  1
  Ir  Ir3  1  0.625000  0.625000  0.625000  1
  Rh  Rh4  1  0.625000  0.125000  0.625000  1
  Pb  Pb5  1  0.625000  0.125000  0.125000  1
  Pb  Pb6  1  0.125000  0.125000  0.625000  1
  Pb  Pb7  1  0.125000  0.125000  0.125000  1
  O  O8  1  0.689748  0.706283  0.301984  1
  O  O9  1  0.292449  0.293649  0.706951  1
  O  O10  1  0.706951  0.293649  0.706951  1
  O  O11  1  0.301984  0.706283  0.301984  1
  O  O12  1  0.301984  0.706283  0.689748  1
  O  O13  1  0.706951  0.293649  0.292449  1
  O  O14  1  0.560252  0.543717  0.948016  1
  O  O15  1  0.957551  0.956351  0.543049  1
  O  O16  1  0.543049  0.956351  0.543049  1
  O  O17  1  0.948016  0.543717  0.948016  1
  O  O18  1  0.948016  0.543717  0.560252  1
  O  O19  1  0.543049  0.956351  0.957551  1
  O  O20  1  0.242101  0.273696  0.242101  1
  O  O21  1  0.007899  0.976304  0.007899  1
