# generated using pymatgen
data_Ba4TmReWO12
_symmetry_space_group_name_H-M   'P 1'
_cell_length_a   10.12777092
_cell_length_b   10.12777127
_cell_length_c   10.12777207
_cell_angle_alpha   33.90151375
_cell_angle_beta   33.90151270
_cell_angle_gamma   33.90150812
_symmetry_Int_Tables_number   1
_chemical_formula_structural   Ba4TmReWO12
_chemical_formula_sum   'Ba4 Tm1 Re1 W1 O12'
_cell_volume   288.02966616
_cell_formula_units_Z   1
loop_
 _symmetry_equiv_pos_site_id
 _symmetry_equiv_pos_as_xyz
  1  'x, y, z'
loop_
 _atom_site_type_symbol
 _atom_site_label
 _atom_site_symmetry_multiplicity
 _atom_site_fract_x
 _atom_site_fract_y
 _atom_site_fract_z
 _atom_site_occupancy
  Ba  Ba0  1  0.708846  0.708846  0.708846  1
  Ba  Ba1  1  0.287520  0.287520  0.287520  1
  Ba  Ba2  1  0.868862  0.868862  0.868862  1
  Ba  Ba3  1  0.137088  0.137088  0.137088  1
  Tm  Tm4  1  0.999584  0.999584  0.999584  1
  Re  Re5  1  0.420662  0.420662  0.420662  1
  W  W6  1  0.578630  0.578630  0.578630  1
  O  O7  1  0.385454  0.385454  0.864074  1
  O  O8  1  0.864074  0.385454  0.385454  1
  O  O9  1  0.385454  0.864074  0.385454  1
  O  O10  1  0.608314  0.608314  0.143965  1
  O  O11  1  0.143965  0.608314  0.608314  1
  O  O12  1  0.608314  0.143965  0.608314  1
  O  O13  1  0.224503  0.224503  0.684926  1
  O  O14  1  0.684926  0.224503  0.224503  1
  O  O15  1  0.224503  0.684926  0.224503  1
  O  O16  1  0.779667  0.779667  0.309966  1
  O  O17  1  0.309966  0.779667  0.779667  1
  O  O18  1  0.779667  0.309966  0.779667  1
