# generated using pymatgen
data_Dy3Ho7Os4
_symmetry_space_group_name_H-M   'P 1'
_cell_length_a   6.35005255
_cell_length_b   7.35143963
_cell_length_c   8.41518607
_cell_angle_alpha   96.95736037
_cell_angle_beta   112.18681996
_cell_angle_gamma   89.98228783
_symmetry_Int_Tables_number   1
_chemical_formula_structural   Dy3Ho7Os4
_chemical_formula_sum   'Dy3 Ho7 Os4'
_cell_volume   360.63140109
_cell_formula_units_Z   1
loop_
 _symmetry_equiv_pos_site_id
 _symmetry_equiv_pos_as_xyz
  1  'x, y, z'
loop_
 _atom_site_type_symbol
 _atom_site_label
 _atom_site_symmetry_multiplicity
 _atom_site_fract_x
 _atom_site_fract_y
 _atom_site_fract_z
 _atom_site_occupancy
  Dy  Dy0  1  0.976624  0.915989  0.183607  1
  Dy  Dy1  1  0.793032  0.583907  0.816352  1
  Dy  Dy2  1  0.023455  0.084019  0.816450  1
  Ho  Ho3  1  0.206930  0.416048  0.183656  1
  Ho  Ho4  1  0.639458  0.816350  0.435490  1
  Ho  Ho5  1  0.203932  0.683613  0.564576  1
  Ho  Ho6  1  0.360516  0.183669  0.564469  1
  Ho  Ho7  1  0.795972  0.316339  0.435319  1
  Ho  Ho8  1  0.421944  0.749854  0.999954  1
  Ho  Ho9  1  0.578035  0.250135  0.000104  1
  Os  Os10  1  0.822490  0.577047  0.219849  1
  Os  Os11  1  0.602453  0.923016  0.780078  1
  Os  Os12  1  0.177695  0.422911  0.780197  1
  Os  Os13  1  0.397463  0.077103  0.219901  1
