# generated using pymatgen
data_Dy7Ho13(Cd3Ru)2
_symmetry_space_group_name_H-M   'P 1'
_cell_length_a   9.56355701
_cell_length_b   9.56355614
_cell_length_c   9.82600300
_cell_angle_alpha   89.99816317
_cell_angle_beta   90.00183795
_cell_angle_gamma   120.00341570
_symmetry_Int_Tables_number   1
_chemical_formula_structural   Dy7Ho13(Cd3Ru)2
_chemical_formula_sum   'Dy7 Ho13 Cd6 Ru2'
_cell_volume   778.27205651
_cell_formula_units_Z   1
loop_
 _symmetry_equiv_pos_site_id
 _symmetry_equiv_pos_as_xyz
  1  'x, y, z'
loop_
 _atom_site_type_symbol
 _atom_site_label
 _atom_site_symmetry_multiplicity
 _atom_site_fract_x
 _atom_site_fract_y
 _atom_site_fract_z
 _atom_site_occupancy
  Dy  Dy0  1  0.209790  0.790210  0.440351  1
  Dy  Dy1  1  0.541150  0.458850  0.250005  1
  Dy  Dy2  1  0.541201  0.082357  0.249969  1
  Dy  Dy3  1  0.917643  0.458799  0.249969  1
  Dy  Dy4  1  0.458838  0.541162  0.750006  1
  Dy  Dy5  1  0.458875  0.917702  0.750038  1
  Dy  Dy6  1  0.082298  0.541125  0.750038  1
  Ho  Ho7  1  0.999975  0.000025  0.500000  1
  Ho  Ho8  1  0.000000  0.000000  0.000011  1
  Ho  Ho9  1  0.209805  0.419546  0.440346  1
  Ho  Ho10  1  0.580454  0.790195  0.440346  1
  Ho  Ho11  1  0.790200  0.209800  0.559642  1
  Ho  Ho12  1  0.790159  0.580378  0.559649  1
  Ho  Ho13  1  0.419622  0.209841  0.559649  1
  Ho  Ho14  1  0.790192  0.209808  0.940350  1
  Ho  Ho15  1  0.790194  0.580389  0.940362  1
  Ho  Ho16  1  0.419611  0.209806  0.940362  1
  Ho  Ho17  1  0.209804  0.790196  0.059618  1
  Ho  Ho18  1  0.209838  0.419636  0.059672  1
  Ho  Ho19  1  0.580364  0.790162  0.059672  1
  Cd  Cd20  1  0.885458  0.114542  0.250003  1
  Cd  Cd21  1  0.885437  0.770915  0.249986  1
  Cd  Cd22  1  0.229085  0.114563  0.249986  1
  Cd  Cd23  1  0.114530  0.885470  0.750023  1
  Cd  Cd24  1  0.114543  0.229089  0.750005  1
  Cd  Cd25  1  0.770911  0.885457  0.750005  1
  Ru  Ru26  1  0.333355  0.666645  0.249943  1
  Ru  Ru27  1  0.666665  0.333335  0.749992  1
