# generated using pymatgen
data_NaYMnPt3
_symmetry_space_group_name_H-M   'P 1'
_cell_length_a   5.22722441
_cell_length_b   5.22722361
_cell_length_c   5.22722401
_cell_angle_alpha   63.96308659
_cell_angle_beta   63.96309138
_cell_angle_gamma   63.96308885
_symmetry_Int_Tables_number   1
_chemical_formula_structural   NaYMnPt3
_chemical_formula_sum   'Na1 Y1 Mn1 Pt3'
_cell_volume   109.81232628
_cell_formula_units_Z   1
loop_
 _symmetry_equiv_pos_site_id
 _symmetry_equiv_pos_as_xyz
  1  'x, y, z'
loop_
 _atom_site_type_symbol
 _atom_site_label
 _atom_site_symmetry_multiplicity
 _atom_site_fract_x
 _atom_site_fract_y
 _atom_site_fract_z
 _atom_site_occupancy
  Na  Na0  1  0.252242  0.252242  0.252242  1
  Y  Y1  1  0.003092  0.003092  0.003092  1
  Mn  Mn2  1  0.623457  0.623457  0.623457  1
  Pt  Pt3  1  0.623173  0.623173  0.124863  1
  Pt  Pt4  1  0.623173  0.124863  0.623173  1
  Pt  Pt5  1  0.124863  0.623173  0.623173  1
