# generated using pymatgen
data_LiDy16Zn(InRh2)2
_symmetry_space_group_name_H-M   'P 1'
_cell_length_a   9.63085973
_cell_length_b   9.62974199
_cell_length_c   9.59292377
_cell_angle_alpha   59.87295987
_cell_angle_beta   59.95501600
_cell_angle_gamma   60.00383215
_symmetry_Int_Tables_number   1
_chemical_formula_structural   LiDy16Zn(InRh2)2
_chemical_formula_sum   'Li1 Dy16 Zn1 In2 Rh4'
_cell_volume   628.29262692
_cell_formula_units_Z   1
loop_
 _symmetry_equiv_pos_site_id
 _symmetry_equiv_pos_as_xyz
  1  'x, y, z'
loop_
 _atom_site_type_symbol
 _atom_site_label
 _atom_site_symmetry_multiplicity
 _atom_site_fract_x
 _atom_site_fract_y
 _atom_site_fract_z
 _atom_site_occupancy
  Li  Li0  1  0.212427  0.927345  0.932883  1
  Dy  Dy1  1  0.692344  0.308346  0.309742  1
  Dy  Dy2  1  0.692344  0.689567  0.309742  1
  Dy  Dy3  1  0.313485  0.687212  0.312090  1
  Dy  Dy4  1  0.937116  0.935243  0.556654  1
  Dy  Dy5  1  0.146897  0.152468  0.548165  1
  Dy  Dy6  1  0.565960  0.937798  0.558443  1
  Dy  Dy7  1  0.149084  0.152819  0.151178  1
  Dy  Dy8  1  0.312934  0.311564  0.688352  1
  Dy  Dy9  1  0.937116  0.570986  0.556654  1
  Dy  Dy10  1  0.564102  0.563033  0.935871  1
  Dy  Dy11  1  0.564102  0.936993  0.935871  1
  Dy  Dy12  1  0.936773  0.564733  0.933761  1
  Dy  Dy13  1  0.149084  0.546917  0.151178  1
  Dy  Dy14  1  0.312934  0.687151  0.688352  1
  Dy  Dy15  1  0.693076  0.307732  0.691460  1
  Dy  Dy16  1  0.555240  0.148290  0.148179  1
  Zn  Zn17  1  0.917776  0.915419  0.251388  1
  In  In18  1  0.920674  0.242646  0.921208  1
  In  In19  1  0.920674  0.915472  0.921208  1
  Rh  Rh20  1  0.359623  0.356762  0.356593  1
  Rh  Rh21  1  0.927818  0.357832  0.356519  1
  Rh  Rh22  1  0.358793  0.356645  0.927917  1
  Rh  Rh23  1  0.359623  0.927024  0.356593  1
