# generated using pymatgen
data_Li3Tb8Hf9Si15Ge
_symmetry_space_group_name_H-M   'P 1'
_cell_length_a   7.32522358
_cell_length_b   7.31927499
_cell_length_c   13.14249142
_cell_angle_alpha   90.22128274
_cell_angle_beta   90.29792589
_cell_angle_gamma   89.82384995
_symmetry_Int_Tables_number   1
_chemical_formula_structural   Li3Tb8Hf9Si15Ge
_chemical_formula_sum   'Li3 Tb8 Hf9 Si15 Ge1'
_cell_volume   704.62089099
_cell_formula_units_Z   1
loop_
 _symmetry_equiv_pos_site_id
 _symmetry_equiv_pos_as_xyz
  1  'x, y, z'
loop_
 _atom_site_type_symbol
 _atom_site_label
 _atom_site_symmetry_multiplicity
 _atom_site_fract_x
 _atom_site_fract_y
 _atom_site_fract_z
 _atom_site_occupancy
  Li  Li0  1  0.179603  0.180875  0.000124  1
  Li  Li1  1  0.818546  0.821220  0.500015  1
  Li  Li2  1  0.319723  0.682781  0.249533  1
  Tb  Tb3  1  0.999712  0.348580  0.213606  1
  Tb  Tb4  1  0.002494  0.653146  0.712000  1
  Tb  Tb5  1  0.149136  0.503352  0.464288  1
  Tb  Tb6  1  0.499080  0.847944  0.036658  1
  Tb  Tb7  1  0.850391  0.497908  0.966415  1
  Tb  Tb8  1  0.502862  0.149240  0.534361  1
  Tb  Tb9  1  0.346859  0.997313  0.788105  1
  Tb  Tb10  1  0.651293  0.998257  0.285560  1
  Hf  Hf11  1  0.678737  0.321202  0.750096  1
  Hf  Hf12  1  0.137220  0.994079  0.376131  1
  Hf  Hf13  1  0.859280  0.000692  0.880721  1
  Hf  Hf14  1  0.508304  0.642881  0.622823  1
  Hf  Hf15  1  0.357068  0.491166  0.877159  1
  Hf  Hf16  1  0.493055  0.359390  0.126346  1
  Hf  Hf17  1  0.642899  0.509733  0.373165  1
  Hf  Hf18  1  0.998858  0.140907  0.619567  1
  Hf  Hf19  1  0.004043  0.861102  0.123322  1
  Si  Si20  1  0.639932  0.704730  0.820796  1
  Si  Si21  1  0.221468  0.864607  0.571598  1
  Si  Si22  1  0.136335  0.778423  0.928543  1
  Si  Si23  1  0.778201  0.135096  0.075200  1
  Si  Si24  1  0.864394  0.221018  0.424723  1
  Si  Si25  1  0.294782  0.360116  0.679109  1
  Si  Si26  1  0.718238  0.635695  0.177693  1
  Si  Si27  1  0.289022  0.061874  0.185210  1
  Si  Si28  1  0.708000  0.947776  0.690168  1
  Si  Si29  1  0.434548  0.789450  0.434221  1
  Si  Si30  1  0.211168  0.565047  0.065649  1
  Si  Si31  1  0.562418  0.208586  0.936948  1
  Si  Si32  1  0.790730  0.437554  0.563083  1
  Si  Si33  1  0.051870  0.292030  0.810173  1
  Si  Si34  1  0.936323  0.710122  0.312620  1
  Ge  Ge35  1  0.363410  0.286106  0.324271  1
