# generated using pymatgen
data_Er4Sc4Ti11Si16Ir
_symmetry_space_group_name_H-M   'P 1'
_cell_length_a   6.92581806
_cell_length_b   6.93401985
_cell_length_c   12.68613862
_cell_angle_alpha   90.05423699
_cell_angle_beta   89.88912287
_cell_angle_gamma   89.73433202
_symmetry_Int_Tables_number   1
_chemical_formula_structural   Er4Sc4Ti11Si16Ir
_chemical_formula_sum   'Er4 Sc4 Ti11 Si16 Ir1'
_cell_volume   609.22810681
_cell_formula_units_Z   1
loop_
 _symmetry_equiv_pos_site_id
 _symmetry_equiv_pos_as_xyz
  1  'x, y, z'
loop_
 _atom_site_type_symbol
 _atom_site_label
 _atom_site_symmetry_multiplicity
 _atom_site_fract_x
 _atom_site_fract_y
 _atom_site_fract_z
 _atom_site_occupancy
  Er  Er0  1  0.159712  0.501833  0.783898  1
  Er  Er1  1  0.657581  0.997771  0.969935  1
  Er  Er2  1  0.005936  0.340104  0.531235  1
  Er  Er3  1  0.996987  0.656518  0.032359  1
  Sc  Sc4  1  0.344089  0.001554  0.465908  1
  Sc  Sc5  1  0.499437  0.843985  0.716603  1
  Sc  Sc6  1  0.500017  0.156306  0.217066  1
  Sc  Sc7  1  0.843081  0.498736  0.282930  1
  Ti  Ti8  1  0.175524  0.828208  0.248594  1
  Ti  Ti9  1  0.826644  0.173528  0.751120  1
  Ti  Ti10  1  0.672758  0.675128  0.498741  1
  Ti  Ti11  1  0.149421  0.998468  0.872961  1
  Ti  Ti12  1  0.492671  0.655278  0.126295  1
  Ti  Ti13  1  0.504419  0.351140  0.625593  1
  Ti  Ti14  1  0.654477  0.492279  0.876005  1
  Ti  Ti15  1  0.353906  0.508290  0.371661  1
  Ti  Ti16  1  0.850451  0.997284  0.374059  1
  Ti  Ti17  1  0.998014  0.149279  0.129108  1
  Ti  Ti18  1  0.993525  0.850869  0.623294  1
  Si  Si19  1  0.208537  0.129667  0.681813  1
  Si  Si20  1  0.372055  0.706926  0.931125  1
  Si  Si21  1  0.632505  0.293640  0.428894  1
  Si  Si22  1  0.699659  0.367913  0.072978  1
  Si  Si23  1  0.298619  0.641021  0.567032  1
  Si  Si24  1  0.792952  0.864260  0.184910  1
  Si  Si25  1  0.140174  0.203106  0.318055  1
  Si  Si26  1  0.860990  0.796161  0.814986  1
  Si  Si27  1  0.288027  0.958182  0.065438  1
  Si  Si28  1  0.546339  0.798884  0.316370  1
  Si  Si29  1  0.451706  0.203353  0.816034  1
  Si  Si30  1  0.790471  0.548921  0.683697  1
  Si  Si31  1  0.207271  0.446995  0.184331  1
  Si  Si32  1  0.700304  0.046605  0.564883  1
  Si  Si33  1  0.953559  0.285420  0.936985  1
  Si  Si34  1  0.049129  0.707989  0.432752  1
  Ir  Ir35  1  0.329054  0.324400  0.002351  1
