# generated using pymatgen
data_Ac3Br6N
_symmetry_space_group_name_H-M   'P 1'
_cell_length_a   8.13135550
_cell_length_b   9.17219317
_cell_length_c   10.96941155
_cell_angle_alpha   74.91024719
_cell_angle_beta   71.14401435
_cell_angle_gamma   64.30993791
_symmetry_Int_Tables_number   1
_chemical_formula_structural   Ac3Br6N
_chemical_formula_sum   'Ac6 Br12 N2'
_cell_volume   690.72088580
_cell_formula_units_Z   2
loop_
 _symmetry_equiv_pos_site_id
 _symmetry_equiv_pos_as_xyz
  1  'x, y, z'
loop_
 _atom_site_type_symbol
 _atom_site_label
 _atom_site_symmetry_multiplicity
 _atom_site_fract_x
 _atom_site_fract_y
 _atom_site_fract_z
 _atom_site_occupancy
  Ac  Ac0  1  0.589227  0.093701  0.685455  1
  Ac  Ac1  1  0.711646  0.437420  0.771043  1
  Ac  Ac2  1  0.263847  0.581903  0.620667  1
  Ac  Ac3  1  0.288354  0.562580  0.228957  1
  Ac  Ac4  1  0.410773  0.906299  0.314545  1
  Ac  Ac5  1  0.736153  0.418097  0.379333  1
  Br  Br6  1  0.297859  0.582543  0.909603  1
  Br  Br7  1  0.280875  0.896397  0.088222  1
  Br  Br8  1  0.000000  0.000000  0.500000  1
  Br  Br9  1  0.826019  0.721030  0.794257  1
  Br  Br10  1  0.165265  0.263190  0.787751  1
  Br  Br11  1  0.719125  0.103603  0.911778  1
  Br  Br12  1  0.522261  0.187037  0.396878  1
  Br  Br13  1  0.173981  0.278970  0.205743  1
  Br  Br14  1  0.477739  0.812963  0.603122  1
  Br  Br15  1  0.702141  0.417457  0.090397  1
  Br  Br16  1  0.834735  0.736810  0.212249  1
  Br  Br17  1  0.000000  0.500000  0.500000  1
  N  N18  1  0.411342  0.629585  0.378393  1
  N  N19  1  0.588658  0.370415  0.621607  1
