# generated using pymatgen
data_Er4U(In2Ru)2
_symmetry_space_group_name_H-M   'P 1'
_cell_length_a   3.55769600
_cell_length_b   7.97217744
_cell_length_c   18.31749379
_cell_angle_alpha   91.78108655
_cell_angle_beta   90.00000000
_cell_angle_gamma   90.00000000
_symmetry_Int_Tables_number   1
_chemical_formula_structural   Er4U(In2Ru)2
_chemical_formula_sum   'Er8 U2 In8 Ru4'
_cell_volume   519.28045397
_cell_formula_units_Z   2
loop_
 _symmetry_equiv_pos_site_id
 _symmetry_equiv_pos_as_xyz
  1  'x, y, z'
loop_
 _atom_site_type_symbol
 _atom_site_label
 _atom_site_symmetry_multiplicity
 _atom_site_fract_x
 _atom_site_fract_y
 _atom_site_fract_z
 _atom_site_occupancy
  Er  Er0  1  0.000000  0.500000  0.500000  1
  Er  Er1  1  0.000000  0.000000  0.000000  1
  Er  Er2  1  0.000000  0.750429  0.776695  1
  Er  Er3  1  0.000000  0.249571  0.223305  1
  Er  Er4  1  0.000000  0.621815  0.084219  1
  Er  Er5  1  0.000000  0.378185  0.915781  1
  Er  Er6  1  0.000000  0.887501  0.587468  1
  Er  Er7  1  0.000000  0.112499  0.412532  1
  U  U8  1  0.000000  0.753823  0.271611  1
  U  U9  1  0.000000  0.246177  0.728389  1
  In  In10  1  0.500000  0.703556  0.928326  1
  In  In11  1  0.500000  0.296444  0.071674  1
  In  In12  1  0.500000  0.791151  0.434992  1
  In  In13  1  0.500000  0.208849  0.565008  1
  In  In14  1  0.500000  0.568685  0.648411  1
  In  In15  1  0.500000  0.431315  0.351589  1
  In  In16  1  0.500000  0.938964  0.144288  1
  In  In17  1  0.500000  0.061036  0.855712  1
  Ru  Ru18  1  0.500000  0.560455  0.207016  1
  Ru  Ru19  1  0.500000  0.439545  0.792984  1
  Ru  Ru20  1  0.500000  0.024010  0.697069  1
  Ru  Ru21  1  0.500000  0.975990  0.302931  1
