# generated using pymatgen
data_Dy2YAl3GaCu2
_symmetry_space_group_name_H-M   'P 1'
_cell_length_a   6.94059353
_cell_length_b   6.93486957
_cell_length_c   4.22382700
_cell_angle_alpha   90.00000000
_cell_angle_beta   90.00000000
_cell_angle_gamma   119.98259720
_symmetry_Int_Tables_number   1
_chemical_formula_structural   Dy2YAl3GaCu2
_chemical_formula_sum   'Dy2 Y1 Al3 Ga1 Cu2'
_cell_volume   176.09531192
_cell_formula_units_Z   1
loop_
 _symmetry_equiv_pos_site_id
 _symmetry_equiv_pos_as_xyz
  1  'x, y, z'
loop_
 _atom_site_type_symbol
 _atom_site_label
 _atom_site_symmetry_multiplicity
 _atom_site_fract_x
 _atom_site_fract_y
 _atom_site_fract_z
 _atom_site_occupancy
  Dy  Dy0  1  0.587590  0.583056  0.500000  1
  Dy  Dy1  1  0.416875  0.004603  0.500000  1
  Y  Y2  1  0.996151  0.412875  0.500000  1
  Al  Al3  1  0.991221  0.758903  0.000000  1
  Al  Al4  1  0.241433  0.232504  0.000000  1
  Al  Al5  1  0.767319  0.008524  0.000000  1
  Ga  Ga6  1  0.333800  0.667145  0.000000  1
  Cu  Cu7  1  0.665651  0.333202  0.000000  1
  Cu  Cu8  1  0.999961  0.999188  0.500000  1
