# generated using pymatgen
data_Nd2YIn5
_symmetry_space_group_name_H-M   'P 1'
_cell_length_a   6.53933011
_cell_length_b   6.53933014
_cell_length_c   10.51233600
_cell_angle_alpha   90.00000000
_cell_angle_beta   90.00000000
_cell_angle_gamma   102.47780932
_symmetry_Int_Tables_number   1
_chemical_formula_structural   Nd2YIn5
_chemical_formula_sum   'Nd4 Y2 In10'
_cell_volume   438.91914721
_cell_formula_units_Z   2
loop_
 _symmetry_equiv_pos_site_id
 _symmetry_equiv_pos_as_xyz
  1  'x, y, z'
loop_
 _atom_site_type_symbol
 _atom_site_label
 _atom_site_symmetry_multiplicity
 _atom_site_fract_x
 _atom_site_fract_y
 _atom_site_fract_z
 _atom_site_occupancy
  Nd  Nd0  1  0.203435  0.796565  0.500000  1
  Nd  Nd1  1  0.203435  0.796565  0.000000  1
  Nd  Nd2  1  0.796565  0.203435  0.500000  1
  Nd  Nd3  1  0.796565  0.203435  0.000000  1
  Y  Y4  1  0.629451  0.629451  0.250000  1
  Y  Y5  1  0.370549  0.370549  0.750000  1
  In  In6  1  0.011927  0.011926  0.250000  1
  In  In7  1  0.988074  0.988073  0.750000  1
  In  In8  1  0.312341  0.312341  0.047691  1
  In  In9  1  0.687659  0.687659  0.952309  1
  In  In10  1  0.312341  0.312341  0.452309  1
  In  In11  1  0.687659  0.687659  0.547691  1
  In  In12  1  0.502434  0.071047  0.250000  1
  In  In13  1  0.928953  0.497566  0.750000  1
  In  In14  1  0.497566  0.928953  0.750000  1
  In  In15  1  0.071047  0.502434  0.250000  1
