# generated using pymatgen
data_Tb9Y3In2(CoTc)2
_symmetry_space_group_name_H-M   'P 1'
_cell_length_a   8.48640332
_cell_length_b   8.49456290
_cell_length_c   8.49456330
_cell_angle_alpha   112.97291304
_cell_angle_beta   110.84440880
_cell_angle_gamma   104.74153289
_symmetry_Int_Tables_number   1
_chemical_formula_structural   Tb9Y3In2(CoTc)2
_chemical_formula_sum   'Tb9 Y3 In2 Co2 Tc2'
_cell_volume   468.61448683
_cell_formula_units_Z   1
loop_
 _symmetry_equiv_pos_site_id
 _symmetry_equiv_pos_as_xyz
  1  'x, y, z'
loop_
 _atom_site_type_symbol
 _atom_site_label
 _atom_site_symmetry_multiplicity
 _atom_site_fract_x
 _atom_site_fract_y
 _atom_site_fract_z
 _atom_site_occupancy
  Tb  Tb0  1  0.956174  0.756279  0.199894  1
  Tb  Tb1  1  0.184828  0.286733  0.471842  1
  Tb  Tb2  1  0.815075  0.713270  0.527909  1
  Tb  Tb3  1  0.184828  0.712987  0.898095  1
  Tb  Tb4  1  0.815075  0.287166  0.101805  1
  Tb  Tb5  1  0.327153  0.646444  0.320041  1
  Tb  Tb6  1  0.673167  0.353502  0.679774  1
  Tb  Tb7  1  0.327153  0.007113  0.680709  1
  Tb  Tb8  1  0.673167  0.993393  0.319665  1
  Y  Y9  1  0.443982  0.244398  0.199584  1
  Y  Y10  1  0.556389  0.755899  0.800490  1
  Y  Y11  1  0.044847  0.244250  0.800598  1
  In  In12  1  0.499758  0.499687  0.000071  1
  In  In13  1  0.999871  0.000225  0.999647  1
  Co  Co14  1  0.109638  0.609165  0.500473  1
  Co  Co15  1  0.890661  0.390662  0.499999  1
  Tc  Tc16  1  0.321133  0.998984  0.322149  1
  Tc  Tc17  1  0.677099  0.999844  0.677255  1
