# generated using pymatgen
data_Dy4Al13Au9
_symmetry_space_group_name_H-M   'P 1'
_cell_length_a   11.71557800
_cell_length_b   11.71557682
_cell_length_c   4.16788800
_cell_angle_alpha   90.00000000
_cell_angle_beta   90.00000000
_cell_angle_gamma   119.99990361
_symmetry_Int_Tables_number   1
_chemical_formula_structural   Dy4Al13Au9
_chemical_formula_sum   'Dy4 Al13 Au9'
_cell_volume   495.42108878
_cell_formula_units_Z   1
loop_
 _symmetry_equiv_pos_site_id
 _symmetry_equiv_pos_as_xyz
  1  'x, y, z'
loop_
 _atom_site_type_symbol
 _atom_site_label
 _atom_site_symmetry_multiplicity
 _atom_site_fract_x
 _atom_site_fract_y
 _atom_site_fract_z
 _atom_site_occupancy
  Dy  Dy0  1  0.205858  0.794142  0.500000  1
  Dy  Dy1  1  0.588284  0.794142  0.500000  1
  Dy  Dy2  1  0.205858  0.411716  0.500000  1
  Dy  Dy3  1  0.666667  0.333333  0.000000  1
  Al  Al4  1  0.949206  0.294445  0.000000  1
  Al  Al5  1  0.705555  0.654762  0.000000  1
  Al  Al6  1  0.949206  0.654761  0.000000  1
  Al  Al7  1  0.345239  0.050794  0.000000  1
  Al  Al8  1  0.169645  0.084822  0.500000  1
  Al  Al9  1  0.915178  0.830355  0.500000  1
  Al  Al10  1  0.705555  0.050794  0.000000  1
  Al  Al11  1  0.531440  0.062879  0.500000  1
  Al  Al12  1  0.915178  0.084822  0.500000  1
  Al  Al13  1  0.345238  0.294445  0.000000  1
  Al  Al14  1  0.531440  0.468560  0.500000  1
  Al  Al15  1  0.937121  0.468560  0.500000  1
  Al  Al16  1  0.333334  0.666667  0.000000  1
  Au  Au17  1  0.454730  0.545270  0.000000  1
  Au  Au18  1  0.822420  0.911210  0.000000  1
  Au  Au19  1  0.454730  0.909459  0.000000  1
  Au  Au20  1  0.088790  0.177580  0.000000  1
  Au  Au21  1  0.088790  0.911210  0.000000  1
  Au  Au22  1  0.786053  0.572104  0.500000  1
  Au  Au23  1  0.090541  0.545270  0.000000  1
  Au  Au24  1  0.786052  0.213947  0.500000  1
  Au  Au25  1  0.427896  0.213948  0.500000  1
