# generated using pymatgen
data_SmTm3Mg2(Ni7B2)2
_symmetry_space_group_name_H-M   'P 1'
_cell_length_a   4.98195300
_cell_length_b   4.98195337
_cell_length_c   14.22538800
_cell_angle_alpha   90.00000000
_cell_angle_beta   90.00000000
_cell_angle_gamma   120.00000417
_symmetry_Int_Tables_number   1
_chemical_formula_structural   SmTm3Mg2(Ni7B2)2
_chemical_formula_sum   'Sm1 Tm3 Mg2 Ni14 B4'
_cell_volume   305.76939839
_cell_formula_units_Z   1
loop_
 _symmetry_equiv_pos_site_id
 _symmetry_equiv_pos_as_xyz
  1  'x, y, z'
loop_
 _atom_site_type_symbol
 _atom_site_label
 _atom_site_symmetry_multiplicity
 _atom_site_fract_x
 _atom_site_fract_y
 _atom_site_fract_z
 _atom_site_occupancy
  Sm  Sm0  1  0.666667  0.333333  0.468897  1
  Tm  Tm1  1  0.333333  0.666667  0.970335  1
  Tm  Tm2  1  0.333333  0.666667  0.746599  1
  Tm  Tm3  1  0.666667  0.333333  0.242297  1
  Mg  Mg4  1  0.333333  0.666667  0.536223  1
  Mg  Mg5  1  0.666667  0.333333  0.031635  1
  Ni  Ni6  1  0.000000  0.000000  0.000795  1
  Ni  Ni7  1  0.000000  0.000000  0.501792  1
  Ni  Ni8  1  0.165863  0.331725  0.145750  1
  Ni  Ni9  1  0.834908  0.669816  0.649204  1
  Ni  Ni10  1  0.668275  0.834137  0.145750  1
  Ni  Ni11  1  0.165863  0.834137  0.145750  1
  Ni  Ni12  1  0.834908  0.165092  0.649204  1
  Ni  Ni13  1  0.330184  0.165092  0.649204  1
  Ni  Ni14  1  0.833781  0.667563  0.853837  1
  Ni  Ni15  1  0.833781  0.166219  0.853837  1
  Ni  Ni16  1  0.332437  0.166219  0.853837  1
  Ni  Ni17  1  0.667887  0.833944  0.350317  1
  Ni  Ni18  1  0.166056  0.833944  0.350317  1
  Ni  Ni19  1  0.166056  0.332113  0.350317  1
  B  B20  1  0.333333  0.666667  0.248713  1
  B  B21  1  0.666667  0.333333  0.750994  1
  B  B22  1  0.000000  0.000000  0.250392  1
  B  B23  1  0.000000  0.000000  0.754005  1
