# generated using pymatgen
data_VReMoO8
_symmetry_space_group_name_H-M   'P 1'
_cell_length_a   5.79477400
_cell_length_b   5.79516260
_cell_length_c   6.45545201
_cell_angle_alpha   90.00973367
_cell_angle_beta   89.99976631
_cell_angle_gamma   120.00085010
_symmetry_Int_Tables_number   1
_chemical_formula_structural   VReMoO8
_chemical_formula_sum   'V1 Re1 Mo1 O8'
_cell_volume   187.73951397
_cell_formula_units_Z   1
loop_
 _symmetry_equiv_pos_site_id
 _symmetry_equiv_pos_as_xyz
  1  'x, y, z'
loop_
 _atom_site_type_symbol
 _atom_site_label
 _atom_site_symmetry_multiplicity
 _atom_site_fract_x
 _atom_site_fract_y
 _atom_site_fract_z
 _atom_site_occupancy
  V  V0  1  0.000169  0.000181  0.013098  1
  Re  Re1  1  0.666241  0.333246  0.727705  1
  Mo  Mo2  1  0.333341  0.666700  0.271504  1
  O  O3  1  0.333612  0.666755  0.541027  1
  O  O4  1  0.666482  0.333305  0.460394  1
  O  O5  1  0.673164  0.836582  0.176866  1
  O  O6  1  0.163809  0.836402  0.176646  1
  O  O7  1  0.163617  0.327015  0.176905  1
  O  O8  1  0.335416  0.167784  0.818904  1
  O  O9  1  0.832144  0.167817  0.818267  1
  O  O10  1  0.832003  0.664213  0.818688  1
