# generated using pymatgen
data_Ho4LuZn2Bi
_symmetry_space_group_name_H-M   'P 1'
_cell_length_a   8.56833470
_cell_length_b   8.56833530
_cell_length_c   8.56833532
_cell_angle_alpha   123.74144942
_cell_angle_beta   123.74144786
_cell_angle_gamma   83.63324184
_symmetry_Int_Tables_number   1
_chemical_formula_structural   Ho4LuZn2Bi
_chemical_formula_sum   'Ho8 Lu2 Zn4 Bi2'
_cell_volume   416.83551141
_cell_formula_units_Z   2
loop_
 _symmetry_equiv_pos_site_id
 _symmetry_equiv_pos_as_xyz
  1  'x, y, z'
loop_
 _atom_site_type_symbol
 _atom_site_label
 _atom_site_symmetry_multiplicity
 _atom_site_fract_x
 _atom_site_fract_y
 _atom_site_fract_z
 _atom_site_occupancy
  Ho  Ho0  1  0.012530  0.512530  0.807445  1
  Ho  Ho1  1  0.705085  0.205085  0.192555  1
  Ho  Ho2  1  0.512530  0.705085  0.500000  1
  Ho  Ho3  1  0.205085  0.012530  0.500000  1
  Ho  Ho4  1  0.987470  0.487470  0.192555  1
  Ho  Ho5  1  0.294915  0.794915  0.807445  1
  Ho  Ho6  1  0.487470  0.294915  0.500000  1
  Ho  Ho7  1  0.794915  0.987470  0.500000  1
  Lu  Lu8  1  0.000000  0.000000  0.000000  1
  Lu  Lu9  1  0.500000  0.500000  0.000000  1
  Zn  Zn10  1  0.639053  0.139053  0.778106  1
  Zn  Zn11  1  0.360947  0.860947  0.221894  1
  Zn  Zn12  1  0.139053  0.360947  0.500000  1
  Zn  Zn13  1  0.860947  0.639053  0.500000  1
  Bi  Bi14  1  0.750000  0.750000  0.000000  1
  Bi  Bi15  1  0.250000  0.250000  0.000000  1
