# generated using pymatgen
data_Dy5Th3(ReB6)4
_symmetry_space_group_name_H-M   'P 1'
_cell_length_a   3.75357900
_cell_length_b   9.24615594
_cell_length_c   11.66277645
_cell_angle_alpha   90.07432011
_cell_angle_beta   90.00000000
_cell_angle_gamma   90.00000000
_symmetry_Int_Tables_number   1
_chemical_formula_structural   Dy5Th3(ReB6)4
_chemical_formula_sum   'Dy5 Th3 Re4 B24'
_cell_volume   404.77004085
_cell_formula_units_Z   1
loop_
 _symmetry_equiv_pos_site_id
 _symmetry_equiv_pos_as_xyz
  1  'x, y, z'
loop_
 _atom_site_type_symbol
 _atom_site_label
 _atom_site_symmetry_multiplicity
 _atom_site_fract_x
 _atom_site_fract_y
 _atom_site_fract_z
 _atom_site_occupancy
  Dy  Dy0  1  0.000000  0.177332  0.913593  1
  Dy  Dy1  1  0.000000  0.944881  0.372352  1
  Dy  Dy2  1  0.000000  0.056400  0.629022  1
  Dy  Dy3  1  0.000000  0.442595  0.127247  1
  Dy  Dy4  1  0.000000  0.555055  0.871839  1
  Th  Th5  1  0.000000  0.321249  0.414209  1
  Th  Th6  1  0.000000  0.678601  0.586658  1
  Th  Th7  1  0.000000  0.823708  0.085492  1
  Re  Re8  1  0.000000  0.638815  0.320276  1
  Re  Re9  1  0.000000  0.361539  0.679747  1
  Re  Re10  1  0.000000  0.139221  0.178866  1
  Re  Re11  1  0.000000  0.861210  0.820932  1
  B  B12  1  0.500000  0.555863  0.430042  1
  B  B13  1  0.500000  0.443957  0.570169  1
  B  B14  1  0.500000  0.056157  0.067437  1
  B  B15  1  0.500000  0.946320  0.931045  1
  B  B16  1  0.500000  0.749854  0.417063  1
  B  B17  1  0.500000  0.249936  0.583888  1
  B  B18  1  0.500000  0.248902  0.080601  1
  B  B19  1  0.500000  0.751564  0.916890  1
  B  B20  1  0.500000  0.790857  0.266737  1
  B  B21  1  0.500000  0.207848  0.734799  1
  B  B22  1  0.500000  0.290383  0.232052  1
  B  B23  1  0.500000  0.709450  0.767314  1
  B  B24  1  0.500000  0.630559  0.186382  1
  B  B25  1  0.500000  0.367593  0.814881  1
  B  B26  1  0.500000  0.130853  0.312879  1
  B  B27  1  0.500000  0.870208  0.687499  1
  B  B28  1  0.500000  0.986058  0.212578  1
  B  B29  1  0.500000  0.017181  0.787610  1
  B  B30  1  0.500000  0.485066  0.286198  1
  B  B31  1  0.500000  0.513999  0.714065  1
  B  B32  1  0.500000  0.601194  0.028201  1
  B  B33  1  0.500000  0.395367  0.970628  1
  B  B34  1  0.500000  0.103439  0.471806  1
  B  B35  1  0.500000  0.896786  0.529004  1
