# generated using pymatgen
data_Ti16Ga3Si9Tc4
_symmetry_space_group_name_H-M   'P 1'
_cell_length_a   5.07921471
_cell_length_b   7.44430378
_cell_length_c   12.91569416
_cell_angle_alpha   90.03781661
_cell_angle_beta   90.05454567
_cell_angle_gamma   90.06547130
_symmetry_Int_Tables_number   1
_chemical_formula_structural   Ti16Ga3Si9Tc4
_chemical_formula_sum   'Ti16 Ga3 Si9 Tc4'
_cell_volume   488.35747080
_cell_formula_units_Z   1
loop_
 _symmetry_equiv_pos_site_id
 _symmetry_equiv_pos_as_xyz
  1  'x, y, z'
loop_
 _atom_site_type_symbol
 _atom_site_label
 _atom_site_symmetry_multiplicity
 _atom_site_fract_x
 _atom_site_fract_y
 _atom_site_fract_z
 _atom_site_occupancy
  Ti  Ti0  1  0.250567  0.495913  0.831016  1
  Ti  Ti1  1  0.249427  0.002011  0.330103  1
  Ti  Ti2  1  0.251350  0.003712  0.667929  1
  Ti  Ti3  1  0.249312  0.501441  0.169888  1
  Ti  Ti4  1  0.500502  0.256582  0.499660  1
  Ti  Ti5  1  0.498246  0.755839  0.002594  1
  Ti  Ti6  1  0.494318  0.619712  0.622998  1
  Ti  Ti7  1  0.489895  0.121442  0.125550  1
  Ti  Ti8  1  0.490476  0.125095  0.875047  1
  Ti  Ti9  1  0.490637  0.621769  0.374762  1
  Ti  Ti10  1  0.998534  0.744720  0.500148  1
  Ti  Ti11  1  0.000110  0.242445  0.999999  1
  Ti  Ti12  1  0.003343  0.875810  0.878154  1
  Ti  Ti13  1  0.009048  0.376756  0.376084  1
  Ti  Ti14  1  0.008833  0.375041  0.624235  1
  Ti  Ti15  1  0.007714  0.875522  0.124174  1
  Ga  Ga16  1  0.506214  0.395563  0.000927  1
  Ga  Ga17  1  0.503758  0.894989  0.499430  1
  Ga  Ga18  1  0.509973  0.801544  0.802691  1
  Si  Si19  1  0.516472  0.303020  0.302960  1
  Si  Si20  1  0.518544  0.302665  0.696576  1
  Si  Si21  1  0.516224  0.802742  0.197870  1
  Si  Si22  1  0.989465  0.603165  0.999613  1
  Si  Si23  1  0.990647  0.104837  0.499055  1
  Si  Si24  1  0.985553  0.698835  0.696980  1
  Si  Si25  1  0.983913  0.198542  0.195581  1
  Si  Si26  1  0.984354  0.194385  0.804078  1
  Si  Si27  1  0.984471  0.698927  0.304504  1
  Tc  Tc28  1  0.756658  0.005198  0.665990  1
  Tc  Tc29  1  0.752419  0.502675  0.170189  1
  Tc  Tc30  1  0.756442  0.496048  0.831023  1
  Tc  Tc31  1  0.752582  0.003041  0.330189  1
