# generated using pymatgen
data_Dy2Ho4Mn3(Co5P4)3
_symmetry_space_group_name_H-M   'P 1'
_cell_length_a   3.70069700
_cell_length_b   10.55840600
_cell_length_c   12.15360500
_cell_angle_alpha   90.00000000
_cell_angle_beta   90.00000000
_cell_angle_gamma   90.00000000
_symmetry_Int_Tables_number   1
_chemical_formula_structural   Dy2Ho4Mn3(Co5P4)3
_chemical_formula_sum   'Dy2 Ho4 Mn3 Co15 P12'
_cell_volume   474.88341595
_cell_formula_units_Z   1
loop_
 _symmetry_equiv_pos_site_id
 _symmetry_equiv_pos_as_xyz
  1  'x, y, z'
loop_
 _atom_site_type_symbol
 _atom_site_label
 _atom_site_symmetry_multiplicity
 _atom_site_fract_x
 _atom_site_fract_y
 _atom_site_fract_z
 _atom_site_occupancy
  Dy  Dy0  1  0.000000  0.500000  0.523566  1
  Dy  Dy1  1  0.500000  0.000000  0.476945  1
  Ho  Ho2  1  0.500000  0.818359  0.204908  1
  Ho  Ho3  1  0.500000  0.181641  0.204908  1
  Ho  Ho4  1  0.000000  0.680478  0.795734  1
  Ho  Ho5  1  0.000000  0.319522  0.795734  1
  Mn  Mn6  1  0.500000  0.500000  0.155174  1
  Mn  Mn7  1  0.000000  0.000000  0.841302  1
  Mn  Mn8  1  0.000000  0.500000  0.988612  1
  Co  Co9  1  0.500000  0.500000  0.699764  1
  Co  Co10  1  0.000000  0.000000  0.297682  1
  Co  Co11  1  0.500000  0.000000  0.013624  1
  Co  Co12  1  0.500000  0.330353  0.994220  1
  Co  Co13  1  0.500000  0.669647  0.994220  1
  Co  Co14  1  0.000000  0.165109  0.005235  1
  Co  Co15  1  0.000000  0.834891  0.005235  1
  Co  Co16  1  0.500000  0.295982  0.430415  1
  Co  Co17  1  0.500000  0.704018  0.430415  1
  Co  Co18  1  0.000000  0.203449  0.570077  1
  Co  Co19  1  0.000000  0.796551  0.570077  1
  Co  Co20  1  0.500000  0.879634  0.709661  1
  Co  Co21  1  0.500000  0.120366  0.709661  1
  Co  Co22  1  0.000000  0.621305  0.291432  1
  Co  Co23  1  0.000000  0.378695  0.291432  1
  P  P24  1  0.500000  0.500000  0.882333  1
  P  P25  1  0.000000  0.000000  0.117749  1
  P  P26  1  0.500000  0.500000  0.345774  1
  P  P27  1  0.000000  0.000000  0.655010  1
  P  P28  1  0.500000  0.310498  0.616722  1
  P  P29  1  0.500000  0.689502  0.616722  1
  P  P30  1  0.000000  0.188771  0.383849  1
  P  P31  1  0.000000  0.811229  0.383849  1
  P  P32  1  0.500000  0.846922  0.892673  1
  P  P33  1  0.500000  0.153078  0.892673  1
  P  P34  1  0.000000  0.654929  0.106308  1
  P  P35  1  0.000000  0.345071  0.106308  1
