# generated using pymatgen
data_Tb2Er2Ga4IrPd3
_symmetry_space_group_name_H-M   'P 1'
_cell_length_a   4.43979800
_cell_length_b   6.88458256
_cell_length_c   7.69973741
_cell_angle_alpha   89.59128099
_cell_angle_beta   90.00000000
_cell_angle_gamma   90.00000000
_symmetry_Int_Tables_number   1
_chemical_formula_structural   Tb2Er2Ga4IrPd3
_chemical_formula_sum   'Tb2 Er2 Ga4 Ir1 Pd3'
_cell_volume   235.34538581
_cell_formula_units_Z   1
loop_
 _symmetry_equiv_pos_site_id
 _symmetry_equiv_pos_as_xyz
  1  'x, y, z'
loop_
 _atom_site_type_symbol
 _atom_site_label
 _atom_site_symmetry_multiplicity
 _atom_site_fract_x
 _atom_site_fract_y
 _atom_site_fract_z
 _atom_site_occupancy
  Tb  Tb0  1  0.750000  0.024228  0.689744  1
  Tb  Tb1  1  0.750000  0.520178  0.806488  1
  Er  Er2  1  0.250000  0.988157  0.305397  1
  Er  Er3  1  0.250000  0.477699  0.199659  1
  Ga  Ga4  1  0.250000  0.329649  0.569189  1
  Ga  Ga5  1  0.250000  0.829750  0.931005  1
  Ga  Ga6  1  0.750000  0.662616  0.427694  1
  Ga  Ga7  1  0.750000  0.171108  0.073260  1
  Ir  Ir8  1  0.750000  0.272212  0.393494  1
  Pd  Pd9  1  0.250000  0.223604  0.897739  1
  Pd  Pd10  1  0.250000  0.723730  0.602503  1
  Pd  Pd11  1  0.750000  0.777070  0.103828  1
