# generated using pymatgen
data_Dy6BCCl6
_symmetry_space_group_name_H-M   'P 1'
_cell_length_a   9.31944995
_cell_length_b   9.31944961
_cell_length_c   9.39628184
_cell_angle_alpha   109.48839623
_cell_angle_beta   109.48838435
_cell_angle_gamma   109.10300025
_symmetry_Int_Tables_number   1
_chemical_formula_structural   Dy6BCCl6
_chemical_formula_sum   'Dy12 B2 C2 Cl12'
_cell_volume   630.79244492
_cell_formula_units_Z   2
loop_
 _symmetry_equiv_pos_site_id
 _symmetry_equiv_pos_as_xyz
  1  'x, y, z'
loop_
 _atom_site_type_symbol
 _atom_site_label
 _atom_site_symmetry_multiplicity
 _atom_site_fract_x
 _atom_site_fract_y
 _atom_site_fract_z
 _atom_site_occupancy
  Dy  Dy0  1  0.467161  0.478891  0.235671  1
  Dy  Dy1  1  0.743220  0.231490  0.264329  1
  Dy  Dy2  1  0.744302  0.014680  0.479081  1
  Dy  Dy3  1  0.234779  0.464403  0.479081  1
  Dy  Dy4  1  0.268510  0.756780  0.235671  1
  Dy  Dy5  1  0.035597  0.265221  0.020919  1
  Dy  Dy6  1  0.021109  0.032839  0.264329  1
  Dy  Dy7  1  0.485320  0.755698  0.020919  1
  Dy  Dy8  1  0.480693  0.230693  0.461387  1
  Dy  Dy9  1  0.014581  0.485419  0.750000  1
  Dy  Dy10  1  0.269307  0.019307  0.038613  1
  Dy  Dy11  1  0.235419  0.264581  0.750000  1
  B  B12  1  0.999357  0.249357  0.498714  1
  B  B13  1  0.250643  0.500643  0.001286  1
  C  C14  1  0.249665  0.250335  0.250000  1
  C  C15  1  0.500335  0.999665  0.250000  1
  Cl  Cl16  1  0.252221  0.758882  0.746512  1
  Cl  Cl17  1  0.512370  0.505709  0.753488  1
  Cl  Cl18  1  0.988083  0.746068  0.994282  1
  Cl  Cl19  1  0.741118  0.247779  0.753488  1
  Cl  Cl20  1  0.994291  0.987630  0.746512  1
  Cl  Cl21  1  0.251786  0.993802  0.505718  1
  Cl  Cl22  1  0.753932  0.511917  0.505718  1
  Cl  Cl23  1  0.506198  0.248214  0.994282  1
  Cl  Cl24  1  0.755547  0.744453  0.250000  1
  Cl  Cl25  1  0.744338  0.994338  0.988676  1
  Cl  Cl26  1  0.994453  0.505547  0.250000  1
  Cl  Cl27  1  0.505662  0.755662  0.511324  1
