# generated using pymatgen
data_Al7Zn2Ir3
_symmetry_space_group_name_H-M   'P 1'
_cell_length_a   7.36128552
_cell_length_b   7.37051494
_cell_length_c   7.94936266
_cell_angle_alpha   90.01507350
_cell_angle_beta   89.95584324
_cell_angle_gamma   119.96471504
_symmetry_Int_Tables_number   1
_chemical_formula_structural   Al7Zn2Ir3
_chemical_formula_sum   'Al14 Zn4 Ir6'
_cell_volume   373.65311555
_cell_formula_units_Z   2
loop_
 _symmetry_equiv_pos_site_id
 _symmetry_equiv_pos_as_xyz
  1  'x, y, z'
loop_
 _atom_site_type_symbol
 _atom_site_label
 _atom_site_symmetry_multiplicity
 _atom_site_fract_x
 _atom_site_fract_y
 _atom_site_fract_z
 _atom_site_occupancy
  Al  Al0  1  0.668408  0.334261  0.223290  1
  Al  Al1  1  0.332281  0.673148  0.730556  1
  Al  Al2  1  0.658968  0.326484  0.730627  1
  Al  Al3  1  0.334210  0.666055  0.223273  1
  Al  Al4  1  0.999773  0.342955  0.919737  1
  Al  Al5  1  0.656820  0.657060  0.919693  1
  Al  Al6  1  0.341639  0.336938  0.407247  1
  Al  Al7  1  0.004732  0.663147  0.407222  1
  Al  Al8  1  0.344431  0.000115  0.914029  1
  Al  Al9  1  0.654125  0.000034  0.407940  1
  Al  Al10  1  0.005447  0.999828  0.753194  1
  Al  Al11  1  0.001073  0.000056  0.243983  1
  Al  Al12  1  0.999523  0.325070  0.572945  1
  Al  Al13  1  0.674401  0.674730  0.572913  1
  Zn  Zn14  1  0.323130  0.322425  0.067051  1
  Zn  Zn15  1  0.000987  0.678017  0.067063  1
  Zn  Zn16  1  0.321247  0.999829  0.568388  1
  Zn  Zn17  1  0.678558  0.000179  0.068444  1
  Ir  Ir18  1  0.001339  0.333764  0.252131  1
  Ir  Ir19  1  0.667559  0.666616  0.252123  1
  Ir  Ir20  1  0.332723  0.342331  0.734880  1
  Ir  Ir21  1  0.990041  0.657021  0.734797  1
  Ir  Ir22  1  0.335703  0.000290  0.239262  1
  Ir  Ir23  1  0.672988  0.999644  0.735010  1
