# generated using pymatgen
data_Hf6Ga6Os2Pd3Pt
_symmetry_space_group_name_H-M   'P 1'
_cell_length_a   7.38050300
_cell_length_b   7.38050267
_cell_length_c   6.59987000
_cell_angle_alpha   90.00000000
_cell_angle_beta   90.00000000
_cell_angle_gamma   119.99999699
_symmetry_Int_Tables_number   1
_chemical_formula_structural   Hf6Ga6Os2Pd3Pt
_chemical_formula_sum   'Hf6 Ga6 Os2 Pd3 Pt1'
_cell_volume   311.34215628
_cell_formula_units_Z   1
loop_
 _symmetry_equiv_pos_site_id
 _symmetry_equiv_pos_as_xyz
  1  'x, y, z'
loop_
 _atom_site_type_symbol
 _atom_site_label
 _atom_site_symmetry_multiplicity
 _atom_site_fract_x
 _atom_site_fract_y
 _atom_site_fract_z
 _atom_site_occupancy
  Hf  Hf0  1  0.601071  0.612101  0.250572  1
  Hf  Hf1  1  0.013547  0.399051  0.749433  1
  Hf  Hf2  1  0.387899  0.988970  0.250572  1
  Hf  Hf3  1  0.011030  0.398929  0.250572  1
  Hf  Hf4  1  0.385504  0.986453  0.749433  1
  Hf  Hf5  1  0.600949  0.614496  0.749433  1
  Ga  Ga6  1  0.275978  0.272507  0.499952  1
  Ga  Ga7  1  0.727493  0.003471  0.499952  1
  Ga  Ga8  1  0.996529  0.724022  0.499952  1
  Ga  Ga9  1  0.727657  0.004642  0.000108  1
  Ga  Ga10  1  0.276985  0.272343  0.000108  1
  Ga  Ga11  1  0.995358  0.723015  0.000108  1
  Os  Os12  1  0.333333  0.666667  0.499217  1
  Os  Os13  1  0.333333  0.666667  0.000795  1
  Pd  Pd14  1  0.000000  0.000000  0.749788  1
  Pd  Pd15  1  0.000000  0.000000  0.250280  1
  Pd  Pd16  1  0.666667  0.333333  0.996780  1
  Pt  Pt17  1  0.666667  0.333333  0.502945  1
