# generated using pymatgen
data_Dy4Al3Re2Tc3
_symmetry_space_group_name_H-M   'P 1'
_cell_length_a   5.47323224
_cell_length_b   5.40683405
_cell_length_c   8.81257700
_cell_angle_alpha   90.00000000
_cell_angle_beta   90.00000000
_cell_angle_gamma   119.59947235
_symmetry_Int_Tables_number   1
_chemical_formula_structural   Dy4Al3Re2Tc3
_chemical_formula_sum   'Dy4 Al3 Re2 Tc3'
_cell_volume   226.75619809
_cell_formula_units_Z   1
loop_
 _symmetry_equiv_pos_site_id
 _symmetry_equiv_pos_as_xyz
  1  'x, y, z'
loop_
 _atom_site_type_symbol
 _atom_site_label
 _atom_site_symmetry_multiplicity
 _atom_site_fract_x
 _atom_site_fract_y
 _atom_site_fract_z
 _atom_site_occupancy
  Dy  Dy0  1  0.329032  0.664517  0.436899  1
  Dy  Dy1  1  0.668929  0.334464  0.557744  1
  Dy  Dy2  1  0.668929  0.334464  0.942256  1
  Dy  Dy3  1  0.329032  0.664517  0.063101  1
  Al  Al4  1  0.331800  0.165900  0.250000  1
  Al  Al5  1  0.186827  0.844128  0.750000  1
  Al  Al6  1  0.186827  0.342700  0.750000  1
  Re  Re7  1  0.832415  0.173696  0.250000  1
  Re  Re8  1  0.832415  0.658719  0.250000  1
  Tc  Tc9  1  0.972979  0.986489  0.503818  1
  Tc  Tc10  1  0.972979  0.986489  0.996182  1
  Tc  Tc11  1  0.687837  0.843918  0.750000  1
