# generated using pymatgen
data_La3Pr6Y7(CdPt)4
_symmetry_space_group_name_H-M   'P 1'
_cell_length_a   9.96905979
_cell_length_b   9.93268602
_cell_length_c   9.93268500
_cell_angle_alpha   60.00000008
_cell_angle_beta   60.12062376
_cell_angle_gamma   60.12062067
_symmetry_Int_Tables_number   1
_chemical_formula_structural   La3Pr6Y7(CdPt)4
_chemical_formula_sum   'La3 Pr6 Y7 Cd4 Pt4'
_cell_volume   696.72593903
_cell_formula_units_Z   1
loop_
 _symmetry_equiv_pos_site_id
 _symmetry_equiv_pos_as_xyz
  1  'x, y, z'
loop_
 _atom_site_type_symbol
 _atom_site_label
 _atom_site_symmetry_multiplicity
 _atom_site_fract_x
 _atom_site_fract_y
 _atom_site_fract_z
 _atom_site_occupancy
  La  La0  1  0.348549  0.352557  0.352557  1
  La  La1  1  0.348549  0.352557  0.946337  1
  La  La2  1  0.348549  0.946337  0.352557  1
  Pr  Pr3  1  0.934634  0.565175  0.565175  1
  Pr  Pr4  1  0.564704  0.935933  0.935933  1
  Pr  Pr5  1  0.564704  0.935933  0.563429  1
  Pr  Pr6  1  0.934634  0.565175  0.935017  1
  Pr  Pr7  1  0.564704  0.563429  0.935933  1
  Pr  Pr8  1  0.934634  0.935017  0.565175  1
  Y  Y9  1  0.946350  0.351217  0.351217  1
  Y  Y10  1  0.813842  0.187228  0.187228  1
  Y  Y11  1  0.186449  0.814523  0.814523  1
  Y  Y12  1  0.186449  0.814523  0.184506  1
  Y  Y13  1  0.813842  0.187228  0.811703  1
  Y  Y14  1  0.186449  0.184506  0.814523  1
  Y  Y15  1  0.813842  0.811703  0.187228  1
  Cd  Cd16  1  0.584701  0.578218  0.578218  1
  Cd  Cd17  1  0.584701  0.578218  0.258861  1
  Cd  Cd18  1  0.584701  0.258861  0.578218  1
  Cd  Cd19  1  0.261018  0.579660  0.579660  1
  Pt  Pt20  1  0.138074  0.142582  0.142582  1
  Pt  Pt21  1  0.138074  0.142582  0.576762  1
  Pt  Pt22  1  0.138074  0.576762  0.142582  1
  Pt  Pt23  1  0.579771  0.140076  0.140076  1
