# generated using pymatgen
data_Hf4ZnPH2
_symmetry_space_group_name_H-M   'P 1'
_cell_length_a   5.35087398
_cell_length_b   5.35087428
_cell_length_c   5.35087430
_cell_angle_alpha   105.09525347
_cell_angle_beta   105.09526508
_cell_angle_gamma   118.62994568
_symmetry_Int_Tables_number   1
_chemical_formula_structural   Hf4ZnPH2
_chemical_formula_sum   'Hf4 Zn1 P1 H2'
_cell_volume   115.64522754
_cell_formula_units_Z   1
loop_
 _symmetry_equiv_pos_site_id
 _symmetry_equiv_pos_as_xyz
  1  'x, y, z'
loop_
 _atom_site_type_symbol
 _atom_site_label
 _atom_site_symmetry_multiplicity
 _atom_site_fract_x
 _atom_site_fract_y
 _atom_site_fract_z
 _atom_site_occupancy
  Hf  Hf0  1  0.163893  0.663893  0.827787  1
  Hf  Hf1  1  0.836107  0.336107  0.172213  1
  Hf  Hf2  1  0.336107  0.163893  0.500000  1
  Hf  Hf3  1  0.663893  0.836107  0.500000  1
  Zn  Zn4  1  0.250000  0.250000  0.000000  1
  P  P5  1  0.750000  0.750000  0.000000  1
  H  H6  1  0.750000  0.250000  0.500000  1
  H  H7  1  0.250000  0.750000  0.500000  1
