# generated using pymatgen
data_LiNd2ThIn3Pt2
_symmetry_space_group_name_H-M   'P 1'
_cell_length_a   7.81291358
_cell_length_b   7.99184126
_cell_length_c   3.96661400
_cell_angle_alpha   90.00000000
_cell_angle_beta   90.00000000
_cell_angle_gamma   120.76051017
_symmetry_Int_Tables_number   1
_chemical_formula_structural   LiNd2ThIn3Pt2
_chemical_formula_sum   'Li1 Nd2 Th1 In3 Pt2'
_cell_volume   212.82909248
_cell_formula_units_Z   1
loop_
 _symmetry_equiv_pos_site_id
 _symmetry_equiv_pos_as_xyz
  1  'x, y, z'
loop_
 _atom_site_type_symbol
 _atom_site_label
 _atom_site_symmetry_multiplicity
 _atom_site_fract_x
 _atom_site_fract_y
 _atom_site_fract_z
 _atom_site_occupancy
  Li  Li0  1  0.000000  0.994971  0.500000  1
  Nd  Nd1  1  0.583193  0.001588  0.500000  1
  Nd  Nd2  1  0.416807  0.418395  0.500000  1
  Th  Th3  1  0.000000  0.576930  0.500000  1
  In  In4  1  0.000000  0.240410  0.000000  1
  In  In5  1  0.251061  0.002974  0.000000  1
  In  In6  1  0.748939  0.751913  0.000000  1
  Pt  Pt7  1  0.682266  0.347542  0.000000  1
  Pt  Pt8  1  0.317734  0.665277  0.000000  1
