# generated using pymatgen
data_Hf18V2Re6SiP
_symmetry_space_group_name_H-M   'P 1'
_cell_length_a   8.59786200
_cell_length_b   8.59786208
_cell_length_c   8.51953600
_cell_angle_alpha   90.00000000
_cell_angle_beta   90.00000000
_cell_angle_gamma   119.99999970
_symmetry_Int_Tables_number   1
_chemical_formula_structural   Hf18V2Re6SiP
_chemical_formula_sum   'Hf18 V2 Re6 Si1 P1'
_cell_volume   545.41555508
_cell_formula_units_Z   1
loop_
 _symmetry_equiv_pos_site_id
 _symmetry_equiv_pos_as_xyz
  1  'x, y, z'
loop_
 _atom_site_type_symbol
 _atom_site_label
 _atom_site_symmetry_multiplicity
 _atom_site_fract_x
 _atom_site_fract_y
 _atom_site_fract_z
 _atom_site_occupancy
  Hf  Hf0  1  0.193723  0.806277  0.451567  1
  Hf  Hf1  1  0.193723  0.387443  0.451567  1
  Hf  Hf2  1  0.612557  0.806277  0.451567  1
  Hf  Hf3  1  0.804825  0.195175  0.549471  1
  Hf  Hf4  1  0.804825  0.609652  0.549471  1
  Hf  Hf5  1  0.390348  0.195175  0.549471  1
  Hf  Hf6  1  0.804766  0.195234  0.950507  1
  Hf  Hf7  1  0.804766  0.609532  0.950507  1
  Hf  Hf8  1  0.390468  0.195234  0.950507  1
  Hf  Hf9  1  0.193790  0.806210  0.048451  1
  Hf  Hf10  1  0.193790  0.387578  0.048451  1
  Hf  Hf11  1  0.612422  0.806210  0.048451  1
  Hf  Hf12  1  0.539315  0.460685  0.249995  1
  Hf  Hf13  1  0.539315  0.078631  0.249995  1
  Hf  Hf14  1  0.921369  0.460685  0.249995  1
  Hf  Hf15  1  0.459779  0.540221  0.750002  1
  Hf  Hf16  1  0.459779  0.919558  0.750002  1
  Hf  Hf17  1  0.080442  0.540221  0.750002  1
  V  V18  1  0.000000  0.000000  0.499826  1
  V  V19  1  0.000000  0.000000  0.000147  1
  Re  Re20  1  0.891171  0.108829  0.250136  1
  Re  Re21  1  0.891171  0.782340  0.250136  1
  Re  Re22  1  0.217660  0.108829  0.250136  1
  Re  Re23  1  0.108595  0.891405  0.749881  1
  Re  Re24  1  0.108595  0.217191  0.749881  1
  Re  Re25  1  0.782809  0.891405  0.749881  1
  Si  Si26  1  0.333333  0.666667  0.249993  1
  P  P27  1  0.666667  0.333333  0.750006  1
