# generated using pymatgen
data_TmLuHf2Zr4F30
_symmetry_space_group_name_H-M   'P 1'
_cell_length_a   8.13224470
_cell_length_b   8.13224425
_cell_length_c   8.13165400
_cell_angle_alpha   79.88068554
_cell_angle_beta   79.88068723
_cell_angle_gamma   100.10994353
_symmetry_Int_Tables_number   1
_chemical_formula_structural   TmLuHf2Zr4F30
_chemical_formula_sum   'Tm1 Lu1 Hf2 Zr4 F30'
_cell_volume   509.21508881
_cell_formula_units_Z   1
loop_
 _symmetry_equiv_pos_site_id
 _symmetry_equiv_pos_as_xyz
  1  'x, y, z'
loop_
 _atom_site_type_symbol
 _atom_site_label
 _atom_site_symmetry_multiplicity
 _atom_site_fract_x
 _atom_site_fract_y
 _atom_site_fract_z
 _atom_site_occupancy
  Tm  Tm0  1  0.678392  0.321608  0.750000  1
  Lu  Lu1  1  0.321683  0.678317  0.250000  1
  Hf  Hf2  1  0.250388  0.749612  0.750000  1
  Hf  Hf3  1  0.749665  0.250335  0.250000  1
  Zr  Zr4  1  0.821729  0.749378  0.324849  1
  Zr  Zr5  1  0.250622  0.178271  0.175151  1
  Zr  Zr6  1  0.178377  0.250927  0.674623  1
  Zr  Zr7  1  0.749073  0.821623  0.825377  1
  F  F8  1  0.149930  0.184462  0.947773  1
  F  F9  1  0.686146  0.560531  0.849054  1
  F  F10  1  0.042801  0.653579  0.315326  1
  F  F11  1  0.652730  0.041356  0.815997  1
  F  F12  1  0.559873  0.686467  0.347923  1
  F  F13  1  0.184427  0.149936  0.447837  1
  F  F14  1  0.850064  0.815573  0.052163  1
  F  F15  1  0.313533  0.440127  0.152077  1
  F  F16  1  0.958644  0.347270  0.684003  1
  F  F17  1  0.346421  0.957199  0.184674  1
  F  F18  1  0.439469  0.313854  0.650946  1
  F  F19  1  0.815538  0.850070  0.552227  1
  F  F20  1  0.965922  0.034078  0.750000  1
  F  F21  1  0.541462  0.751699  0.031462  1
  F  F22  1  0.248301  0.458538  0.468538  1
  F  F23  1  0.457471  0.247892  0.969802  1
  F  F24  1  0.752108  0.542529  0.530198  1
  F  F25  1  0.033986  0.966014  0.250000  1
  F  F26  1  0.221002  0.726248  0.002491  1
  F  F27  1  0.225638  0.494782  0.780429  1
  F  F28  1  0.994874  0.722877  0.774831  1
  F  F29  1  0.722965  0.994863  0.274806  1
  F  F30  1  0.494814  0.225489  0.280424  1
  F  F31  1  0.726461  0.220250  0.502410  1
  F  F32  1  0.779750  0.273539  0.997590  1
  F  F33  1  0.774511  0.505186  0.219576  1
  F  F34  1  0.005137  0.277035  0.225194  1
  F  F35  1  0.277123  0.005126  0.725169  1
  F  F36  1  0.505218  0.774362  0.719571  1
  F  F37  1  0.273752  0.778998  0.497509  1
