# generated using pymatgen
data_Pr5HfRhO12
_symmetry_space_group_name_H-M   'P 1'
_cell_length_a   7.15299975
_cell_length_b   7.15300035
_cell_length_c   7.76358800
_cell_angle_alpha   74.33350262
_cell_angle_beta   74.33349579
_cell_angle_gamma   50.64615474
_symmetry_Int_Tables_number   1
_chemical_formula_structural   Pr5HfRhO12
_chemical_formula_sum   'Pr5 Hf1 Rh1 O12'
_cell_volume   293.12709340
_cell_formula_units_Z   1
loop_
 _symmetry_equiv_pos_site_id
 _symmetry_equiv_pos_as_xyz
  1  'x, y, z'
loop_
 _atom_site_type_symbol
 _atom_site_label
 _atom_site_symmetry_multiplicity
 _atom_site_fract_x
 _atom_site_fract_y
 _atom_site_fract_z
 _atom_site_occupancy
  Pr  Pr0  1  0.304128  0.306238  0.359511  1
  Pr  Pr1  1  0.693762  0.695872  0.640489  1
  Pr  Pr2  1  0.684116  0.699070  0.169383  1
  Pr  Pr3  1  0.300930  0.315884  0.830617  1
  Pr  Pr4  1  0.006008  0.993992  0.500000  1
  Hf  Hf5  1  0.773223  0.226777  0.000000  1
  Rh  Rh6  1  0.251591  0.748409  0.000000  1
  O  O7  1  0.092616  0.597505  0.574946  1
  O  O8  1  0.012496  0.986636  0.185461  1
  O  O9  1  0.402495  0.907384  0.425054  1
  O  O10  1  0.499721  0.501611  0.179218  1
  O  O11  1  0.100239  0.587674  0.079619  1
  O  O12  1  0.902424  0.408377  0.420513  1
  O  O13  1  0.013364  0.987504  0.814539  1
  O  O14  1  0.591623  0.097575  0.579487  1
  O  O15  1  0.498389  0.500279  0.820782  1
  O  O16  1  0.564451  0.103901  0.080948  1
  O  O17  1  0.412326  0.899761  0.920381  1
  O  O18  1  0.896099  0.435549  0.919052  1
