# generated using pymatgen
data_La2MnSi4Tc
_symmetry_space_group_name_H-M   'P 1'
_cell_length_a   9.07936376
_cell_length_b   9.07936454
_cell_length_c   4.08633300
_cell_angle_alpha   90.00000000
_cell_angle_beta   90.00000000
_cell_angle_gamma   152.84066056
_symmetry_Int_Tables_number   1
_chemical_formula_structural   La2MnSi4Tc
_chemical_formula_sum   'La2 Mn1 Si4 Tc1'
_cell_volume   153.76364195
_cell_formula_units_Z   1
loop_
 _symmetry_equiv_pos_site_id
 _symmetry_equiv_pos_as_xyz
  1  'x, y, z'
loop_
 _atom_site_type_symbol
 _atom_site_label
 _atom_site_symmetry_multiplicity
 _atom_site_fract_x
 _atom_site_fract_y
 _atom_site_fract_z
 _atom_site_occupancy
  La  La0  1  0.101033  0.898967  0.250000  1
  La  La1  1  0.898347  0.101653  0.750000  1
  Mn  Mn2  1  0.751346  0.248654  0.250000  1
  Si  Si3  1  0.320135  0.679865  0.250000  1
  Si  Si4  1  0.680292  0.319708  0.750000  1
  Si  Si5  1  0.536151  0.463849  0.750000  1
  Si  Si6  1  0.463746  0.536254  0.250000  1
  Tc  Tc7  1  0.248950  0.751050  0.750000  1
