# generated using pymatgen
data_Tb6Dy2Sc12Si15Ir
_symmetry_space_group_name_H-M   'P 1'
_cell_length_a   7.10005647
_cell_length_b   7.45017825
_cell_length_c   13.99868923
_cell_angle_alpha   89.98021243
_cell_angle_beta   89.99391309
_cell_angle_gamma   90.19378007
_symmetry_Int_Tables_number   1
_chemical_formula_structural   Tb6Dy2Sc12Si15Ir
_chemical_formula_sum   'Tb6 Dy2 Sc12 Si15 Ir1'
_cell_volume   740.47998899
_cell_formula_units_Z   1
loop_
 _symmetry_equiv_pos_site_id
 _symmetry_equiv_pos_as_xyz
  1  'x, y, z'
loop_
 _atom_site_type_symbol
 _atom_site_label
 _atom_site_symmetry_multiplicity
 _atom_site_fract_x
 _atom_site_fract_y
 _atom_site_fract_z
 _atom_site_occupancy
  Tb  Tb0  1  0.488461  0.676269  0.904206  1
  Tb  Tb1  1  0.990749  0.825835  0.596191  1
  Tb  Tb2  1  0.511257  0.323642  0.096603  1
  Tb  Tb3  1  0.011534  0.178167  0.403485  1
  Tb  Tb4  1  0.511125  0.323674  0.403305  1
  Tb  Tb5  1  0.488565  0.676236  0.595923  1
  Dy  Dy6  1  0.011595  0.178382  0.096609  1
  Dy  Dy7  1  0.990738  0.825731  0.903651  1
  Sc  Sc8  1  0.156721  0.498329  0.750007  1
  Sc  Sc9  1  0.838182  0.496598  0.249972  1
  Sc  Sc10  1  0.338922  0.004221  0.249967  1
  Sc  Sc11  1  0.668872  0.999177  0.750054  1
  Sc  Sc12  1  0.320942  0.172908  0.626775  1
  Sc  Sc13  1  0.671441  0.825212  0.373718  1
  Sc  Sc14  1  0.170997  0.677508  0.374158  1
  Sc  Sc15  1  0.671460  0.825303  0.126193  1
  Sc  Sc16  1  0.835021  0.320311  0.626818  1
  Sc  Sc17  1  0.320652  0.172734  0.873279  1
  Sc  Sc18  1  0.835154  0.320174  0.873231  1
  Sc  Sc19  1  0.170919  0.677622  0.125749  1
  Si  Si20  1  0.968755  0.883676  0.249881  1
  Si  Si21  1  0.467941  0.615822  0.249965  1
  Si  Si22  1  0.530583  0.388025  0.750056  1
  Si  Si23  1  0.286543  0.869626  0.750166  1
  Si  Si24  1  0.713367  0.128443  0.249821  1
  Si  Si25  1  0.212843  0.372406  0.249823  1
  Si  Si26  1  0.779595  0.625263  0.750146  1
  Si  Si27  1  0.158803  0.467695  0.537495  1
  Si  Si28  1  0.843848  0.536111  0.461266  1
  Si  Si29  1  0.345730  0.965616  0.460290  1
  Si  Si30  1  0.844050  0.536095  0.038743  1
  Si  Si31  1  0.655955  0.034335  0.538211  1
  Si  Si32  1  0.158639  0.467737  0.962537  1
  Si  Si33  1  0.656444  0.034097  0.961744  1
  Si  Si34  1  0.345194  0.965841  0.039759  1
  Ir  Ir35  1  0.028402  0.111179  0.750204  1
