# generated using pymatgen
data_Sc11FeOs2Pd
_symmetry_space_group_name_H-M   'P 1'
_cell_length_a   9.35872219
_cell_length_b   9.36729431
_cell_length_c   9.36729400
_cell_angle_alpha   60.55648265
_cell_angle_beta   60.75620591
_cell_angle_gamma   60.75620373
_symmetry_Int_Tables_number   1
_chemical_formula_structural   Sc11FeOs2Pd
_chemical_formula_sum   'Sc22 Fe2 Os4 Pd2'
_cell_volume   589.70478632
_cell_formula_units_Z   2
loop_
 _symmetry_equiv_pos_site_id
 _symmetry_equiv_pos_as_xyz
  1  'x, y, z'
loop_
 _atom_site_type_symbol
 _atom_site_label
 _atom_site_symmetry_multiplicity
 _atom_site_fract_x
 _atom_site_fract_y
 _atom_site_fract_z
 _atom_site_occupancy
  Sc  Sc0  1  0.805029  0.809412  0.193865  1
  Sc  Sc1  1  0.194971  0.806135  0.190588  1
  Sc  Sc2  1  0.804618  0.192231  0.192231  1
  Sc  Sc3  1  0.194971  0.190588  0.806135  1
  Sc  Sc4  1  0.805029  0.193865  0.809412  1
  Sc  Sc5  1  0.195382  0.807769  0.807769  1
  Sc  Sc6  1  0.605810  0.616050  0.157414  1
  Sc  Sc7  1  0.605810  0.157414  0.616050  1
  Sc  Sc8  1  0.159768  0.608647  0.608647  1
  Sc  Sc9  1  0.614235  0.616766  0.616766  1
  Sc  Sc10  1  0.394190  0.383950  0.842586  1
  Sc  Sc11  1  0.394190  0.842586  0.383950  1
  Sc  Sc12  1  0.840232  0.391353  0.391353  1
  Sc  Sc13  1  0.385765  0.383234  0.383234  1
  Sc  Sc14  1  0.840959  0.840729  0.471893  1
  Sc  Sc15  1  0.840959  0.471893  0.840729  1
  Sc  Sc16  1  0.471880  0.843192  0.843192  1
  Sc  Sc17  1  0.835831  0.844412  0.844412  1
  Sc  Sc18  1  0.159041  0.159271  0.528107  1
  Sc  Sc19  1  0.159041  0.528107  0.159271  1
  Sc  Sc20  1  0.528120  0.156808  0.156808  1
  Sc  Sc21  1  0.164169  0.155588  0.155588  1
  Fe  Fe22  1  0.000000  0.000000  0.000000  1
  Fe  Fe23  1  0.500000  0.500000  0.500000  1
  Os  Os24  1  0.500000  0.000000  0.500000  1
  Os  Os25  1  0.000000  0.500000  0.500000  1
  Os  Os26  1  0.500000  0.500000  0.000000  1
  Os  Os27  1  0.500000  0.000000  0.000000  1
  Pd  Pd28  1  0.000000  0.000000  0.500000  1
  Pd  Pd29  1  0.000000  0.500000  0.000000  1
