# generated using pymatgen
data_Tb2ErFe7Co2
_symmetry_space_group_name_H-M   'P 1'
_cell_length_a   8.66250686
_cell_length_b   8.66250612
_cell_length_c   8.66065508
_cell_angle_alpha   34.21075726
_cell_angle_beta   34.21076513
_cell_angle_gamma   34.28594443
_symmetry_Int_Tables_number   1
_chemical_formula_structural   Tb2ErFe7Co2
_chemical_formula_sum   'Tb2 Er1 Fe7 Co2'
_cell_volume   183.42919751
_cell_formula_units_Z   1
loop_
 _symmetry_equiv_pos_site_id
 _symmetry_equiv_pos_as_xyz
  1  'x, y, z'
loop_
 _atom_site_type_symbol
 _atom_site_label
 _atom_site_symmetry_multiplicity
 _atom_site_fract_x
 _atom_site_fract_y
 _atom_site_fract_z
 _atom_site_occupancy
  Tb  Tb0  1  0.143346  0.143346  0.141458  1
  Tb  Tb1  1  0.999837  0.999837  0.999844  1
  Er  Er2  1  0.858915  0.858915  0.858922  1
  Fe  Fe3  1  0.916946  0.418010  0.418869  1
  Fe  Fe4  1  0.581505  0.081942  0.581499  1
  Fe  Fe5  1  0.582087  0.582087  0.081461  1
  Fe  Fe6  1  0.418010  0.916946  0.418869  1
  Fe  Fe7  1  0.081942  0.581505  0.581499  1
  Fe  Fe8  1  0.332846  0.332846  0.331981  1
  Fe  Fe9  1  0.666624  0.666624  0.668046  1
  Co  Co10  1  0.418046  0.418046  0.918539  1
  Co  Co11  1  0.499893  0.499893  0.499012  1
