# generated using pymatgen
data_Tb2Ce2DyAgSn3
_symmetry_space_group_name_H-M   'P 1'
_cell_length_a   6.41876100
_cell_length_b   9.43325070
_cell_length_c   9.43324900
_cell_angle_alpha   120.01713282
_cell_angle_beta   90.00000000
_cell_angle_gamma   90.00000000
_symmetry_Int_Tables_number   1
_chemical_formula_structural   Tb2Ce2DyAgSn3
_chemical_formula_sum   'Tb4 Ce4 Dy2 Ag2 Sn6'
_cell_volume   494.57198096
_cell_formula_units_Z   2
loop_
 _symmetry_equiv_pos_site_id
 _symmetry_equiv_pos_as_xyz
  1  'x, y, z'
loop_
 _atom_site_type_symbol
 _atom_site_label
 _atom_site_symmetry_multiplicity
 _atom_site_fract_x
 _atom_site_fract_y
 _atom_site_fract_z
 _atom_site_occupancy
  Tb  Tb0  1  0.750000  0.999996  0.278207  1
  Tb  Tb1  1  0.250000  0.000004  0.721793  1
  Tb  Tb2  1  0.750000  0.278207  0.999996  1
  Tb  Tb3  1  0.250000  0.721793  0.000004  1
  Ce  Ce4  1  0.000000  0.666367  0.333633  1
  Ce  Ce5  1  0.000000  0.333633  0.666367  1
  Ce  Ce6  1  0.500000  0.333633  0.666367  1
  Ce  Ce7  1  0.500000  0.666367  0.333633  1
  Dy  Dy8  1  0.750000  0.722570  0.722570  1
  Dy  Dy9  1  0.250000  0.277430  0.277430  1
  Ag  Ag10  1  0.000000  0.000000  0.000000  1
  Ag  Ag11  1  0.500000  0.000000  0.000000  1
  Sn  Sn12  1  0.750000  0.373866  0.373866  1
  Sn  Sn13  1  0.250000  0.626134  0.626134  1
  Sn  Sn14  1  0.750000  0.999857  0.626360  1
  Sn  Sn15  1  0.250000  0.000143  0.373640  1
  Sn  Sn16  1  0.750000  0.626360  0.999857  1
  Sn  Sn17  1  0.250000  0.373640  0.000143  1
