# generated using pymatgen
data_Tb3Ce(Hf3Si4)2
_symmetry_space_group_name_H-M   'P 1'
_cell_length_a   7.31440101
_cell_length_b   7.31068701
_cell_length_c   13.38191900
_cell_angle_alpha   90.00000000
_cell_angle_beta   90.00000000
_cell_angle_gamma   90.00448961
_symmetry_Int_Tables_number   1
_chemical_formula_structural   Tb3Ce(Hf3Si4)2
_chemical_formula_sum   'Tb6 Ce2 Hf12 Si16'
_cell_volume   715.57531870
_cell_formula_units_Z   2
loop_
 _symmetry_equiv_pos_site_id
 _symmetry_equiv_pos_as_xyz
  1  'x, y, z'
loop_
 _atom_site_type_symbol
 _atom_site_label
 _atom_site_symmetry_multiplicity
 _atom_site_fract_x
 _atom_site_fract_y
 _atom_site_fract_z
 _atom_site_occupancy
  Tb  Tb0  1  0.155451  0.496333  0.466013  1
  Tb  Tb1  1  0.503386  0.844834  0.034726  1
  Tb  Tb2  1  0.844549  0.503667  0.966013  1
  Tb  Tb3  1  0.496614  0.155166  0.534726  1
  Tb  Tb4  1  0.343924  0.994752  0.784988  1
  Tb  Tb5  1  0.656076  0.005248  0.284988  1
  Ce  Ce6  1  0.994802  0.343966  0.214285  1
  Ce  Ce7  1  0.005198  0.656034  0.714285  1
  Hf  Hf8  1  0.173976  0.174354  0.000626  1
  Hf  Hf9  1  0.826024  0.825646  0.500626  1
  Hf  Hf10  1  0.323976  0.673117  0.250221  1
  Hf  Hf11  1  0.676024  0.326883  0.750221  1
  Hf  Hf12  1  0.150173  0.998981  0.374329  1
  Hf  Hf13  1  0.849827  0.001019  0.874329  1
  Hf  Hf14  1  0.503565  0.648281  0.624130  1
  Hf  Hf15  1  0.350359  0.496177  0.875098  1
  Hf  Hf16  1  0.496435  0.351719  0.124130  1
  Hf  Hf17  1  0.649641  0.503823  0.375098  1
  Hf  Hf18  1  0.996856  0.148639  0.625761  1
  Hf  Hf19  1  0.003144  0.851361  0.125761  1
  Si  Si20  1  0.362344  0.295911  0.317027  1
  Si  Si21  1  0.637656  0.704089  0.817027  1
  Si  Si22  1  0.205870  0.863479  0.565801  1
  Si  Si23  1  0.138129  0.795317  0.933844  1
  Si  Si24  1  0.794130  0.136521  0.065801  1
  Si  Si25  1  0.861871  0.204683  0.433844  1
  Si  Si26  1  0.295898  0.360657  0.683030  1
  Si  Si27  1  0.704102  0.639343  0.183030  1
  Si  Si28  1  0.296113  0.047650  0.186586  1
  Si  Si29  1  0.703887  0.952350  0.686586  1
  Si  Si30  1  0.452195  0.796106  0.435371  1
  Si  Si31  1  0.205429  0.549448  0.063171  1
  Si  Si32  1  0.547805  0.203894  0.935371  1
  Si  Si33  1  0.794571  0.450552  0.563171  1
  Si  Si34  1  0.047565  0.295019  0.814993  1
  Si  Si35  1  0.952435  0.704981  0.314993  1
