# generated using pymatgen
data_Y4Lu4Tc(B8Ru)3
_symmetry_space_group_name_H-M   'P 1'
_cell_length_a   3.63170800
_cell_length_b   9.07971645
_cell_length_c   11.47884705
_cell_angle_alpha   89.92283421
_cell_angle_beta   90.00000000
_cell_angle_gamma   90.00000000
_symmetry_Int_Tables_number   1
_chemical_formula_structural   Y4Lu4Tc(B8Ru)3
_chemical_formula_sum   'Y4 Lu4 Tc1 B24 Ru3'
_cell_volume   378.51324791
_cell_formula_units_Z   1
loop_
 _symmetry_equiv_pos_site_id
 _symmetry_equiv_pos_as_xyz
  1  'x, y, z'
loop_
 _atom_site_type_symbol
 _atom_site_label
 _atom_site_symmetry_multiplicity
 _atom_site_fract_x
 _atom_site_fract_y
 _atom_site_fract_z
 _atom_site_occupancy
  Y  Y0  1  0.000000  0.323197  0.413270  1
  Y  Y1  1  0.000000  0.678077  0.583542  1
  Y  Y2  1  0.000000  0.819726  0.087747  1
  Y  Y3  1  0.000000  0.177869  0.914975  1
  Lu  Lu4  1  0.000000  0.943295  0.372354  1
  Lu  Lu5  1  0.000000  0.057048  0.628068  1
  Lu  Lu6  1  0.000000  0.444372  0.128214  1
  Lu  Lu7  1  0.000000  0.556602  0.871551  1
  Tc  Tc8  1  0.000000  0.638521  0.320051  1
  B  B9  1  0.500000  0.553480  0.432768  1
  B  B10  1  0.500000  0.445752  0.567815  1
  B  B11  1  0.500000  0.054248  0.067506  1
  B  B12  1  0.500000  0.945507  0.932784  1
  B  B13  1  0.500000  0.750067  0.418880  1
  B  B14  1  0.500000  0.250309  0.581159  1
  B  B15  1  0.500000  0.249799  0.080838  1
  B  B16  1  0.500000  0.750041  0.918977  1
  B  B17  1  0.500000  0.792334  0.265973  1
  B  B18  1  0.500000  0.208246  0.734113  1
  B  B19  1  0.500000  0.291631  0.233356  1
  B  B20  1  0.500000  0.708678  0.765857  1
  B  B21  1  0.500000  0.630279  0.184883  1
  B  B22  1  0.500000  0.369406  0.815568  1
  B  B23  1  0.500000  0.130424  0.314987  1
  B  B24  1  0.500000  0.870044  0.684585  1
  B  B25  1  0.500000  0.982726  0.213415  1
  B  B26  1  0.500000  0.017244  0.787006  1
  B  B27  1  0.500000  0.481795  0.286539  1
  B  B28  1  0.500000  0.517127  0.713458  1
  B  B29  1  0.500000  0.603264  0.027820  1
  B  B30  1  0.500000  0.396245  0.971164  1
  B  B31  1  0.500000  0.104143  0.471686  1
  B  B32  1  0.500000  0.897464  0.528901  1
  Ru  Ru33  1  0.000000  0.361035  0.680651  1
  Ru  Ru34  1  0.000000  0.138549  0.179606  1
  Ru  Ru35  1  0.000000  0.861455  0.819928  1
