# generated using pymatgen
data_LaTh3(SnH4)2
_symmetry_space_group_name_H-M   'P 1'
_cell_length_a   6.42924444
_cell_length_b   6.42924534
_cell_length_c   6.41737691
_cell_angle_alpha   105.55144032
_cell_angle_beta   105.55145828
_cell_angle_gamma   117.69613834
_symmetry_Int_Tables_number   1
_chemical_formula_structural   LaTh3(SnH4)2
_chemical_formula_sum   'La1 Th3 Sn2 H8'
_cell_volume   200.86623806
_cell_formula_units_Z   1
loop_
 _symmetry_equiv_pos_site_id
 _symmetry_equiv_pos_as_xyz
  1  'x, y, z'
loop_
 _atom_site_type_symbol
 _atom_site_label
 _atom_site_symmetry_multiplicity
 _atom_site_fract_x
 _atom_site_fract_y
 _atom_site_fract_z
 _atom_site_occupancy
  La  La0  1  0.836996  0.663004  0.500000  1
  Th  Th1  1  0.660385  0.161379  0.821765  1
  Th  Th2  1  0.160419  0.339581  0.500000  1
  Th  Th3  1  0.338621  0.839615  0.178235  1
  Sn  Sn4  1  0.750278  0.749722  0.000000  1
  Sn  Sn5  1  0.250278  0.249722  0.000000  1
  H  H6  1  0.228268  0.977359  0.500000  1
  H  H7  1  0.464967  0.727132  0.500000  1
  H  H8  1  0.719698  0.212558  0.237631  1
  H  H9  1  0.982067  0.474928  0.762369  1
  H  H10  1  0.287442  0.780302  0.762369  1
  H  H11  1  0.522641  0.271732  0.500000  1
  H  H12  1  0.025072  0.517933  0.237631  1
  H  H13  1  0.772868  0.035033  0.500000  1
