# generated using pymatgen
data_Yb2DyTm5(B6Ru)4
_symmetry_space_group_name_H-M   'P 1'
_cell_length_a   3.62491200
_cell_length_b   9.09409970
_cell_length_c   11.48282901
_cell_angle_alpha   89.84841585
_cell_angle_beta   90.00000000
_cell_angle_gamma   90.00000000
_symmetry_Int_Tables_number   1
_chemical_formula_structural   Yb2DyTm5(B6Ru)4
_chemical_formula_sum   'Yb2 Dy1 Tm5 B24 Ru4'
_cell_volume   378.53370596
_cell_formula_units_Z   1
loop_
 _symmetry_equiv_pos_site_id
 _symmetry_equiv_pos_as_xyz
  1  'x, y, z'
loop_
 _atom_site_type_symbol
 _atom_site_label
 _atom_site_symmetry_multiplicity
 _atom_site_fract_x
 _atom_site_fract_y
 _atom_site_fract_z
 _atom_site_occupancy
  Yb  Yb0  1  0.000000  0.324607  0.414953  1
  Yb  Yb1  1  0.000000  0.675365  0.585111  1
  Dy  Dy2  1  0.000000  0.822164  0.086007  1
  Tm  Tm3  1  0.000000  0.178020  0.913949  1
  Tm  Tm4  1  0.000000  0.941944  0.369891  1
  Tm  Tm5  1  0.000000  0.058201  0.630194  1
  Tm  Tm6  1  0.000000  0.442436  0.130637  1
  Tm  Tm7  1  0.000000  0.557209  0.869217  1
  B  B8  1  0.500000  0.554202  0.432336  1
  B  B9  1  0.500000  0.445630  0.567817  1
  B  B10  1  0.500000  0.054266  0.066347  1
  B  B11  1  0.500000  0.946638  0.933124  1
  B  B12  1  0.500000  0.748542  0.417823  1
  B  B13  1  0.500000  0.251456  0.582389  1
  B  B14  1  0.500000  0.248924  0.080717  1
  B  B15  1  0.500000  0.751137  0.918483  1
  B  B16  1  0.500000  0.791347  0.264562  1
  B  B17  1  0.500000  0.208330  0.736034  1
  B  B18  1  0.500000  0.290377  0.234402  1
  B  B19  1  0.500000  0.709678  0.765403  1
  B  B20  1  0.500000  0.630737  0.184801  1
  B  B21  1  0.500000  0.368671  0.815600  1
  B  B22  1  0.500000  0.130539  0.314286  1
  B  B23  1  0.500000  0.869711  0.685726  1
  B  B24  1  0.500000  0.983183  0.211754  1
  B  B25  1  0.500000  0.017690  0.788437  1
  B  B26  1  0.500000  0.483334  0.287880  1
  B  B27  1  0.500000  0.516386  0.712189  1
  B  B28  1  0.500000  0.601930  0.027935  1
  B  B29  1  0.500000  0.397065  0.971768  1
  B  B30  1  0.500000  0.099068  0.472761  1
  B  B31  1  0.500000  0.901030  0.527332  1
  Ru  Ru32  1  0.000000  0.640004  0.318608  1
  Ru  Ru33  1  0.000000  0.359611  0.681786  1
  Ru  Ru34  1  0.000000  0.137429  0.178131  1
  Ru  Ru35  1  0.000000  0.863138  0.821611  1
