# generated using pymatgen
data_Tb14Nd2MgHg3Rh4
_symmetry_space_group_name_H-M   'P 1'
_cell_length_a   9.68175843
_cell_length_b   9.68423960
_cell_length_c   9.69554800
_cell_angle_alpha   59.96136488
_cell_angle_beta   59.95287388
_cell_angle_gamma   59.88952508
_symmetry_Int_Tables_number   1
_chemical_formula_structural   Tb14Nd2MgHg3Rh4
_chemical_formula_sum   'Tb14 Nd2 Mg1 Hg3 Rh4'
_cell_volume   641.84756407
_cell_formula_units_Z   1
loop_
 _symmetry_equiv_pos_site_id
 _symmetry_equiv_pos_as_xyz
  1  'x, y, z'
loop_
 _atom_site_type_symbol
 _atom_site_label
 _atom_site_symmetry_multiplicity
 _atom_site_fract_x
 _atom_site_fract_y
 _atom_site_fract_z
 _atom_site_occupancy
  Tb  Tb0  1  0.599652  0.598694  0.596934  1
  Tb  Tb1  1  0.599652  0.598694  0.204721  1
  Tb  Tb2  1  0.601255  0.203237  0.597755  1
  Tb  Tb3  1  0.193021  0.602236  0.602372  1
  Tb  Tb4  1  0.058678  0.439481  0.440932  1
  Tb  Tb5  1  0.435212  0.062631  0.063694  1
  Tb  Tb6  1  0.435212  0.062631  0.438462  1
  Tb  Tb7  1  0.058678  0.439481  0.060909  1
  Tb  Tb8  1  0.436927  0.439126  0.061973  1
  Tb  Tb9  1  0.057961  0.059509  0.441265  1
  Tb  Tb10  1  0.188259  0.810834  0.811638  1
  Tb  Tb11  1  0.810048  0.189479  0.187853  1
  Tb  Tb12  1  0.810048  0.189479  0.812620  1
  Tb  Tb13  1  0.188259  0.810834  0.189268  1
  Nd  Nd14  1  0.813627  0.815753  0.185311  1
  Nd  Nd15  1  0.186979  0.183554  0.814733  1
  Mg  Mg16  1  0.535477  0.820075  0.822224  1
  Hg  Hg17  1  0.833334  0.837816  0.833769  1
  Hg  Hg18  1  0.833334  0.837816  0.495083  1
  Hg  Hg19  1  0.829728  0.494021  0.838127  1
  Rh  Rh20  1  0.391550  0.395168  0.389990  1
  Rh  Rh21  1  0.391550  0.395168  0.823290  1
  Rh  Rh22  1  0.388268  0.823235  0.394248  1
  Rh  Rh23  1  0.823291  0.391050  0.392829  1
