# generated using pymatgen
data_Dy4Tm16ZnBi11
_symmetry_space_group_name_H-M   'P 1'
_cell_length_a   8.17037994
_cell_length_b   9.41512900
_cell_length_c   11.90640300
_cell_angle_alpha   90.00000000
_cell_angle_beta   90.02744039
_cell_angle_gamma   90.00000000
_symmetry_Int_Tables_number   1
_chemical_formula_structural   Dy4Tm16ZnBi11
_chemical_formula_sum   'Dy4 Tm16 Zn1 Bi11'
_cell_volume   915.90210182
_cell_formula_units_Z   1
loop_
 _symmetry_equiv_pos_site_id
 _symmetry_equiv_pos_as_xyz
  1  'x, y, z'
loop_
 _atom_site_type_symbol
 _atom_site_label
 _atom_site_symmetry_multiplicity
 _atom_site_fract_x
 _atom_site_fract_y
 _atom_site_fract_z
 _atom_site_occupancy
  Dy  Dy0  1  0.313988  0.250000  0.218899  1
  Dy  Dy1  1  0.811834  0.250000  0.282761  1
  Dy  Dy2  1  0.674718  0.750000  0.788804  1
  Dy  Dy3  1  0.189250  0.750000  0.720212  1
  Tm  Tm4  1  0.355328  0.750000  0.205219  1
  Tm  Tm5  1  0.852104  0.750000  0.283476  1
  Tm  Tm6  1  0.648755  0.250000  0.783137  1
  Tm  Tm7  1  0.150324  0.250000  0.717566  1
  Tm  Tm8  1  0.681748  0.572292  0.055274  1
  Tm  Tm9  1  0.192803  0.933956  0.438612  1
  Tm  Tm10  1  0.310231  0.047264  0.941013  1
  Tm  Tm11  1  0.807245  0.434220  0.559887  1
  Tm  Tm12  1  0.310231  0.452736  0.941013  1
  Tm  Tm13  1  0.807245  0.065780  0.559887  1
  Tm  Tm14  1  0.681748  0.927708  0.055274  1
  Tm  Tm15  1  0.192803  0.566044  0.438612  1
  Tm  Tm16  1  0.476852  0.250000  0.489664  1
  Tm  Tm17  1  0.981317  0.250000  0.010224  1
  Tm  Tm18  1  0.523434  0.750000  0.510810  1
  Tm  Tm19  1  0.036060  0.750000  0.990735  1
  Zn  Zn20  1  0.406524  0.750000  0.961986  1
  Bi  Bi21  1  0.904835  0.750000  0.543591  1
  Bi  Bi22  1  0.596031  0.250000  0.041422  1
  Bi  Bi23  1  0.096023  0.250000  0.458653  1
  Bi  Bi24  1  0.564142  0.994613  0.326441  1
  Bi  Bi25  1  0.063090  0.504319  0.175153  1
  Bi  Bi26  1  0.436020  0.495676  0.674824  1
  Bi  Bi27  1  0.936033  0.004011  0.825217  1
  Bi  Bi28  1  0.436020  0.004324  0.674824  1
  Bi  Bi29  1  0.936033  0.495989  0.825217  1
  Bi  Bi30  1  0.564142  0.505387  0.326441  1
  Bi  Bi31  1  0.063090  0.995681  0.175153  1
