# generated using pymatgen
data_LaTb2Zn2Co9B4
_symmetry_space_group_name_H-M   'P 1'
_cell_length_a   5.13688477
_cell_length_b   5.13754991
_cell_length_c   9.69798000
_cell_angle_alpha   89.99997308
_cell_angle_beta   90.00002224
_cell_angle_gamma   119.90974828
_symmetry_Int_Tables_number   1
_chemical_formula_structural   LaTb2Zn2Co9B4
_chemical_formula_sum   'La1 Tb2 Zn2 Co9 B4'
_cell_volume   221.85133135
_cell_formula_units_Z   1
loop_
 _symmetry_equiv_pos_site_id
 _symmetry_equiv_pos_as_xyz
  1  'x, y, z'
loop_
 _atom_site_type_symbol
 _atom_site_label
 _atom_site_symmetry_multiplicity
 _atom_site_fract_x
 _atom_site_fract_y
 _atom_site_fract_z
 _atom_site_occupancy
  La  La0  1  0.999987  0.999994  0.000029  1
  Tb  Tb1  1  0.999996  0.000001  0.343504  1
  Tb  Tb2  1  0.999997  0.000000  0.656628  1
  Zn  Zn3  1  0.333475  0.666499  0.999949  1
  Zn  Zn4  1  0.666506  0.333496  0.999949  1
  Co  Co5  1  0.499997  0.000001  0.500002  1
  Co  Co6  1  0.499995  0.500001  0.500002  1
  Co  Co7  1  0.999996  0.500001  0.500002  1
  Co  Co8  1  0.499994  0.000000  0.213946  1
  Co  Co9  1  0.499993  0.500000  0.213820  1
  Co  Co10  1  0.999995  0.500000  0.213941  1
  Co  Co11  1  0.499997  0.000001  0.786001  1
  Co  Co12  1  0.499996  0.500001  0.786118  1
  Co  Co13  1  0.999996  0.500001  0.786018  1
  B  B14  1  0.333438  0.666595  0.352569  1
  B  B15  1  0.666552  0.333407  0.352569  1
  B  B16  1  0.666695  0.333417  0.647479  1
  B  B17  1  0.333297  0.666586  0.647479  1
