# generated using pymatgen
data_Cs3RbBa2TiAs4
_symmetry_space_group_name_H-M   'P 1'
_cell_length_a   11.06074019
_cell_length_b   11.06074174
_cell_length_c   8.14605449
_cell_angle_alpha   87.97806558
_cell_angle_beta   87.97805855
_cell_angle_gamma   119.61908813
_symmetry_Int_Tables_number   1
_chemical_formula_structural   Cs3RbBa2TiAs4
_chemical_formula_sum   'Cs6 Rb2 Ba4 Ti2 As8'
_cell_volume   864.22938666
_cell_formula_units_Z   2
loop_
 _symmetry_equiv_pos_site_id
 _symmetry_equiv_pos_as_xyz
  1  'x, y, z'
loop_
 _atom_site_type_symbol
 _atom_site_label
 _atom_site_symmetry_multiplicity
 _atom_site_fract_x
 _atom_site_fract_y
 _atom_site_fract_z
 _atom_site_occupancy
  Cs  Cs0  1  0.868961  0.723552  0.157202  1
  Cs  Cs1  1  0.256974  0.121660  0.241413  1
  Cs  Cs2  1  0.855546  0.142283  0.189734  1
  Cs  Cs3  1  0.121660  0.256974  0.741413  1
  Cs  Cs4  1  0.723552  0.868961  0.657202  1
  Cs  Cs5  1  0.142283  0.855546  0.689734  1
  Rb  Rb6  1  0.474737  0.941144  0.386533  1
  Rb  Rb7  1  0.941144  0.474737  0.886533  1
  Ba  Ba8  1  0.071344  0.534317  0.398485  1
  Ba  Ba9  1  0.477614  0.532466  0.377971  1
  Ba  Ba10  1  0.534317  0.071344  0.898485  1
  Ba  Ba11  1  0.532466  0.477614  0.877971  1
  Ti  Ti12  1  0.664130  0.336574  0.491927  1
  Ti  Ti13  1  0.336574  0.664130  0.991927  1
  As  As14  1  0.639032  0.329767  0.180259  1
  As  As15  1  0.329767  0.639032  0.680259  1
  As  As16  1  0.219068  0.422172  0.128699  1
  As  As17  1  0.585714  0.788604  0.071890  1
  As  As18  1  0.220648  0.793503  0.093553  1
  As  As19  1  0.788604  0.585714  0.571890  1
  As  As20  1  0.422172  0.219068  0.628699  1
  As  As21  1  0.793503  0.220648  0.593553  1
