# generated using pymatgen
data_CeTh3Re2(TcB3)4
_symmetry_space_group_name_H-M   'P 1'
_cell_length_a   6.34133674
_cell_length_b   6.32077623
_cell_length_c   7.62633627
_cell_angle_alpha   90.81027703
_cell_angle_beta   90.80892924
_cell_angle_gamma   114.86625974
_symmetry_Int_Tables_number   1
_chemical_formula_structural   CeTh3Re2(TcB3)4
_chemical_formula_sum   'Ce1 Th3 Re2 Tc4 B12'
_cell_volume   277.24548988
_cell_formula_units_Z   1
loop_
 _symmetry_equiv_pos_site_id
 _symmetry_equiv_pos_as_xyz
  1  'x, y, z'
loop_
 _atom_site_type_symbol
 _atom_site_label
 _atom_site_symmetry_multiplicity
 _atom_site_fract_x
 _atom_site_fract_y
 _atom_site_fract_z
 _atom_site_occupancy
  Ce  Ce0  1  0.443139  0.099391  0.826920  1
  Th  Th1  1  0.096643  0.438339  0.326436  1
  Th  Th2  1  0.558249  0.906592  0.169588  1
  Th  Th3  1  0.904033  0.560256  0.674814  1
  Re  Re4  1  0.010067  0.194242  0.912366  1
  Re  Re5  1  0.803661  0.992479  0.587791  1
  Tc  Tc6  1  0.588945  0.411779  0.250044  1
  Tc  Tc7  1  0.411019  0.589656  0.750467  1
  Tc  Tc8  1  0.990941  0.804216  0.086770  1
  Tc  Tc9  1  0.194303  0.008538  0.413214  1
  B  B10  1  0.247289  0.153180  0.130392  1
  B  B11  1  0.844997  0.755740  0.367108  1
  B  B12  1  0.752768  0.845952  0.864685  1
  B  B13  1  0.155289  0.245022  0.636050  1
  B  B14  1  0.580729  0.159486  0.484926  1
  B  B15  1  0.839642  0.415036  0.017286  1
  B  B16  1  0.416768  0.840368  0.518210  1
  B  B17  1  0.160891  0.582625  0.982820  1
  B  B18  1  0.443385  0.348914  0.535275  1
  B  B19  1  0.650487  0.554800  0.965990  1
  B  B20  1  0.555454  0.650241  0.466177  1
  B  B21  1  0.351301  0.443150  0.032671  1
