# generated using pymatgen
data_Ho2Tm2MnB12Ru
_symmetry_space_group_name_H-M   'P 1'
_cell_length_a   3.58448800
_cell_length_b   9.06614337
_cell_length_c   11.44831804
_cell_angle_alpha   89.97869984
_cell_angle_beta   90.00000000
_cell_angle_gamma   90.00000000
_symmetry_Int_Tables_number   1
_chemical_formula_structural   Ho2Tm2MnB12Ru
_chemical_formula_sum   'Ho4 Tm4 Mn2 B24 Ru2'
_cell_volume   372.04148527
_cell_formula_units_Z   2
loop_
 _symmetry_equiv_pos_site_id
 _symmetry_equiv_pos_as_xyz
  1  'x, y, z'
loop_
 _atom_site_type_symbol
 _atom_site_label
 _atom_site_symmetry_multiplicity
 _atom_site_fract_x
 _atom_site_fract_y
 _atom_site_fract_z
 _atom_site_occupancy
  Ho  Ho0  1  0.000000  0.326289  0.416360  1
  Ho  Ho1  1  0.000000  0.673711  0.583640  1
  Ho  Ho2  1  0.000000  0.820247  0.087434  1
  Ho  Ho3  1  0.000000  0.179753  0.912566  1
  Tm  Tm4  1  0.000000  0.940047  0.370859  1
  Tm  Tm5  1  0.000000  0.059953  0.629141  1
  Tm  Tm6  1  0.000000  0.445093  0.131370  1
  Tm  Tm7  1  0.000000  0.554907  0.868630  1
  Mn  Mn8  1  0.000000  0.638119  0.320171  1
  Mn  Mn9  1  0.000000  0.361881  0.679829  1
  B  B10  1  0.500000  0.554075  0.432256  1
  B  B11  1  0.500000  0.445925  0.567744  1
  B  B12  1  0.500000  0.053692  0.067046  1
  B  B13  1  0.500000  0.946308  0.932954  1
  B  B14  1  0.500000  0.746686  0.417663  1
  B  B15  1  0.500000  0.253314  0.582337  1
  B  B16  1  0.500000  0.249657  0.081320  1
  B  B17  1  0.500000  0.750343  0.918680  1
  B  B18  1  0.500000  0.789583  0.265978  1
  B  B19  1  0.500000  0.210417  0.734022  1
  B  B20  1  0.500000  0.292017  0.235461  1
  B  B21  1  0.500000  0.707983  0.764539  1
  B  B22  1  0.500000  0.630896  0.186551  1
  B  B23  1  0.500000  0.369104  0.813449  1
  B  B24  1  0.500000  0.130720  0.315333  1
  B  B25  1  0.500000  0.869280  0.684667  1
  B  B26  1  0.500000  0.981748  0.212733  1
  B  B27  1  0.500000  0.018252  0.787267  1
  B  B28  1  0.500000  0.484930  0.288735  1
  B  B29  1  0.500000  0.515070  0.711265  1
  B  B30  1  0.500000  0.602576  0.028376  1
  B  B31  1  0.500000  0.397424  0.971624  1
  B  B32  1  0.500000  0.103211  0.471635  1
  B  B33  1  0.500000  0.896789  0.528365  1
  Ru  Ru34  1  0.000000  0.138228  0.179309  1
  Ru  Ru35  1  0.000000  0.861772  0.820691  1
