# generated using pymatgen
data_NdEr3(WO6)2
_symmetry_space_group_name_H-M   'P 1'
_cell_length_a   5.42252200
_cell_length_b   7.73832977
_cell_length_c   11.49935626
_cell_angle_alpha   75.41146193
_cell_angle_beta   90.00000000
_cell_angle_gamma   90.00000000
_symmetry_Int_Tables_number   1
_chemical_formula_structural   NdEr3(WO6)2
_chemical_formula_sum   'Nd2 Er6 W4 O24'
_cell_volume   466.97062624
_cell_formula_units_Z   2
loop_
 _symmetry_equiv_pos_site_id
 _symmetry_equiv_pos_as_xyz
  1  'x, y, z'
loop_
 _atom_site_type_symbol
 _atom_site_label
 _atom_site_symmetry_multiplicity
 _atom_site_fract_x
 _atom_site_fract_y
 _atom_site_fract_z
 _atom_site_occupancy
  Nd  Nd0  1  0.685670  0.500000  0.250000  1
  Nd  Nd1  1  0.314330  0.500000  0.750000  1
  Er  Er2  1  0.185095  0.203005  0.422812  1
  Er  Er3  1  0.185095  0.796995  0.077188  1
  Er  Er4  1  0.814905  0.796995  0.577188  1
  Er  Er5  1  0.814905  0.203005  0.922812  1
  Er  Er6  1  0.742790  0.000000  0.250000  1
  Er  Er7  1  0.257210  0.000000  0.750000  1
  W  W8  1  0.254670  0.272036  0.115709  1
  W  W9  1  0.254670  0.727964  0.384291  1
  W  W10  1  0.745330  0.727964  0.884291  1
  W  W11  1  0.745330  0.272036  0.615709  1
  O  O12  1  0.456545  0.203589  0.273940  1
  O  O13  1  0.456545  0.796411  0.226060  1
  O  O14  1  0.543455  0.796411  0.726060  1
  O  O15  1  0.543455  0.203589  0.773940  1
  O  O16  1  0.042746  0.057951  0.104124  1
  O  O17  1  0.042746  0.942049  0.395876  1
  O  O18  1  0.957254  0.942049  0.895876  1
  O  O19  1  0.957254  0.057951  0.604124  1
  O  O20  1  0.986015  0.280077  0.230984  1
  O  O21  1  0.986015  0.719923  0.269016  1
  O  O22  1  0.013985  0.719923  0.769016  1
  O  O23  1  0.013985  0.280077  0.730984  1
  O  O24  1  0.854780  0.359127  0.453829  1
  O  O25  1  0.854780  0.640873  0.046171  1
  O  O26  1  0.145220  0.640873  0.546171  1
  O  O27  1  0.145220  0.359127  0.953829  1
  O  O28  1  0.650920  0.507780  0.612493  1
  O  O29  1  0.650920  0.492220  0.887507  1
  O  O30  1  0.349080  0.492220  0.387507  1
  O  O31  1  0.349080  0.507780  0.112493  1
  O  O32  1  0.463045  0.154507  0.569687  1
  O  O33  1  0.463045  0.845493  0.930313  1
  O  O34  1  0.536955  0.845493  0.430313  1
  O  O35  1  0.536955  0.154507  0.069687  1
