# generated using pymatgen
data_Lu8Ti3Si16Mo9
_symmetry_space_group_name_H-M   'P 1'
_cell_length_a   6.67698647
_cell_length_b   6.89197459
_cell_length_c   12.99005089
_cell_angle_alpha   90.06451036
_cell_angle_beta   89.93779115
_cell_angle_gamma   90.04268236
_symmetry_Int_Tables_number   1
_chemical_formula_structural   Lu8Ti3Si16Mo9
_chemical_formula_sum   'Lu8 Ti3 Si16 Mo9'
_cell_volume   597.77034309
_cell_formula_units_Z   1
loop_
 _symmetry_equiv_pos_site_id
 _symmetry_equiv_pos_as_xyz
  1  'x, y, z'
loop_
 _atom_site_type_symbol
 _atom_site_label
 _atom_site_symmetry_multiplicity
 _atom_site_fract_x
 _atom_site_fract_y
 _atom_site_fract_z
 _atom_site_occupancy
  Lu  Lu0  1  0.499716  0.328279  0.094624  1
  Lu  Lu1  1  0.997924  0.170023  0.406386  1
  Lu  Lu2  1  0.500506  0.671921  0.594249  1
  Lu  Lu3  1  0.999908  0.828180  0.905296  1
  Lu  Lu4  1  0.500545  0.669227  0.905763  1
  Lu  Lu5  1  0.002019  0.830419  0.594539  1
  Lu  Lu6  1  0.498827  0.330182  0.406486  1
  Lu  Lu7  1  0.998162  0.168137  0.093766  1
  Ti  Ti8  1  0.834097  0.331948  0.624519  1
  Ti  Ti9  1  0.333468  0.168341  0.874440  1
  Ti  Ti10  1  0.166075  0.669510  0.126648  1
  Si  Si11  1  0.663033  0.041419  0.543390  1
  Si  Si12  1  0.160897  0.461146  0.956695  1
  Si  Si13  1  0.339053  0.960797  0.043924  1
  Si  Si14  1  0.837600  0.541847  0.455528  1
  Si  Si15  1  0.337570  0.958545  0.456574  1
  Si  Si16  1  0.834985  0.540838  0.042571  1
  Si  Si17  1  0.664455  0.041619  0.957587  1
  Si  Si18  1  0.164784  0.458587  0.542794  1
  Si  Si19  1  0.534822  0.372765  0.748127  1
  Si  Si20  1  0.034990  0.126378  0.750522  1
  Si  Si21  1  0.467493  0.627573  0.249801  1
  Si  Si22  1  0.964380  0.871967  0.251569  1
  Si  Si23  1  0.798387  0.631437  0.749084  1
  Si  Si24  1  0.299447  0.868439  0.751306  1
  Si  Si25  1  0.200839  0.368002  0.249713  1
  Si  Si26  1  0.698152  0.132071  0.249972  1
  Mo  Mo27  1  0.667109  0.834566  0.374113  1
  Mo  Mo28  1  0.169958  0.666906  0.376817  1
  Mo  Mo29  1  0.672872  0.833649  0.124464  1
  Mo  Mo30  1  0.829764  0.332521  0.875888  1
  Mo  Mo31  1  0.329359  0.165274  0.622390  1
  Mo  Mo32  1  0.663187  0.003864  0.750375  1
  Mo  Mo33  1  0.163138  0.495478  0.750137  1
  Mo  Mo34  1  0.334608  0.995923  0.250142  1
  Mo  Mo35  1  0.837870  0.502221  0.249800  1
