# generated using pymatgen
data_K3Lu(AsSe2)6
_symmetry_space_group_name_H-M   'P 1'
_cell_length_a   9.81239900
_cell_length_b   9.81239978
_cell_length_c   8.08624200
_cell_angle_alpha   90.00000000
_cell_angle_beta   90.00000000
_cell_angle_gamma   119.99999982
_symmetry_Int_Tables_number   1
_chemical_formula_structural   K3Lu(AsSe2)6
_chemical_formula_sum   'K3 Lu1 As6 Se12'
_cell_volume   674.26062800
_cell_formula_units_Z   1
loop_
 _symmetry_equiv_pos_site_id
 _symmetry_equiv_pos_as_xyz
  1  'x, y, z'
loop_
 _atom_site_type_symbol
 _atom_site_label
 _atom_site_symmetry_multiplicity
 _atom_site_fract_x
 _atom_site_fract_y
 _atom_site_fract_z
 _atom_site_occupancy
  K  K0  1  0.000000  0.000000  0.000000  1
  K  K1  1  0.333333  0.666667  0.841414  1
  K  K2  1  0.666667  0.333333  0.158586  1
  Lu  Lu3  1  0.000000  0.000000  0.500000  1
  As  As4  1  0.290098  0.839280  0.373679  1
  As  As5  1  0.160720  0.450818  0.373679  1
  As  As6  1  0.549182  0.709902  0.373679  1
  As  As7  1  0.709902  0.160720  0.626321  1
  As  As8  1  0.839280  0.549182  0.626321  1
  As  As9  1  0.450818  0.290098  0.626321  1
  Se  Se10  1  0.262398  0.059914  0.298879  1
  Se  Se11  1  0.940086  0.202485  0.298879  1
  Se  Se12  1  0.797515  0.737602  0.298879  1
  Se  Se13  1  0.737602  0.940086  0.701121  1
  Se  Se14  1  0.059914  0.797515  0.701121  1
  Se  Se15  1  0.202485  0.262398  0.701121  1
  Se  Se16  1  0.529971  0.909604  0.205660  1
  Se  Se17  1  0.090396  0.620366  0.205660  1
  Se  Se18  1  0.379634  0.470029  0.205660  1
  Se  Se19  1  0.470029  0.090396  0.794340  1
  Se  Se20  1  0.909604  0.379634  0.794340  1
  Se  Se21  1  0.620366  0.529971  0.794340  1
