# generated using pymatgen
data_Be2Fe3Si3Mo4
_symmetry_space_group_name_H-M   'P 1'
_cell_length_a   4.63942836
_cell_length_b   4.68564338
_cell_length_c   7.69634900
_cell_angle_alpha   90.00000000
_cell_angle_beta   90.00000000
_cell_angle_gamma   120.15209473
_symmetry_Int_Tables_number   1
_chemical_formula_structural   Be2Fe3Si3Mo4
_chemical_formula_sum   'Be2 Fe3 Si3 Mo4'
_cell_volume   144.67098692
_cell_formula_units_Z   1
loop_
 _symmetry_equiv_pos_site_id
 _symmetry_equiv_pos_as_xyz
  1  'x, y, z'
loop_
 _atom_site_type_symbol
 _atom_site_label
 _atom_site_symmetry_multiplicity
 _atom_site_fract_x
 _atom_site_fract_y
 _atom_site_fract_z
 _atom_site_occupancy
  Be  Be0  1  0.176251  0.356180  0.250000  1
  Be  Be1  1  0.174127  0.825042  0.250000  1
  Fe  Fe2  1  0.823941  0.152220  0.750000  1
  Fe  Fe3  1  0.326630  0.151393  0.750000  1
  Fe  Fe4  1  0.667314  0.836434  0.250000  1
  Si  Si5  1  0.815283  0.640874  0.750000  1
  Si  Si6  1  0.008019  0.012504  0.490755  1
  Si  Si7  1  0.008019  0.012504  0.009245  1
  Mo  Mo8  1  0.675676  0.341537  0.069383  1
  Mo  Mo9  1  0.324532  0.664886  0.944115  1
  Mo  Mo10  1  0.324532  0.664886  0.555885  1
  Mo  Mo11  1  0.675676  0.341537  0.430617  1
