# generated using pymatgen
data_Dy3Co3Si7
_symmetry_space_group_name_H-M   'P 1'
_cell_length_a   12.84975440
_cell_length_b   12.84975346
_cell_length_c   4.01598500
_cell_angle_alpha   90.00000000
_cell_angle_beta   90.00000000
_cell_angle_gamma   161.70352806
_symmetry_Int_Tables_number   1
_chemical_formula_structural   Dy3Co3Si7
_chemical_formula_sum   'Dy3 Co3 Si7'
_cell_volume   208.17091374
_cell_formula_units_Z   1
loop_
 _symmetry_equiv_pos_site_id
 _symmetry_equiv_pos_as_xyz
  1  'x, y, z'
loop_
 _atom_site_type_symbol
 _atom_site_label
 _atom_site_symmetry_multiplicity
 _atom_site_fract_x
 _atom_site_fract_y
 _atom_site_fract_z
 _atom_site_occupancy
  Dy  Dy0  1  0.003256  0.996744  0.000000  1
  Dy  Dy1  1  0.687141  0.312859  0.500000  1
  Dy  Dy2  1  0.317232  0.682768  0.500000  1
  Co  Co3  1  0.864090  0.135910  0.000000  1
  Co  Co4  1  0.135265  0.864735  0.000000  1
  Co  Co5  1  0.450741  0.549259  0.500000  1
  Si  Si6  1  0.595270  0.404730  0.000000  1
  Si  Si7  1  0.407633  0.592367  0.000000  1
  Si  Si8  1  0.775426  0.224574  0.000000  1
  Si  Si9  1  0.226216  0.773784  0.000000  1
  Si  Si10  1  0.907883  0.092117  0.500000  1
  Si  Si11  1  0.093721  0.906279  0.500000  1
  Si  Si12  1  0.536128  0.463872  0.500000  1
