# generated using pymatgen
data_K33Rb7(GaO4)8
_symmetry_space_group_name_H-M   'P 1'
_cell_length_a   6.71724800
_cell_length_b   11.49663400
_cell_length_c   20.53929900
_cell_angle_alpha   90.00000000
_cell_angle_beta   90.00000000
_cell_angle_gamma   90.00000000
_symmetry_Int_Tables_number   1
_chemical_formula_structural   K33Rb7(GaO4)8
_chemical_formula_sum   'K33 Rb7 Ga8 O32'
_cell_volume   1586.16260016
_cell_formula_units_Z   1
loop_
 _symmetry_equiv_pos_site_id
 _symmetry_equiv_pos_as_xyz
  1  'x, y, z'
loop_
 _atom_site_type_symbol
 _atom_site_label
 _atom_site_symmetry_multiplicity
 _atom_site_fract_x
 _atom_site_fract_y
 _atom_site_fract_z
 _atom_site_occupancy
  K  K0  1  0.572701  0.297291  0.367135  1
  K  K1  1  0.072451  0.702314  0.132597  1
  K  K2  1  0.427252  0.203373  0.867669  1
  K  K3  1  0.927882  0.796652  0.632427  1
  K  K4  1  0.428085  0.703747  0.632509  1
  K  K5  1  0.928117  0.296397  0.867332  1
  K  K6  1  0.570047  0.794936  0.132531  1
  K  K7  1  0.074069  0.204237  0.366526  1
  K  K8  1  0.578987  0.352275  0.001819  1
  K  K9  1  0.077816  0.647787  0.498230  1
  K  K10  1  0.423422  0.148106  0.501068  1
  K  K11  1  0.919897  0.855334  0.998870  1
  K  K12  1  0.424087  0.644799  0.998278  1
  K  K13  1  0.922891  0.352176  0.501356  1
  K  K14  1  0.577946  0.853024  0.497579  1
  K  K15  1  0.074354  0.148165  0.002475  1
  K  K16  1  0.579059  0.063012  0.066285  1
  K  K17  1  0.084520  0.942254  0.434921  1
  K  K18  1  0.416410  0.441855  0.564326  1
  K  K19  1  0.917978  0.558189  0.936094  1
  K  K20  1  0.416022  0.942067  0.936542  1
  K  K21  1  0.916693  0.058766  0.563600  1
  K  K22  1  0.584340  0.558464  0.435721  1
  K  K23  1  0.085061  0.437988  0.065120  1
  K  K24  1  0.883537  0.412574  0.253715  1
  K  K25  1  0.384307  0.581021  0.246858  1
  K  K26  1  0.116711  0.081721  0.753332  1
  K  K27  1  0.616894  0.918136  0.746554  1
  K  K28  1  0.116921  0.581939  0.746662  1
  K  K29  1  0.617157  0.418267  0.753315  1
  K  K30  1  0.882577  0.920589  0.246281  1
  K  K31  1  0.383368  0.081676  0.252821  1
  K  K32  1  0.888552  0.172046  0.174197  1
  Rb  Rb33  1  0.386818  0.826372  0.324447  1
  Rb  Rb34  1  0.113701  0.326234  0.675100  1
  Rb  Rb35  1  0.614195  0.673796  0.824891  1
  Rb  Rb36  1  0.114269  0.826336  0.825102  1
  Rb  Rb37  1  0.613547  0.173859  0.675136  1
  Rb  Rb38  1  0.887166  0.673719  0.323941  1
  Rb  Rb39  1  0.386524  0.325109  0.176491  1
  Ga  Ga40  1  0.678509  0.535105  0.123694  1
  Ga  Ga41  1  0.176820  0.461427  0.377206  1
  Ga  Ga42  1  0.323755  0.961050  0.622620  1
  Ga  Ga43  1  0.822797  0.039238  0.877276  1
  Ga  Ga44  1  0.324094  0.460548  0.877002  1
  Ga  Ga45  1  0.823753  0.539360  0.622943  1
  Ga  Ga46  1  0.678310  0.041067  0.375376  1
  Ga  Ga47  1  0.170940  0.962414  0.123780  1
  O  O48  1  0.760116  0.375144  0.127350  1
  O  O49  1  0.259114  0.620021  0.374021  1
  O  O50  1  0.241434  0.119570  0.625893  1
  O  O51  1  0.741190  0.880535  0.874030  1
  O  O52  1  0.242321  0.619230  0.873838  1
  O  O53  1  0.741745  0.380706  0.626152  1
  O  O54  1  0.759921  0.882530  0.372257  1
  O  O55  1  0.247187  0.121856  0.127644  1
  O  O56  1  0.756127  0.119392  0.295983  1
  O  O57  1  0.252475  0.883503  0.201742  1
  O  O58  1  0.245975  0.383490  0.798091  1
  O  O59  1  0.745729  0.616510  0.701880  1
  O  O60  1  0.246002  0.883956  0.701629  1
  O  O61  1  0.745113  0.116343  0.798308  1
  O  O62  1  0.756392  0.612856  0.202098  1
  O  O63  1  0.255318  0.384285  0.298519  1
  O  O64  1  0.794770  0.117903  0.448315  1
  O  O65  1  0.289007  0.885784  0.051129  1
  O  O66  1  0.207620  0.383032  0.949701  1
  O  O67  1  0.707034  0.617204  0.550378  1
  O  O68  1  0.207011  0.883626  0.549869  1
  O  O69  1  0.705413  0.116075  0.950189  1
  O  O70  1  0.795006  0.612528  0.050984  1
  O  O71  1  0.293722  0.383323  0.449739  1
  O  O72  1  0.894337  0.452249  0.384173  1
  O  O73  1  0.395984  0.545888  0.116173  1
  O  O74  1  0.105416  0.048429  0.884334  1
  O  O75  1  0.606561  0.952132  0.615563  1
  O  O76  1  0.106428  0.548536  0.616100  1
  O  O77  1  0.606797  0.451724  0.884132  1
  O  O78  1  0.887702  0.955361  0.117145  1
  O  O79  1  0.395724  0.049466  0.382894  1
