# generated using pymatgen
data_Sc22IrRu3Rh4
_symmetry_space_group_name_H-M   'P 1'
_cell_length_a   9.49429076
_cell_length_b   9.49631299
_cell_length_c   9.49428991
_cell_angle_alpha   59.99296086
_cell_angle_beta   59.76078669
_cell_angle_gamma   59.99295617
_symmetry_Int_Tables_number   1
_chemical_formula_structural   Sc22IrRu3Rh4
_chemical_formula_sum   'Sc22 Ir1 Ru3 Rh4'
_cell_volume   604.12620902
_cell_formula_units_Z   1
loop_
 _symmetry_equiv_pos_site_id
 _symmetry_equiv_pos_as_xyz
  1  'x, y, z'
loop_
 _atom_site_type_symbol
 _atom_site_label
 _atom_site_symmetry_multiplicity
 _atom_site_fract_x
 _atom_site_fract_y
 _atom_site_fract_z
 _atom_site_occupancy
  Sc  Sc0  1  0.804199  0.803258  0.195801  1
  Sc  Sc1  1  0.196277  0.803723  0.196277  1
  Sc  Sc2  1  0.804199  0.196742  0.195801  1
  Sc  Sc3  1  0.195801  0.196742  0.804199  1
  Sc  Sc4  1  0.803723  0.196277  0.803723  1
  Sc  Sc5  1  0.195801  0.803258  0.804199  1
  Sc  Sc6  1  0.617293  0.616018  0.150669  1
  Sc  Sc7  1  0.614883  0.151618  0.614883  1
  Sc  Sc8  1  0.150669  0.616018  0.617293  1
  Sc  Sc9  1  0.614883  0.618615  0.614883  1
  Sc  Sc10  1  0.382707  0.383982  0.849331  1
  Sc  Sc11  1  0.385117  0.848382  0.385117  1
  Sc  Sc12  1  0.849331  0.383982  0.382707  1
  Sc  Sc13  1  0.385117  0.381385  0.385117  1
  Sc  Sc14  1  0.840708  0.844300  0.470691  1
  Sc  Sc15  1  0.842688  0.471809  0.842688  1
  Sc  Sc16  1  0.470691  0.844300  0.840708  1
  Sc  Sc17  1  0.842688  0.842814  0.842688  1
  Sc  Sc18  1  0.159292  0.155700  0.529309  1
  Sc  Sc19  1  0.157312  0.528191  0.157312  1
  Sc  Sc20  1  0.529309  0.155700  0.159292  1
  Sc  Sc21  1  0.157312  0.157186  0.157312  1
  Ir  Ir22  1  0.000000  0.500000  0.000000  1
  Ru  Ru23  1  0.000000  0.000000  0.000000  1
  Ru  Ru24  1  0.500000  0.500000  0.500000  1
  Ru  Ru25  1  0.500000  0.000000  0.500000  1
  Rh  Rh26  1  0.000000  0.000000  0.500000  1
  Rh  Rh27  1  0.000000  0.500000  0.500000  1
  Rh  Rh28  1  0.500000  0.500000  0.000000  1
  Rh  Rh29  1  0.500000  0.000000  0.000000  1
