# generated using pymatgen
data_Tb2ErHg5
_symmetry_space_group_name_H-M   'P 1'
_cell_length_a   6.37848225
_cell_length_b   6.37848236
_cell_length_c   10.20318900
_cell_angle_alpha   90.00000000
_cell_angle_beta   90.00000000
_cell_angle_gamma   105.06950138
_symmetry_Int_Tables_number   1
_chemical_formula_structural   Tb2ErHg5
_chemical_formula_sum   'Tb4 Er2 Hg10'
_cell_volume   400.84172155
_cell_formula_units_Z   2
loop_
 _symmetry_equiv_pos_site_id
 _symmetry_equiv_pos_as_xyz
  1  'x, y, z'
loop_
 _atom_site_type_symbol
 _atom_site_label
 _atom_site_symmetry_multiplicity
 _atom_site_fract_x
 _atom_site_fract_y
 _atom_site_fract_z
 _atom_site_occupancy
  Tb  Tb0  1  0.211861  0.788139  0.500000  1
  Tb  Tb1  1  0.211861  0.788139  0.000000  1
  Tb  Tb2  1  0.788139  0.211861  0.500000  1
  Tb  Tb3  1  0.788139  0.211861  0.000000  1
  Er  Er4  1  0.582169  0.582169  0.250000  1
  Er  Er5  1  0.417831  0.417831  0.750000  1
  Hg  Hg6  1  0.978599  0.978599  0.250000  1
  Hg  Hg7  1  0.021401  0.021401  0.750000  1
  Hg  Hg8  1  0.298357  0.298357  0.033215  1
  Hg  Hg9  1  0.701643  0.701643  0.966785  1
  Hg  Hg10  1  0.298357  0.298357  0.466785  1
  Hg  Hg11  1  0.701643  0.701643  0.533215  1
  Hg  Hg12  1  0.484684  0.045180  0.250000  1
  Hg  Hg13  1  0.954820  0.515316  0.750000  1
  Hg  Hg14  1  0.515316  0.954820  0.750000  1
  Hg  Hg15  1  0.045180  0.484684  0.250000  1
