# generated using pymatgen
data_PrYAg2(Ir2O7)2
_symmetry_space_group_name_H-M   'P 1'
_cell_length_a   7.27002077
_cell_length_b   7.20284895
_cell_length_c   7.27009511
_cell_angle_alpha   60.30550087
_cell_angle_beta   61.33566007
_cell_angle_gamma   60.30517091
_symmetry_Int_Tables_number   1
_chemical_formula_structural   PrYAg2(Ir2O7)2
_chemical_formula_sum   'Pr1 Y1 Ag2 Ir4 O14'
_cell_volume   273.07879944
_cell_formula_units_Z   1
loop_
 _symmetry_equiv_pos_site_id
 _symmetry_equiv_pos_as_xyz
  1  'x, y, z'
loop_
 _atom_site_type_symbol
 _atom_site_label
 _atom_site_symmetry_multiplicity
 _atom_site_fract_x
 _atom_site_fract_y
 _atom_site_fract_z
 _atom_site_occupancy
  Pr  Pr0  1  0.625000  0.125000  0.125000  1
  Y  Y1  1  0.125000  0.125000  0.625000  1
  Ag  Ag2  1  0.125000  0.125000  0.125000  1
  Ag  Ag3  1  0.125000  0.625000  0.125000  1
  Ir  Ir4  1  0.625000  0.625000  0.625000  1
  Ir  Ir5  1  0.125000  0.625000  0.625000  1
  Ir  Ir6  1  0.625000  0.125000  0.625000  1
  Ir  Ir7  1  0.625000  0.625000  0.125000  1
  O  O8  1  0.950103  0.537982  0.557989  1
  O  O9  1  0.299897  0.296074  0.692011  1
  O  O10  1  0.941483  0.559439  0.939640  1
  O  O11  1  0.700273  0.296097  0.301471  1
  O  O12  1  0.549727  0.547840  0.948529  1
  O  O13  1  0.532095  0.961471  0.544962  1
  O  O14  1  0.549727  0.953903  0.948529  1
  O  O15  1  0.229588  0.260158  0.250095  1
  O  O16  1  0.299897  0.712018  0.692011  1
  O  O17  1  0.717905  0.288529  0.705038  1
  O  O18  1  0.020412  0.989842  0.999905  1
  O  O19  1  0.950103  0.953926  0.557989  1
  O  O20  1  0.308517  0.690561  0.310360  1
  O  O21  1  0.700273  0.702160  0.301471  1
