# generated using pymatgen
data_Hf2TaRhS10
_symmetry_space_group_name_H-M   'P 1'
_cell_length_a   3.55891700
_cell_length_b   9.47108599
_cell_length_c   9.94390648
_cell_angle_alpha   69.14046667
_cell_angle_beta   90.00000000
_cell_angle_gamma   90.00000000
_symmetry_Int_Tables_number   1
_chemical_formula_structural   Hf2TaRhS10
_chemical_formula_sum   'Hf2 Ta1 Rh1 S10'
_cell_volume   313.20855749
_cell_formula_units_Z   1
loop_
 _symmetry_equiv_pos_site_id
 _symmetry_equiv_pos_as_xyz
  1  'x, y, z'
loop_
 _atom_site_type_symbol
 _atom_site_label
 _atom_site_symmetry_multiplicity
 _atom_site_fract_x
 _atom_site_fract_y
 _atom_site_fract_z
 _atom_site_occupancy
  Hf  Hf0  1  0.000000  0.292407  0.629646  1
  Hf  Hf1  1  0.500000  0.708588  0.364006  1
  Ta  Ta2  1  0.500000  0.452685  0.911699  1
  Rh  Rh3  1  0.000000  0.547086  0.107657  1
  S  S4  1  0.500000  0.084052  0.736122  1
  S  S5  1  0.000000  0.917526  0.254739  1
  S  S6  1  0.500000  0.490820  0.633098  1
  S  S7  1  0.000000  0.511699  0.360164  1
  S  S8  1  0.500000  0.176682  0.510918  1
  S  S9  1  0.000000  0.826970  0.479886  1
  S  S10  1  0.000000  0.268251  0.905189  1
  S  S11  1  0.500000  0.721112  0.095672  1
  S  S12  1  0.000000  0.644594  0.850017  1
  S  S13  1  0.500000  0.357526  0.161187  1
