# generated using pymatgen
data_Tb9Tm(RuRh)2
_symmetry_space_group_name_H-M   'P 1'
_cell_length_a   6.40250777
_cell_length_b   7.26361678
_cell_length_c   8.58615466
_cell_angle_alpha   96.63927971
_cell_angle_beta   111.89081730
_cell_angle_gamma   90.00000111
_symmetry_Int_Tables_number   1
_chemical_formula_structural   Tb9Tm(RuRh)2
_chemical_formula_sum   'Tb9 Tm1 Ru2 Rh2'
_cell_volume   367.62347057
_cell_formula_units_Z   1
loop_
 _symmetry_equiv_pos_site_id
 _symmetry_equiv_pos_as_xyz
  1  'x, y, z'
loop_
 _atom_site_type_symbol
 _atom_site_label
 _atom_site_symmetry_multiplicity
 _atom_site_fract_x
 _atom_site_fract_y
 _atom_site_fract_z
 _atom_site_occupancy
  Tb  Tb0  1  0.792741  0.081027  0.812343  1
  Tb  Tb1  1  0.980397  0.418973  0.187657  1
  Tb  Tb2  1  0.208042  0.914287  0.184386  1
  Tb  Tb3  1  0.023655  0.585713  0.815614  1
  Tb  Tb4  1  0.208851  0.184166  0.565852  1
  Tb  Tb5  1  0.642999  0.315834  0.434148  1
  Tb  Tb6  1  0.791157  0.811755  0.436305  1
  Tb  Tb7  1  0.354852  0.688245  0.563695  1
  Tb  Tb8  1  0.421871  0.250000  0.000000  1
  Tm  Tm9  1  0.575225  0.750000  0.000000  1
  Ru  Ru10  1  0.398231  0.574463  0.219687  1
  Ru  Ru11  1  0.178545  0.925537  0.780313  1
  Rh  Rh12  1  0.601400  0.425694  0.779368  1
  Rh  Rh13  1  0.822031  0.074306  0.220632  1
