# generated using pymatgen
data_Tb16In4PdRh3
_symmetry_space_group_name_H-M   'P 1'
_cell_length_a   9.74375307
_cell_length_b   9.71073257
_cell_length_c   9.74375200
_cell_angle_alpha   59.88745501
_cell_angle_beta   60.00000365
_cell_angle_gamma   59.88744986
_symmetry_Int_Tables_number   1
_chemical_formula_structural   Tb16In4PdRh3
_chemical_formula_sum   'Tb16 In4 Pd1 Rh3'
_cell_volume   650.80157951
_cell_formula_units_Z   1
loop_
 _symmetry_equiv_pos_site_id
 _symmetry_equiv_pos_as_xyz
  1  'x, y, z'
loop_
 _atom_site_type_symbol
 _atom_site_label
 _atom_site_symmetry_multiplicity
 _atom_site_fract_x
 _atom_site_fract_y
 _atom_site_fract_z
 _atom_site_occupancy
  Tb  Tb0  1  0.811152  0.811201  0.188824  1
  Tb  Tb1  1  0.810738  0.184557  0.810738  1
  Tb  Tb2  1  0.193967  0.184557  0.810738  1
  Tb  Tb3  1  0.650380  0.048859  0.650380  1
  Tb  Tb4  1  0.061117  0.062316  0.438283  1
  Tb  Tb5  1  0.436619  0.438583  0.062399  1
  Tb  Tb6  1  0.647806  0.653475  0.647806  1
  Tb  Tb7  1  0.810738  0.184557  0.193967  1
  Tb  Tb8  1  0.188824  0.811201  0.811152  1
  Tb  Tb9  1  0.050912  0.653475  0.647806  1
  Tb  Tb10  1  0.438283  0.062316  0.061117  1
  Tb  Tb11  1  0.438283  0.062316  0.438283  1
  Tb  Tb12  1  0.062399  0.438583  0.062399  1
  Tb  Tb13  1  0.647806  0.653475  0.050912  1
  Tb  Tb14  1  0.188824  0.811201  0.188824  1
  Tb  Tb15  1  0.062399  0.438583  0.436619  1
  In  In16  1  0.416874  0.417631  0.416874  1
  In  In17  1  0.416874  0.417631  0.748621  1
  In  In18  1  0.417520  0.747439  0.417520  1
  In  In19  1  0.748621  0.417631  0.416874  1
  Pd  Pd20  1  0.856974  0.429078  0.856974  1
  Rh  Rh21  1  0.857411  0.857111  0.857411  1
  Rh  Rh22  1  0.857411  0.857111  0.428068  1
  Rh  Rh23  1  0.428068  0.857111  0.857411  1
