# generated using pymatgen
data_Dy3Ho(HgPd2)2
_symmetry_space_group_name_H-M   'P 1'
_cell_length_a   7.79458200
_cell_length_b   7.79458121
_cell_length_c   3.59291100
_cell_angle_alpha   90.00000000
_cell_angle_beta   90.00000000
_cell_angle_gamma   89.87960983
_symmetry_Int_Tables_number   1
_chemical_formula_structural   Dy3Ho(HgPd2)2
_chemical_formula_sum   'Dy3 Ho1 Hg2 Pd4'
_cell_volume   218.28863090
_cell_formula_units_Z   1
loop_
 _symmetry_equiv_pos_site_id
 _symmetry_equiv_pos_as_xyz
  1  'x, y, z'
loop_
 _atom_site_type_symbol
 _atom_site_label
 _atom_site_symmetry_multiplicity
 _atom_site_fract_x
 _atom_site_fract_y
 _atom_site_fract_z
 _atom_site_occupancy
  Dy  Dy0  1  0.326937  0.826937  0.500000  1
  Dy  Dy1  1  0.826951  0.673226  0.500000  1
  Dy  Dy2  1  0.173226  0.326951  0.500000  1
  Ho  Ho3  1  0.672980  0.172980  0.500000  1
  Hg  Hg4  1  0.999716  0.000267  0.000000  1
  Hg  Hg5  1  0.500267  0.499716  0.000000  1
  Pd  Pd6  1  0.372547  0.127477  0.000000  1
  Pd  Pd7  1  0.872051  0.372051  0.000000  1
  Pd  Pd8  1  0.127849  0.627849  0.000000  1
  Pd  Pd9  1  0.627477  0.872547  0.000000  1
