# generated using pymatgen
data_La3Sm3IrBr10
_symmetry_space_group_name_H-M   'P 1'
_cell_length_a   7.56188182
_cell_length_b   9.61083820
_cell_length_c   9.48485700
_cell_angle_alpha   107.54615127
_cell_angle_beta   94.83871125
_cell_angle_gamma   105.71488812
_symmetry_Int_Tables_number   1
_chemical_formula_structural   La3Sm3IrBr10
_chemical_formula_sum   'La3 Sm3 Ir1 Br10'
_cell_volume   622.24906705
_cell_formula_units_Z   1
loop_
 _symmetry_equiv_pos_site_id
 _symmetry_equiv_pos_as_xyz
  1  'x, y, z'
loop_
 _atom_site_type_symbol
 _atom_site_label
 _atom_site_symmetry_multiplicity
 _atom_site_fract_x
 _atom_site_fract_y
 _atom_site_fract_z
 _atom_site_occupancy
  La  La0  1  0.128070  0.049414  0.753433  1
  La  La1  1  0.867786  0.952983  0.245721  1
  La  La2  1  0.970075  0.309791  0.099247  1
  Sm  Sm3  1  0.636378  0.862356  0.823869  1
  Sm  Sm4  1  0.362503  0.131192  0.174551  1
  Sm  Sm5  1  0.032276  0.701845  0.904323  1
  Ir  Ir6  1  0.999047  0.001580  0.999912  1
  Br  Br7  1  0.359029  0.442747  0.268911  1
  Br  Br8  1  0.658683  0.554796  0.734804  1
  Br  Br9  1  0.741441  0.915676  0.550396  1
  Br  Br10  1  0.085902  0.375460  0.822017  1
  Br  Br11  1  0.919147  0.635966  0.173070  1
  Br  Br12  1  0.444600  0.821266  0.083179  1
  Br  Br13  1  0.548780  0.170276  0.912883  1
  Br  Br14  1  0.766753  0.251838  0.347899  1
  Br  Br15  1  0.225878  0.744030  0.657918  1
  Br  Br16  1  0.253652  0.078779  0.447866  1
