# generated using pymatgen
data_Nb9(NiP2)2
_symmetry_space_group_name_H-M   'P 1'
_cell_length_a   11.53972100
_cell_length_b   11.53972100
_cell_length_c   3.48186200
_cell_angle_alpha   90.00000000
_cell_angle_beta   90.00000000
_cell_angle_gamma   90.00000000
_symmetry_Int_Tables_number   1
_chemical_formula_structural   Nb9(NiP2)2
_chemical_formula_sum   'Nb18 Ni4 P8'
_cell_volume   463.66271297
_cell_formula_units_Z   2
loop_
 _symmetry_equiv_pos_site_id
 _symmetry_equiv_pos_as_xyz
  1  'x, y, z'
loop_
 _atom_site_type_symbol
 _atom_site_label
 _atom_site_symmetry_multiplicity
 _atom_site_fract_x
 _atom_site_fract_y
 _atom_site_fract_z
 _atom_site_occupancy
  Nb  Nb0  1  0.000000  0.000000  0.000000  1
  Nb  Nb1  1  0.500000  0.500000  0.000000  1
  Nb  Nb2  1  0.103009  0.182374  0.500000  1
  Nb  Nb3  1  0.182374  0.896991  0.500000  1
  Nb  Nb4  1  0.817626  0.103009  0.500000  1
  Nb  Nb5  1  0.896991  0.817626  0.500000  1
  Nb  Nb6  1  0.396991  0.682374  0.500000  1
  Nb  Nb7  1  0.603009  0.317626  0.500000  1
  Nb  Nb8  1  0.682374  0.603009  0.500000  1
  Nb  Nb9  1  0.317626  0.396991  0.500000  1
  Nb  Nb10  1  0.102083  0.397917  0.000000  1
  Nb  Nb11  1  0.397917  0.897917  0.000000  1
  Nb  Nb12  1  0.602083  0.102083  0.000000  1
  Nb  Nb13  1  0.897917  0.602083  0.000000  1
  Nb  Nb14  1  0.393441  0.106559  0.500000  1
  Nb  Nb15  1  0.106559  0.606559  0.500000  1
  Nb  Nb16  1  0.893441  0.393441  0.500000  1
  Nb  Nb17  1  0.606559  0.893441  0.500000  1
  Ni  Ni18  1  0.265075  0.234925  0.000000  1
  Ni  Ni19  1  0.234925  0.734925  0.000000  1
  Ni  Ni20  1  0.765075  0.265075  0.000000  1
  Ni  Ni21  1  0.734925  0.765075  0.000000  1
  P  P22  1  0.226668  0.052061  0.000000  1
  P  P23  1  0.052061  0.773332  0.000000  1
  P  P24  1  0.947939  0.226668  0.000000  1
  P  P25  1  0.773332  0.947939  0.000000  1
  P  P26  1  0.273332  0.552061  0.000000  1
  P  P27  1  0.726668  0.447939  0.000000  1
  P  P28  1  0.552061  0.726668  0.000000  1
  P  P29  1  0.447939  0.273332  0.000000  1
