# generated using pymatgen
data_Ce2Th(GaIr)3
_symmetry_space_group_name_H-M   'P 1'
_cell_length_a   7.16813121
_cell_length_b   7.17110206
_cell_length_c   4.07948500
_cell_angle_alpha   90.00000000
_cell_angle_beta   90.00000000
_cell_angle_gamma   120.01372514
_symmetry_Int_Tables_number   1
_chemical_formula_structural   Ce2Th(GaIr)3
_chemical_formula_sum   'Ce2 Th1 Ga3 Ir3'
_cell_volume   181.57988673
_cell_formula_units_Z   1
loop_
 _symmetry_equiv_pos_site_id
 _symmetry_equiv_pos_as_xyz
  1  'x, y, z'
loop_
 _atom_site_type_symbol
 _atom_site_label
 _atom_site_symmetry_multiplicity
 _atom_site_fract_x
 _atom_site_fract_y
 _atom_site_fract_z
 _atom_site_occupancy
  Ce  Ce0  1  0.415422  0.415034  0.500000  1
  Ce  Ce1  1  0.584578  0.999612  0.500000  1
  Th  Th2  1  0.000000  0.583272  0.500000  1
  Ga  Ga3  1  0.759749  0.762884  0.000000  1
  Ga  Ga4  1  0.240251  0.003135  0.000000  1
  Ga  Ga5  1  0.000000  0.234987  0.000000  1
  Ir  Ir6  1  0.665647  0.333449  0.000000  1
  Ir  Ir7  1  0.334353  0.667803  0.000000  1
  Ir  Ir8  1  0.000000  0.999824  0.500000  1
