# generated using pymatgen
data_TbZn3CdIr
_symmetry_space_group_name_H-M   'P 1'
_cell_length_a   5.28308477
_cell_length_b   5.28308415
_cell_length_c   5.28308500
_cell_angle_alpha   59.91619992
_cell_angle_beta   59.91621635
_cell_angle_gamma   59.91619229
_symmetry_Int_Tables_number   1
_chemical_formula_structural   TbZn3CdIr
_chemical_formula_sum   'Tb1 Zn3 Cd1 Ir1'
_cell_volume   104.06899865
_cell_formula_units_Z   1
loop_
 _symmetry_equiv_pos_site_id
 _symmetry_equiv_pos_as_xyz
  1  'x, y, z'
loop_
 _atom_site_type_symbol
 _atom_site_label
 _atom_site_symmetry_multiplicity
 _atom_site_fract_x
 _atom_site_fract_y
 _atom_site_fract_z
 _atom_site_occupancy
  Tb  Tb0  1  0.996273  0.996273  0.996273  1
  Zn  Zn1  1  0.623813  0.623813  0.129222  1
  Zn  Zn2  1  0.623813  0.129222  0.623813  1
  Zn  Zn3  1  0.129222  0.623813  0.623813  1
  Cd  Cd4  1  0.250165  0.250165  0.250165  1
  Ir  Ir5  1  0.626716  0.626716  0.626716  1
