# generated using pymatgen
data_Tb2GdHo3Ta2O14
_symmetry_space_group_name_H-M   'P 1'
_cell_length_a   6.50389981
_cell_length_b   6.50869032
_cell_length_c   7.48736927
_cell_angle_alpha   90.04221651
_cell_angle_beta   90.00155247
_cell_angle_gamma   108.48608501
_symmetry_Int_Tables_number   1
_chemical_formula_structural   Tb2GdHo3Ta2O14
_chemical_formula_sum   'Tb2 Gd1 Ho3 Ta2 O14'
_cell_volume   300.59962221
_cell_formula_units_Z   1
loop_
 _symmetry_equiv_pos_site_id
 _symmetry_equiv_pos_as_xyz
  1  'x, y, z'
loop_
 _atom_site_type_symbol
 _atom_site_label
 _atom_site_symmetry_multiplicity
 _atom_site_fract_x
 _atom_site_fract_y
 _atom_site_fract_z
 _atom_site_occupancy
  Tb  Tb0  1  0.462516  0.462123  0.999544  1
  Tb  Tb1  1  0.999708  0.535408  0.240444  1
  Gd  Gd2  1  0.532543  0.533566  0.500377  1
  Ho  Ho3  1  0.999310  0.464862  0.741570  1
  Ho  Ho4  1  0.534762  0.000520  0.759347  1
  Ho  Ho5  1  0.465652  0.999317  0.258213  1
  Ta  Ta6  1  0.002116  0.001824  0.500469  1
  Ta  Ta7  1  0.997524  0.997414  0.999381  1
  O  O8  1  0.930879  0.068184  0.749989  1
  O  O9  1  0.068468  0.932852  0.249980  1
  O  O10  1  0.360857  0.642291  0.248042  1
  O  O11  1  0.641865  0.357833  0.751844  1
  O  O12  1  0.368988  0.631220  0.751835  1
  O  O13  1  0.627703  0.367098  0.248695  1
  O  O14  1  0.327878  0.080620  0.975485  1
  O  O15  1  0.672905  0.921213  0.475237  1
  O  O16  1  0.307463  0.048471  0.545421  1
  O  O17  1  0.693933  0.952178  0.045449  1
  O  O18  1  0.051047  0.307993  0.457064  1
  O  O19  1  0.950845  0.693901  0.953332  1
  O  O20  1  0.920142  0.673211  0.526009  1
  O  O21  1  0.082894  0.327902  0.022273  1
