# generated using pymatgen
data_Sc2Be2GeRh5
_symmetry_space_group_name_H-M   'P 1'
_cell_length_a   9.46898200
_cell_length_b   9.46898200
_cell_length_c   3.10470700
_cell_angle_alpha   90.00000000
_cell_angle_beta   90.00000000
_cell_angle_gamma   90.00000000
_symmetry_Int_Tables_number   1
_chemical_formula_structural   Sc2Be2GeRh5
_chemical_formula_sum   'Sc4 Be4 Ge2 Rh10'
_cell_volume   278.37305961
_cell_formula_units_Z   2
loop_
 _symmetry_equiv_pos_site_id
 _symmetry_equiv_pos_as_xyz
  1  'x, y, z'
loop_
 _atom_site_type_symbol
 _atom_site_label
 _atom_site_symmetry_multiplicity
 _atom_site_fract_x
 _atom_site_fract_y
 _atom_site_fract_z
 _atom_site_occupancy
  Sc  Sc0  1  0.825247  0.325247  0.000000  1
  Sc  Sc1  1  0.325247  0.174753  0.000000  1
  Sc  Sc2  1  0.674753  0.825247  0.000000  1
  Sc  Sc3  1  0.174753  0.674753  0.000000  1
  Be  Be4  1  0.623283  0.123283  0.000000  1
  Be  Be5  1  0.123283  0.376717  0.000000  1
  Be  Be6  1  0.876717  0.623283  0.000000  1
  Be  Be7  1  0.376717  0.876717  0.000000  1
  Ge  Ge8  1  0.000000  0.000000  0.000000  1
  Ge  Ge9  1  0.500000  0.500000  0.000000  1
  Rh  Rh10  1  0.069013  0.207824  0.500000  1
  Rh  Rh11  1  0.207824  0.930987  0.500000  1
  Rh  Rh12  1  0.792176  0.069013  0.500000  1
  Rh  Rh13  1  0.930987  0.792176  0.500000  1
  Rh  Rh14  1  0.430987  0.707824  0.500000  1
  Rh  Rh15  1  0.569013  0.292176  0.500000  1
  Rh  Rh16  1  0.707824  0.569013  0.500000  1
  Rh  Rh17  1  0.292176  0.430987  0.500000  1
  Rh  Rh18  1  0.500000  0.000000  0.500000  1
  Rh  Rh19  1  0.000000  0.500000  0.500000  1
