# generated using pymatgen
data_Dy3Zr(P3Rh4)2
_symmetry_space_group_name_H-M   'P 1'
_cell_length_a   3.94467200
_cell_length_b   11.26372200
_cell_length_c   12.95252500
_cell_angle_alpha   90.00000000
_cell_angle_beta   90.00000000
_cell_angle_gamma   90.00000000
_symmetry_Int_Tables_number   1
_chemical_formula_structural   Dy3Zr(P3Rh4)2
_chemical_formula_sum   'Dy6 Zr2 P12 Rh16'
_cell_volume   575.50255983
_cell_formula_units_Z   2
loop_
 _symmetry_equiv_pos_site_id
 _symmetry_equiv_pos_as_xyz
  1  'x, y, z'
loop_
 _atom_site_type_symbol
 _atom_site_label
 _atom_site_symmetry_multiplicity
 _atom_site_fract_x
 _atom_site_fract_y
 _atom_site_fract_z
 _atom_site_occupancy
  Dy  Dy0  1  0.000000  0.500000  0.523046  1
  Dy  Dy1  1  0.500000  0.000000  0.476954  1
  Dy  Dy2  1  0.500000  0.819942  0.201560  1
  Dy  Dy3  1  0.500000  0.180058  0.201560  1
  Dy  Dy4  1  0.000000  0.680058  0.798440  1
  Dy  Dy5  1  0.000000  0.319942  0.798440  1
  Zr  Zr6  1  0.500000  0.500000  0.158107  1
  Zr  Zr7  1  0.000000  0.000000  0.841893  1
  P  P8  1  0.500000  0.500000  0.877428  1
  P  P9  1  0.000000  0.000000  0.122572  1
  P  P10  1  0.500000  0.500000  0.359352  1
  P  P11  1  0.000000  0.000000  0.640648  1
  P  P12  1  0.500000  0.313246  0.616150  1
  P  P13  1  0.500000  0.686754  0.616150  1
  P  P14  1  0.000000  0.186754  0.383850  1
  P  P15  1  0.000000  0.813246  0.383850  1
  P  P16  1  0.500000  0.841677  0.888134  1
  P  P17  1  0.500000  0.158323  0.888134  1
  P  P18  1  0.000000  0.658323  0.111866  1
  P  P19  1  0.000000  0.341677  0.111866  1
  Rh  Rh20  1  0.500000  0.500000  0.698980  1
  Rh  Rh21  1  0.000000  0.000000  0.301020  1
  Rh  Rh22  1  0.000000  0.500000  0.983116  1
  Rh  Rh23  1  0.500000  0.000000  0.016884  1
  Rh  Rh24  1  0.500000  0.331591  0.988387  1
  Rh  Rh25  1  0.500000  0.668409  0.988387  1
  Rh  Rh26  1  0.000000  0.168409  0.011613  1
  Rh  Rh27  1  0.000000  0.831591  0.011613  1
  Rh  Rh28  1  0.500000  0.291306  0.432202  1
  Rh  Rh29  1  0.500000  0.708694  0.432202  1
  Rh  Rh30  1  0.000000  0.208694  0.567798  1
  Rh  Rh31  1  0.000000  0.791306  0.567798  1
  Rh  Rh32  1  0.500000  0.873151  0.705126  1
  Rh  Rh33  1  0.500000  0.126849  0.705126  1
  Rh  Rh34  1  0.000000  0.626849  0.294874  1
  Rh  Rh35  1  0.000000  0.373151  0.294874  1
