# generated using pymatgen
data_La2Ga3GeIr3Rh
_symmetry_space_group_name_H-M   'P 1'
_cell_length_a   4.30853600
_cell_length_b   4.30539000
_cell_length_c   10.36934300
_cell_angle_alpha   90.00000000
_cell_angle_beta   90.00000000
_cell_angle_gamma   90.00000000
_symmetry_Int_Tables_number   1
_chemical_formula_structural   La2Ga3GeIr3Rh
_chemical_formula_sum   'La2 Ga3 Ge1 Ir3 Rh1'
_cell_volume   192.35056408
_cell_formula_units_Z   1
loop_
 _symmetry_equiv_pos_site_id
 _symmetry_equiv_pos_as_xyz
  1  'x, y, z'
loop_
 _atom_site_type_symbol
 _atom_site_label
 _atom_site_symmetry_multiplicity
 _atom_site_fract_x
 _atom_site_fract_y
 _atom_site_fract_z
 _atom_site_occupancy
  La  La0  1  0.000000  0.500000  0.246948  1
  La  La1  1  0.500000  0.000000  0.750775  1
  Ga  Ga2  1  0.000000  0.000000  0.499152  1
  Ga  Ga3  1  0.500000  0.500000  0.499105  1
  Ga  Ga4  1  0.000000  0.500000  0.875137  1
  Ge  Ge5  1  0.500000  0.000000  0.124457  1
  Ir  Ir6  1  0.500000  0.500000  0.003975  1
  Ir  Ir7  1  0.000000  0.500000  0.631737  1
  Ir  Ir8  1  0.500000  0.000000  0.365276  1
  Rh  Rh9  1  0.000000  0.000000  0.003439  1
