# generated using pymatgen
data_ZrTa4Nb(B2Ru5)2
_symmetry_space_group_name_H-M   'P 1'
_cell_length_a   9.47959429
_cell_length_b   9.47959431
_cell_length_c   3.04055800
_cell_angle_alpha   90.00000000
_cell_angle_beta   90.00000000
_cell_angle_gamma   90.14119068
_symmetry_Int_Tables_number   1
_chemical_formula_structural   ZrTa4Nb(B2Ru5)2
_chemical_formula_sum   'Zr1 Ta4 Nb1 B4 Ru10'
_cell_volume   273.23194638
_cell_formula_units_Z   1
loop_
 _symmetry_equiv_pos_site_id
 _symmetry_equiv_pos_as_xyz
  1  'x, y, z'
loop_
 _atom_site_type_symbol
 _atom_site_label
 _atom_site_symmetry_multiplicity
 _atom_site_fract_x
 _atom_site_fract_y
 _atom_site_fract_z
 _atom_site_occupancy
  Zr  Zr0  1  0.824148  0.675852  0.000000  1
  Ta  Ta1  1  0.324448  0.823380  0.000000  1
  Ta  Ta2  1  0.676620  0.175552  0.000000  1
  Ta  Ta3  1  0.500085  0.500155  0.000000  1
  Ta  Ta4  1  0.999845  0.999915  0.000000  1
  Nb  Nb5  1  0.176615  0.323385  0.000000  1
  B  B6  1  0.620359  0.879641  0.000000  1
  B  B7  1  0.378358  0.121642  0.000000  1
  B  B8  1  0.121527  0.621126  0.000000  1
  B  B9  1  0.878874  0.378473  0.000000  1
  Ru  Ru10  1  0.565334  0.720909  0.500000  1
  Ru  Ru11  1  0.428752  0.281558  0.500000  1
  Ru  Ru12  1  0.076024  0.782538  0.500000  1
  Ru  Ru13  1  0.929104  0.217465  0.500000  1
  Ru  Ru14  1  0.282535  0.570896  0.500000  1
  Ru  Ru15  1  0.717462  0.423976  0.500000  1
  Ru  Ru16  1  0.218442  0.071248  0.500000  1
  Ru  Ru17  1  0.779091  0.934666  0.500000  1
  Ru  Ru18  1  0.498588  0.001412  0.500000  1
  Ru  Ru19  1  0.003788  0.496212  0.500000  1
