# generated using pymatgen
data_Er3Tm5TcB24IrRu2
_symmetry_space_group_name_H-M   'P 1'
_cell_length_a   3.62503100
_cell_length_b   9.08419789
_cell_length_c   11.43154200
_cell_angle_alpha   90.02531707
_cell_angle_beta   90.00000000
_cell_angle_gamma   90.00000000
_symmetry_Int_Tables_number   1
_chemical_formula_structural   Er3Tm5TcB24IrRu2
_chemical_formula_sum   'Er3 Tm5 Tc1 B24 Ir1 Ru2'
_cell_volume   376.44634508
_cell_formula_units_Z   1
loop_
 _symmetry_equiv_pos_site_id
 _symmetry_equiv_pos_as_xyz
  1  'x, y, z'
loop_
 _atom_site_type_symbol
 _atom_site_label
 _atom_site_symmetry_multiplicity
 _atom_site_fract_x
 _atom_site_fract_y
 _atom_site_fract_z
 _atom_site_occupancy
  Er  Er0  1  0.000000  0.319577  0.417416  1
  Er  Er1  1  0.000000  0.677150  0.589858  1
  Er  Er2  1  0.000000  0.824169  0.082712  1
  Tm  Tm3  1  0.000000  0.180400  0.910778  1
  Tm  Tm4  1  0.000000  0.945240  0.372447  1
  Tm  Tm5  1  0.000000  0.056797  0.627562  1
  Tm  Tm6  1  0.000000  0.441483  0.126300  1
  Tm  Tm7  1  0.000000  0.555209  0.872424  1
  Tc  Tc8  1  0.000000  0.362200  0.678871  1
  B  B9  1  0.500000  0.553953  0.434179  1
  B  B10  1  0.500000  0.446623  0.566318  1
  B  B11  1  0.500000  0.054157  0.066083  1
  B  B12  1  0.500000  0.946836  0.933191  1
  B  B13  1  0.500000  0.749561  0.421365  1
  B  B14  1  0.500000  0.250984  0.580119  1
  B  B15  1  0.500000  0.248519  0.079539  1
  B  B16  1  0.500000  0.751668  0.920049  1
  B  B17  1  0.500000  0.792234  0.265254  1
  B  B18  1  0.500000  0.207781  0.734380  1
  B  B19  1  0.500000  0.291338  0.234496  1
  B  B20  1  0.500000  0.708320  0.766549  1
  B  B21  1  0.500000  0.631673  0.182892  1
  B  B22  1  0.500000  0.368706  0.815024  1
  B  B23  1  0.500000  0.130989  0.315612  1
  B  B24  1  0.500000  0.868456  0.685260  1
  B  B25  1  0.500000  0.982570  0.212623  1
  B  B26  1  0.500000  0.017864  0.787156  1
  B  B27  1  0.500000  0.481944  0.286544  1
  B  B28  1  0.500000  0.518015  0.713287  1
  B  B29  1  0.500000  0.606817  0.029978  1
  B  B30  1  0.500000  0.393037  0.971111  1
  B  B31  1  0.500000  0.105189  0.470234  1
  B  B32  1  0.500000  0.892986  0.529004  1
  Ir  Ir33  1  0.000000  0.637792  0.320921  1
  Ru  Ru34  1  0.000000  0.137637  0.179247  1
  Ru  Ru35  1  0.000000  0.862129  0.821222  1
