# generated using pymatgen
data_Er3Tm13In4Ni3Ir
_symmetry_space_group_name_H-M   'P 1'
_cell_length_a   9.46766663
_cell_length_b   9.50609166
_cell_length_c   9.46766700
_cell_angle_alpha   60.13362553
_cell_angle_beta   60.00000221
_cell_angle_gamma   60.13362480
_symmetry_Int_Tables_number   1
_chemical_formula_structural   Er3Tm13In4Ni3Ir
_chemical_formula_sum   'Er3 Tm13 In4 Ni3 Ir1'
_cell_volume   603.73611525
_cell_formula_units_Z   1
loop_
 _symmetry_equiv_pos_site_id
 _symmetry_equiv_pos_as_xyz
  1  'x, y, z'
loop_
 _atom_site_type_symbol
 _atom_site_label
 _atom_site_symmetry_multiplicity
 _atom_site_fract_x
 _atom_site_fract_y
 _atom_site_fract_z
 _atom_site_occupancy
  Er  Er0  1  0.060685  0.437289  0.441342  1
  Er  Er1  1  0.441342  0.437289  0.060685  1
  Er  Er2  1  0.060685  0.437289  0.060685  1
  Tm  Tm3  1  0.062341  0.062142  0.437758  1
  Tm  Tm4  1  0.653069  0.040794  0.653069  1
  Tm  Tm5  1  0.188022  0.811960  0.188022  1
  Tm  Tm6  1  0.437758  0.062142  0.437758  1
  Tm  Tm7  1  0.190046  0.186827  0.811563  1
  Tm  Tm8  1  0.651003  0.654165  0.651003  1
  Tm  Tm9  1  0.043829  0.654165  0.651003  1
  Tm  Tm10  1  0.437758  0.062142  0.062341  1
  Tm  Tm11  1  0.651003  0.654165  0.043829  1
  Tm  Tm12  1  0.188022  0.811960  0.811997  1
  Tm  Tm13  1  0.811563  0.186827  0.811563  1
  Tm  Tm14  1  0.811563  0.186827  0.190046  1
  Tm  Tm15  1  0.811997  0.811960  0.188022  1
  In  In16  1  0.747976  0.416264  0.417880  1
  In  In17  1  0.417880  0.416264  0.747976  1
  In  In18  1  0.416394  0.750818  0.416394  1
  In  In19  1  0.417880  0.416264  0.417880  1
  Ni  Ni20  1  0.857911  0.858619  0.857911  1
  Ni  Ni21  1  0.425559  0.858619  0.857911  1
  Ni  Ni22  1  0.857911  0.858619  0.425559  1
  Ir  Ir23  1  0.857804  0.426588  0.857804  1
