# generated using pymatgen
data_Nd3Pa(HgPt2)2
_symmetry_space_group_name_H-M   'P 1'
_cell_length_a   7.95367745
_cell_length_b   7.95367745
_cell_length_c   3.75000400
_cell_angle_alpha   90.00000000
_cell_angle_beta   90.00000000
_cell_angle_gamma   87.67188289
_symmetry_Int_Tables_number   1
_chemical_formula_structural   Nd3Pa(HgPt2)2
_chemical_formula_sum   'Nd3 Pa1 Hg2 Pt4'
_cell_volume   237.03313331
_cell_formula_units_Z   1
loop_
 _symmetry_equiv_pos_site_id
 _symmetry_equiv_pos_as_xyz
  1  'x, y, z'
loop_
 _atom_site_type_symbol
 _atom_site_label
 _atom_site_symmetry_multiplicity
 _atom_site_fract_x
 _atom_site_fract_y
 _atom_site_fract_z
 _atom_site_occupancy
  Nd  Nd0  1  0.826907  0.327870  0.500000  1
  Nd  Nd1  1  0.172131  0.673094  0.500000  1
  Nd  Nd2  1  0.674335  0.825666  0.500000  1
  Pa  Pa3  1  0.331332  0.168669  0.500000  1
  Hg  Hg4  1  0.995968  0.001076  0.000000  1
  Hg  Hg5  1  0.498924  0.504032  0.000000  1
  Pt  Pt6  1  0.609692  0.135973  0.000000  1
  Pt  Pt7  1  0.144766  0.355235  0.000000  1
  Pt  Pt8  1  0.881919  0.618081  0.000000  1
  Pt  Pt9  1  0.364028  0.890308  0.000000  1
