# generated using pymatgen
data_Ho2Er3Lu5Pb6
_symmetry_space_group_name_H-M   'P 1'
_cell_length_a   6.50014001
_cell_length_b   8.94582189
_cell_length_c   8.95338603
_cell_angle_alpha   120.02802181
_cell_angle_beta   89.99354197
_cell_angle_gamma   90.00089357
_symmetry_Int_Tables_number   1
_chemical_formula_structural   Ho2Er3Lu5Pb6
_chemical_formula_sum   'Ho2 Er3 Lu5 Pb6'
_cell_volume   450.75255457
_cell_formula_units_Z   1
loop_
 _symmetry_equiv_pos_site_id
 _symmetry_equiv_pos_as_xyz
  1  'x, y, z'
loop_
 _atom_site_type_symbol
 _atom_site_label
 _atom_site_symmetry_multiplicity
 _atom_site_fract_x
 _atom_site_fract_y
 _atom_site_fract_z
 _atom_site_occupancy
  Ho  Ho0  1  0.250001  0.762851  0.999773  1
  Ho  Ho1  1  0.249987  0.237129  0.236932  1
  Er  Er2  1  0.750018  0.236858  0.999681  1
  Er  Er3  1  0.750035  0.763153  0.762808  1
  Er  Er4  1  0.750026  0.000009  0.237654  1
  Lu  Lu5  1  0.249991  0.999972  0.762899  1
  Lu  Lu6  1  0.499889  0.333313  0.666698  1
  Lu  Lu7  1  0.499908  0.666664  0.333363  1
  Lu  Lu8  1  0.000082  0.666696  0.333344  1
  Lu  Lu9  1  0.000085  0.333352  0.666709  1
  Pb  Pb10  1  0.749987  0.604243  0.999980  1
  Pb  Pb11  1  0.750017  0.395784  0.395765  1
  Pb  Pb12  1  0.750014  0.999978  0.604067  1
  Pb  Pb13  1  0.249993  0.394490  0.999127  1
  Pb  Pb14  1  0.250010  0.605474  0.604560  1
  Pb  Pb15  1  0.249959  0.000036  0.396638  1
