# generated using pymatgen
data_Ca8TbNd(Sn3H)2
_symmetry_space_group_name_H-M   'P 1'
_cell_length_a   9.45048348
_cell_length_b   9.45048185
_cell_length_c   9.45423128
_cell_angle_alpha   128.92690684
_cell_angle_beta   128.92689847
_cell_angle_gamma   75.11483547
_symmetry_Int_Tables_number   1
_chemical_formula_structural   Ca8TbNd(Sn3H)2
_chemical_formula_sum   'Ca8 Tb1 Nd1 Sn6 H2'
_cell_volume   497.57195042
_cell_formula_units_Z   1
loop_
 _symmetry_equiv_pos_site_id
 _symmetry_equiv_pos_as_xyz
  1  'x, y, z'
loop_
 _atom_site_type_symbol
 _atom_site_label
 _atom_site_symmetry_multiplicity
 _atom_site_fract_x
 _atom_site_fract_y
 _atom_site_fract_z
 _atom_site_occupancy
  Ca  Ca0  1  0.502300  0.502260  0.000893  1
  Ca  Ca1  1  0.002260  0.002300  0.000893  1
  Ca  Ca2  1  0.007326  0.186160  0.498545  1
  Ca  Ca3  1  0.686160  0.507326  0.498545  1
  Ca  Ca4  1  0.488729  0.988729  0.178693  1
  Ca  Ca5  1  0.808345  0.308345  0.819001  1
  Ca  Ca6  1  0.989288  0.812530  0.501281  1
  Ca  Ca7  1  0.312530  0.489288  0.501281  1
  Tb  Tb8  1  0.517764  0.017764  0.829966  1
  Nd  Nd9  1  0.184104  0.684104  0.164521  1
  Sn  Sn10  1  0.256264  0.249938  0.998788  1
  Sn  Sn11  1  0.749938  0.756264  0.998788  1
  Sn  Sn12  1  0.868417  0.368417  0.238981  1
  Sn  Sn13  1  0.125144  0.625144  0.753472  1
  Sn  Sn14  1  0.367561  0.124254  0.502584  1
  Sn  Sn15  1  0.624254  0.867561  0.502584  1
  H  H16  1  0.261826  0.761826  0.510396  1
  H  H17  1  0.747790  0.247790  0.500788  1
