# generated using pymatgen
data_Ho2Sc3P12IrRu18
_symmetry_space_group_name_H-M   'P 1'
_cell_length_a   12.45623100
_cell_length_b   12.45623120
_cell_length_c   3.95183000
_cell_angle_alpha   90.00000000
_cell_angle_beta   90.00000000
_cell_angle_gamma   119.99999682
_symmetry_Int_Tables_number   1
_chemical_formula_structural   Ho2Sc3P12IrRu18
_chemical_formula_sum   'Ho2 Sc3 P12 Ir1 Ru18'
_cell_volume   531.00940550
_cell_formula_units_Z   1
loop_
 _symmetry_equiv_pos_site_id
 _symmetry_equiv_pos_as_xyz
  1  'x, y, z'
loop_
 _atom_site_type_symbol
 _atom_site_label
 _atom_site_symmetry_multiplicity
 _atom_site_fract_x
 _atom_site_fract_y
 _atom_site_fract_z
 _atom_site_occupancy
  Ho  Ho0  1  0.333333  0.666667  0.000000  1
  Ho  Ho1  1  0.666667  0.333333  0.000000  1
  Sc  Sc2  1  0.814616  0.000000  0.500000  1
  Sc  Sc3  1  0.000000  0.814616  0.500000  1
  Sc  Sc4  1  0.185384  0.185384  0.500000  1
  P  P5  1  0.182336  0.000000  0.000000  1
  P  P6  1  0.000000  0.182336  0.000000  1
  P  P7  1  0.817664  0.817664  0.000000  1
  P  P8  1  0.169484  0.476839  0.500000  1
  P  P9  1  0.523161  0.692645  0.500000  1
  P  P10  1  0.307355  0.830516  0.500000  1
  P  P11  1  0.692645  0.523161  0.500000  1
  P  P12  1  0.830516  0.307355  0.500000  1
  P  P13  1  0.476839  0.169484  0.500000  1
  P  P14  1  0.628292  0.000000  0.000000  1
  P  P15  1  0.000000  0.628292  0.000000  1
  P  P16  1  0.371708  0.371708  0.000000  1
  Ir  Ir17  1  0.000000  0.000000  0.000000  1
  Ru  Ru18  1  0.444453  0.000000  0.000000  1
  Ru  Ru19  1  0.000000  0.444453  0.000000  1
  Ru  Ru20  1  0.555547  0.555547  0.000000  1
  Ru  Ru21  1  0.364563  0.490808  0.500000  1
  Ru  Ru22  1  0.509192  0.873755  0.500000  1
  Ru  Ru23  1  0.126245  0.635437  0.500000  1
  Ru  Ru24  1  0.873755  0.509192  0.500000  1
  Ru  Ru25  1  0.635437  0.126245  0.500000  1
  Ru  Ru26  1  0.490808  0.364563  0.500000  1
  Ru  Ru27  1  0.184548  0.373243  0.000000  1
  Ru  Ru28  1  0.626757  0.811306  0.000000  1
  Ru  Ru29  1  0.188694  0.815452  0.000000  1
  Ru  Ru30  1  0.811306  0.626757  0.000000  1
  Ru  Ru31  1  0.815452  0.188694  0.000000  1
  Ru  Ru32  1  0.373243  0.184548  0.000000  1
  Ru  Ru33  1  0.278388  0.000000  0.500000  1
  Ru  Ru34  1  0.000000  0.278388  0.500000  1
  Ru  Ru35  1  0.721612  0.721612  0.500000  1
