# generated using pymatgen
data_Nd5SmOsI10
_symmetry_space_group_name_H-M   'P 1'
_cell_length_a   7.99200244
_cell_length_b   10.01576030
_cell_length_c   10.02960487
_cell_angle_alpha   107.14990081
_cell_angle_beta   96.61745956
_cell_angle_gamma   104.59895498
_symmetry_Int_Tables_number   1
_chemical_formula_structural   Nd5SmOsI10
_chemical_formula_sum   'Nd5 Sm1 Os1 I10'
_cell_volume   726.59838708
_cell_formula_units_Z   1
loop_
 _symmetry_equiv_pos_site_id
 _symmetry_equiv_pos_as_xyz
  1  'x, y, z'
loop_
 _atom_site_type_symbol
 _atom_site_label
 _atom_site_symmetry_multiplicity
 _atom_site_fract_x
 _atom_site_fract_y
 _atom_site_fract_z
 _atom_site_occupancy
  Nd  Nd0  1  0.116349  0.042366  0.759102  1
  Nd  Nd1  1  0.881217  0.956205  0.240016  1
  Nd  Nd2  1  0.965541  0.281599  0.082695  1
  Nd  Nd3  1  0.032574  0.717640  0.915959  1
  Nd  Nd4  1  0.354739  0.127526  0.170601  1
  Sm  Sm5  1  0.649613  0.875327  0.832597  1
  Os  Os6  1  0.000372  0.000038  0.000378  1
  I  I7  1  0.346153  0.449459  0.270306  1
  I  I8  1  0.649992  0.554068  0.728809  1
  I  I9  1  0.254096  0.084533  0.457382  1
  I  I10  1  0.740526  0.913143  0.544228  1
  I  I11  1  0.086698  0.368916  0.818883  1
  I  I12  1  0.912808  0.630598  0.180320  1
  I  I13  1  0.455087  0.815183  0.087380  1
  I  I14  1  0.545500  0.180528  0.906856  1
  I  I15  1  0.784310  0.257450  0.348475  1
  I  I16  1  0.224424  0.745420  0.656014  1
