# generated using pymatgen
data_Nd2Dy3LuTa2O14
_symmetry_space_group_name_H-M   'P 1'
_cell_length_a   6.48555829
_cell_length_b   6.48876239
_cell_length_c   7.58635200
_cell_angle_alpha   90.00000000
_cell_angle_beta   90.00000000
_cell_angle_gamma   109.26067239
_symmetry_Int_Tables_number   1
_chemical_formula_structural   Nd2Dy3LuTa2O14
_chemical_formula_sum   'Nd2 Dy3 Lu1 Ta2 O14'
_cell_volume   301.38866601
_cell_formula_units_Z   1
loop_
 _symmetry_equiv_pos_site_id
 _symmetry_equiv_pos_as_xyz
  1  'x, y, z'
loop_
 _atom_site_type_symbol
 _atom_site_label
 _atom_site_symmetry_multiplicity
 _atom_site_fract_x
 _atom_site_fract_y
 _atom_site_fract_z
 _atom_site_occupancy
  Nd  Nd0  1  0.499824  0.498863  0.498919  1
  Nd  Nd1  1  0.499824  0.498863  0.001081  1
  Dy  Dy2  1  0.000734  0.535037  0.250000  1
  Dy  Dy3  1  0.999062  0.466396  0.750000  1
  Dy  Dy4  1  0.532503  0.000829  0.750000  1
  Lu  Lu5  1  0.469237  0.998247  0.250000  1
  Ta  Ta6  1  0.999923  0.000252  0.498661  1
  Ta  Ta7  1  0.999923  0.000252  0.001339  1
  O  O8  1  0.933762  0.061973  0.750000  1
  O  O9  1  0.067004  0.934273  0.250000  1
  O  O10  1  0.358332  0.648457  0.250000  1
  O  O11  1  0.640919  0.357295  0.750000  1
  O  O12  1  0.364428  0.636091  0.750000  1
  O  O13  1  0.632839  0.356566  0.250000  1
  O  O14  1  0.321322  0.066894  0.970879  1
  O  O15  1  0.681520  0.935764  0.460921  1
  O  O16  1  0.321322  0.066894  0.529121  1
  O  O17  1  0.681520  0.935764  0.039079  1
  O  O18  1  0.071201  0.321599  0.468193  1
  O  O19  1  0.926800  0.679047  0.967691  1
  O  O20  1  0.926800  0.679047  0.532309  1
  O  O21  1  0.071201  0.321599  0.031807  1
