# generated using pymatgen
data_Rb5Sb(PSe3)4
_symmetry_space_group_name_H-M   'P 1'
_cell_length_a   14.24338700
_cell_length_b   14.24338700
_cell_length_c   7.76650400
_cell_angle_alpha   90.00000000
_cell_angle_beta   90.00000000
_cell_angle_gamma   90.00000000
_symmetry_Int_Tables_number   1
_chemical_formula_structural   Rb5Sb(PSe3)4
_chemical_formula_sum   'Rb10 Sb2 P8 Se24'
_cell_volume   1575.62230125
_cell_formula_units_Z   2
loop_
 _symmetry_equiv_pos_site_id
 _symmetry_equiv_pos_as_xyz
  1  'x, y, z'
loop_
 _atom_site_type_symbol
 _atom_site_label
 _atom_site_symmetry_multiplicity
 _atom_site_fract_x
 _atom_site_fract_y
 _atom_site_fract_z
 _atom_site_occupancy
  Rb  Rb0  1  0.000000  0.000000  0.500000  1
  Rb  Rb1  1  0.000000  0.000000  0.000000  1
  Rb  Rb2  1  0.308949  0.338599  0.500000  1
  Rb  Rb3  1  0.691051  0.661401  0.500000  1
  Rb  Rb4  1  0.661401  0.308949  0.000000  1
  Rb  Rb5  1  0.338599  0.691051  0.000000  1
  Rb  Rb6  1  0.306817  0.980131  0.500000  1
  Rb  Rb7  1  0.693183  0.019869  0.500000  1
  Rb  Rb8  1  0.019869  0.306817  0.000000  1
  Rb  Rb9  1  0.980131  0.693183  0.000000  1
  Sb  Sb10  1  0.000000  0.500000  0.500000  1
  Sb  Sb11  1  0.500000  0.000000  0.000000  1
  P  P12  1  0.205660  0.613048  0.500000  1
  P  P13  1  0.794340  0.386952  0.500000  1
  P  P14  1  0.386952  0.205660  0.000000  1
  P  P15  1  0.613048  0.794340  0.000000  1
  P  P16  1  0.117931  0.749927  0.500000  1
  P  P17  1  0.882069  0.250073  0.500000  1
  P  P18  1  0.250073  0.117931  0.000000  1
  P  P19  1  0.749927  0.882069  0.000000  1
  Se  Se20  1  0.153349  0.827136  0.264237  1
  Se  Se21  1  0.846651  0.172864  0.264237  1
  Se  Se22  1  0.172864  0.153349  0.764237  1
  Se  Se23  1  0.827136  0.846651  0.764237  1
  Se  Se24  1  0.846651  0.172864  0.735763  1
  Se  Se25  1  0.153349  0.827136  0.735763  1
  Se  Se26  1  0.827136  0.846651  0.235763  1
  Se  Se27  1  0.172864  0.153349  0.235763  1
  Se  Se28  1  0.031272  0.300586  0.500000  1
  Se  Se29  1  0.968728  0.699414  0.500000  1
  Se  Se30  1  0.699414  0.031272  0.000000  1
  Se  Se31  1  0.300586  0.968728  0.000000  1
  Se  Se32  1  0.353873  0.638837  0.500000  1
  Se  Se33  1  0.646127  0.361163  0.500000  1
  Se  Se34  1  0.361163  0.353873  0.000000  1
  Se  Se35  1  0.638837  0.646127  0.000000  1
  Se  Se36  1  0.155235  0.534717  0.266821  1
  Se  Se37  1  0.844765  0.465283  0.266821  1
  Se  Se38  1  0.465283  0.155235  0.766821  1
  Se  Se39  1  0.534717  0.844765  0.766821  1
  Se  Se40  1  0.844765  0.465283  0.733179  1
  Se  Se41  1  0.155235  0.534717  0.733179  1
  Se  Se42  1  0.534717  0.844765  0.233179  1
  Se  Se43  1  0.465283  0.155235  0.233179  1
