# generated using pymatgen
data_TbDy3Al6(Ga2Ir)6
_symmetry_space_group_name_H-M   'P 1'
_cell_length_a   7.57031778
_cell_length_b   7.56819261
_cell_length_c   9.54074200
_cell_angle_alpha   90.16612979
_cell_angle_beta   89.93575642
_cell_angle_gamma   119.70592171
_symmetry_Int_Tables_number   1
_chemical_formula_structural   TbDy3Al6(Ga2Ir)6
_chemical_formula_sum   'Tb1 Dy3 Al6 Ga12 Ir6'
_cell_volume   474.78453099
_cell_formula_units_Z   1
loop_
 _symmetry_equiv_pos_site_id
 _symmetry_equiv_pos_as_xyz
  1  'x, y, z'
loop_
 _atom_site_type_symbol
 _atom_site_label
 _atom_site_symmetry_multiplicity
 _atom_site_fract_x
 _atom_site_fract_y
 _atom_site_fract_z
 _atom_site_occupancy
  Tb  Tb0  1  0.328614  0.999331  0.745038  1
  Dy  Dy1  1  0.998942  0.667133  0.251212  1
  Dy  Dy2  1  0.001055  0.332869  0.748790  1
  Dy  Dy3  1  0.671389  0.000680  0.254969  1
  Al  Al4  1  0.664161  0.997655  0.928400  1
  Al  Al5  1  0.335887  0.002352  0.071663  1
  Al  Al6  1  0.332521  0.332633  0.552468  1
  Al  Al7  1  0.667479  0.667411  0.447509  1
  Al  Al8  1  0.668003  0.667411  0.053955  1
  Al  Al9  1  0.331997  0.332625  0.946066  1
  Ga  Ga10  1  0.128259  0.125051  0.249257  1
  Ga  Ga11  1  0.871691  0.874924  0.750744  1
  Ga  Ga12  1  0.998549  0.333263  0.077819  1
  Ga  Ga13  1  0.001399  0.666685  0.922204  1
  Ga  Ga14  1  0.998024  0.664494  0.579528  1
  Ga  Ga15  1  0.335076  0.000374  0.418046  1
  Ga  Ga16  1  0.001912  0.335441  0.420447  1
  Ga  Ga17  1  0.664989  0.999633  0.581892  1
  Ga  Ga18  1  0.345477  0.550043  0.249891  1
  Ga  Ga19  1  0.654560  0.450013  0.750111  1
  Ga  Ga20  1  0.547798  0.344244  0.249082  1
  Ga  Ga21  1  0.452220  0.655729  0.750918  1
  Ir  Ir22  1  0.667161  0.326080  0.999179  1
  Ir  Ir23  1  0.332868  0.673929  0.000858  1
  Ir  Ir24  1  0.330496  0.669341  0.500605  1
  Ir  Ir25  1  0.669532  0.330661  0.499354  1
  Ir  Ir26  1  0.999974  0.999997  0.000019  1
  Ir  Ir27  1  0.999968  0.999997  0.499978  1
