# generated using pymatgen
data_Pr8Ho8Sc4Si15As
_symmetry_space_group_name_H-M   'P 1'
_cell_length_a   7.43339436
_cell_length_b   7.74280493
_cell_length_c   14.67662153
_cell_angle_alpha   90.20272586
_cell_angle_beta   88.83735783
_cell_angle_gamma   90.33152656
_symmetry_Int_Tables_number   1
_chemical_formula_structural   Pr8Ho8Sc4Si15As
_chemical_formula_sum   'Pr8 Ho8 Sc4 Si15 As1'
_cell_volume   844.52469907
_cell_formula_units_Z   1
loop_
 _symmetry_equiv_pos_site_id
 _symmetry_equiv_pos_as_xyz
  1  'x, y, z'
loop_
 _atom_site_type_symbol
 _atom_site_label
 _atom_site_symmetry_multiplicity
 _atom_site_fract_x
 _atom_site_fract_y
 _atom_site_fract_z
 _atom_site_occupancy
  Pr  Pr0  1  0.015283  0.181426  0.402321  1
  Pr  Pr1  1  0.511818  0.320822  0.399791  1
  Pr  Pr2  1  0.480283  0.679232  0.900156  1
  Pr  Pr3  1  0.491413  0.677682  0.599814  1
  Pr  Pr4  1  0.984190  0.818077  0.597161  1
  Pr  Pr5  1  0.979797  0.820120  0.900507  1
  Pr  Pr6  1  0.520701  0.321689  0.100138  1
  Pr  Pr7  1  0.020763  0.180556  0.099629  1
  Ho  Ho8  1  0.329962  0.172943  0.627424  1
  Ho  Ho9  1  0.671519  0.825737  0.373006  1
  Ho  Ho10  1  0.166909  0.673069  0.378550  1
  Ho  Ho11  1  0.822953  0.322532  0.874926  1
  Ho  Ho12  1  0.830432  0.327627  0.621159  1
  Ho  Ho13  1  0.321066  0.175967  0.874741  1
  Ho  Ho14  1  0.176826  0.677484  0.124477  1
  Ho  Ho15  1  0.678730  0.824063  0.124758  1
  Sc  Sc16  1  0.656660  0.991252  0.749785  1
  Sc  Sc17  1  0.841516  0.491286  0.253909  1
  Sc  Sc18  1  0.343724  0.008278  0.250438  1
  Sc  Sc19  1  0.158091  0.510021  0.749815  1
  Si  Si20  1  0.281154  0.871117  0.750147  1
  Si  Si21  1  0.469197  0.611685  0.248352  1
  Si  Si22  1  0.021891  0.108011  0.748441  1
  Si  Si23  1  0.529516  0.389055  0.751241  1
  Si  Si24  1  0.978127  0.892210  0.250450  1
  Si  Si25  1  0.719877  0.127918  0.249533  1
  Si  Si26  1  0.854397  0.531925  0.040337  1
  Si  Si27  1  0.355268  0.969278  0.040710  1
  Si  Si28  1  0.145261  0.468927  0.958632  1
  Si  Si29  1  0.651881  0.033339  0.539533  1
  Si  Si30  1  0.348470  0.965604  0.461587  1
  Si  Si31  1  0.819353  0.535125  0.453078  1
  Si  Si32  1  0.783061  0.624749  0.749520  1
  Si  Si33  1  0.218117  0.376151  0.250408  1
  Si  Si34  1  0.644601  0.031540  0.959021  1
  As  As35  1  0.177189  0.463503  0.546503  1
