# generated using pymatgen
data_Er2MgBe2Rh5
_symmetry_space_group_name_H-M   'P 1'
_cell_length_a   9.59636500
_cell_length_b   9.59636500
_cell_length_c   3.29615800
_cell_angle_alpha   90.00000000
_cell_angle_beta   90.00000000
_cell_angle_gamma   90.00000000
_symmetry_Int_Tables_number   1
_chemical_formula_structural   Er2MgBe2Rh5
_chemical_formula_sum   'Er4 Mg2 Be4 Rh10'
_cell_volume   303.54391937
_cell_formula_units_Z   2
loop_
 _symmetry_equiv_pos_site_id
 _symmetry_equiv_pos_as_xyz
  1  'x, y, z'
loop_
 _atom_site_type_symbol
 _atom_site_label
 _atom_site_symmetry_multiplicity
 _atom_site_fract_x
 _atom_site_fract_y
 _atom_site_fract_z
 _atom_site_occupancy
  Er  Er0  1  0.676140  0.176140  0.000000  1
  Er  Er1  1  0.323860  0.823860  0.000000  1
  Er  Er2  1  0.176140  0.323860  0.000000  1
  Er  Er3  1  0.823860  0.676140  0.000000  1
  Mg  Mg4  1  0.000000  0.000000  0.000000  1
  Mg  Mg5  1  0.500000  0.500000  0.000000  1
  Be  Be6  1  0.122001  0.622001  0.000000  1
  Be  Be7  1  0.877999  0.377999  0.000000  1
  Be  Be8  1  0.622001  0.877999  0.000000  1
  Be  Be9  1  0.377999  0.122001  0.000000  1
  Rh  Rh10  1  0.500000  0.000000  0.500000  1
  Rh  Rh11  1  0.000000  0.500000  0.500000  1
  Rh  Rh12  1  0.216096  0.069319  0.500000  1
  Rh  Rh13  1  0.783904  0.930681  0.500000  1
  Rh  Rh14  1  0.069319  0.783904  0.500000  1
  Rh  Rh15  1  0.716096  0.430681  0.500000  1
  Rh  Rh16  1  0.930681  0.216096  0.500000  1
  Rh  Rh17  1  0.283904  0.569319  0.500000  1
  Rh  Rh18  1  0.569319  0.716096  0.500000  1
  Rh  Rh19  1  0.430681  0.283904  0.500000  1
