# generated using pymatgen
data_Pr7Nd(ZnI5)2
_symmetry_space_group_name_H-M   'P 1'
_cell_length_a   4.23430100
_cell_length_b   9.37945401
_cell_length_c   19.12414302
_cell_angle_alpha   89.99490910
_cell_angle_beta   90.00000000
_cell_angle_gamma   90.00000000
_symmetry_Int_Tables_number   1
_chemical_formula_structural   Pr7Nd(ZnI5)2
_chemical_formula_sum   'Pr7 Nd1 Zn2 I10'
_cell_volume   759.52358889
_cell_formula_units_Z   1
loop_
 _symmetry_equiv_pos_site_id
 _symmetry_equiv_pos_as_xyz
  1  'x, y, z'
loop_
 _atom_site_type_symbol
 _atom_site_label
 _atom_site_symmetry_multiplicity
 _atom_site_fract_x
 _atom_site_fract_y
 _atom_site_fract_z
 _atom_site_occupancy
  Pr  Pr0  1  0.500000  0.597172  0.999882  1
  Pr  Pr1  1  0.000000  0.372341  0.152740  1
  Pr  Pr2  1  0.000000  0.848968  0.499991  1
  Pr  Pr3  1  0.500000  0.627643  0.347085  1
  Pr  Pr4  1  0.000000  0.402631  0.500045  1
  Pr  Pr5  1  0.500000  0.627612  0.652862  1
  Pr  Pr6  1  0.500000  0.151196  0.999910  1
  Nd  Nd7  1  0.000000  0.372239  0.847555  1
  Zn  Zn8  1  0.500000  0.625881  0.499997  1
  Zn  Zn9  1  0.000000  0.374112  0.999565  1
  I  I10  1  0.500000  0.115685  0.168766  1
  I  I11  1  0.000000  0.364285  0.671376  1
  I  I12  1  0.000000  0.871956  0.999956  1
  I  I13  1  0.000000  0.884323  0.331174  1
  I  I14  1  0.500000  0.117970  0.831056  1
  I  I15  1  0.500000  0.633629  0.829204  1
  I  I16  1  0.000000  0.884329  0.668864  1
  I  I17  1  0.000000  0.364211  0.329238  1
  I  I18  1  0.500000  0.635770  0.170720  1
  I  I19  1  0.500000  0.128046  0.500014  1
