# generated using pymatgen
data_Er3Co8P6Ru
_symmetry_space_group_name_H-M   'P 1'
_cell_length_a   3.68448200
_cell_length_b   10.47469000
_cell_length_c   12.18449000
_cell_angle_alpha   90.00000000
_cell_angle_beta   90.00000000
_cell_angle_gamma   90.00000000
_symmetry_Int_Tables_number   1
_chemical_formula_structural   Er3Co8P6Ru
_chemical_formula_sum   'Er6 Co16 P12 Ru2'
_cell_volume   470.24585254
_cell_formula_units_Z   2
loop_
 _symmetry_equiv_pos_site_id
 _symmetry_equiv_pos_as_xyz
  1  'x, y, z'
loop_
 _atom_site_type_symbol
 _atom_site_label
 _atom_site_symmetry_multiplicity
 _atom_site_fract_x
 _atom_site_fract_y
 _atom_site_fract_z
 _atom_site_occupancy
  Er  Er0  1  0.750000  0.250000  0.476110  1
  Er  Er1  1  0.250000  0.750000  0.523890  1
  Er  Er2  1  0.250000  0.932231  0.793222  1
  Er  Er3  1  0.250000  0.567769  0.793222  1
  Er  Er4  1  0.750000  0.067769  0.206778  1
  Er  Er5  1  0.750000  0.432231  0.206778  1
  Co  Co6  1  0.250000  0.250000  0.296220  1
  Co  Co7  1  0.750000  0.750000  0.703780  1
  Co  Co8  1  0.750000  0.250000  0.013773  1
  Co  Co9  1  0.250000  0.750000  0.986227  1
  Co  Co10  1  0.250000  0.417585  0.009318  1
  Co  Co11  1  0.250000  0.082415  0.009318  1
  Co  Co12  1  0.750000  0.582415  0.990682  1
  Co  Co13  1  0.750000  0.917585  0.990682  1
  Co  Co14  1  0.250000  0.452728  0.568957  1
  Co  Co15  1  0.250000  0.047272  0.568957  1
  Co  Co16  1  0.750000  0.547272  0.431043  1
  Co  Co17  1  0.750000  0.952728  0.431043  1
  Co  Co18  1  0.250000  0.871603  0.292013  1
  Co  Co19  1  0.250000  0.628397  0.292013  1
  Co  Co20  1  0.750000  0.128397  0.707987  1
  Co  Co21  1  0.750000  0.371603  0.707987  1
  P  P22  1  0.250000  0.250000  0.118641  1
  P  P23  1  0.750000  0.750000  0.881359  1
  P  P24  1  0.250000  0.250000  0.649549  1
  P  P25  1  0.750000  0.750000  0.350451  1
  P  P26  1  0.250000  0.437528  0.383548  1
  P  P27  1  0.250000  0.062472  0.383548  1
  P  P28  1  0.750000  0.562472  0.616452  1
  P  P29  1  0.750000  0.937528  0.616452  1
  P  P30  1  0.250000  0.904245  0.107103  1
  P  P31  1  0.250000  0.595755  0.107103  1
  P  P32  1  0.750000  0.095755  0.892897  1
  P  P33  1  0.750000  0.404245  0.892897  1
  Ru  Ru34  1  0.250000  0.250000  0.840700  1
  Ru  Ru35  1  0.750000  0.750000  0.159300  1
