# generated using pymatgen
data_TaTi2C3
_symmetry_space_group_name_H-M   'P 1'
_cell_length_a   3.11087300
_cell_length_b   3.11087358
_cell_length_c   7.57340100
_cell_angle_alpha   90.00000000
_cell_angle_beta   90.00000000
_cell_angle_gamma   119.99998324
_symmetry_Int_Tables_number   1
_chemical_formula_structural   TaTi2C3
_chemical_formula_sum   'Ta1 Ti2 C3'
_cell_volume   63.47260188
_cell_formula_units_Z   1
loop_
 _symmetry_equiv_pos_site_id
 _symmetry_equiv_pos_as_xyz
  1  'x, y, z'
loop_
 _atom_site_type_symbol
 _atom_site_label
 _atom_site_symmetry_multiplicity
 _atom_site_fract_x
 _atom_site_fract_y
 _atom_site_fract_z
 _atom_site_occupancy
  Ta  Ta0  1  0.333333  0.666667  0.166603  1
  Ti  Ti1  1  0.000000  0.000000  0.504794  1
  Ti  Ti2  1  0.666667  0.333333  0.828477  1
  C  C3  1  0.333333  0.666667  0.666699  1
  C  C4  1  0.000000  0.000000  0.996472  1
  C  C5  1  0.666667  0.333333  0.336956  1
