# generated using pymatgen
data_Th6CoPd7
_symmetry_space_group_name_H-M   'P 1'
_cell_length_a   8.17683373
_cell_length_b   8.17683462
_cell_length_c   8.17683314
_cell_angle_alpha   114.67996270
_cell_angle_beta   114.67996839
_cell_angle_gamma   114.67995581
_symmetry_Int_Tables_number   1
_chemical_formula_structural   Th6CoPd7
_chemical_formula_sum   'Th6 Co1 Pd7'
_cell_volume   314.70657032
_cell_formula_units_Z   1
loop_
 _symmetry_equiv_pos_site_id
 _symmetry_equiv_pos_as_xyz
  1  'x, y, z'
loop_
 _atom_site_type_symbol
 _atom_site_label
 _atom_site_symmetry_multiplicity
 _atom_site_fract_x
 _atom_site_fract_y
 _atom_site_fract_z
 _atom_site_occupancy
  Th  Th0  1  0.388732  0.023888  0.268483  1
  Th  Th1  1  0.023888  0.268483  0.388732  1
  Th  Th2  1  0.268483  0.388732  0.023888  1
  Th  Th3  1  0.611268  0.976112  0.731517  1
  Th  Th4  1  0.976112  0.731517  0.611268  1
  Th  Th5  1  0.731517  0.611268  0.976112  1
  Co  Co6  1  0.000000  0.000000  0.000000  1
  Pd  Pd7  1  0.500000  0.500000  0.500000  1
  Pd  Pd8  1  0.235839  0.071980  0.578718  1
  Pd  Pd9  1  0.071980  0.578718  0.235839  1
  Pd  Pd10  1  0.578718  0.235839  0.071980  1
  Pd  Pd11  1  0.764161  0.928020  0.421282  1
  Pd  Pd12  1  0.928020  0.421282  0.764161  1
  Pd  Pd13  1  0.421282  0.764161  0.928020  1
