# generated using pymatgen
data_Er8Tl2InPt
_symmetry_space_group_name_H-M   'P 1'
_cell_length_a   10.22551500
_cell_length_b   10.24165443
_cell_length_c   7.03367900
_cell_angle_alpha   89.89475274
_cell_angle_beta   90.00000000
_cell_angle_gamma   119.94787490
_symmetry_Int_Tables_number   1
_chemical_formula_structural   Er8Tl2InPt
_chemical_formula_sum   'Er16 Tl4 In2 Pt2'
_cell_volume   638.25669738
_cell_formula_units_Z   2
loop_
 _symmetry_equiv_pos_site_id
 _symmetry_equiv_pos_as_xyz
  1  'x, y, z'
loop_
 _atom_site_type_symbol
 _atom_site_label
 _atom_site_symmetry_multiplicity
 _atom_site_fract_x
 _atom_site_fract_y
 _atom_site_fract_z
 _atom_site_occupancy
  Er  Er0  1  0.531415  0.062831  0.794273  1
  Er  Er1  1  0.935492  0.471135  0.793758  1
  Er  Er2  1  0.535642  0.471135  0.793758  1
  Er  Er3  1  0.467544  0.935088  0.298477  1
  Er  Er4  1  0.067241  0.532100  0.295122  1
  Er  Er5  1  0.464860  0.532100  0.295122  1
  Er  Er6  1  0.824702  0.649405  0.491066  1
  Er  Er7  1  0.348314  0.175076  0.500059  1
  Er  Er8  1  0.826761  0.175076  0.500059  1
  Er  Er9  1  0.173570  0.347138  0.993474  1
  Er  Er10  1  0.652433  0.827424  0.002606  1
  Er  Er11  1  0.174992  0.827424  0.002606  1
  Er  Er12  1  0.665691  0.331381  0.169584  1
  Er  Er13  1  0.333985  0.667970  0.670659  1
  Er  Er14  1  0.996741  0.993481  0.770043  1
  Er  Er15  1  0.000362  0.000724  0.276730  1
  Tl  Tl16  1  0.835626  0.671252  0.042709  1
  Tl  Tl17  1  0.328985  0.165270  0.044057  1
  Tl  Tl18  1  0.836284  0.165270  0.044057  1
  Tl  Tl19  1  0.164294  0.328585  0.546140  1
  In  In20  1  0.672463  0.835470  0.543547  1
  In  In21  1  0.163008  0.835470  0.543547  1
  Pt  Pt22  1  0.666187  0.332374  0.562754  1
  Pt  Pt23  1  0.333409  0.666818  0.061694  1
