# generated using pymatgen
data_Ac(Sn3Rh2)2
_symmetry_space_group_name_H-M   'P 1'
_cell_length_a   7.02458662
_cell_length_b   7.02458627
_cell_length_c   7.02458613
_cell_angle_alpha   118.99752537
_cell_angle_beta   118.99752528
_cell_angle_gamma   91.74529522
_symmetry_Int_Tables_number   1
_chemical_formula_structural   Ac(Sn3Rh2)2
_chemical_formula_sum   'Ac1 Sn6 Rh4'
_cell_volume   248.69125485
_cell_formula_units_Z   1
loop_
 _symmetry_equiv_pos_site_id
 _symmetry_equiv_pos_as_xyz
  1  'x, y, z'
loop_
 _atom_site_type_symbol
 _atom_site_label
 _atom_site_symmetry_multiplicity
 _atom_site_fract_x
 _atom_site_fract_y
 _atom_site_fract_z
 _atom_site_occupancy
  Ac  Ac0  1  0.000000  0.000000  0.000000  1
  Sn  Sn1  1  0.475328  0.131531  0.000000  1
  Sn  Sn2  1  0.131531  0.475328  0.000000  1
  Sn  Sn3  1  0.868469  0.868469  0.343797  1
  Sn  Sn4  1  0.499999  0.000000  0.499999  1
  Sn  Sn5  1  0.000000  0.499999  0.499999  1
  Sn  Sn6  1  0.524671  0.524671  0.656202  1
  Rh  Rh7  1  0.761787  0.402005  0.000000  1
  Rh  Rh8  1  0.402005  0.761787  0.000000  1
  Rh  Rh9  1  0.597995  0.597995  0.359782  1
  Rh  Rh10  1  0.238212  0.238212  0.640217  1
