# generated using pymatgen
data_La4Ga24CoIr
_symmetry_space_group_name_H-M   'P 1'
_cell_length_a   6.11241000
_cell_length_b   6.11241000
_cell_length_c   15.76522500
_cell_angle_alpha   90.00000000
_cell_angle_beta   90.00000000
_cell_angle_gamma   90.00000000
_symmetry_Int_Tables_number   1
_chemical_formula_structural   La4Ga24CoIr
_chemical_formula_sum   'La4 Ga24 Co1 Ir1'
_cell_volume   589.01333682
_cell_formula_units_Z   1
loop_
 _symmetry_equiv_pos_site_id
 _symmetry_equiv_pos_as_xyz
  1  'x, y, z'
loop_
 _atom_site_type_symbol
 _atom_site_label
 _atom_site_symmetry_multiplicity
 _atom_site_fract_x
 _atom_site_fract_y
 _atom_site_fract_z
 _atom_site_occupancy
  La  La0  1  0.750000  0.250000  0.241249  1
  La  La1  1  0.250000  0.750000  0.243637  1
  La  La2  1  0.250000  0.750000  0.756363  1
  La  La3  1  0.750000  0.250000  0.758751  1
  Ga  Ga4  1  0.250000  0.250000  0.185073  1
  Ga  Ga5  1  0.750000  0.750000  0.185073  1
  Ga  Ga6  1  0.750000  0.750000  0.814927  1
  Ga  Ga7  1  0.250000  0.250000  0.814927  1
  Ga  Ga8  1  0.250000  0.250000  0.343570  1
  Ga  Ga9  1  0.750000  0.750000  0.343570  1
  Ga  Ga10  1  0.750000  0.750000  0.656430  1
  Ga  Ga11  1  0.250000  0.250000  0.656430  1
  Ga  Ga12  1  0.492985  0.992985  0.916048  1
  Ga  Ga13  1  0.007515  0.992485  0.916171  1
  Ga  Ga14  1  0.492485  0.507515  0.916171  1
  Ga  Ga15  1  0.007015  0.507015  0.916048  1
  Ga  Ga16  1  0.492485  0.992485  0.083829  1
  Ga  Ga17  1  0.007015  0.992985  0.083952  1
  Ga  Ga18  1  0.492985  0.507015  0.083952  1
  Ga  Ga19  1  0.007515  0.507515  0.083829  1
  Ga  Ga20  1  0.579338  0.079338  0.431301  1
  Ga  Ga21  1  0.079050  0.920950  0.431282  1
  Ga  Ga22  1  0.420950  0.579050  0.431282  1
  Ga  Ga23  1  0.920662  0.420662  0.431301  1
  Ga  Ga24  1  0.420950  0.920950  0.568718  1
  Ga  Ga25  1  0.920662  0.079338  0.568699  1
  Ga  Ga26  1  0.579338  0.420662  0.568699  1
  Ga  Ga27  1  0.079050  0.579050  0.568718  1
  Co  Co28  1  0.250000  0.750000  0.000000  1
  Ir  Ir29  1  0.750000  0.250000  0.000000  1
