# generated using pymatgen
data_Tb6ZrFe3(Co7P6)2
_symmetry_space_group_name_H-M   'P 1'
_cell_length_a   3.72169600
_cell_length_b   10.64892300
_cell_length_c   12.27198500
_cell_angle_alpha   90.00000000
_cell_angle_beta   90.00000000
_cell_angle_gamma   90.00000000
_symmetry_Int_Tables_number   1
_chemical_formula_structural   Tb6ZrFe3(Co7P6)2
_chemical_formula_sum   'Tb6 Zr1 Fe3 Co14 P12'
_cell_volume   486.36397384
_cell_formula_units_Z   1
loop_
 _symmetry_equiv_pos_site_id
 _symmetry_equiv_pos_as_xyz
  1  'x, y, z'
loop_
 _atom_site_type_symbol
 _atom_site_label
 _atom_site_symmetry_multiplicity
 _atom_site_fract_x
 _atom_site_fract_y
 _atom_site_fract_z
 _atom_site_occupancy
  Tb  Tb0  1  0.000000  0.500000  0.529590  1
  Tb  Tb1  1  0.500000  0.000000  0.478493  1
  Tb  Tb2  1  0.500000  0.822628  0.205610  1
  Tb  Tb3  1  0.500000  0.177372  0.205610  1
  Tb  Tb4  1  0.000000  0.681496  0.795946  1
  Tb  Tb5  1  0.000000  0.318504  0.795946  1
  Zr  Zr6  1  0.500000  0.500000  0.153578  1
  Fe  Fe7  1  0.000000  0.000000  0.841569  1
  Fe  Fe8  1  0.000000  0.500000  0.983817  1
  Fe  Fe9  1  0.500000  0.000000  0.008857  1
  Co  Co10  1  0.500000  0.500000  0.701841  1
  Co  Co11  1  0.000000  0.000000  0.296840  1
  Co  Co12  1  0.500000  0.325478  0.988780  1
  Co  Co13  1  0.500000  0.674522  0.988780  1
  Co  Co14  1  0.000000  0.162762  0.000900  1
  Co  Co15  1  0.000000  0.837238  0.000900  1
  Co  Co16  1  0.500000  0.293982  0.434582  1
  Co  Co17  1  0.500000  0.706018  0.434582  1
  Co  Co18  1  0.000000  0.201970  0.570845  1
  Co  Co19  1  0.000000  0.798030  0.570845  1
  Co  Co20  1  0.500000  0.880769  0.708115  1
  Co  Co21  1  0.500000  0.119231  0.708115  1
  Co  Co22  1  0.000000  0.622422  0.298806  1
  Co  Co23  1  0.000000  0.377578  0.298806  1
  P  P24  1  0.500000  0.500000  0.884139  1
  P  P25  1  0.000000  0.000000  0.113264  1
  P  P26  1  0.500000  0.500000  0.360972  1
  P  P27  1  0.000000  0.000000  0.657622  1
  P  P28  1  0.500000  0.307574  0.618229  1
  P  P29  1  0.500000  0.692426  0.618229  1
  P  P30  1  0.000000  0.189084  0.386347  1
  P  P31  1  0.000000  0.810916  0.386347  1
  P  P32  1  0.500000  0.851291  0.889043  1
  P  P33  1  0.500000  0.148709  0.889043  1
  P  P34  1  0.000000  0.663411  0.097507  1
  P  P35  1  0.000000  0.336589  0.097507  1
