# generated using pymatgen
data_Cs5Sb2Pt
_symmetry_space_group_name_H-M   'P 1'
_cell_length_a   10.72678850
_cell_length_b   10.72678936
_cell_length_c   10.72678908
_cell_angle_alpha   35.19748677
_cell_angle_beta   35.19748235
_cell_angle_gamma   35.19747686
_symmetry_Int_Tables_number   1
_chemical_formula_structural   Cs5Sb2Pt
_chemical_formula_sum   'Cs5 Sb2 Pt1'
_cell_volume   366.26217907
_cell_formula_units_Z   1
loop_
 _symmetry_equiv_pos_site_id
 _symmetry_equiv_pos_as_xyz
  1  'x, y, z'
loop_
 _atom_site_type_symbol
 _atom_site_label
 _atom_site_symmetry_multiplicity
 _atom_site_fract_x
 _atom_site_fract_y
 _atom_site_fract_z
 _atom_site_occupancy
  Cs  Cs0  1  0.500000  0.500000  0.500000  1
  Cs  Cs1  1  0.359791  0.359791  0.359791  1
  Cs  Cs2  1  0.640209  0.640209  0.640209  1
  Cs  Cs3  1  0.218611  0.218611  0.218611  1
  Cs  Cs4  1  0.781389  0.781389  0.781389  1
  Sb  Sb5  1  0.086686  0.086686  0.086686  1
  Sb  Sb6  1  0.913314  0.913314  0.913314  1
  Pt  Pt7  1  0.000000  0.000000  0.000000  1
