# generated using pymatgen
data_DyLu9(ZnIn3)2
_symmetry_space_group_name_H-M   'P 1'
_cell_length_a   9.00820500
_cell_length_b   9.02371469
_cell_length_c   6.54276100
_cell_angle_alpha   90.00000000
_cell_angle_beta   90.00000000
_cell_angle_gamma   119.94316349
_symmetry_Int_Tables_number   1
_chemical_formula_structural   DyLu9(ZnIn3)2
_chemical_formula_sum   'Dy1 Lu9 Zn2 In6'
_cell_volume   460.85441185
_cell_formula_units_Z   1
loop_
 _symmetry_equiv_pos_site_id
 _symmetry_equiv_pos_as_xyz
  1  'x, y, z'
loop_
 _atom_site_type_symbol
 _atom_site_label
 _atom_site_symmetry_multiplicity
 _atom_site_fract_x
 _atom_site_fract_y
 _atom_site_fract_z
 _atom_site_occupancy
  Dy  Dy0  1  0.276348  0.000000  0.750000  1
  Lu  Lu1  1  0.333466  0.665858  0.499713  1
  Lu  Lu2  1  0.667609  0.334142  0.499713  1
  Lu  Lu3  1  0.667609  0.334142  0.000287  1
  Lu  Lu4  1  0.333466  0.665858  0.000287  1
  Lu  Lu5  1  0.722148  0.000000  0.250000  1
  Lu  Lu6  1  0.000520  0.276619  0.750000  1
  Lu  Lu7  1  0.999784  0.723447  0.250000  1
  Lu  Lu8  1  0.723901  0.723381  0.750000  1
  Lu  Lu9  1  0.276336  0.276553  0.250000  1
  Zn  Zn10  1  0.998668  0.000000  0.499215  1
  Zn  Zn11  1  0.998668  0.000000  0.000785  1
  In  In12  1  0.624881  0.000000  0.750000  1
  In  In13  1  0.377974  0.000000  0.250000  1
  In  In14  1  0.998190  0.620670  0.750000  1
  In  In15  1  0.000032  0.377151  0.250000  1
  In  In16  1  0.377520  0.379330  0.750000  1
  In  In17  1  0.622881  0.622849  0.250000  1
