# generated using pymatgen
data_Pr10AlSi4Os
_symmetry_space_group_name_H-M   'P 1'
_cell_length_a   7.72917500
_cell_length_b   9.25208862
_cell_length_c   7.72917500
_cell_angle_alpha   114.68940645
_cell_angle_beta   90.00000000
_cell_angle_gamma   114.68940645
_symmetry_Int_Tables_number   1
_chemical_formula_structural   Pr10AlSi4Os
_chemical_formula_sum   'Pr10 Al1 Si4 Os1'
_cell_volume   445.97948731
_cell_formula_units_Z   1
loop_
 _symmetry_equiv_pos_site_id
 _symmetry_equiv_pos_as_xyz
  1  'x, y, z'
loop_
 _atom_site_type_symbol
 _atom_site_label
 _atom_site_symmetry_multiplicity
 _atom_site_fract_x
 _atom_site_fract_y
 _atom_site_fract_z
 _atom_site_occupancy
  Pr  Pr0  1  0.969424  0.938847  0.969424  1
  Pr  Pr1  1  0.530576  0.061153  0.530576  1
  Pr  Pr2  1  0.515697  0.715105  0.661004  1
  Pr  Pr3  1  0.199410  0.715105  0.054103  1
  Pr  Pr4  1  0.661004  0.715105  0.199410  1
  Pr  Pr5  1  0.054103  0.715105  0.515697  1
  Pr  Pr6  1  0.445897  0.284895  0.300590  1
  Pr  Pr7  1  0.838996  0.284895  0.984303  1
  Pr  Pr8  1  0.300590  0.284895  0.838996  1
  Pr  Pr9  1  0.984303  0.284895  0.445897  1
  Al  Al10  1  0.750000  0.500000  0.750000  1
  Si  Si11  1  0.885534  0.000000  0.614466  1
  Si  Si12  1  0.114466  0.000000  0.385534  1
  Si  Si13  1  0.614466  0.000000  0.114466  1
  Si  Si14  1  0.385534  0.000000  0.885534  1
  Os  Os15  1  0.250000  0.500000  0.250000  1
