# generated using pymatgen
data_La20Ga4Si7Pt
_symmetry_space_group_name_H-M   'P 1'
_cell_length_a   7.90176480
_cell_length_b   7.90081550
_cell_length_c   14.55766700
_cell_angle_alpha   89.98411838
_cell_angle_beta   90.03862614
_cell_angle_gamma   89.96842877
_symmetry_Int_Tables_number   1
_chemical_formula_structural   La20Ga4Si7Pt
_chemical_formula_sum   'La20 Ga4 Si7 Pt1'
_cell_volume   908.84038771
_cell_formula_units_Z   1
loop_
 _symmetry_equiv_pos_site_id
 _symmetry_equiv_pos_as_xyz
  1  'x, y, z'
loop_
 _atom_site_type_symbol
 _atom_site_label
 _atom_site_symmetry_multiplicity
 _atom_site_fract_x
 _atom_site_fract_y
 _atom_site_fract_z
 _atom_site_occupancy
  La  La0  1  0.817698  0.827205  0.607030  1
  La  La1  1  0.187001  0.828659  0.106095  1
  La  La2  1  0.164152  0.804612  0.394242  1
  La  La3  1  0.000680  0.498969  0.726694  1
  La  La4  1  0.833989  0.193664  0.394938  1
  La  La5  1  0.690780  0.664388  0.394197  1
  La  La6  1  0.670515  0.315153  0.606823  1
  La  La7  1  0.327704  0.683600  0.606700  1
  La  La8  1  0.997951  0.506081  0.218347  1
  La  La9  1  0.669230  0.686238  0.105804  1
  La  La10  1  0.684440  0.327948  0.893630  1
  La  La11  1  0.826659  0.815719  0.893404  1
  La  La12  1  0.311452  0.340021  0.396304  1
  La  La13  1  0.181801  0.170859  0.606709  1
  La  La14  1  0.810548  0.169691  0.107009  1
  La  La15  1  0.314912  0.671137  0.893247  1
  La  La16  1  0.335619  0.316269  0.103183  1
  La  La17  1  0.505932  0.997372  0.277038  1
  La  La18  1  0.171295  0.183418  0.894219  1
  La  La19  1  0.499378  0.000754  0.775407  1
  Ga  Ga20  1  0.498893  0.998605  0.496431  1
  Ga  Ga21  1  0.499090  0.998351  0.996884  1
  Ga  Ga22  1  0.117711  0.118429  0.249174  1
  Ga  Ga23  1  0.998486  0.499271  0.001106  1
  Si  Si24  1  0.612808  0.387549  0.249447  1
  Si  Si25  1  0.111934  0.886384  0.751211  1
  Si  Si26  1  0.386541  0.387044  0.750939  1
  Si  Si27  1  0.387622  0.612296  0.248980  1
  Si  Si28  1  0.884759  0.885040  0.249115  1
  Si  Si29  1  0.613037  0.612385  0.750924  1
  Si  Si30  1  0.887646  0.113097  0.751010  1
  Pt  Pt31  1  0.999736  0.499791  0.503760  1
