# generated using pymatgen
data_CsS8Cl3
_symmetry_space_group_name_H-M   'P 1'
_cell_length_a   7.84058164
_cell_length_b   11.56449782
_cell_length_c   11.05152709
_cell_angle_alpha   104.96890422
_cell_angle_beta   95.55997505
_cell_angle_gamma   110.06542498
_symmetry_Int_Tables_number   1
_chemical_formula_structural   CsS8Cl3
_chemical_formula_sum   'Cs2 S16 Cl6'
_cell_volume   890.10052309
_cell_formula_units_Z   2
loop_
 _symmetry_equiv_pos_site_id
 _symmetry_equiv_pos_as_xyz
  1  'x, y, z'
loop_
 _atom_site_type_symbol
 _atom_site_label
 _atom_site_symmetry_multiplicity
 _atom_site_fract_x
 _atom_site_fract_y
 _atom_site_fract_z
 _atom_site_occupancy
  Cs  Cs0  1  0.844204  0.113954  0.857709  1
  Cs  Cs1  1  0.155796  0.886046  0.142291  1
  S  S2  1  0.806069  0.471206  0.782432  1
  S  S3  1  0.193931  0.528794  0.217568  1
  S  S4  1  0.722556  0.393209  0.586350  1
  S  S5  1  0.277444  0.606791  0.413650  1
  S  S6  1  0.734118  0.211798  0.530406  1
  S  S7  1  0.265882  0.788202  0.469594  1
  S  S8  1  0.980757  0.225946  0.472120  1
  S  S9  1  0.019243  0.774054  0.527880  1
  S  S10  1  0.920770  0.401760  0.173898  1
  S  S11  1  0.079230  0.598240  0.826102  1
  S  S12  1  0.753729  0.495172  0.127511  1
  S  S13  1  0.246271  0.504828  0.872489  1
  S  S14  1  0.661123  0.566162  0.287534  1
  S  S15  1  0.338877  0.433838  0.712466  1
  S  S16  1  0.830287  0.759082  0.375416  1
  S  S17  1  0.169713  0.240918  0.624584  1
  Cl  Cl18  1  0.360818  0.076949  0.815870  1
  Cl  Cl19  1  0.639182  0.923051  0.184130  1
  Cl  Cl20  1  0.682317  0.851929  0.977679  1
  Cl  Cl21  1  0.317683  0.148071  0.022321  1
  Cl  Cl22  1  0.726514  0.786019  0.770991  1
  Cl  Cl23  1  0.273486  0.213981  0.229009  1
