# generated using pymatgen
data_Tm4Zn2(GaRu)3
_symmetry_space_group_name_H-M   'P 1'
_cell_length_a   5.29261627
_cell_length_b   5.29406883
_cell_length_c   8.91470000
_cell_angle_alpha   90.00000000
_cell_angle_beta   90.00000000
_cell_angle_gamma   119.94965273
_symmetry_Int_Tables_number   1
_chemical_formula_structural   Tm4Zn2(GaRu)3
_chemical_formula_sum   'Tm4 Zn2 Ga3 Ru3'
_cell_volume   216.43000173
_cell_formula_units_Z   1
loop_
 _symmetry_equiv_pos_site_id
 _symmetry_equiv_pos_as_xyz
  1  'x, y, z'
loop_
 _atom_site_type_symbol
 _atom_site_label
 _atom_site_symmetry_multiplicity
 _atom_site_fract_x
 _atom_site_fract_y
 _atom_site_fract_z
 _atom_site_occupancy
  Tm  Tm0  1  0.662728  0.332119  0.552337  1
  Tm  Tm1  1  0.344878  0.674690  0.438102  1
  Tm  Tm2  1  0.344878  0.674690  0.061898  1
  Tm  Tm3  1  0.662728  0.332119  0.947663  1
  Zn  Zn4  1  0.155988  0.826170  0.750000  1
  Zn  Zn5  1  0.660953  0.825104  0.750000  1
  Ga  Ga6  1  0.159874  0.318919  0.750000  1
  Ga  Ga7  1  0.837344  0.668529  0.250000  1
  Ga  Ga8  1  0.840054  0.172355  0.250000  1
  Ru  Ru9  1  0.991521  0.001794  0.499019  1
  Ru  Ru10  1  0.991521  0.001794  0.000981  1
  Ru  Ru11  1  0.347534  0.171720  0.250000  1
