# generated using pymatgen
data_YErTh3Pb3C
_symmetry_space_group_name_H-M   'P 1'
_cell_length_a   9.32243600
_cell_length_b   9.32243565
_cell_length_c   6.55747500
_cell_angle_alpha   90.00000000
_cell_angle_beta   90.00000000
_cell_angle_gamma   120.00000123
_symmetry_Int_Tables_number   1
_chemical_formula_structural   YErTh3Pb3C
_chemical_formula_sum   'Y2 Er2 Th6 Pb6 C2'
_cell_volume   493.54422521
_cell_formula_units_Z   2
loop_
 _symmetry_equiv_pos_site_id
 _symmetry_equiv_pos_as_xyz
  1  'x, y, z'
loop_
 _atom_site_type_symbol
 _atom_site_label
 _atom_site_symmetry_multiplicity
 _atom_site_fract_x
 _atom_site_fract_y
 _atom_site_fract_z
 _atom_site_occupancy
  Y  Y0  1  0.666667  0.333333  0.000000  1
  Y  Y1  1  0.333333  0.666667  0.000000  1
  Er  Er2  1  0.333333  0.666667  0.500000  1
  Er  Er3  1  0.666667  0.333333  0.500000  1
  Th  Th4  1  0.780336  0.780336  0.750090  1
  Th  Th5  1  0.219664  0.000000  0.750090  1
  Th  Th6  1  0.000000  0.219664  0.750090  1
  Th  Th7  1  0.219664  0.219664  0.249910  1
  Th  Th8  1  0.780336  0.000000  0.249910  1
  Th  Th9  1  0.000000  0.780336  0.249910  1
  Pb  Pb10  1  0.406583  0.406583  0.747837  1
  Pb  Pb11  1  0.593417  0.000000  0.747837  1
  Pb  Pb12  1  0.000000  0.593417  0.747837  1
  Pb  Pb13  1  0.593417  0.593417  0.252163  1
  Pb  Pb14  1  0.406583  0.000000  0.252163  1
  Pb  Pb15  1  0.000000  0.406583  0.252163  1
  C  C16  1  0.000000  0.000000  0.000000  1
  C  C17  1  0.000000  0.000000  0.500000  1
