# generated using pymatgen
data_Pr4Al18ZnRh5
_symmetry_space_group_name_H-M   'P 1'
_cell_length_a   7.66769015
_cell_length_b   7.66769086
_cell_length_c   9.63950354
_cell_angle_alpha   89.88988361
_cell_angle_beta   89.88988400
_cell_angle_gamma   119.34696781
_symmetry_Int_Tables_number   1
_chemical_formula_structural   Pr4Al18ZnRh5
_chemical_formula_sum   'Pr4 Al18 Zn1 Rh5'
_cell_volume   494.00538107
_cell_formula_units_Z   1
loop_
 _symmetry_equiv_pos_site_id
 _symmetry_equiv_pos_as_xyz
  1  'x, y, z'
loop_
 _atom_site_type_symbol
 _atom_site_label
 _atom_site_symmetry_multiplicity
 _atom_site_fract_x
 _atom_site_fract_y
 _atom_site_fract_z
 _atom_site_occupancy
  Pr  Pr0  1  0.995129  0.675355  0.748064  1
  Pr  Pr1  1  0.004871  0.324645  0.251936  1
  Pr  Pr2  1  0.675355  0.995129  0.748064  1
  Pr  Pr3  1  0.324645  0.004871  0.251936  1
  Al  Al4  1  0.138026  0.138026  0.759490  1
  Al  Al5  1  0.861974  0.861974  0.240510  1
  Al  Al6  1  0.004798  0.345737  0.577314  1
  Al  Al7  1  0.995202  0.654263  0.422686  1
  Al  Al8  1  0.999487  0.664252  0.069658  1
  Al  Al9  1  0.335748  0.000513  0.930342  1
  Al  Al10  1  0.000513  0.335748  0.930342  1
  Al  Al11  1  0.664252  0.999487  0.069658  1
  Al  Al12  1  0.654263  0.995202  0.422686  1
  Al  Al13  1  0.345737  0.004798  0.577314  1
  Al  Al14  1  0.334150  0.334150  0.045600  1
  Al  Al15  1  0.665850  0.665850  0.954400  1
  Al  Al16  1  0.656288  0.656288  0.552849  1
  Al  Al17  1  0.343712  0.343712  0.447151  1
  Al  Al18  1  0.339463  0.548718  0.751619  1
  Al  Al19  1  0.660537  0.451282  0.248381  1
  Al  Al20  1  0.548718  0.339463  0.751619  1
  Al  Al21  1  0.451282  0.660537  0.248381  1
  Zn  Zn22  1  0.000000  0.000000  0.500000  1
  Rh  Rh23  1  0.670730  0.329270  0.500000  1
  Rh  Rh24  1  0.329270  0.670730  0.500000  1
  Rh  Rh25  1  0.329477  0.670523  0.000000  1
  Rh  Rh26  1  0.670523  0.329477  0.000000  1
  Rh  Rh27  1  0.000000  0.000000  0.000000  1
