# generated using pymatgen
data_Pr3V(Co4P3)2
_symmetry_space_group_name_H-M   'P 1'
_cell_length_a   3.80144000
_cell_length_b   10.80633400
_cell_length_c   12.55610200
_cell_angle_alpha   90.00000000
_cell_angle_beta   90.00000000
_cell_angle_gamma   90.00000000
_symmetry_Int_Tables_number   1
_chemical_formula_structural   Pr3V(Co4P3)2
_chemical_formula_sum   'Pr6 V2 Co16 P12'
_cell_volume   515.80002843
_cell_formula_units_Z   2
loop_
 _symmetry_equiv_pos_site_id
 _symmetry_equiv_pos_as_xyz
  1  'x, y, z'
loop_
 _atom_site_type_symbol
 _atom_site_label
 _atom_site_symmetry_multiplicity
 _atom_site_fract_x
 _atom_site_fract_y
 _atom_site_fract_z
 _atom_site_occupancy
  Pr  Pr0  1  0.000000  0.500000  0.521854  1
  Pr  Pr1  1  0.500000  0.000000  0.478146  1
  Pr  Pr2  1  0.500000  0.818218  0.204521  1
  Pr  Pr3  1  0.500000  0.181782  0.204521  1
  Pr  Pr4  1  0.000000  0.681782  0.795479  1
  Pr  Pr5  1  0.000000  0.318218  0.795479  1
  V  V6  1  0.500000  0.500000  0.151349  1
  V  V7  1  0.000000  0.000000  0.848651  1
  Co  Co8  1  0.500000  0.500000  0.704302  1
  Co  Co9  1  0.000000  0.000000  0.295698  1
  Co  Co10  1  0.000000  0.500000  0.988888  1
  Co  Co11  1  0.500000  0.000000  0.011112  1
  Co  Co12  1  0.500000  0.332727  0.994417  1
  Co  Co13  1  0.500000  0.667273  0.994417  1
  Co  Co14  1  0.000000  0.167273  0.005583  1
  Co  Co15  1  0.000000  0.832727  0.005583  1
  Co  Co16  1  0.500000  0.295293  0.430765  1
  Co  Co17  1  0.500000  0.704707  0.430765  1
  Co  Co18  1  0.000000  0.204707  0.569235  1
  Co  Co19  1  0.000000  0.795293  0.569235  1
  Co  Co20  1  0.500000  0.881500  0.709341  1
  Co  Co21  1  0.500000  0.118500  0.709341  1
  Co  Co22  1  0.000000  0.618500  0.290659  1
  Co  Co23  1  0.000000  0.381500  0.290659  1
  P  P24  1  0.500000  0.500000  0.888022  1
  P  P25  1  0.000000  0.000000  0.111978  1
  P  P26  1  0.500000  0.500000  0.340306  1
  P  P27  1  0.000000  0.000000  0.659694  1
  P  P28  1  0.500000  0.305342  0.613989  1
  P  P29  1  0.500000  0.694658  0.613989  1
  P  P30  1  0.000000  0.194658  0.386011  1
  P  P31  1  0.000000  0.805342  0.386011  1
  P  P32  1  0.500000  0.848103  0.895334  1
  P  P33  1  0.500000  0.151897  0.895334  1
  P  P34  1  0.000000  0.651897  0.104666  1
  P  P35  1  0.000000  0.348103  0.104666  1
