# generated using pymatgen
data_YbDy2HoNi8
_symmetry_space_group_name_H-M   'P 1'
_cell_length_a   5.03346300
_cell_length_b   5.03300166
_cell_length_c   8.74970400
_cell_angle_alpha   73.28209530
_cell_angle_beta   90.00000000
_cell_angle_gamma   120.00303879
_symmetry_Int_Tables_number   1
_chemical_formula_structural   YbDy2HoNi8
_chemical_formula_sum   'Yb1 Dy2 Ho1 Ni8'
_cell_volume   181.05780576
_cell_formula_units_Z   1
loop_
 _symmetry_equiv_pos_site_id
 _symmetry_equiv_pos_as_xyz
  1  'x, y, z'
loop_
 _atom_site_type_symbol
 _atom_site_label
 _atom_site_symmetry_multiplicity
 _atom_site_fract_x
 _atom_site_fract_y
 _atom_site_fract_z
 _atom_site_occupancy
  Yb  Yb0  1  0.874305  0.748609  0.377091  1
  Dy  Dy1  1  0.997719  0.995436  0.006758  1
  Dy  Dy2  1  0.501971  0.003942  0.494163  1
  Ho  Ho3  1  0.375767  0.751534  0.872581  1
  Ni  Ni4  1  0.436709  0.376143  0.187205  1
  Ni  Ni5  1  0.937486  0.374491  0.687990  1
  Ni  Ni6  1  0.436697  0.873394  0.187203  1
  Ni  Ni7  1  0.937500  0.875002  0.687997  1
  Ni  Ni8  1  0.187889  0.375780  0.436411  1
  Ni  Ni9  1  0.687517  0.375034  0.937402  1
  Ni  Ni10  1  0.939435  0.376143  0.187205  1
  Ni  Ni11  1  0.437005  0.374491  0.687990  1
