# generated using pymatgen
data_Sr2Pr(CdPd)3
_symmetry_space_group_name_H-M   'P 1'
_cell_length_a   7.85097300
_cell_length_b   7.84696730
_cell_length_c   4.21535700
_cell_angle_alpha   90.00000000
_cell_angle_beta   90.00000000
_cell_angle_gamma   120.01689210
_symmetry_Int_Tables_number   1
_chemical_formula_structural   Sr2Pr(CdPd)3
_chemical_formula_sum   'Sr2 Pr1 Cd3 Pd3'
_cell_volume   224.86215607
_cell_formula_units_Z   1
loop_
 _symmetry_equiv_pos_site_id
 _symmetry_equiv_pos_as_xyz
  1  'x, y, z'
loop_
 _atom_site_type_symbol
 _atom_site_label
 _atom_site_symmetry_multiplicity
 _atom_site_fract_x
 _atom_site_fract_y
 _atom_site_fract_z
 _atom_site_occupancy
  Sr  Sr0  1  0.405843  0.406300  0.500000  1
  Sr  Sr1  1  0.999543  0.593700  0.500000  1
  Pr  Pr2  1  0.593815  0.000000  0.500000  1
  Cd  Cd3  1  0.749613  0.752547  0.000000  1
  Cd  Cd4  1  0.249126  0.000000  0.000000  1
  Cd  Cd5  1  0.997067  0.247453  0.000000  1
  Pd  Pd6  1  0.663387  0.315199  0.000000  1
  Pd  Pd7  1  0.993421  0.000000  0.500000  1
  Pd  Pd8  1  0.348187  0.684801  0.000000  1
