# generated using pymatgen
data_Tb2Er3AlSb2
_symmetry_space_group_name_H-M   'P 1'
_cell_length_a   8.87049606
_cell_length_b   8.86684823
_cell_length_c   6.37412200
_cell_angle_alpha   90.00000000
_cell_angle_beta   90.00000000
_cell_angle_gamma   119.98638893
_symmetry_Int_Tables_number   1
_chemical_formula_structural   Tb2Er3AlSb2
_chemical_formula_sum   'Tb4 Er6 Al2 Sb4'
_cell_volume   434.23790854
_cell_formula_units_Z   2
loop_
 _symmetry_equiv_pos_site_id
 _symmetry_equiv_pos_as_xyz
  1  'x, y, z'
loop_
 _atom_site_type_symbol
 _atom_site_label
 _atom_site_symmetry_multiplicity
 _atom_site_fract_x
 _atom_site_fract_y
 _atom_site_fract_z
 _atom_site_occupancy
  Tb  Tb0  1  0.008933  0.766177  0.750000  1
  Tb  Tb1  1  0.008933  0.242756  0.250000  1
  Tb  Tb2  1  0.755274  0.756339  0.250000  1
  Tb  Tb3  1  0.755274  0.998935  0.750000  1
  Er  Er4  1  0.242295  0.232506  0.750000  1
  Er  Er5  1  0.242295  0.009790  0.250000  1
  Er  Er6  1  0.335712  0.667857  0.500000  1
  Er  Er7  1  0.655668  0.327834  0.000000  1
  Er  Er8  1  0.655668  0.327834  0.500000  1
  Er  Er9  1  0.335712  0.667857  0.000000  1
  Al  Al10  1  0.398084  0.997588  0.750000  1
  Al  Al11  1  0.398084  0.400496  0.250000  1
  Sb  Sb12  1  0.999516  0.606843  0.250000  1
  Sb  Sb13  1  0.999516  0.392673  0.750000  1
  Sb  Sb14  1  0.604516  0.603568  0.750000  1
  Sb  Sb15  1  0.604516  0.000949  0.250000  1
