# generated using pymatgen
data_Dy3TmRh2Pb5
_symmetry_space_group_name_H-M   'P 1'
_cell_length_a   8.18110513
_cell_length_b   3.56016100
_cell_length_c   9.85418952
_cell_angle_alpha   90.00000000
_cell_angle_beta   93.79368051
_cell_angle_gamma   90.00000000
_symmetry_Int_Tables_number   1
_chemical_formula_structural   Dy3TmRh2Pb5
_chemical_formula_sum   'Dy3 Tm1 Rh2 Pb5'
_cell_volume   286.38471837
_cell_formula_units_Z   1
loop_
 _symmetry_equiv_pos_site_id
 _symmetry_equiv_pos_as_xyz
  1  'x, y, z'
loop_
 _atom_site_type_symbol
 _atom_site_label
 _atom_site_symmetry_multiplicity
 _atom_site_fract_x
 _atom_site_fract_y
 _atom_site_fract_z
 _atom_site_occupancy
  Dy  Dy0  1  0.305380  0.500000  0.158547  1
  Dy  Dy1  1  0.700855  0.500000  0.433265  1
  Dy  Dy2  1  0.299402  0.500000  0.567045  1
  Tm  Tm3  1  0.694024  0.500000  0.839572  1
  Rh  Rh4  1  0.418733  0.000000  0.363881  1
  Rh  Rh5  1  0.582407  0.000000  0.638725  1
  Pb  Pb6  1  0.998608  0.000000  0.999454  1
  Pb  Pb7  1  0.646576  0.000000  0.136341  1
  Pb  Pb8  1  0.040493  0.000000  0.335663  1
  Pb  Pb9  1  0.958649  0.000000  0.664682  1
  Pb  Pb10  1  0.354875  0.000000  0.862824  1
