# generated using pymatgen
data_PW4Br11
_symmetry_space_group_name_H-M   'P 1'
_cell_length_a   9.22979453
_cell_length_b   9.22979537
_cell_length_c   12.02424900
_cell_angle_alpha   90.00000000
_cell_angle_beta   90.00000000
_cell_angle_gamma   110.52124770
_symmetry_Int_Tables_number   1
_chemical_formula_structural   PW4Br11
_chemical_formula_sum   'P2 W8 Br22'
_cell_volume   959.33312912
_cell_formula_units_Z   2
loop_
 _symmetry_equiv_pos_site_id
 _symmetry_equiv_pos_as_xyz
  1  'x, y, z'
loop_
 _atom_site_type_symbol
 _atom_site_label
 _atom_site_symmetry_multiplicity
 _atom_site_fract_x
 _atom_site_fract_y
 _atom_site_fract_z
 _atom_site_occupancy
  P  P0  1  0.685202  0.314798  0.250000  1
  P  P1  1  0.314798  0.685202  0.750000  1
  W  W2  1  0.650538  0.098665  0.370110  1
  W  W3  1  0.098665  0.650538  0.629890  1
  W  W4  1  0.349462  0.901335  0.629890  1
  W  W5  1  0.901335  0.349462  0.370110  1
  W  W6  1  0.650538  0.098665  0.129890  1
  W  W7  1  0.098665  0.650538  0.870110  1
  W  W8  1  0.349462  0.901335  0.870110  1
  W  W9  1  0.901335  0.349462  0.129890  1
  Br  Br10  1  0.871932  0.128068  0.992248  1
  Br  Br11  1  0.128068  0.871932  0.007752  1
  Br  Br12  1  0.487055  0.179564  0.984548  1
  Br  Br13  1  0.179564  0.487055  0.015452  1
  Br  Br14  1  0.512945  0.820436  0.015452  1
  Br  Br15  1  0.820436  0.512945  0.984548  1
  Br  Br16  1  0.871932  0.128068  0.507752  1
  Br  Br17  1  0.128068  0.871932  0.492248  1
  Br  Br18  1  0.487055  0.179564  0.515452  1
  Br  Br19  1  0.179564  0.487055  0.484548  1
  Br  Br20  1  0.512945  0.820436  0.484548  1
  Br  Br21  1  0.820436  0.512945  0.515452  1
  Br  Br22  1  0.753977  0.926477  0.250000  1
  Br  Br23  1  0.926477  0.753977  0.750000  1
  Br  Br24  1  0.246023  0.073523  0.750000  1
  Br  Br25  1  0.073523  0.246023  0.250000  1
  Br  Br26  1  0.538023  0.461977  0.250000  1
  Br  Br27  1  0.461977  0.538023  0.750000  1
  Br  Br28  1  0.394391  0.994428  0.250000  1
  Br  Br29  1  0.994428  0.394391  0.750000  1
  Br  Br30  1  0.605609  0.005572  0.750000  1
  Br  Br31  1  0.005572  0.605609  0.250000  1
