# generated using pymatgen
data_Tb5DyRh2
_symmetry_space_group_name_H-M   'P 1'
_cell_length_a   6.30276659
_cell_length_b   7.17368400
_cell_length_c   9.54214049
_cell_angle_alpha   90.00000000
_cell_angle_beta   90.12260204
_cell_angle_gamma   90.00000000
_symmetry_Int_Tables_number   1
_chemical_formula_structural   Tb5DyRh2
_chemical_formula_sum   'Tb10 Dy2 Rh4'
_cell_volume   431.43788514
_cell_formula_units_Z   2
loop_
 _symmetry_equiv_pos_site_id
 _symmetry_equiv_pos_as_xyz
  1  'x, y, z'
loop_
 _atom_site_type_symbol
 _atom_site_label
 _atom_site_symmetry_multiplicity
 _atom_site_fract_x
 _atom_site_fract_y
 _atom_site_fract_z
 _atom_site_occupancy
  Tb  Tb0  1  0.330177  0.676531  0.063332  1
  Tb  Tb1  1  0.169823  0.176531  0.436668  1
  Tb  Tb2  1  0.669609  0.323384  0.562956  1
  Tb  Tb3  1  0.830391  0.823384  0.937044  1
  Tb  Tb4  1  0.669797  0.323184  0.937138  1
  Tb  Tb5  1  0.830203  0.823184  0.562862  1
  Tb  Tb6  1  0.866540  0.532200  0.249990  1
  Tb  Tb7  1  0.633460  0.032200  0.250010  1
  Tb  Tb8  1  0.134085  0.467855  0.750123  1
  Tb  Tb9  1  0.365915  0.967855  0.749877  1
  Dy  Dy10  1  0.330404  0.676578  0.436550  1
  Dy  Dy11  1  0.169596  0.176578  0.063450  1
  Rh  Rh12  1  0.061740  0.882675  0.249865  1
  Rh  Rh13  1  0.438260  0.382675  0.250135  1
  Rh  Rh14  1  0.938686  0.117594  0.750485  1
  Rh  Rh15  1  0.561314  0.617594  0.749515  1
