# generated using pymatgen
data_Tb6Th2Cd2IrRu
_symmetry_space_group_name_H-M   'P 1'
_cell_length_a   9.75617303
_cell_length_b   9.75617356
_cell_length_c   9.75913700
_cell_angle_alpha   59.98995489
_cell_angle_beta   59.98995312
_cell_angle_gamma   60.01271178
_symmetry_Int_Tables_number   1
_chemical_formula_structural   Tb6Th2Cd2IrRu
_chemical_formula_sum   'Tb12 Th4 Cd4 Ir2 Ru2'
_cell_volume   656.79699740
_cell_formula_units_Z   2
loop_
 _symmetry_equiv_pos_site_id
 _symmetry_equiv_pos_as_xyz
  1  'x, y, z'
loop_
 _atom_site_type_symbol
 _atom_site_label
 _atom_site_symmetry_multiplicity
 _atom_site_fract_x
 _atom_site_fract_y
 _atom_site_fract_z
 _atom_site_occupancy
  Tb  Tb0  1  0.063090  0.438259  0.438238  1
  Tb  Tb1  1  0.438259  0.063090  0.060413  1
  Tb  Tb2  1  0.438259  0.063090  0.438238  1
  Tb  Tb3  1  0.063090  0.438259  0.060413  1
  Tb  Tb4  1  0.437851  0.437851  0.062149  1
  Tb  Tb5  1  0.061334  0.061334  0.438666  1
  Tb  Tb6  1  0.185825  0.813234  0.814905  1
  Tb  Tb7  1  0.813234  0.185825  0.186036  1
  Tb  Tb8  1  0.813234  0.185825  0.814905  1
  Tb  Tb9  1  0.185825  0.813234  0.186036  1
  Tb  Tb10  1  0.814036  0.814036  0.185964  1
  Tb  Tb11  1  0.185840  0.185840  0.814160  1
  Th  Th12  1  0.597229  0.597229  0.601615  1
  Th  Th13  1  0.597229  0.597229  0.203927  1
  Th  Th14  1  0.595254  0.206294  0.599226  1
  Th  Th15  1  0.206294  0.595254  0.599226  1
  Cd  Cd16  1  0.831626  0.831626  0.832179  1
  Cd  Cd17  1  0.831626  0.831626  0.504569  1
  Cd  Cd18  1  0.831853  0.503699  0.832224  1
  Cd  Cd19  1  0.503699  0.831853  0.832224  1
  Ir  Ir20  1  0.394061  0.821093  0.392423  1
  Ir  Ir21  1  0.821093  0.394061  0.392423  1
  Ru  Ru22  1  0.395080  0.395080  0.393251  1
  Ru  Ru23  1  0.395080  0.395080  0.816590  1
