# generated using pymatgen
data_BiH7F12
_symmetry_space_group_name_H-M   'P 1'
_cell_length_a   8.12217436
_cell_length_b   8.12217431
_cell_length_c   5.32126673
_cell_angle_alpha   74.22657387
_cell_angle_beta   74.22657270
_cell_angle_gamma   48.98965050
_symmetry_Int_Tables_number   1
_chemical_formula_structural   BiH7F12
_chemical_formula_sum   'Bi1 H7 F12'
_cell_volume   252.79875245
_cell_formula_units_Z   1
loop_
 _symmetry_equiv_pos_site_id
 _symmetry_equiv_pos_as_xyz
  1  'x, y, z'
loop_
 _atom_site_type_symbol
 _atom_site_label
 _atom_site_symmetry_multiplicity
 _atom_site_fract_x
 _atom_site_fract_y
 _atom_site_fract_z
 _atom_site_occupancy
  Bi  Bi0  1  0.000942  0.999058  0.000000  1
  H  H1  1  0.799802  0.822259  0.798098  1
  H  H2  1  0.177741  0.200198  0.201902  1
  H  H3  1  0.715142  0.735796  0.574473  1
  H  H4  1  0.264204  0.284858  0.425527  1
  H  H5  1  0.632725  0.635231  0.369769  1
  H  H6  1  0.364769  0.367275  0.630231  1
  H  H7  1  0.500463  0.499537  0.500000  1
  F  F8  1  0.907881  0.904193  0.770636  1
  F  F9  1  0.095807  0.092119  0.229364  1
  F  F10  1  0.568939  0.567391  0.324086  1
  F  F11  1  0.432609  0.431061  0.675914  1
  F  F12  1  0.714309  0.718682  0.389502  1
  F  F13  1  0.281318  0.285691  0.610498  1
  F  F14  1  0.868120  0.289861  0.762219  1
  F  F15  1  0.710139  0.131880  0.237781  1
  F  F16  1  0.134305  0.709194  0.239504  1
  F  F17  1  0.290806  0.865695  0.760496  1
  F  F18  1  0.721855  0.761876  0.805971  1
  F  F19  1  0.238124  0.278145  0.194029  1
