# generated using pymatgen
data_Li6Pr5Dy(WO6)4
_symmetry_space_group_name_H-M   'P 1'
_cell_length_a   10.96306764
_cell_length_b   10.91643689
_cell_length_c   10.93851190
_cell_angle_alpha   109.34307037
_cell_angle_beta   109.51593842
_cell_angle_gamma   109.55931925
_symmetry_Int_Tables_number   1
_chemical_formula_structural   Li6Pr5Dy(WO6)4
_chemical_formula_sum   'Li12 Pr10 Dy2 W8 O48'
_cell_volume   1007.68094232
_cell_formula_units_Z   2
loop_
 _symmetry_equiv_pos_site_id
 _symmetry_equiv_pos_as_xyz
  1  'x, y, z'
loop_
 _atom_site_type_symbol
 _atom_site_label
 _atom_site_symmetry_multiplicity
 _atom_site_fract_x
 _atom_site_fract_y
 _atom_site_fract_z
 _atom_site_occupancy
  Li  Li0  1  0.248952  0.874876  0.124963  1
  Li  Li1  1  0.376011  0.250086  0.124963  1
  Li  Li2  1  0.123826  0.374903  0.249751  1
  Li  Li3  1  0.625926  0.874849  0.249751  1
  Li  Li4  1  0.122432  0.749016  0.372547  1
  Li  Li5  1  0.750116  0.623532  0.372548  1
  Li  Li6  1  0.250046  0.374601  0.624739  1
  Li  Li7  1  0.874694  0.250138  0.624740  1
  Li  Li8  1  0.376036  0.126056  0.751041  1
  Li  Li9  1  0.875005  0.624985  0.751041  1
  Li  Li10  1  0.626867  0.750026  0.877002  1
  Li  Li11  1  0.750134  0.126977  0.877002  1
  Pr  Pr12  1  0.375313  0.625313  0.250627  1
  Pr  Pr13  1  0.873988  0.123988  0.247977  1
  Pr  Pr14  1  0.248667  0.123197  0.374225  1
  Pr  Pr15  1  0.625558  0.251028  0.374225  1
  Pr  Pr16  1  0.749649  0.874795  0.624873  1
  Pr  Pr17  1  0.375225  0.750078  0.624874  1
  Pr  Pr18  1  0.124929  0.874928  0.749859  1
  Pr  Pr19  1  0.626274  0.376273  0.752547  1
  Pr  Pr20  1  0.250122  0.625304  0.874899  1
  Pr  Pr21  1  0.124777  0.249595  0.874900  1
  Dy  Dy22  1  0.751107  0.377086  0.125498  1
  Dy  Dy23  1  0.874392  0.748412  0.125499  1
  W  W24  1  0.998940  0.997075  0.000446  1
  W  W25  1  0.501505  0.003371  0.000446  1
  W  W26  1  0.504286  0.500954  0.002963  1
  W  W27  1  0.998676  0.502008  0.002963  1
  W  W28  1  0.997808  0.996882  0.496486  1
  W  W29  1  0.500005  0.000540  0.500145  1
  W  W30  1  0.998678  0.499605  0.496487  1
  W  W31  1  0.500140  0.499606  0.500146  1
  O  O32  1  0.829093  0.903425  0.026102  1
  O  O33  1  0.697008  0.122677  0.026103  1
  O  O34  1  0.194044  0.672797  0.081018  1
  O  O35  1  0.386974  0.408222  0.081018  1
  O  O36  1  0.479926  0.672336  0.093426  1
  O  O37  1  0.113500  0.421090  0.093426  1
  O  O38  1  0.526269  0.199779  0.114784  1
  O  O39  1  0.088518  0.915006  0.114786  1
  O  O40  1  0.970614  0.593496  0.171929  1
  O  O41  1  0.701317  0.578435  0.171931  1
  O  O42  1  0.079607  0.171154  0.194181  1
  O  O43  1  0.614574  0.023027  0.194181  1
  O  O44  1  0.826309  0.914712  0.300289  1
  O  O45  1  0.973980  0.385578  0.300289  1
  O  O46  1  0.408103  0.022830  0.327606  1
  O  O47  1  0.419504  0.304775  0.327606  1
  O  O48  1  0.073670  0.902881  0.376936  1
  O  O49  1  0.803267  0.474057  0.376936  1
  O  O50  1  0.327820  0.522211  0.407937  1
  O  O51  1  0.580117  0.885728  0.407938  1
  O  O52  1  0.592130  0.614410  0.419423  1
  O  O53  1  0.327293  0.805014  0.419423  1
  O  O54  1  0.091017  0.171103  0.476405  1
  O  O55  1  0.885387  0.305299  0.476405  1
  O  O56  1  0.114769  0.695797  0.522185  1
  O  O57  1  0.907416  0.826388  0.522185  1
  O  O58  1  0.408510  0.385487  0.581102  1
  O  O59  1  0.672592  0.195615  0.581103  1
  O  O60  1  0.672524  0.477526  0.592007  1
  O  O61  1  0.419482  0.114482  0.592007  1
  O  O62  1  0.193034  0.521294  0.612563  1
  O  O63  1  0.919530  0.091270  0.612564  1
  O  O64  1  0.580405  0.694788  0.672527  1
  O  O65  1  0.592123  0.977739  0.672528  1
  O  O66  1  0.171460  0.078380  0.691510  1
  O  O67  1  0.020050  0.613130  0.691512  1
  O  O68  1  0.385363  0.977820  0.804786  1
  O  O69  1  0.919423  0.826966  0.804786  1
  O  O70  1  0.309899  0.421253  0.828945  1
  O  O71  1  0.019048  0.407694  0.828946  1
  O  O72  1  0.479883  0.808049  0.886731  1
  O  O73  1  0.906848  0.078683  0.886732  1
  O  O74  1  0.526724  0.327872  0.912128  1
  O  O75  1  0.885404  0.584258  0.912129  1
  O  O76  1  0.622925  0.596276  0.926746  1
  O  O77  1  0.803822  0.330472  0.926746  1
  O  O78  1  0.306701  0.887292  0.978640  1
  O  O79  1  0.171939  0.091348  0.978641  1
