# generated using pymatgen
data_Ba4Nb(IrO4)3
_symmetry_space_group_name_H-M   'P 1'
_cell_length_a   10.24818519
_cell_length_b   10.24818555
_cell_length_c   10.24818635
_cell_angle_alpha   33.20762776
_cell_angle_beta   33.20762373
_cell_angle_gamma   33.20762518
_symmetry_Int_Tables_number   1
_chemical_formula_structural   Ba4Nb(IrO4)3
_chemical_formula_sum   'Ba4 Nb1 Ir3 O12'
_cell_volume   287.39586392
_cell_formula_units_Z   1
loop_
 _symmetry_equiv_pos_site_id
 _symmetry_equiv_pos_as_xyz
  1  'x, y, z'
loop_
 _atom_site_type_symbol
 _atom_site_label
 _atom_site_symmetry_multiplicity
 _atom_site_fract_x
 _atom_site_fract_y
 _atom_site_fract_z
 _atom_site_occupancy
  Ba  Ba0  1  0.713868  0.713868  0.713868  1
  Ba  Ba1  1  0.286132  0.286132  0.286132  1
  Ba  Ba2  1  0.871291  0.871291  0.871291  1
  Ba  Ba3  1  0.128709  0.128709  0.128709  1
  Nb  Nb4  1  0.000000  0.000000  0.000000  1
  Ir  Ir5  1  0.412112  0.412112  0.412112  1
  Ir  Ir6  1  0.500000  0.500000  0.500000  1
  Ir  Ir7  1  0.587888  0.587888  0.587888  1
  O  O8  1  0.203811  0.203811  0.710865  1
  O  O9  1  0.710865  0.203811  0.203811  1
  O  O10  1  0.203811  0.710865  0.203811  1
  O  O11  1  0.796189  0.289135  0.796189  1
  O  O12  1  0.796189  0.796189  0.289135  1
  O  O13  1  0.289135  0.796189  0.796189  1
  O  O14  1  0.384725  0.384725  0.862449  1
  O  O15  1  0.862449  0.384725  0.384725  1
  O  O16  1  0.137551  0.615275  0.615275  1
  O  O17  1  0.615275  0.615275  0.137551  1
  O  O18  1  0.615275  0.137551  0.615275  1
  O  O19  1  0.384725  0.862449  0.384725  1
