# generated using pymatgen
data_YbSmTm8(In2Pt)4
_symmetry_space_group_name_H-M   'P 1'
_cell_length_a   3.57907100
_cell_length_b   8.13399564
_cell_length_c   18.24979186
_cell_angle_alpha   89.99113047
_cell_angle_beta   90.00000000
_cell_angle_gamma   90.00000000
_symmetry_Int_Tables_number   1
_chemical_formula_structural   YbSmTm8(In2Pt)4
_chemical_formula_sum   'Yb1 Sm1 Tm8 In8 Pt4'
_cell_volume   531.29063351
_cell_formula_units_Z   1
loop_
 _symmetry_equiv_pos_site_id
 _symmetry_equiv_pos_as_xyz
  1  'x, y, z'
loop_
 _atom_site_type_symbol
 _atom_site_label
 _atom_site_symmetry_multiplicity
 _atom_site_fract_x
 _atom_site_fract_y
 _atom_site_fract_z
 _atom_site_occupancy
  Yb  Yb0  1  0.000000  0.000000  0.000000  1
  Sm  Sm1  1  0.000000  0.500000  0.500000  1
  Tm  Tm2  1  0.000000  0.119375  0.414001  1
  Tm  Tm3  1  0.000000  0.880625  0.585999  1
  Tm  Tm4  1  0.000000  0.380702  0.913856  1
  Tm  Tm5  1  0.000000  0.619298  0.086144  1
  Tm  Tm6  1  0.000000  0.242540  0.220414  1
  Tm  Tm7  1  0.000000  0.757460  0.779586  1
  Tm  Tm8  1  0.000000  0.257417  0.720909  1
  Tm  Tm9  1  0.000000  0.742583  0.279091  1
  In  In10  1  0.500000  0.422440  0.349468  1
  In  In11  1  0.500000  0.577560  0.650532  1
  In  In12  1  0.500000  0.074719  0.850720  1
  In  In13  1  0.500000  0.925281  0.149280  1
  In  In14  1  0.500000  0.294913  0.067037  1
  In  In15  1  0.500000  0.705087  0.932963  1
  In  In16  1  0.500000  0.202353  0.567349  1
  In  In17  1  0.500000  0.797647  0.432651  1
  Pt  Pt18  1  0.500000  0.025142  0.303511  1
  Pt  Pt19  1  0.500000  0.974858  0.696489  1
  Pt  Pt20  1  0.500000  0.476287  0.803680  1
  Pt  Pt21  1  0.500000  0.523713  0.196320  1
