# generated using pymatgen
data_Nd2Co3Ni(PRu)6
_symmetry_space_group_name_H-M   'P 1'
_cell_length_a   3.82154100
_cell_length_b   10.70988500
_cell_length_c   12.22186700
_cell_angle_alpha   90.00000000
_cell_angle_beta   90.00000000
_cell_angle_gamma   90.00000000
_symmetry_Int_Tables_number   1
_chemical_formula_structural   Nd2Co3Ni(PRu)6
_chemical_formula_sum   'Nd4 Co6 Ni2 P12 Ru12'
_cell_volume   500.21980688
_cell_formula_units_Z   2
loop_
 _symmetry_equiv_pos_site_id
 _symmetry_equiv_pos_as_xyz
  1  'x, y, z'
loop_
 _atom_site_type_symbol
 _atom_site_label
 _atom_site_symmetry_multiplicity
 _atom_site_fract_x
 _atom_site_fract_y
 _atom_site_fract_z
 _atom_site_occupancy
  Nd  Nd0  1  0.250000  0.583912  0.707189  1
  Nd  Nd1  1  0.250000  0.916088  0.207189  1
  Nd  Nd2  1  0.750000  0.414159  0.293334  1
  Nd  Nd3  1  0.750000  0.085841  0.793334  1
  Co  Co4  1  0.750000  0.113306  0.305100  1
  Co  Co5  1  0.750000  0.386694  0.805100  1
  Co  Co6  1  0.250000  0.463558  0.934227  1
  Co  Co7  1  0.250000  0.036442  0.434227  1
  Co  Co8  1  0.750000  0.537826  0.066396  1
  Co  Co9  1  0.750000  0.962174  0.566396  1
  Ni  Ni10  1  0.250000  0.886907  0.695882  1
  Ni  Ni11  1  0.250000  0.613093  0.195882  1
  P  P12  1  0.250000  0.422365  0.107731  1
  P  P13  1  0.250000  0.077635  0.607731  1
  P  P14  1  0.750000  0.573948  0.890553  1
  P  P15  1  0.750000  0.926052  0.390553  1
  P  P16  1  0.250000  0.275326  0.871461  1
  P  P17  1  0.250000  0.224674  0.371461  1
  P  P18  1  0.750000  0.727903  0.126054  1
  P  P19  1  0.750000  0.772097  0.626054  1
  P  P20  1  0.250000  0.603793  0.392176  1
  P  P21  1  0.250000  0.896207  0.892176  1
  P  P22  1  0.750000  0.395196  0.611685  1
  P  P23  1  0.750000  0.104804  0.111685  1
  Ru  Ru24  1  0.250000  0.707022  0.986968  1
  Ru  Ru25  1  0.250000  0.792978  0.486968  1
  Ru  Ru26  1  0.750000  0.294288  0.013689  1
  Ru  Ru27  1  0.750000  0.205712  0.513689  1
  Ru  Ru28  1  0.250000  0.404048  0.486705  1
  Ru  Ru29  1  0.250000  0.095952  0.986705  1
  Ru  Ru30  1  0.750000  0.594354  0.511819  1
  Ru  Ru31  1  0.750000  0.905646  0.011819  1
  Ru  Ru32  1  0.250000  0.222631  0.179466  1
  Ru  Ru33  1  0.250000  0.277369  0.679466  1
  Ru  Ru34  1  0.750000  0.777492  0.819564  1
  Ru  Ru35  1  0.750000  0.722508  0.319564  1
