# generated using pymatgen
data_Ce3Sm(B4Mo)4
_symmetry_space_group_name_H-M   'P 1'
_cell_length_a   3.69857200
_cell_length_b   6.06662283
_cell_length_c   11.72912751
_cell_angle_alpha   89.99989000
_cell_angle_beta   90.00000000
_cell_angle_gamma   90.00000000
_symmetry_Int_Tables_number   1
_chemical_formula_structural   Ce3Sm(B4Mo)4
_chemical_formula_sum   'Ce3 Sm1 B16 Mo4'
_cell_volume   263.17630188
_cell_formula_units_Z   1
loop_
 _symmetry_equiv_pos_site_id
 _symmetry_equiv_pos_as_xyz
  1  'x, y, z'
loop_
 _atom_site_type_symbol
 _atom_site_label
 _atom_site_symmetry_multiplicity
 _atom_site_fract_x
 _atom_site_fract_y
 _atom_site_fract_z
 _atom_site_occupancy
  Ce  Ce0  1  0.000000  0.624862  0.349252  1
  Ce  Ce1  1  0.000000  0.374908  0.651056  1
  Ce  Ce2  1  0.000000  0.124682  0.150591  1
  Sm  Sm3  1  0.000000  0.874950  0.849271  1
  B  B4  1  0.500000  0.786576  0.185014  1
  B  B5  1  0.500000  0.216079  0.814497  1
  B  B6  1  0.500000  0.285354  0.314826  1
  B  B7  1  0.500000  0.713848  0.684654  1
  B  B8  1  0.500000  0.864395  0.033012  1
  B  B9  1  0.500000  0.136441  0.968189  1
  B  B10  1  0.500000  0.363980  0.467876  1
  B  B11  1  0.500000  0.635764  0.532059  1
  B  B12  1  0.500000  0.886145  0.453329  1
  B  B13  1  0.500000  0.113543  0.546866  1
  B  B14  1  0.500000  0.386334  0.046731  1
  B  B15  1  0.500000  0.613594  0.953580  1
  B  B16  1  0.500000  0.974731  0.308083  1
  B  B17  1  0.500000  0.026129  0.691433  1
  B  B18  1  0.500000  0.474882  0.191980  1
  B  B19  1  0.500000  0.522720  0.807854  1
  Mo  Mo20  1  0.000000  0.629059  0.085149  1
  Mo  Mo21  1  0.000000  0.371527  0.915678  1
  Mo  Mo22  1  0.000000  0.130197  0.414842  1
  Mo  Mo23  1  0.000000  0.869298  0.584178  1
