# generated using pymatgen
data_Er4B16MoIr2W
_symmetry_space_group_name_H-M   'P 1'
_cell_length_a   3.57896800
_cell_length_b   5.98321281
_cell_length_c   11.58778406
_cell_angle_alpha   89.66485413
_cell_angle_beta   90.00000000
_cell_angle_gamma   90.00000000
_symmetry_Int_Tables_number   1
_chemical_formula_structural   Er4B16MoIr2W
_chemical_formula_sum   'Er4 B16 Mo1 Ir2 W1'
_cell_volume   248.13340135
_cell_formula_units_Z   1
loop_
 _symmetry_equiv_pos_site_id
 _symmetry_equiv_pos_as_xyz
  1  'x, y, z'
loop_
 _atom_site_type_symbol
 _atom_site_label
 _atom_site_symmetry_multiplicity
 _atom_site_fract_x
 _atom_site_fract_y
 _atom_site_fract_z
 _atom_site_occupancy
  Er  Er0  1  0.000000  0.627353  0.349992  1
  Er  Er1  1  0.000000  0.373015  0.650128  1
  Er  Er2  1  0.000000  0.129421  0.148531  1
  Er  Er3  1  0.000000  0.870475  0.851060  1
  B  B4  1  0.500000  0.789188  0.186111  1
  B  B5  1  0.500000  0.210809  0.813829  1
  B  B6  1  0.500000  0.290932  0.311650  1
  B  B7  1  0.500000  0.709571  0.687953  1
  B  B8  1  0.500000  0.864634  0.030538  1
  B  B9  1  0.500000  0.135380  0.969457  1
  B  B10  1  0.500000  0.367976  0.467881  1
  B  B11  1  0.500000  0.632524  0.532459  1
  B  B12  1  0.500000  0.884767  0.453330  1
  B  B13  1  0.500000  0.114665  0.547095  1
  B  B14  1  0.500000  0.386745  0.047117  1
  B  B15  1  0.500000  0.613178  0.952851  1
  B  B16  1  0.500000  0.975441  0.305441  1
  B  B17  1  0.500000  0.023969  0.694435  1
  B  B18  1  0.500000  0.474730  0.191499  1
  B  B19  1  0.500000  0.525450  0.808430  1
  Mo  Mo20  1  0.000000  0.870962  0.586314  1
  Ir  Ir21  1  0.000000  0.645199  0.095024  1
  Ir  Ir22  1  0.000000  0.354761  0.905195  1
  W  W23  1  0.000000  0.128854  0.413680  1
