# generated using pymatgen
data_Lu16Al4Ir3Rh
_symmetry_space_group_name_H-M   'P 1'
_cell_length_a   9.33565686
_cell_length_b   9.33435695
_cell_length_c   9.33565667
_cell_angle_alpha   60.11368665
_cell_angle_beta   60.10420175
_cell_angle_gamma   60.10016288
_symmetry_Int_Tables_number   1
_chemical_formula_structural   Lu16Al4Ir3Rh
_chemical_formula_sum   'Lu16 Al4 Ir3 Rh1'
_cell_volume   576.63512987
_cell_formula_units_Z   1
loop_
 _symmetry_equiv_pos_site_id
 _symmetry_equiv_pos_as_xyz
  1  'x, y, z'
loop_
 _atom_site_type_symbol
 _atom_site_label
 _atom_site_symmetry_multiplicity
 _atom_site_fract_x
 _atom_site_fract_y
 _atom_site_fract_z
 _atom_site_occupancy
  Lu  Lu0  1  0.353127  0.353129  0.353130  1
  Lu  Lu1  1  0.353387  0.353402  0.940318  1
  Lu  Lu2  1  0.353394  0.940315  0.353358  1
  Lu  Lu3  1  0.940304  0.353361  0.353391  1
  Lu  Lu4  1  0.804662  0.195166  0.195163  1
  Lu  Lu5  1  0.195359  0.804702  0.804725  1
  Lu  Lu6  1  0.195179  0.804642  0.195163  1
  Lu  Lu7  1  0.804724  0.195393  0.804685  1
  Lu  Lu8  1  0.195156  0.195188  0.804673  1
  Lu  Lu9  1  0.804740  0.804699  0.195347  1
  Lu  Lu10  1  0.938546  0.561421  0.561427  1
  Lu  Lu11  1  0.562230  0.938180  0.938207  1
  Lu  Lu12  1  0.561408  0.938538  0.561426  1
  Lu  Lu13  1  0.938201  0.562264  0.938159  1
  Lu  Lu14  1  0.561407  0.561422  0.938542  1
  Lu  Lu15  1  0.938191  0.938210  0.562256  1
  Al  Al16  1  0.578903  0.578880  0.578932  1
  Al  Al17  1  0.578857  0.578864  0.263399  1
  Al  Al18  1  0.578882  0.263411  0.578865  1
  Al  Al19  1  0.263404  0.578872  0.578880  1
  Ir  Ir20  1  0.141965  0.141971  0.574025  1
  Ir  Ir21  1  0.141979  0.573966  0.141993  1
  Ir  Ir22  1  0.573975  0.141995  0.141973  1
  Rh  Rh23  1  0.142021  0.142009  0.141963  1
