# generated using pymatgen
data_HoHf3Si4W
_symmetry_space_group_name_H-M   'P 1'
_cell_length_a   7.04237600
_cell_length_b   7.04237600
_cell_length_c   12.86321500
_cell_angle_alpha   90.00000000
_cell_angle_beta   90.00000000
_cell_angle_gamma   90.00000000
_symmetry_Int_Tables_number   1
_chemical_formula_structural   HoHf3Si4W
_chemical_formula_sum   'Ho4 Hf12 Si16 W4'
_cell_volume   637.95191619
_cell_formula_units_Z   4
loop_
 _symmetry_equiv_pos_site_id
 _symmetry_equiv_pos_as_xyz
  1  'x, y, z'
loop_
 _atom_site_type_symbol
 _atom_site_label
 _atom_site_symmetry_multiplicity
 _atom_site_fract_x
 _atom_site_fract_y
 _atom_site_fract_z
 _atom_site_occupancy
  Ho  Ho0  1  0.495132  0.156981  0.532102  1
  Ho  Ho1  1  0.504868  0.843019  0.032102  1
  Ho  Ho2  1  0.656981  0.004868  0.282102  1
  Ho  Ho3  1  0.343019  0.995132  0.782102  1
  Hf  Hf4  1  0.847024  0.499036  0.968657  1
  Hf  Hf5  1  0.152976  0.500964  0.468657  1
  Hf  Hf6  1  0.999036  0.652976  0.718657  1
  Hf  Hf7  1  0.000964  0.347024  0.218657  1
  Hf  Hf8  1  0.493579  0.355843  0.124965  1
  Hf  Hf9  1  0.506421  0.644157  0.624965  1
  Hf  Hf10  1  0.855843  0.006421  0.874965  1
  Hf  Hf11  1  0.144157  0.993579  0.374965  1
  Hf  Hf12  1  0.645900  0.502931  0.374773  1
  Hf  Hf13  1  0.354100  0.497069  0.874773  1
  Hf  Hf14  1  0.002931  0.854100  0.124773  1
  Hf  Hf15  1  0.997069  0.145900  0.624773  1
  Si  Si16  1  0.803635  0.150934  0.069964  1
  Si  Si17  1  0.196365  0.849066  0.569964  1
  Si  Si18  1  0.650934  0.696365  0.819964  1
  Si  Si19  1  0.349066  0.303635  0.319964  1
  Si  Si20  1  0.863293  0.209077  0.429496  1
  Si  Si21  1  0.136707  0.790923  0.929496  1
  Si  Si22  1  0.709077  0.636707  0.179496  1
  Si  Si23  1  0.290923  0.363293  0.679496  1
  Si  Si24  1  0.551870  0.205419  0.933340  1
  Si  Si25  1  0.448130  0.794581  0.433340  1
  Si  Si26  1  0.705419  0.948130  0.683340  1
  Si  Si27  1  0.294581  0.051870  0.183340  1
  Si  Si28  1  0.805332  0.455031  0.566504  1
  Si  Si29  1  0.194668  0.544969  0.066504  1
  Si  Si30  1  0.955031  0.694668  0.316504  1
  Si  Si31  1  0.044969  0.305332  0.816504  1
  W  W32  1  0.679928  0.330013  0.750200  1
  W  W33  1  0.320072  0.669987  0.250200  1
  W  W34  1  0.830013  0.820072  0.500200  1
  W  W35  1  0.169987  0.179928  0.000200  1
