# generated using pymatgen
data_La6Cd23Te
_symmetry_space_group_name_H-M   'P 1'
_cell_length_a   10.23865223
_cell_length_b   10.23865328
_cell_length_c   10.23865300
_cell_angle_alpha   60.00000412
_cell_angle_beta   60.00000075
_cell_angle_gamma   60.00000574
_symmetry_Int_Tables_number   1
_chemical_formula_structural   La6Cd23Te
_chemical_formula_sum   'La6 Cd23 Te1'
_cell_volume   758.95056668
_cell_formula_units_Z   1
loop_
 _symmetry_equiv_pos_site_id
 _symmetry_equiv_pos_as_xyz
  1  'x, y, z'
loop_
 _atom_site_type_symbol
 _atom_site_label
 _atom_site_symmetry_multiplicity
 _atom_site_fract_x
 _atom_site_fract_y
 _atom_site_fract_z
 _atom_site_occupancy
  La  La0  1  0.779310  0.779310  0.220690  1
  La  La1  1  0.220690  0.779310  0.220690  1
  La  La2  1  0.779310  0.220690  0.220690  1
  La  La3  1  0.220690  0.220690  0.779310  1
  La  La4  1  0.779310  0.220690  0.779310  1
  La  La5  1  0.220690  0.779310  0.779310  1
  Cd  Cd6  1  0.832049  0.832049  0.503853  1
  Cd  Cd7  1  0.832049  0.503853  0.832049  1
  Cd  Cd8  1  0.503853  0.832049  0.832049  1
  Cd  Cd9  1  0.832049  0.832049  0.832049  1
  Cd  Cd10  1  0.167951  0.167951  0.496147  1
  Cd  Cd11  1  0.167951  0.496147  0.167951  1
  Cd  Cd12  1  0.496147  0.167951  0.167951  1
  Cd  Cd13  1  0.167951  0.167951  0.167951  1
  Cd  Cd14  1  0.622826  0.622826  0.131521  1
  Cd  Cd15  1  0.622826  0.131521  0.622826  1
  Cd  Cd16  1  0.131521  0.622826  0.622826  1
  Cd  Cd17  1  0.622826  0.622826  0.622826  1
  Cd  Cd18  1  0.377174  0.377174  0.868479  1
  Cd  Cd19  1  0.377174  0.868479  0.377174  1
  Cd  Cd20  1  0.868479  0.377174  0.377174  1
  Cd  Cd21  1  0.377174  0.377174  0.377174  1
  Cd  Cd22  1  0.000000  0.000000  0.500000  1
  Cd  Cd23  1  0.500000  0.000000  0.500000  1
  Cd  Cd24  1  0.000000  0.500000  0.500000  1
  Cd  Cd25  1  0.500000  0.500000  0.000000  1
  Cd  Cd26  1  0.000000  0.500000  0.000000  1
  Cd  Cd27  1  0.500000  0.000000  0.000000  1
  Cd  Cd28  1  0.500000  0.500000  0.500000  1
  Te  Te29  1  0.000000  0.000000  0.000000  1
