# generated using pymatgen
data_Y7Er(Sc3Si4)4
_symmetry_space_group_name_H-M   'P 1'
_cell_length_a   7.09860909
_cell_length_b   7.38998916
_cell_length_c   14.00463414
_cell_angle_alpha   89.98456104
_cell_angle_beta   90.00474711
_cell_angle_gamma   90.01805691
_symmetry_Int_Tables_number   1
_chemical_formula_structural   Y7Er(Sc3Si4)4
_chemical_formula_sum   'Y7 Er1 Sc12 Si16'
_cell_volume   734.66405447
_cell_formula_units_Z   1
loop_
 _symmetry_equiv_pos_site_id
 _symmetry_equiv_pos_as_xyz
  1  'x, y, z'
loop_
 _atom_site_type_symbol
 _atom_site_label
 _atom_site_symmetry_multiplicity
 _atom_site_fract_x
 _atom_site_fract_y
 _atom_site_fract_z
 _atom_site_occupancy
  Y  Y0  1  0.011816  0.174911  0.096966  1
  Y  Y1  1  0.988184  0.825065  0.902986  1
  Y  Y2  1  0.488186  0.674911  0.903082  1
  Y  Y3  1  0.988128  0.824962  0.596958  1
  Y  Y4  1  0.511828  0.325105  0.096960  1
  Y  Y5  1  0.011872  0.174931  0.403084  1
  Y  Y6  1  0.511790  0.325220  0.403171  1
  Er  Er7  1  0.488079  0.675279  0.597200  1
  Sc  Sc8  1  0.160811  0.502744  0.749899  1
  Sc  Sc9  1  0.839407  0.497390  0.250008  1
  Sc  Sc10  1  0.339375  0.002635  0.250009  1
  Sc  Sc11  1  0.660516  0.997167  0.749890  1
  Sc  Sc12  1  0.330389  0.176948  0.625047  1
  Sc  Sc13  1  0.669530  0.822978  0.375042  1
  Sc  Sc14  1  0.169718  0.676842  0.374997  1
  Sc  Sc15  1  0.669657  0.823127  0.125051  1
  Sc  Sc16  1  0.830151  0.323322  0.625039  1
  Sc  Sc17  1  0.330332  0.176854  0.874906  1
  Sc  Sc18  1  0.830281  0.323155  0.874901  1
  Sc  Sc19  1  0.169679  0.676849  0.125052  1
  Si  Si20  1  0.033070  0.118011  0.749979  1
  Si  Si21  1  0.966908  0.882020  0.250007  1
  Si  Si22  1  0.466903  0.617959  0.250011  1
  Si  Si23  1  0.533003  0.382376  0.749833  1
  Si  Si24  1  0.285831  0.873562  0.749728  1
  Si  Si25  1  0.714562  0.126011  0.250004  1
  Si  Si26  1  0.214551  0.373985  0.249994  1
  Si  Si27  1  0.785049  0.626142  0.749778  1
  Si  Si28  1  0.158352  0.464985  0.539586  1
  Si  Si29  1  0.842152  0.535479  0.460588  1
  Si  Si30  1  0.342526  0.964184  0.460695  1
  Si  Si31  1  0.842365  0.535414  0.039465  1
  Si  Si32  1  0.657405  0.034905  0.539575  1
  Si  Si33  1  0.157584  0.464571  0.960517  1
  Si  Si34  1  0.657636  0.035405  0.960529  1
  Si  Si35  1  0.342372  0.964596  0.039464  1
