# generated using pymatgen
data_YbHoRu4
_symmetry_space_group_name_H-M   'P 1'
_cell_length_a   5.25305707
_cell_length_b   5.25305685
_cell_length_c   8.85376400
_cell_angle_alpha   89.99921389
_cell_angle_beta   90.00078755
_cell_angle_gamma   120.01705688
_symmetry_Int_Tables_number   1
_chemical_formula_structural   YbHoRu4
_chemical_formula_sum   'Yb2 Ho2 Ru8'
_cell_volume   211.54760937
_cell_formula_units_Z   2
loop_
 _symmetry_equiv_pos_site_id
 _symmetry_equiv_pos_as_xyz
  1  'x, y, z'
loop_
 _atom_site_type_symbol
 _atom_site_label
 _atom_site_symmetry_multiplicity
 _atom_site_fract_x
 _atom_site_fract_y
 _atom_site_fract_z
 _atom_site_occupancy
  Yb  Yb0  1  0.333356  0.666644  0.060858  1
  Yb  Yb1  1  0.666644  0.333356  0.939142  1
  Ho  Ho2  1  0.666648  0.333352  0.571859  1
  Ho  Ho3  1  0.333352  0.666648  0.428141  1
  Ru  Ru4  1  0.000000  0.000000  0.500000  1
  Ru  Ru5  1  0.000000  0.000000  0.000000  1
  Ru  Ru6  1  0.171886  0.343810  0.749131  1
  Ru  Ru7  1  0.171894  0.828106  0.749137  1
  Ru  Ru8  1  0.656190  0.828114  0.749131  1
  Ru  Ru9  1  0.828114  0.656190  0.250869  1
  Ru  Ru10  1  0.828106  0.171894  0.250863  1
  Ru  Ru11  1  0.343810  0.171886  0.250869  1
