# generated using pymatgen
data_Ca2YbPr17Ga12
_symmetry_space_group_name_H-M   'P 1'
_cell_length_a   7.93531600
_cell_length_b   7.93531600
_cell_length_c   14.64390700
_cell_angle_alpha   90.00000000
_cell_angle_beta   90.00000000
_cell_angle_gamma   90.00000000
_symmetry_Int_Tables_number   1
_chemical_formula_structural   Ca2YbPr17Ga12
_chemical_formula_sum   'Ca2 Yb1 Pr17 Ga12'
_cell_volume   922.11569471
_cell_formula_units_Z   1
loop_
 _symmetry_equiv_pos_site_id
 _symmetry_equiv_pos_as_xyz
  1  'x, y, z'
loop_
 _atom_site_type_symbol
 _atom_site_label
 _atom_site_symmetry_multiplicity
 _atom_site_fract_x
 _atom_site_fract_y
 _atom_site_fract_z
 _atom_site_occupancy
  Ca  Ca0  1  0.000000  0.500000  0.238906  1
  Ca  Ca1  1  0.500000  0.000000  0.257623  1
  Yb  Yb2  1  0.000000  0.500000  0.734499  1
  Pr  Pr3  1  0.818959  0.833406  0.602830  1
  Pr  Pr4  1  0.177125  0.833073  0.101399  1
  Pr  Pr5  1  0.167117  0.821508  0.396898  1
  Pr  Pr6  1  0.832883  0.178492  0.396898  1
  Pr  Pr7  1  0.678492  0.667117  0.396898  1
  Pr  Pr8  1  0.666594  0.318959  0.602830  1
  Pr  Pr9  1  0.333406  0.681041  0.602830  1
  Pr  Pr10  1  0.666927  0.677125  0.101399  1
  Pr  Pr11  1  0.679495  0.339586  0.897569  1
  Pr  Pr12  1  0.839586  0.820505  0.897569  1
  Pr  Pr13  1  0.321508  0.332883  0.396898  1
  Pr  Pr14  1  0.181041  0.166594  0.602830  1
  Pr  Pr15  1  0.822875  0.166927  0.101399  1
  Pr  Pr16  1  0.320505  0.660414  0.897569  1
  Pr  Pr17  1  0.333073  0.322875  0.101399  1
  Pr  Pr18  1  0.160414  0.179495  0.897569  1
  Pr  Pr19  1  0.500000  0.000000  0.784279  1
  Ga  Ga20  1  0.617680  0.382708  0.249354  1
  Ga  Ga21  1  0.119149  0.882612  0.748372  1
  Ga  Ga22  1  0.382612  0.380851  0.748372  1
  Ga  Ga23  1  0.382320  0.617292  0.249354  1
  Ga  Ga24  1  0.882708  0.882320  0.249354  1
  Ga  Ga25  1  0.617388  0.619149  0.748372  1
  Ga  Ga26  1  0.000000  0.500000  0.503766  1
  Ga  Ga27  1  0.880851  0.117388  0.748372  1
  Ga  Ga28  1  0.500000  0.000000  0.491887  1
  Ga  Ga29  1  0.500000  0.000000  0.999240  1
  Ga  Ga30  1  0.117292  0.117680  0.249354  1
  Ga  Ga31  1  0.000000  0.500000  0.004117  1
