# generated using pymatgen
data_U8Ta6Nb6Si15P
_symmetry_space_group_name_H-M   'P 1'
_cell_length_a   7.02561437
_cell_length_b   7.03268428
_cell_length_c   12.96314571
_cell_angle_alpha   89.99024612
_cell_angle_beta   90.04103764
_cell_angle_gamma   89.90370125
_symmetry_Int_Tables_number   1
_chemical_formula_structural   U8Ta6Nb6Si15P
_chemical_formula_sum   'U8 Ta6 Nb6 Si15 P1'
_cell_volume   640.49405120
_cell_formula_units_Z   1
loop_
 _symmetry_equiv_pos_site_id
 _symmetry_equiv_pos_as_xyz
  1  'x, y, z'
loop_
 _atom_site_type_symbol
 _atom_site_label
 _atom_site_symmetry_multiplicity
 _atom_site_fract_x
 _atom_site_fract_y
 _atom_site_fract_z
 _atom_site_occupancy
  U  U0  1  0.998255  0.330741  0.218921  1
  U  U1  1  0.006884  0.669243  0.718816  1
  U  U2  1  0.167009  0.495141  0.469069  1
  U  U3  1  0.502368  0.834875  0.033034  1
  U  U4  1  0.832043  0.504963  0.969498  1
  U  U5  1  0.494835  0.168346  0.530458  1
  U  U6  1  0.330164  0.993182  0.781251  1
  U  U7  1  0.663652  0.004780  0.279345  1
  Ta  Ta8  1  0.169029  0.166731  0.001052  1
  Ta  Ta9  1  0.832076  0.832103  0.499513  1
  Ta  Ta10  1  0.331475  0.669986  0.249476  1
  Ta  Ta11  1  0.668746  0.331178  0.750297  1
  Ta  Ta12  1  0.157736  0.000957  0.371418  1
  Ta  Ta13  1  0.844600  0.001513  0.874189  1
  Nb  Nb14  1  0.500332  0.656692  0.624341  1
  Nb  Nb15  1  0.344374  0.499132  0.875825  1
  Nb  Nb16  1  0.496936  0.338599  0.125894  1
  Nb  Nb17  1  0.657912  0.502211  0.375896  1
  Nb  Nb18  1  0.998947  0.155920  0.625405  1
  Nb  Nb19  1  0.002826  0.844760  0.126358  1
  Si  Si20  1  0.702342  0.960431  0.684728  1
  Si  Si21  1  0.459836  0.797403  0.434591  1
  Si  Si22  1  0.203634  0.539565  0.065077  1
  Si  Si23  1  0.540113  0.202411  0.934574  1
  Si  Si24  1  0.796897  0.460460  0.565652  1
  Si  Si25  1  0.039853  0.297548  0.815743  1
  Si  Si26  1  0.960144  0.703136  0.315077  1
  Si  Si27  1  0.372686  0.298580  0.318568  1
  Si  Si28  1  0.630082  0.706856  0.816699  1
  Si  Si29  1  0.206059  0.871542  0.564393  1
  Si  Si30  1  0.128445  0.792484  0.934268  1
  Si  Si31  1  0.794088  0.129017  0.065566  1
  Si  Si32  1  0.870387  0.204924  0.432908  1
  Si  Si33  1  0.294028  0.369963  0.684037  1
  Si  Si34  1  0.706796  0.627240  0.183210  1
  P  P35  1  0.294408  0.037384  0.184850  1
