# generated using pymatgen
data_Eu2Ga7Cu
_symmetry_space_group_name_H-M   'P 1'
_cell_length_a   4.31847400
_cell_length_b   4.31847400
_cell_length_c   10.77816700
_cell_angle_alpha   90.00000000
_cell_angle_beta   90.00000000
_cell_angle_gamma   90.00000000
_symmetry_Int_Tables_number   1
_chemical_formula_structural   Eu2Ga7Cu
_chemical_formula_sum   'Eu2 Ga7 Cu1'
_cell_volume   201.00438267
_cell_formula_units_Z   1
loop_
 _symmetry_equiv_pos_site_id
 _symmetry_equiv_pos_as_xyz
  1  'x, y, z'
loop_
 _atom_site_type_symbol
 _atom_site_label
 _atom_site_symmetry_multiplicity
 _atom_site_fract_x
 _atom_site_fract_y
 _atom_site_fract_z
 _atom_site_occupancy
  Eu  Eu0  1  0.500000  0.000000  0.753563  1
  Eu  Eu1  1  0.000000  0.500000  0.246437  1
  Ga  Ga2  1  0.000000  0.500000  0.873522  1
  Ga  Ga3  1  0.500000  0.000000  0.359649  1
  Ga  Ga4  1  0.500000  0.000000  0.126478  1
  Ga  Ga5  1  0.000000  0.500000  0.640351  1
  Ga  Ga6  1  0.000000  0.000000  0.500000  1
  Ga  Ga7  1  0.000000  0.000000  0.000000  1
  Ga  Ga8  1  0.500000  0.500000  0.500000  1
  Cu  Cu9  1  0.500000  0.500000  0.000000  1
