# generated using pymatgen
data_SmY2Tm(MoN3)4
_symmetry_space_group_name_H-M   'P 1'
_cell_length_a   7.26694247
_cell_length_b   7.26695371
_cell_length_c   6.23365791
_cell_angle_alpha   74.61185329
_cell_angle_beta   74.61179288
_cell_angle_gamma   82.07828543
_symmetry_Int_Tables_number   1
_chemical_formula_structural   SmY2Tm(MoN3)4
_chemical_formula_sum   'Sm1 Y2 Tm1 Mo4 N12'
_cell_volume   305.20504345
_cell_formula_units_Z   1
loop_
 _symmetry_equiv_pos_site_id
 _symmetry_equiv_pos_as_xyz
  1  'x, y, z'
loop_
 _atom_site_type_symbol
 _atom_site_label
 _atom_site_symmetry_multiplicity
 _atom_site_fract_x
 _atom_site_fract_y
 _atom_site_fract_z
 _atom_site_occupancy
  Sm  Sm0  1  0.697847  0.302153  0.249999  1
  Y  Y1  1  0.087383  0.912617  0.250000  1
  Y  Y2  1  0.300543  0.699457  0.750000  1
  Tm  Tm3  1  0.915945  0.084055  0.750000  1
  Mo  Mo4  1  0.801314  0.618184  0.757872  1
  Mo  Mo5  1  0.197782  0.381744  0.241493  1
  Mo  Mo6  1  0.618256  0.802218  0.258507  1
  Mo  Mo7  1  0.381817  0.198686  0.742129  1
  N  N8  1  0.219434  0.998688  0.847840  1
  N  N9  1  0.353650  0.362960  0.458548  1
  N  N10  1  0.643465  0.638017  0.543031  1
  N  N11  1  0.624705  0.108837  0.664750  1
  N  N12  1  0.001312  0.780566  0.652161  1
  N  N13  1  0.783611  0.999122  0.145127  1
  N  N14  1  0.104398  0.622526  0.157162  1
  N  N15  1  0.891162  0.375296  0.835250  1
  N  N16  1  0.000877  0.216389  0.354871  1
  N  N17  1  0.361983  0.356535  0.956969  1
  N  N18  1  0.637039  0.646350  0.041452  1
  N  N19  1  0.377473  0.895601  0.342839  1
