# generated using pymatgen
data_Tm2Mn3P7(Ir2W)3
_symmetry_space_group_name_H-M   'P 1'
_cell_length_a   9.42987600
_cell_length_b   9.42987635
_cell_length_c   3.87645700
_cell_angle_alpha   90.00000000
_cell_angle_beta   90.00000000
_cell_angle_gamma   120.00000578
_symmetry_Int_Tables_number   1
_chemical_formula_structural   Tm2Mn3P7(Ir2W)3
_chemical_formula_sum   'Tm2 Mn3 P7 Ir6 W3'
_cell_volume   298.52283501
_cell_formula_units_Z   1
loop_
 _symmetry_equiv_pos_site_id
 _symmetry_equiv_pos_as_xyz
  1  'x, y, z'
loop_
 _atom_site_type_symbol
 _atom_site_label
 _atom_site_symmetry_multiplicity
 _atom_site_fract_x
 _atom_site_fract_y
 _atom_site_fract_z
 _atom_site_occupancy
  Tm  Tm0  1  0.000000  0.000000  0.000000  1
  Tm  Tm1  1  0.666667  0.333333  0.500000  1
  Mn  Mn2  1  0.223307  0.397761  0.000000  1
  Mn  Mn3  1  0.602239  0.825547  0.000000  1
  Mn  Mn4  1  0.174453  0.776693  0.000000  1
  P  P5  1  0.443404  0.368858  0.000000  1
  P  P6  1  0.631142  0.074546  0.000000  1
  P  P7  1  0.925454  0.556596  0.000000  1
  P  P8  1  0.056092  0.267802  0.500000  1
  P  P9  1  0.732198  0.788291  0.500000  1
  P  P10  1  0.211709  0.943908  0.500000  1
  P  P11  1  0.333333  0.666667  0.000000  1
  Ir  Ir12  1  0.697003  0.596463  0.000000  1
  Ir  Ir13  1  0.403537  0.100540  0.000000  1
  Ir  Ir14  1  0.899460  0.302997  0.000000  1
  Ir  Ir15  1  0.273549  0.219784  0.500000  1
  Ir  Ir16  1  0.780216  0.053765  0.500000  1
  Ir  Ir17  1  0.946235  0.726451  0.500000  1
  W  W18  1  0.447896  0.571373  0.500000  1
  W  W19  1  0.428627  0.876524  0.500000  1
  W  W20  1  0.123476  0.552104  0.500000  1
