# generated using pymatgen
data_Y4Sn5PRh7
_symmetry_space_group_name_H-M   'P 1'
_cell_length_a   7.53722454
_cell_length_b   7.53722586
_cell_length_c   7.53722416
_cell_angle_alpha   109.84403623
_cell_angle_beta   108.72813306
_cell_angle_gamma   109.84404050
_symmetry_Int_Tables_number   1
_chemical_formula_structural   Y4Sn5PRh7
_chemical_formula_sum   'Y4 Sn5 P1 Rh7'
_cell_volume   329.57769086
_cell_formula_units_Z   1
loop_
 _symmetry_equiv_pos_site_id
 _symmetry_equiv_pos_as_xyz
  1  'x, y, z'
loop_
 _atom_site_type_symbol
 _atom_site_label
 _atom_site_symmetry_multiplicity
 _atom_site_fract_x
 _atom_site_fract_y
 _atom_site_fract_z
 _atom_site_occupancy
  Y  Y0  1  0.469587  0.456744  0.469587  1
  Y  Y1  1  0.012843  0.543256  0.012843  1
  Y  Y2  1  0.469587  0.000000  0.012843  1
  Y  Y3  1  0.012843  0.000000  0.469587  1
  Sn  Sn4  1  0.710050  0.000000  0.710050  1
  Sn  Sn5  1  0.668164  0.684110  0.984055  1
  Sn  Sn6  1  0.299945  0.315890  0.984055  1
  Sn  Sn7  1  0.984055  0.684110  0.668164  1
  Sn  Sn8  1  0.984055  0.315890  0.299945  1
  P  P9  1  0.356126  0.000000  0.356126  1
  Rh  Rh10  1  0.502363  0.758173  0.260536  1
  Rh  Rh11  1  0.744190  0.241827  0.502363  1
  Rh  Rh12  1  0.260536  0.758173  0.502363  1
  Rh  Rh13  1  0.238364  0.500000  0.738364  1
  Rh  Rh14  1  0.046564  0.000000  0.046564  1
  Rh  Rh15  1  0.502363  0.241827  0.744190  1
  Rh  Rh16  1  0.738364  0.500000  0.238364  1
