# generated using pymatgen
data_Tm3Lu(GaRh2)8
_symmetry_space_group_name_H-M   'P 1'
_cell_length_a   4.24527600
_cell_length_b   9.29497047
_cell_length_c   11.25297857
_cell_angle_alpha   89.96339531
_cell_angle_beta   90.00000000
_cell_angle_gamma   90.00000000
_symmetry_Int_Tables_number   1
_chemical_formula_structural   Tm3Lu(GaRh2)8
_chemical_formula_sum   'Tm3 Lu1 Ga8 Rh16'
_cell_volume   444.03923766
_cell_formula_units_Z   1
loop_
 _symmetry_equiv_pos_site_id
 _symmetry_equiv_pos_as_xyz
  1  'x, y, z'
loop_
 _atom_site_type_symbol
 _atom_site_label
 _atom_site_symmetry_multiplicity
 _atom_site_fract_x
 _atom_site_fract_y
 _atom_site_fract_z
 _atom_site_occupancy
  Tm  Tm0  1  0.250000  0.355502  0.326574  1
  Tm  Tm1  1  0.750000  0.855618  0.173388  1
  Tm  Tm2  1  0.750000  0.644463  0.673463  1
  Lu  Lu3  1  0.250000  0.144484  0.826560  1
  Ga  Ga4  1  0.250000  0.412475  0.634557  1
  Ga  Ga5  1  0.250000  0.087488  0.134507  1
  Ga  Ga6  1  0.750000  0.587449  0.365496  1
  Ga  Ga7  1  0.750000  0.912733  0.865443  1
  Ga  Ga8  1  0.250000  0.612031  0.060662  1
  Ga  Ga9  1  0.250000  0.888048  0.560680  1
  Ga  Ga10  1  0.750000  0.387954  0.939266  1
  Ga  Ga11  1  0.750000  0.111961  0.439337  1
  Rh  Rh12  1  0.250000  0.622502  0.500644  1
  Rh  Rh13  1  0.250000  0.877630  0.000523  1
  Rh  Rh14  1  0.750000  0.377421  0.499458  1
  Rh  Rh15  1  0.750000  0.122734  0.998933  1
  Rh  Rh16  1  0.250000  0.703618  0.272047  1
  Rh  Rh17  1  0.250000  0.796615  0.771993  1
  Rh  Rh18  1  0.750000  0.295866  0.728232  1
  Rh  Rh19  1  0.750000  0.203504  0.227892  1
  Rh  Rh20  1  0.250000  0.166858  0.563664  1
  Rh  Rh21  1  0.250000  0.332997  0.063117  1
  Rh  Rh22  1  0.750000  0.833118  0.436689  1
  Rh  Rh23  1  0.750000  0.666964  0.936719  1
  Rh  Rh24  1  0.250000  0.000475  0.341771  1
  Rh  Rh25  1  0.250000  0.499499  0.841585  1
  Rh  Rh26  1  0.750000  0.999632  0.658420  1
  Rh  Rh27  1  0.750000  0.500363  0.158380  1
