# generated using pymatgen
data_Yb6Th2SnPd24
_symmetry_space_group_name_H-M   'P 1'
_cell_length_a   8.40639069
_cell_length_b   8.40639069
_cell_length_c   8.40639069
_cell_angle_alpha   90.06485385
_cell_angle_beta   90.06485385
_cell_angle_gamma   90.06485385
_symmetry_Int_Tables_number   1
_chemical_formula_structural   Yb6Th2SnPd24
_chemical_formula_sum   'Yb6 Th2 Sn1 Pd24'
_cell_volume   594.05666904
_cell_formula_units_Z   1
loop_
 _symmetry_equiv_pos_site_id
 _symmetry_equiv_pos_as_xyz
  1  'x, y, z'
loop_
 _atom_site_type_symbol
 _atom_site_label
 _atom_site_symmetry_multiplicity
 _atom_site_fract_x
 _atom_site_fract_y
 _atom_site_fract_z
 _atom_site_occupancy
  Yb  Yb0  1  0.749039  0.749039  0.251606  1
  Yb  Yb1  1  0.749039  0.251606  0.749039  1
  Yb  Yb2  1  0.250961  0.250961  0.748394  1
  Yb  Yb3  1  0.250961  0.748394  0.250961  1
  Yb  Yb4  1  0.251606  0.749039  0.749039  1
  Yb  Yb5  1  0.748394  0.250961  0.250961  1
  Th  Th6  1  0.256374  0.256374  0.256374  1
  Th  Th7  1  0.743626  0.743626  0.743626  1
  Sn  Sn8  1  0.000000  0.000000  0.000000  1
  Pd  Pd9  1  0.266380  0.500644  0.997681  1
  Pd  Pd10  1  0.733620  0.499356  0.002319  1
  Pd  Pd11  1  0.997681  0.266380  0.500644  1
  Pd  Pd12  1  0.500644  0.266380  0.997681  1
  Pd  Pd13  1  0.002319  0.733620  0.499356  1
  Pd  Pd14  1  0.499356  0.733620  0.002319  1
  Pd  Pd15  1  0.500644  0.997681  0.266380  1
  Pd  Pd16  1  0.266380  0.997681  0.500644  1
  Pd  Pd17  1  0.499356  0.002319  0.733620  1
  Pd  Pd18  1  0.733620  0.002319  0.499356  1
  Pd  Pd19  1  0.997681  0.500644  0.266380  1
  Pd  Pd20  1  0.002319  0.499356  0.733620  1
  Pd  Pd21  1  0.254962  0.501728  0.501728  1
  Pd  Pd22  1  0.745038  0.498272  0.498272  1
  Pd  Pd23  1  0.501728  0.254962  0.501728  1
  Pd  Pd24  1  0.498272  0.745038  0.498272  1
  Pd  Pd25  1  0.501728  0.501728  0.254962  1
  Pd  Pd26  1  0.498272  0.498272  0.745038  1
  Pd  Pd27  1  0.312111  0.998568  0.998568  1
  Pd  Pd28  1  0.687889  0.001432  0.001432  1
  Pd  Pd29  1  0.998568  0.312111  0.998568  1
  Pd  Pd30  1  0.001432  0.687889  0.001432  1
  Pd  Pd31  1  0.998568  0.998568  0.312111  1
  Pd  Pd32  1  0.001432  0.001432  0.687889  1
