# generated using pymatgen
data_TbPr2In3O9
_symmetry_space_group_name_H-M   'P 1'
_cell_length_a   6.52071400
_cell_length_b   6.52071489
_cell_length_c   12.47699300
_cell_angle_alpha   90.00000000
_cell_angle_beta   90.00000000
_cell_angle_gamma   119.99999550
_symmetry_Int_Tables_number   1
_chemical_formula_structural   TbPr2In3O9
_chemical_formula_sum   'Tb2 Pr4 In6 O18'
_cell_volume   459.44226755
_cell_formula_units_Z   2
loop_
 _symmetry_equiv_pos_site_id
 _symmetry_equiv_pos_as_xyz
  1  'x, y, z'
loop_
 _atom_site_type_symbol
 _atom_site_label
 _atom_site_symmetry_multiplicity
 _atom_site_fract_x
 _atom_site_fract_y
 _atom_site_fract_z
 _atom_site_occupancy
  Tb  Tb0  1  0.000000  0.000000  0.997920  1
  Tb  Tb1  1  0.000000  0.000000  0.497920  1
  Pr  Pr2  1  0.666667  0.333333  0.961487  1
  Pr  Pr3  1  0.333333  0.666667  0.461487  1
  Pr  Pr4  1  0.666667  0.333333  0.461487  1
  Pr  Pr5  1  0.333333  0.666667  0.961487  1
  In  In6  1  0.670252  0.670252  0.727169  1
  In  In7  1  0.000000  0.329748  0.727169  1
  In  In8  1  0.329748  0.329748  0.227169  1
  In  In9  1  0.000000  0.670252  0.227169  1
  In  In10  1  0.329748  0.000000  0.727169  1
  In  In11  1  0.670252  0.000000  0.227169  1
  O  O12  1  0.702749  0.702749  0.896017  1
  O  O13  1  0.000000  0.297251  0.896017  1
  O  O14  1  0.297251  0.297251  0.396017  1
  O  O15  1  0.000000  0.702749  0.396017  1
  O  O16  1  0.297251  0.000000  0.896017  1
  O  O17  1  0.702749  0.000000  0.396017  1
  O  O18  1  0.649845  0.649845  0.559264  1
  O  O19  1  0.000000  0.350155  0.559264  1
  O  O20  1  0.350155  0.350155  0.059264  1
  O  O21  1  0.000000  0.649845  0.059264  1
  O  O22  1  0.350155  0.000000  0.559264  1
  O  O23  1  0.649845  0.000000  0.059264  1
  O  O24  1  0.000000  0.000000  0.695469  1
  O  O25  1  0.000000  0.000000  0.195469  1
  O  O26  1  0.666667  0.333333  0.751087  1
  O  O27  1  0.333333  0.666667  0.251087  1
  O  O28  1  0.666667  0.333333  0.251087  1
  O  O29  1  0.333333  0.666667  0.751087  1
