# generated using pymatgen
data_LiBe8CrIr2
_symmetry_space_group_name_H-M   'P 1'
_cell_length_a   4.27662000
_cell_length_b   4.27662088
_cell_length_c   7.02866900
_cell_angle_alpha   90.00000000
_cell_angle_beta   90.00000000
_cell_angle_gamma   120.00000867
_symmetry_Int_Tables_number   1
_chemical_formula_structural   LiBe8CrIr2
_chemical_formula_sum   'Li1 Be8 Cr1 Ir2'
_cell_volume   111.32817761
_cell_formula_units_Z   1
loop_
 _symmetry_equiv_pos_site_id
 _symmetry_equiv_pos_as_xyz
  1  'x, y, z'
loop_
 _atom_site_type_symbol
 _atom_site_label
 _atom_site_symmetry_multiplicity
 _atom_site_fract_x
 _atom_site_fract_y
 _atom_site_fract_z
 _atom_site_occupancy
  Li  Li0  1  0.333333  0.666667  0.066173  1
  Be  Be1  1  0.167343  0.334685  0.749409  1
  Be  Be2  1  0.167343  0.832657  0.749409  1
  Be  Be3  1  0.341160  0.170580  0.248330  1
  Be  Be4  1  0.829420  0.658840  0.248330  1
  Be  Be5  1  0.000000  0.000000  0.000694  1
  Be  Be6  1  0.665315  0.832657  0.749409  1
  Be  Be7  1  0.829420  0.170580  0.248330  1
  Be  Be8  1  0.000000  0.000000  0.497580  1
  Cr  Cr9  1  0.666667  0.333333  0.563505  1
  Ir  Ir10  1  0.333333  0.666667  0.446254  1
  Ir  Ir11  1  0.666667  0.333333  0.932577  1
