# generated using pymatgen
data_Pr16In4PdRu3
_symmetry_space_group_name_H-M   'P 1'
_cell_length_a   10.01913738
_cell_length_b   10.06028645
_cell_length_c   10.06028500
_cell_angle_alpha   60.00000147
_cell_angle_beta   59.86404821
_cell_angle_gamma   59.86404780
_symmetry_Int_Tables_number   1
_chemical_formula_structural   Pr16In4PdRu3
_chemical_formula_sum   'Pr16 In4 Pd1 Ru3'
_cell_volume   715.55079480
_cell_formula_units_Z   1
loop_
 _symmetry_equiv_pos_site_id
 _symmetry_equiv_pos_as_xyz
  1  'x, y, z'
loop_
 _atom_site_type_symbol
 _atom_site_label
 _atom_site_symmetry_multiplicity
 _atom_site_fract_x
 _atom_site_fract_y
 _atom_site_fract_z
 _atom_site_occupancy
  Pr  Pr0  1  0.343623  0.351276  0.351276  1
  Pr  Pr1  1  0.343623  0.351276  0.953827  1
  Pr  Pr2  1  0.343623  0.953827  0.351276  1
  Pr  Pr3  1  0.960954  0.346349  0.346349  1
  Pr  Pr4  1  0.815541  0.191994  0.191994  1
  Pr  Pr5  1  0.190503  0.809320  0.809320  1
  Pr  Pr6  1  0.190503  0.809320  0.190857  1
  Pr  Pr7  1  0.815541  0.191994  0.800472  1
  Pr  Pr8  1  0.190503  0.190857  0.809320  1
  Pr  Pr9  1  0.815541  0.800472  0.191994  1
  Pr  Pr10  1  0.937606  0.561338  0.561338  1
  Pr  Pr11  1  0.557006  0.939013  0.939013  1
  Pr  Pr12  1  0.557006  0.939013  0.564966  1
  Pr  Pr13  1  0.937606  0.561338  0.939719  1
  Pr  Pr14  1  0.557006  0.564966  0.939013  1
  Pr  Pr15  1  0.937606  0.939719  0.561338  1
  In  In16  1  0.580393  0.579688  0.579688  1
  In  In17  1  0.580393  0.579688  0.260229  1
  In  In18  1  0.580393  0.260229  0.579688  1
  In  In19  1  0.259525  0.580158  0.580158  1
  Pd  Pd20  1  0.576267  0.141245  0.141245  1
  Ru  Ru21  1  0.143080  0.138059  0.138059  1
  Ru  Ru22  1  0.143080  0.138059  0.580802  1
  Ru  Ru23  1  0.143080  0.580802  0.138059  1
