# generated using pymatgen
data_La16Nd3ErSn16
_symmetry_space_group_name_H-M   'P 1'
_cell_length_a   8.45539902
_cell_length_b   8.55423402
_cell_length_c   16.32629100
_cell_angle_alpha   90.00000000
_cell_angle_beta   90.00000000
_cell_angle_gamma   89.99187538
_symmetry_Int_Tables_number   1
_chemical_formula_structural   La16Nd3ErSn16
_chemical_formula_sum   'La16 Nd3 Er1 Sn16'
_cell_volume   1180.87183217
_cell_formula_units_Z   1
loop_
 _symmetry_equiv_pos_site_id
 _symmetry_equiv_pos_as_xyz
  1  'x, y, z'
loop_
 _atom_site_type_symbol
 _atom_site_label
 _atom_site_symmetry_multiplicity
 _atom_site_fract_x
 _atom_site_fract_y
 _atom_site_fract_z
 _atom_site_occupancy
  La  La0  1  0.972615  0.819000  0.899840  1
  La  La1  1  0.472616  0.680962  0.600248  1
  La  La2  1  0.527745  0.318517  0.100326  1
  La  La3  1  0.027009  0.180658  0.399603  1
  La  La4  1  0.972615  0.819000  0.600160  1
  La  La5  1  0.472616  0.680962  0.899752  1
  La  La6  1  0.527745  0.318517  0.399674  1
  La  La7  1  0.027009  0.180658  0.100397  1
  La  La8  1  0.878965  0.660536  0.382473  1
  La  La9  1  0.380173  0.840102  0.117573  1
  La  La10  1  0.620587  0.160209  0.617236  1
  La  La11  1  0.120641  0.339923  0.882640  1
  La  La12  1  0.120641  0.339923  0.617360  1
  La  La13  1  0.620587  0.160209  0.882764  1
  La  La14  1  0.380173  0.840102  0.382427  1
  La  La15  1  0.878965  0.660536  0.117527  1
  Nd  Nd16  1  0.289156  0.002691  0.750000  1
  Nd  Nd17  1  0.789200  0.497241  0.750000  1
  Nd  Nd18  1  0.210962  0.502173  0.250000  1
  Er  Er19  1  0.712340  0.997028  0.250000  1
  Sn  Sn20  1  0.780995  0.469785  0.545190  1
  Sn  Sn21  1  0.280878  0.030239  0.954733  1
  Sn  Sn22  1  0.718915  0.970265  0.453611  1
  Sn  Sn23  1  0.218868  0.530164  0.045257  1
  Sn  Sn24  1  0.218868  0.530164  0.454743  1
  Sn  Sn25  1  0.718915  0.970265  0.046389  1
  Sn  Sn26  1  0.280878  0.030239  0.545267  1
  Sn  Sn27  1  0.780995  0.469785  0.954810  1
  Sn  Sn28  1  0.168645  0.643056  0.750000  1
  Sn  Sn29  1  0.668722  0.857213  0.750000  1
  Sn  Sn30  1  0.331802  0.142610  0.250000  1
  Sn  Sn31  1  0.830650  0.355317  0.250000  1
  Sn  Sn32  1  0.921766  0.116929  0.750000  1
  Sn  Sn33  1  0.421930  0.383031  0.750000  1
  Sn  Sn34  1  0.578625  0.618110  0.250000  1
  Sn  Sn35  1  0.076191  0.883880  0.250000  1
