# generated using pymatgen
data_Er3Tm7(SiBi2)2
_symmetry_space_group_name_H-M   'P 1'
_cell_length_a   11.88744200
_cell_length_b   9.09890100
_cell_length_c   7.97204200
_cell_angle_alpha   90.00000000
_cell_angle_beta   90.00000000
_cell_angle_gamma   90.00000000
_symmetry_Int_Tables_number   1
_chemical_formula_structural   Er3Tm7(SiBi2)2
_chemical_formula_sum   'Er6 Tm14 Si4 Bi8'
_cell_volume   862.27725162
_cell_formula_units_Z   2
loop_
 _symmetry_equiv_pos_site_id
 _symmetry_equiv_pos_as_xyz
  1  'x, y, z'
loop_
 _atom_site_type_symbol
 _atom_site_label
 _atom_site_symmetry_multiplicity
 _atom_site_fract_x
 _atom_site_fract_y
 _atom_site_fract_z
 _atom_site_occupancy
  Er  Er0  1  0.789101  0.250000  0.833795  1
  Er  Er1  1  0.289101  0.250000  0.666205  1
  Er  Er2  1  0.294116  0.750000  0.639114  1
  Er  Er3  1  0.794116  0.750000  0.860886  1
  Er  Er4  1  0.705833  0.250000  0.360807  1
  Er  Er5  1  0.205833  0.250000  0.139193  1
  Tm  Tm6  1  0.061265  0.555240  0.821115  1
  Tm  Tm7  1  0.561265  0.944760  0.678885  1
  Tm  Tm8  1  0.938707  0.055219  0.178897  1
  Tm  Tm9  1  0.438707  0.444781  0.321103  1
  Tm  Tm10  1  0.938707  0.444781  0.178897  1
  Tm  Tm11  1  0.438707  0.055219  0.321103  1
  Tm  Tm12  1  0.061265  0.944760  0.821115  1
  Tm  Tm13  1  0.561265  0.555240  0.678885  1
  Tm  Tm14  1  0.001095  0.750000  0.460619  1
  Tm  Tm15  1  0.501095  0.750000  0.039381  1
  Tm  Tm16  1  0.998930  0.250000  0.539191  1
  Tm  Tm17  1  0.498930  0.250000  0.960809  1
  Tm  Tm18  1  0.210779  0.750000  0.166167  1
  Tm  Tm19  1  0.710779  0.750000  0.333833  1
  Si  Si20  1  0.476703  0.750000  0.409566  1
  Si  Si21  1  0.976703  0.750000  0.090434  1
  Si  Si22  1  0.523605  0.250000  0.590353  1
  Si  Si23  1  0.023605  0.250000  0.909647  1
  Bi  Bi24  1  0.324922  0.510789  0.934076  1
  Bi  Bi25  1  0.824922  0.989211  0.565924  1
  Bi  Bi26  1  0.675025  0.010568  0.066176  1
  Bi  Bi27  1  0.175025  0.489432  0.433824  1
  Bi  Bi28  1  0.675025  0.489432  0.066176  1
  Bi  Bi29  1  0.175025  0.010568  0.433824  1
  Bi  Bi30  1  0.324922  0.989211  0.934076  1
  Bi  Bi31  1  0.824922  0.510789  0.565924  1
