# generated using pymatgen
data_TbY3Sn4Sb2Rh7
_symmetry_space_group_name_H-M   'P 1'
_cell_length_a   7.61489490
_cell_length_b   7.61743120
_cell_length_c   7.61742998
_cell_angle_alpha   109.38718040
_cell_angle_beta   109.51426489
_cell_angle_gamma   109.51426224
_symmetry_Int_Tables_number   1
_chemical_formula_structural   TbY3Sn4Sb2Rh7
_chemical_formula_sum   'Tb1 Y3 Sn4 Sb2 Rh7'
_cell_volume   340.13203353
_cell_formula_units_Z   1
loop_
 _symmetry_equiv_pos_site_id
 _symmetry_equiv_pos_as_xyz
  1  'x, y, z'
loop_
 _atom_site_type_symbol
 _atom_site_label
 _atom_site_symmetry_multiplicity
 _atom_site_fract_x
 _atom_site_fract_y
 _atom_site_fract_z
 _atom_site_occupancy
  Tb  Tb0  1  0.492049  0.493480  0.493480  1
  Y  Y1  1  0.492123  0.998625  0.998625  1
  Y  Y2  1  0.997994  0.499009  0.999002  1
  Y  Y3  1  0.997994  0.999002  0.499009  1
  Sn  Sn4  1  0.993901  0.314358  0.314358  1
  Sn  Sn5  1  0.687147  0.997453  0.690110  1
  Sn  Sn6  1  0.687147  0.690110  0.997453  1
  Sn  Sn7  1  0.994674  0.679942  0.679942  1
  Sb  Sb8  1  0.319516  0.997343  0.321765  1
  Sb  Sb9  1  0.319516  0.321765  0.997343  1
  Rh  Rh10  1  0.015426  0.007675  0.007675  1
  Rh  Rh11  1  0.502416  0.751319  0.251138  1
  Rh  Rh12  1  0.748427  0.501292  0.246970  1
  Rh  Rh13  1  0.250414  0.749197  0.501325  1
  Rh  Rh14  1  0.250414  0.501325  0.749197  1
  Rh  Rh15  1  0.502416  0.251138  0.751319  1
  Rh  Rh16  1  0.748427  0.246970  0.501292  1
