# generated using pymatgen
data_LaY2Si5PPd20
_symmetry_space_group_name_H-M   'P 1'
_cell_length_a   8.74555281
_cell_length_b   8.74559478
_cell_length_c   8.74335400
_cell_angle_alpha   60.00815874
_cell_angle_beta   60.00862516
_cell_angle_gamma   60.01948911
_symmetry_Int_Tables_number   1
_chemical_formula_structural   LaY2Si5PPd20
_chemical_formula_sum   'La1 Y2 Si5 P1 Pd20'
_cell_volume   472.99734181
_cell_formula_units_Z   1
loop_
 _symmetry_equiv_pos_site_id
 _symmetry_equiv_pos_as_xyz
  1  'x, y, z'
loop_
 _atom_site_type_symbol
 _atom_site_label
 _atom_site_symmetry_multiplicity
 _atom_site_fract_x
 _atom_site_fract_y
 _atom_site_fract_z
 _atom_site_occupancy
  La  La0  1  0.249265  0.249265  0.250735  1
  Y  Y1  1  0.749233  0.749233  0.750767  1
  Y  Y2  1  0.000629  0.000629  0.999371  1
  Si  Si3  1  0.266753  0.266753  0.733247  1
  Si  Si4  1  0.733355  0.265113  0.734789  1
  Si  Si5  1  0.265113  0.733355  0.266743  1
  Si  Si6  1  0.265113  0.733356  0.734789  1
  Si  Si7  1  0.733356  0.265113  0.266743  1
  P  P8  1  0.735427  0.735427  0.264573  1
  Pd  Pd9  1  0.616437  0.616437  0.615100  1
  Pd  Pd10  1  0.385856  0.385856  0.385488  1
  Pd  Pd11  1  0.150844  0.616500  0.616328  1
  Pd  Pd12  1  0.616500  0.150844  0.616328  1
  Pd  Pd13  1  0.841376  0.387321  0.385651  1
  Pd  Pd14  1  0.387321  0.841376  0.385651  1
  Pd  Pd15  1  0.616437  0.616437  0.152025  1
  Pd  Pd16  1  0.385856  0.385856  0.842799  1
  Pd  Pd17  1  0.999653  0.999653  0.654284  1
  Pd  Pd18  1  0.999653  0.999653  0.346411  1
  Pd  Pd19  1  0.348126  0.655841  0.998017  1
  Pd  Pd20  1  0.655841  0.348126  0.998017  1
  Pd  Pd21  1  0.997377  0.655615  0.000276  1
  Pd  Pd22  1  0.655615  0.997377  0.346733  1
  Pd  Pd23  1  0.999057  0.346880  0.998656  1
  Pd  Pd24  1  0.346880  0.999057  0.655408  1
  Pd  Pd25  1  0.655615  0.997377  0.000276  1
  Pd  Pd26  1  0.346880  0.999056  0.998656  1
  Pd  Pd27  1  0.997377  0.655615  0.346733  1
  Pd  Pd28  1  0.999056  0.346880  0.655409  1
