# generated using pymatgen
data_Nb9Ge2B4Mo
_symmetry_space_group_name_H-M   'P 1'
_cell_length_a   7.35630829
_cell_length_b   7.35630907
_cell_length_c   7.35630836
_cell_angle_alpha   129.44591909
_cell_angle_beta   129.44591295
_cell_angle_gamma   74.29412403
_symmetry_Int_Tables_number   1
_chemical_formula_structural   Nb9Ge2B4Mo
_chemical_formula_sum   'Nb9 Ge2 B4 Mo1'
_cell_volume   231.41575353
_cell_formula_units_Z   1
loop_
 _symmetry_equiv_pos_site_id
 _symmetry_equiv_pos_as_xyz
  1  'x, y, z'
loop_
 _atom_site_type_symbol
 _atom_site_label
 _atom_site_symmetry_multiplicity
 _atom_site_fract_x
 _atom_site_fract_y
 _atom_site_fract_z
 _atom_site_occupancy
  Nb  Nb0  1  0.804784  0.971797  0.503924  1
  Nb  Nb1  1  0.300859  0.804784  0.832986  1
  Nb  Nb2  1  0.195216  0.028203  0.496076  1
  Nb  Nb3  1  0.532127  0.699141  0.503924  1
  Nb  Nb4  1  0.028203  0.532127  0.832986  1
  Nb  Nb5  1  0.699141  0.195216  0.167014  1
  Nb  Nb6  1  0.971797  0.467873  0.167014  1
  Nb  Nb7  1  0.500000  0.500000  0.000000  1
  Nb  Nb8  1  0.467873  0.300859  0.496076  1
  Ge  Ge9  1  0.747673  0.747673  0.000000  1
  Ge  Ge10  1  0.252327  0.252327  0.000000  1
  B  B11  1  0.381753  0.882435  0.264190  1
  B  B12  1  0.882435  0.618247  0.500681  1
  B  B13  1  0.618247  0.117565  0.735810  1
  B  B14  1  0.117565  0.381753  0.499319  1
  Mo  Mo15  1  0.000000  0.000000  0.000000  1
