# generated using pymatgen
data_KV3F9
_symmetry_space_group_name_H-M   'P 1'
_cell_length_a   7.60012885
_cell_length_b   7.61476661
_cell_length_c   7.76570613
_cell_angle_alpha   89.85168824
_cell_angle_beta   89.87307614
_cell_angle_gamma   59.90833346
_symmetry_Int_Tables_number   1
_chemical_formula_structural   KV3F9
_chemical_formula_sum   'K2 V6 F18'
_cell_volume   388.85307767
_cell_formula_units_Z   2
loop_
 _symmetry_equiv_pos_site_id
 _symmetry_equiv_pos_as_xyz
  1  'x, y, z'
loop_
 _atom_site_type_symbol
 _atom_site_label
 _atom_site_symmetry_multiplicity
 _atom_site_fract_x
 _atom_site_fract_y
 _atom_site_fract_z
 _atom_site_occupancy
  K  K0  1  0.928049  0.536367  0.248912  1
  K  K1  1  0.068987  0.469906  0.749071  1
  V  V2  1  0.498948  0.000316  0.000835  1
  V  V3  1  0.499046  0.499693  0.998614  1
  V  V4  1  0.999619  0.999978  0.499547  1
  V  V5  1  0.999528  0.000097  0.999405  1
  V  V6  1  0.499545  0.499732  0.498512  1
  V  V7  1  0.499550  0.999918  0.501006  1
  F  F8  1  0.570112  0.503471  0.757852  1
  F  F9  1  0.430645  0.074031  0.260101  1
  F  F10  1  0.808260  0.288203  0.456911  1
  F  F11  1  0.205399  0.084074  0.549552  1
  F  F12  1  0.792450  0.289707  0.048175  1
  F  F13  1  0.189660  0.098690  0.958591  1
  F  F14  1  0.412338  0.285593  0.552713  1
  F  F15  1  0.586377  0.714735  0.447361  1
  F  F16  1  0.073452  0.963374  0.249338  1
  F  F17  1  0.925757  0.035686  0.749665  1
  F  F18  1  0.410314  0.302600  0.946854  1
  F  F19  1  0.587013  0.697306  0.051316  1
  F  F20  1  0.793843  0.915141  0.451827  1
  F  F21  1  0.190856  0.711128  0.540803  1
  F  F22  1  0.808916  0.901982  0.041855  1
  F  F23  1  0.205445  0.710100  0.949302  1
  F  F24  1  0.568791  0.926033  0.741733  1
  F  F25  1  0.428230  0.495924  0.239541  1
