# generated using pymatgen
data_TbHo6ErGa3Co
_symmetry_space_group_name_H-M   'P 1'
_cell_length_a   9.96506600
_cell_length_b   9.96188247
_cell_length_c   6.93706403
_cell_angle_alpha   90.00279041
_cell_angle_beta   90.00000000
_cell_angle_gamma   120.01057189
_symmetry_Int_Tables_number   1
_chemical_formula_structural   TbHo6ErGa3Co
_chemical_formula_sum   'Tb2 Ho12 Er2 Ga6 Co2'
_cell_volume   596.32312602
_cell_formula_units_Z   2
loop_
 _symmetry_equiv_pos_site_id
 _symmetry_equiv_pos_as_xyz
  1  'x, y, z'
loop_
 _atom_site_type_symbol
 _atom_site_label
 _atom_site_symmetry_multiplicity
 _atom_site_fract_x
 _atom_site_fract_y
 _atom_site_fract_z
 _atom_site_occupancy
  Tb  Tb0  1  0.000014  0.000027  0.768419  1
  Tb  Tb1  1  0.000150  0.000300  0.268343  1
  Ho  Ho2  1  0.826620  0.653243  0.487742  1
  Ho  Ho3  1  0.346625  0.173297  0.488080  1
  Ho  Ho4  1  0.826671  0.173297  0.488080  1
  Ho  Ho5  1  0.173561  0.347121  0.987412  1
  Ho  Ho6  1  0.653465  0.826718  0.987797  1
  Ho  Ho7  1  0.173255  0.826718  0.987797  1
  Ho  Ho8  1  0.666712  0.333423  0.172395  1
  Ho  Ho9  1  0.333235  0.666470  0.671233  1
  Ho  Ho10  1  0.537141  0.074280  0.792954  1
  Ho  Ho11  1  0.925695  0.462934  0.792709  1
  Ho  Ho12  1  0.537239  0.462934  0.792709  1
  Ho  Ho13  1  0.462644  0.925288  0.292420  1
  Er  Er14  1  0.074666  0.537178  0.292267  1
  Er  Er15  1  0.462510  0.537178  0.292267  1
  Ga  Ga16  1  0.836264  0.672529  0.042432  1
  Ga  Ga17  1  0.327413  0.164052  0.042634  1
  Ga  Ga18  1  0.836639  0.164052  0.042634  1
  Ga  Ga19  1  0.163633  0.327264  0.541340  1
  Ga  Ga20  1  0.672527  0.835989  0.541988  1
  Ga  Ga21  1  0.163462  0.835989  0.541988  1
  Co  Co22  1  0.666593  0.333184  0.555419  1
  Co  Co23  1  0.333266  0.666534  0.055012  1
