# generated using pymatgen
data_Dy2Ho4Tm6Co5Sn
_symmetry_space_group_name_H-M   'P 1'
_cell_length_a   8.19394404
_cell_length_b   8.19394335
_cell_length_c   8.18822141
_cell_angle_alpha   106.83626191
_cell_angle_beta   110.77352834
_cell_angle_gamma   110.86316977
_symmetry_Int_Tables_number   1
_chemical_formula_structural   Dy2Ho4Tm6Co5Sn
_chemical_formula_sum   'Dy2 Ho4 Tm6 Co5 Sn1'
_cell_volume   422.39256381
_cell_formula_units_Z   1
loop_
 _symmetry_equiv_pos_site_id
 _symmetry_equiv_pos_as_xyz
  1  'x, y, z'
loop_
 _atom_site_type_symbol
 _atom_site_label
 _atom_site_symmetry_multiplicity
 _atom_site_fract_x
 _atom_site_fract_y
 _atom_site_fract_z
 _atom_site_occupancy
  Dy  Dy0  1  0.193413  0.788837  0.982249  1
  Dy  Dy1  1  0.806587  0.211163  0.017751  1
  Ho  Ho2  1  0.474832  0.289839  0.186325  1
  Ho  Ho3  1  0.103514  0.288508  0.813675  1
  Ho  Ho4  1  0.896486  0.711492  0.186325  1
  Ho  Ho5  1  0.525168  0.710161  0.813675  1
  Tm  Tm6  1  0.307353  0.620368  0.315601  1
  Tm  Tm7  1  0.304767  0.991753  0.684399  1
  Tm  Tm8  1  0.692647  0.379632  0.684399  1
  Tm  Tm9  1  0.695233  0.008247  0.315601  1
  Tm  Tm10  1  0.194181  0.211578  0.405760  1
  Tm  Tm11  1  0.805819  0.788422  0.594240  1
  Co  Co12  1  0.501708  0.613022  0.114730  1
  Co  Co13  1  0.498292  0.386978  0.885270  1
  Co  Co14  1  0.376251  0.000949  0.377199  1
  Co  Co15  1  0.623749  0.999051  0.622801  1
  Co  Co16  1  0.000000  0.000000  0.000000  1
  Sn  Sn17  1  0.000000  0.500000  0.500000  1
