# generated using pymatgen
data_La10Os3Ru
_symmetry_space_group_name_H-M   'P 1'
_cell_length_a   9.02976412
_cell_length_b   9.03439682
_cell_length_c   7.45150789
_cell_angle_alpha   84.74448374
_cell_angle_beta   84.84771390
_cell_angle_gamma   43.98697522
_symmetry_Int_Tables_number   1
_chemical_formula_structural   La10Os3Ru
_chemical_formula_sum   'La10 Os3 Ru1'
_cell_volume   420.14548575
_cell_formula_units_Z   1
loop_
 _symmetry_equiv_pos_site_id
 _symmetry_equiv_pos_as_xyz
  1  'x, y, z'
loop_
 _atom_site_type_symbol
 _atom_site_label
 _atom_site_symmetry_multiplicity
 _atom_site_fract_x
 _atom_site_fract_y
 _atom_site_fract_z
 _atom_site_occupancy
  La  La0  1  0.017897  0.798874  0.906366  1
  La  La1  1  0.201129  0.982709  0.591724  1
  La  La2  1  0.984114  0.200491  0.091713  1
  La  La3  1  0.798025  0.018437  0.404753  1
  La  La4  1  0.361329  0.208628  0.818916  1
  La  La5  1  0.790843  0.640474  0.681930  1
  La  La6  1  0.639502  0.789118  0.182579  1
  La  La7  1  0.206429  0.361913  0.319767  1
  La  La8  1  0.575092  0.425595  0.748215  1
  La  La9  1  0.424763  0.576647  0.250070  1
  Os  Os10  1  0.175376  0.602507  0.577000  1
  Os  Os11  1  0.398484  0.822933  0.923895  1
  Os  Os12  1  0.822449  0.398882  0.422876  1
  Ru  Ru13  1  0.604569  0.172793  0.080195  1
