# generated using pymatgen
data_Tb8Co2Si12NiPd
_symmetry_space_group_name_H-M   'P 1'
_cell_length_a   8.04695600
_cell_length_b   8.04695486
_cell_length_c   8.14438200
_cell_angle_alpha   90.00000000
_cell_angle_beta   90.00000000
_cell_angle_gamma   120.00000470
_symmetry_Int_Tables_number   1
_chemical_formula_structural   Tb8Co2Si12NiPd
_chemical_formula_sum   'Tb8 Co2 Si12 Ni1 Pd1'
_cell_volume   456.72200673
_cell_formula_units_Z   1
loop_
 _symmetry_equiv_pos_site_id
 _symmetry_equiv_pos_as_xyz
  1  'x, y, z'
loop_
 _atom_site_type_symbol
 _atom_site_label
 _atom_site_symmetry_multiplicity
 _atom_site_fract_x
 _atom_site_fract_y
 _atom_site_fract_z
 _atom_site_occupancy
  Tb  Tb0  1  0.501885  0.003771  0.248792  1
  Tb  Tb1  1  0.501374  0.002748  0.751162  1
  Tb  Tb2  1  0.996229  0.498115  0.248792  1
  Tb  Tb3  1  0.997252  0.498626  0.751162  1
  Tb  Tb4  1  0.501885  0.498115  0.248792  1
  Tb  Tb5  1  0.501374  0.498626  0.751162  1
  Tb  Tb6  1  0.000000  0.000000  0.248629  1
  Tb  Tb7  1  0.000000  0.000000  0.751386  1
  Co  Co8  1  0.333333  0.666667  0.000658  1
  Co  Co9  1  0.666667  0.333333  0.501549  1
  Si  Si10  1  0.172645  0.345291  0.000194  1
  Si  Si11  1  0.830088  0.660174  0.999932  1
  Si  Si12  1  0.654709  0.827355  0.000194  1
  Si  Si13  1  0.826926  0.653852  0.500022  1
  Si  Si14  1  0.339826  0.169912  0.999932  1
  Si  Si15  1  0.163869  0.327739  0.499914  1
  Si  Si16  1  0.172645  0.827355  0.000194  1
  Si  Si17  1  0.346148  0.173074  0.500022  1
  Si  Si18  1  0.830088  0.169912  0.999932  1
  Si  Si19  1  0.672261  0.836131  0.499914  1
  Si  Si20  1  0.826926  0.173074  0.500022  1
  Si  Si21  1  0.163869  0.836131  0.499914  1
  Ni  Ni22  1  0.666667  0.333333  0.998539  1
  Pd  Pd23  1  0.333333  0.666667  0.499185  1
