# generated using pymatgen
data_Ho2Tm3OsRu
_symmetry_space_group_name_H-M   'P 1'
_cell_length_a   6.28403830
_cell_length_b   7.29364496
_cell_length_c   8.34784516
_cell_angle_alpha   96.92920636
_cell_angle_beta   112.11005571
_cell_angle_gamma   90.00000297
_symmetry_Int_Tables_number   1
_chemical_formula_structural   Ho2Tm3OsRu
_chemical_formula_sum   'Ho4 Tm6 Os2 Ru2'
_cell_volume   351.45682552
_cell_formula_units_Z   2
loop_
 _symmetry_equiv_pos_site_id
 _symmetry_equiv_pos_as_xyz
  1  'x, y, z'
loop_
 _atom_site_type_symbol
 _atom_site_label
 _atom_site_symmetry_multiplicity
 _atom_site_fract_x
 _atom_site_fract_y
 _atom_site_fract_z
 _atom_site_occupancy
  Ho  Ho0  1  0.792465  0.083313  0.816013  1
  Ho  Ho1  1  0.976452  0.416687  0.183987  1
  Ho  Ho2  1  0.209133  0.915666  0.185953  1
  Ho  Ho3  1  0.023180  0.584334  0.814047  1
  Tm  Tm4  1  0.204206  0.183359  0.564439  1
  Tm  Tm5  1  0.639767  0.316641  0.435561  1
  Tm  Tm6  1  0.795011  0.816562  0.434934  1
  Tm  Tm7  1  0.360077  0.683438  0.565066  1
  Tm  Tm8  1  0.420850  0.250000  0.000000  1
  Tm  Tm9  1  0.580503  0.750000  0.000000  1
  Os  Os10  1  0.601433  0.423034  0.779939  1
  Os  Os11  1  0.821493  0.076966  0.220061  1
  Ru  Ru12  1  0.397941  0.577200  0.220454  1
  Ru  Ru13  1  0.177489  0.922800  0.779546  1
