# generated using pymatgen
data_Tb4Pr16Si15As
_symmetry_space_group_name_H-M   'P 1'
_cell_length_a   7.84241842
_cell_length_b   7.83633647
_cell_length_c   15.35800800
_cell_angle_alpha   89.92776185
_cell_angle_beta   89.72183478
_cell_angle_gamma   89.98556010
_symmetry_Int_Tables_number   1
_chemical_formula_structural   Tb4Pr16Si15As
_chemical_formula_sum   'Tb4 Pr16 Si15 As1'
_cell_volume   943.82721871
_cell_formula_units_Z   1
loop_
 _symmetry_equiv_pos_site_id
 _symmetry_equiv_pos_as_xyz
  1  'x, y, z'
loop_
 _atom_site_type_symbol
 _atom_site_label
 _atom_site_symmetry_multiplicity
 _atom_site_fract_x
 _atom_site_fract_y
 _atom_site_fract_z
 _atom_site_occupancy
  Tb  Tb0  1  0.309258  0.308935  0.000106  1
  Tb  Tb1  1  0.190548  0.808350  0.250055  1
  Tb  Tb2  1  0.803951  0.191118  0.750617  1
  Tb  Tb3  1  0.689550  0.691314  0.499102  1
  Pr  Pr4  1  0.380723  0.012481  0.443696  1
  Pr  Pr5  1  0.487714  0.878254  0.694971  1
  Pr  Pr6  1  0.512855  0.120492  0.194683  1
  Pr  Pr7  1  0.879117  0.486687  0.304646  1
  Pr  Pr8  1  0.121636  0.513154  0.806091  1
  Pr  Pr9  1  0.621877  0.985937  0.944869  1
  Pr  Pr10  1  0.010283  0.379953  0.553606  1
  Pr  Pr11  1  0.986803  0.619872  0.055487  1
  Pr  Pr12  1  0.127643  0.978517  0.877913  1
  Pr  Pr13  1  0.523505  0.625393  0.128207  1
  Pr  Pr14  1  0.475902  0.374534  0.629334  1
  Pr  Pr15  1  0.625859  0.524367  0.871854  1
  Pr  Pr16  1  0.374251  0.474811  0.372160  1
  Pr  Pr17  1  0.875704  0.023941  0.378669  1
  Pr  Pr18  1  0.976245  0.125440  0.121843  1
  Pr  Pr19  1  0.023276  0.873662  0.621314  1
  Si  Si20  1  0.327008  0.688512  0.958394  1
  Si  Si21  1  0.672234  0.312369  0.458948  1
  Si  Si22  1  0.689172  0.328304  0.041867  1
  Si  Si23  1  0.312104  0.672387  0.541864  1
  Si  Si24  1  0.811850  0.827778  0.208671  1
  Si  Si25  1  0.172242  0.188141  0.291205  1
  Si  Si26  1  0.830251  0.811767  0.791399  1
  Si  Si27  1  0.285900  0.920718  0.063114  1
  Si  Si28  1  0.579066  0.786189  0.312950  1
  Si  Si29  1  0.430480  0.213181  0.817430  1
  Si  Si30  1  0.787633  0.579177  0.686311  1
  Si  Si31  1  0.213484  0.421149  0.186871  1
  Si  Si32  1  0.710818  0.078025  0.563262  1
  Si  Si33  1  0.922122  0.287170  0.936815  1
  Si  Si34  1  0.079252  0.713004  0.436890  1
  As  As35  1  0.179687  0.174913  0.704785  1
