# generated using pymatgen
data_Ho10In8Ni3Ir
_symmetry_space_group_name_H-M   'P 1'
_cell_length_a   3.58564000
_cell_length_b   8.00949807
_cell_length_c   17.94770204
_cell_angle_alpha   89.99594689
_cell_angle_beta   90.00000000
_cell_angle_gamma   90.00000000
_symmetry_Int_Tables_number   1
_chemical_formula_structural   Ho10In8Ni3Ir
_chemical_formula_sum   'Ho10 In8 Ni3 Ir1'
_cell_volume   515.44322425
_cell_formula_units_Z   1
loop_
 _symmetry_equiv_pos_site_id
 _symmetry_equiv_pos_as_xyz
  1  'x, y, z'
loop_
 _atom_site_type_symbol
 _atom_site_label
 _atom_site_symmetry_multiplicity
 _atom_site_fract_x
 _atom_site_fract_y
 _atom_site_fract_z
 _atom_site_occupancy
  Ho  Ho0  1  0.000000  0.118045  0.413937  1
  Ho  Ho1  1  0.000000  0.883321  0.589911  1
  Ho  Ho2  1  0.000000  0.383769  0.911038  1
  Ho  Ho3  1  0.000000  0.615822  0.088488  1
  Ho  Ho4  1  0.000000  0.242443  0.221012  1
  Ho  Ho5  1  0.000000  0.755320  0.778331  1
  Ho  Ho6  1  0.000000  0.255116  0.722532  1
  Ho  Ho7  1  0.000000  0.747202  0.277306  1
  Ho  Ho8  1  0.000000  0.999971  0.998720  1
  Ho  Ho9  1  0.000000  0.500515  0.500765  1
  In  In10  1  0.500000  0.428850  0.348058  1
  In  In11  1  0.500000  0.572115  0.652915  1
  In  In12  1  0.500000  0.073018  0.847867  1
  In  In13  1  0.500000  0.927326  0.147737  1
  In  In14  1  0.500000  0.294867  0.067343  1
  In  In15  1  0.500000  0.704720  0.930487  1
  In  In16  1  0.500000  0.206118  0.571115  1
  In  In17  1  0.500000  0.792808  0.432620  1
  Ni  Ni18  1  0.500000  0.978184  0.696718  1
  Ni  Ni19  1  0.500000  0.478320  0.804517  1
  Ni  Ni20  1  0.500000  0.520031  0.194752  1
  Ir  Ir21  1  0.500000  0.022117  0.303830  1
