# generated using pymatgen
data_Sm4Ni14AsP7
_symmetry_space_group_name_H-M   'P 1'
_cell_length_a   3.76265800
_cell_length_b   9.24657528
_cell_length_c   10.37798873
_cell_angle_alpha   89.91820054
_cell_angle_beta   90.00000000
_cell_angle_gamma   90.00000000
_symmetry_Int_Tables_number   1
_chemical_formula_structural   Sm4Ni14AsP7
_chemical_formula_sum   'Sm4 Ni14 As1 P7'
_cell_volume   361.06750721
_cell_formula_units_Z   1
loop_
 _symmetry_equiv_pos_site_id
 _symmetry_equiv_pos_as_xyz
  1  'x, y, z'
loop_
 _atom_site_type_symbol
 _atom_site_label
 _atom_site_symmetry_multiplicity
 _atom_site_fract_x
 _atom_site_fract_y
 _atom_site_fract_z
 _atom_site_occupancy
  Sm  Sm0  1  0.000000  0.064119  0.002723  1
  Sm  Sm1  1  0.500000  0.933424  0.494933  1
  Sm  Sm2  1  0.000000  0.441655  0.779785  1
  Sm  Sm3  1  0.500000  0.557562  0.278485  1
  Ni  Ni4  1  0.000000  0.081849  0.304226  1
  Ni  Ni5  1  0.500000  0.914231  0.814739  1
  Ni  Ni6  1  0.000000  0.200779  0.564586  1
  Ni  Ni7  1  0.500000  0.805468  0.072378  1
  Ni  Ni8  1  0.000000  0.403114  0.081551  1
  Ni  Ni9  1  0.500000  0.596643  0.580754  1
  Ni  Ni10  1  0.000000  0.444968  0.474849  1
  Ni  Ni11  1  0.500000  0.559297  0.976342  1
  Ni  Ni12  1  0.000000  0.752862  0.901302  1
  Ni  Ni13  1  0.500000  0.245874  0.399365  1
  Ni  Ni14  1  0.000000  0.765043  0.666567  1
  Ni  Ni15  1  0.500000  0.225720  0.167186  1
  Ni  Ni16  1  0.000000  0.814728  0.261031  1
  Ni  Ni17  1  0.500000  0.190956  0.764924  1
  As  As18  1  0.000000  0.023045  0.715192  1
  P  P19  1  0.500000  0.977673  0.215359  1
  P  P20  1  0.000000  0.316878  0.285906  1
  P  P21  1  0.500000  0.681826  0.784655  1
  P  P22  1  0.000000  0.655396  0.089040  1
  P  P23  1  0.500000  0.345443  0.587368  1
  P  P24  1  0.000000  0.688507  0.462237  1
  P  P25  1  0.500000  0.312940  0.965131  1
