# generated using pymatgen
data_La2Yb(ErPt2)2
_symmetry_space_group_name_H-M   'P 1'
_cell_length_a   7.41129000
_cell_length_b   7.91410300
_cell_length_c   15.05585700
_cell_angle_alpha   90.00000000
_cell_angle_beta   90.00000000
_cell_angle_gamma   90.00000000
_symmetry_Int_Tables_number   1
_chemical_formula_structural   La2Yb(ErPt2)2
_chemical_formula_sum   'La8 Yb4 Er8 Pt16'
_cell_volume   883.08190676
_cell_formula_units_Z   4
loop_
 _symmetry_equiv_pos_site_id
 _symmetry_equiv_pos_as_xyz
  1  'x, y, z'
loop_
 _atom_site_type_symbol
 _atom_site_label
 _atom_site_symmetry_multiplicity
 _atom_site_fract_x
 _atom_site_fract_y
 _atom_site_fract_z
 _atom_site_occupancy
  La  La0  1  0.506201  0.678455  0.596328  1
  La  La1  1  0.006201  0.821545  0.903672  1
  La  La2  1  0.493799  0.321545  0.096328  1
  La  La3  1  0.993799  0.178455  0.403672  1
  La  La4  1  0.493799  0.321545  0.403672  1
  La  La5  1  0.993799  0.178455  0.096328  1
  La  La6  1  0.506201  0.678455  0.903672  1
  La  La7  1  0.006201  0.821545  0.596328  1
  Yb  Yb8  1  0.828784  0.507677  0.750000  1
  Yb  Yb9  1  0.328784  0.992323  0.750000  1
  Yb  Yb10  1  0.171216  0.492323  0.250000  1
  Yb  Yb11  1  0.671216  0.007677  0.250000  1
  Er  Er12  1  0.664453  0.168901  0.624503  1
  Er  Er13  1  0.164453  0.331099  0.875497  1
  Er  Er14  1  0.335547  0.831099  0.124503  1
  Er  Er15  1  0.835547  0.668901  0.375497  1
  Er  Er16  1  0.335547  0.831099  0.375497  1
  Er  Er17  1  0.835547  0.668901  0.124503  1
  Er  Er18  1  0.664453  0.168901  0.875497  1
  Er  Er19  1  0.164453  0.331099  0.624503  1
  Pt  Pt20  1  0.679594  0.959529  0.461341  1
  Pt  Pt21  1  0.179594  0.540471  0.038659  1
  Pt  Pt22  1  0.320406  0.040471  0.961341  1
  Pt  Pt23  1  0.820406  0.459529  0.538659  1
  Pt  Pt24  1  0.320406  0.040471  0.538659  1
  Pt  Pt25  1  0.820406  0.459529  0.961341  1
  Pt  Pt26  1  0.679594  0.959529  0.038659  1
  Pt  Pt27  1  0.179594  0.540471  0.461341  1
  Pt  Pt28  1  0.462567  0.367621  0.750000  1
  Pt  Pt29  1  0.962567  0.132379  0.750000  1
  Pt  Pt30  1  0.537433  0.632379  0.250000  1
  Pt  Pt31  1  0.037433  0.867621  0.250000  1
  Pt  Pt32  1  0.707111  0.866953  0.750000  1
  Pt  Pt33  1  0.207111  0.633047  0.750000  1
  Pt  Pt34  1  0.292889  0.133047  0.250000  1
  Pt  Pt35  1  0.792889  0.366953  0.250000  1
