# generated using pymatgen
data_Li4Al3Ag
_symmetry_space_group_name_H-M   'P 1'
_cell_length_a   4.45146909
_cell_length_b   4.45201630
_cell_length_c   7.78670059
_cell_angle_alpha   106.37795538
_cell_angle_beta   89.75121491
_cell_angle_gamma   59.83922815
_symmetry_Int_Tables_number   1
_chemical_formula_structural   Li4Al3Ag
_chemical_formula_sum   'Li4 Al3 Ag1'
_cell_volume   126.01264685
_cell_formula_units_Z   1
loop_
 _symmetry_equiv_pos_site_id
 _symmetry_equiv_pos_as_xyz
  1  'x, y, z'
loop_
 _atom_site_type_symbol
 _atom_site_label
 _atom_site_symmetry_multiplicity
 _atom_site_fract_x
 _atom_site_fract_y
 _atom_site_fract_z
 _atom_site_occupancy
  Li  Li0  1  0.798247  0.474646  0.115713  1
  Li  Li1  1  0.923564  0.225082  0.743823  1
  Li  Li2  1  0.421208  0.229902  0.247812  1
  Li  Li3  1  0.294575  0.482781  0.628822  1
  Al  Al4  1  0.048519  0.975707  0.366672  1
  Al  Al5  1  0.546225  0.979780  0.873537  1
  Al  Al6  1  0.670647  0.730567  0.499887  1
  Ag  Ag7  1  0.170670  0.729798  0.997228  1
