# generated using pymatgen
data_TaTiAlB2Ru5
_symmetry_space_group_name_H-M   'P 1'
_cell_length_a   9.26544484
_cell_length_b   9.26544484
_cell_length_c   2.99888400
_cell_angle_alpha   90.00000000
_cell_angle_beta   90.00000000
_cell_angle_gamma   89.48152260
_symmetry_Int_Tables_number   1
_chemical_formula_structural   TaTiAlB2Ru5
_chemical_formula_sum   'Ta2 Ti2 Al2 B4 Ru10'
_cell_volume   257.43905654
_cell_formula_units_Z   2
loop_
 _symmetry_equiv_pos_site_id
 _symmetry_equiv_pos_as_xyz
  1  'x, y, z'
loop_
 _atom_site_type_symbol
 _atom_site_label
 _atom_site_symmetry_multiplicity
 _atom_site_fract_x
 _atom_site_fract_y
 _atom_site_fract_z
 _atom_site_occupancy
  Ta  Ta0  1  0.322862  0.822862  0.000000  1
  Ta  Ta1  1  0.677138  0.177138  0.000000  1
  Ti  Ti2  1  0.824996  0.675004  0.000000  1
  Ti  Ti3  1  0.175004  0.324996  0.000000  1
  Al  Al4  1  0.500000  0.500000  0.000000  1
  Al  Al5  1  0.000000  0.000000  0.000000  1
  B  B6  1  0.626678  0.873322  0.000000  1
  B  B7  1  0.373322  0.126678  0.000000  1
  B  B8  1  0.123557  0.623557  0.000000  1
  B  B9  1  0.876443  0.376443  0.000000  1
  Ru  Ru10  1  0.570481  0.713335  0.500000  1
  Ru  Ru11  1  0.429519  0.286665  0.500000  1
  Ru  Ru12  1  0.069461  0.786209  0.500000  1
  Ru  Ru13  1  0.930539  0.213791  0.500000  1
  Ru  Ru14  1  0.286209  0.569461  0.500000  1
  Ru  Ru15  1  0.713791  0.430539  0.500000  1
  Ru  Ru16  1  0.213335  0.070481  0.500000  1
  Ru  Ru17  1  0.786665  0.929519  0.500000  1
  Ru  Ru18  1  0.500000  0.000000  0.500000  1
  Ru  Ru19  1  0.000000  0.500000  0.500000  1
