# generated using pymatgen
data_Lu3GaAs2Rh3
_symmetry_space_group_name_H-M   'P 1'
_cell_length_a   6.91635000
_cell_length_b   6.91634881
_cell_length_c   3.88636200
_cell_angle_alpha   90.00000000
_cell_angle_beta   90.00000000
_cell_angle_gamma   119.99999615
_symmetry_Int_Tables_number   1
_chemical_formula_structural   Lu3GaAs2Rh3
_chemical_formula_sum   'Lu3 Ga1 As2 Rh3'
_cell_volume   161.00069458
_cell_formula_units_Z   1
loop_
 _symmetry_equiv_pos_site_id
 _symmetry_equiv_pos_as_xyz
  1  'x, y, z'
loop_
 _atom_site_type_symbol
 _atom_site_label
 _atom_site_symmetry_multiplicity
 _atom_site_fract_x
 _atom_site_fract_y
 _atom_site_fract_z
 _atom_site_occupancy
  Lu  Lu0  1  0.413135  0.000000  0.499999  1
  Lu  Lu1  1  0.000000  0.413135  0.499999  1
  Lu  Lu2  1  0.586865  0.586864  0.499999  1
  Ga  Ga3  1  0.000000  0.000000  0.499999  1
  As  As4  1  0.666666  0.333333  0.000000  1
  As  As5  1  0.333334  0.666667  0.000000  1
  Rh  Rh6  1  0.755692  0.000000  0.000000  1
  Rh  Rh7  1  0.244308  0.244308  0.000000  1
  Rh  Rh8  1  0.000000  0.755692  0.000000  1
