# generated using pymatgen
data_Tb19YSn9Bi7
_symmetry_space_group_name_H-M   'P 1'
_cell_length_a   8.21179010
_cell_length_b   8.24286377
_cell_length_c   15.69490600
_cell_angle_alpha   90.06679518
_cell_angle_beta   89.60506775
_cell_angle_gamma   89.91408029
_symmetry_Int_Tables_number   1
_chemical_formula_structural   Tb19YSn9Bi7
_chemical_formula_sum   'Tb19 Y1 Sn9 Bi7'
_cell_volume   1062.34010142
_cell_formula_units_Z   1
loop_
 _symmetry_equiv_pos_site_id
 _symmetry_equiv_pos_as_xyz
  1  'x, y, z'
loop_
 _atom_site_type_symbol
 _atom_site_label
 _atom_site_symmetry_multiplicity
 _atom_site_fract_x
 _atom_site_fract_y
 _atom_site_fract_z
 _atom_site_occupancy
  Tb  Tb0  1  0.394552  0.837642  0.877743  1
  Tb  Tb1  1  0.897950  0.664212  0.621391  1
  Tb  Tb2  1  0.602201  0.162711  0.378074  1
  Tb  Tb3  1  0.101864  0.337863  0.121211  1
  Tb  Tb4  1  0.607289  0.167535  0.121273  1
  Tb  Tb5  1  0.102198  0.336199  0.378129  1
  Tb  Tb6  1  0.396770  0.837923  0.622541  1
  Tb  Tb7  1  0.891974  0.660892  0.880265  1
  Tb  Tb8  1  0.564906  0.333372  0.890183  1
  Tb  Tb9  1  0.065505  0.169596  0.613889  1
  Tb  Tb10  1  0.435102  0.668343  0.386560  1
  Tb  Tb11  1  0.937393  0.823451  0.111316  1
  Tb  Tb12  1  0.446316  0.665694  0.110056  1
  Tb  Tb13  1  0.934525  0.830393  0.385976  1
  Tb  Tb14  1  0.565853  0.331819  0.613500  1
  Tb  Tb15  1  0.056651  0.173968  0.889786  1
  Tb  Tb16  1  0.228452  0.500204  0.750766  1
  Tb  Tb17  1  0.728322  0.002127  0.750769  1
  Tb  Tb18  1  0.771816  0.499647  0.246220  1
  Y  Y19  1  0.271466  0.998066  0.248766  1
  Sn  Sn20  1  0.768685  0.480324  0.044418  1
  Sn  Sn21  1  0.594475  0.629292  0.749793  1
  Sn  Sn22  1  0.092810  0.872431  0.751090  1
  Sn  Sn23  1  0.404622  0.370806  0.250331  1
  Sn  Sn24  1  0.905945  0.126805  0.250027  1
  Sn  Sn25  1  0.366234  0.143264  0.751427  1
  Sn  Sn26  1  0.866659  0.360025  0.750238  1
  Sn  Sn27  1  0.633441  0.858744  0.249459  1
  Sn  Sn28  1  0.135541  0.640208  0.249641  1
  Bi  Bi29  1  0.265260  0.015813  0.044424  1
  Bi  Bi30  1  0.763562  0.486529  0.454225  1
  Bi  Bi31  1  0.736685  0.987427  0.545017  1
  Bi  Bi32  1  0.233311  0.518828  0.955725  1
  Bi  Bi33  1  0.731688  0.981858  0.955848  1
  Bi  Bi34  1  0.237288  0.513540  0.545093  1
  Bi  Bi35  1  0.262688  0.012450  0.454825  1
