# generated using pymatgen
data_Y2Er3OsRu
_symmetry_space_group_name_H-M   'P 1'
_cell_length_a   6.31689682
_cell_length_b   7.29693615
_cell_length_c   8.42356781
_cell_angle_alpha   96.90444522
_cell_angle_beta   112.02145321
_cell_angle_gamma   89.99999965
_symmetry_Int_Tables_number   1
_chemical_formula_structural   Y2Er3OsRu
_chemical_formula_sum   'Y4 Er6 Os2 Ru2'
_cell_volume   356.90945283
_cell_formula_units_Z   2
loop_
 _symmetry_equiv_pos_site_id
 _symmetry_equiv_pos_as_xyz
  1  'x, y, z'
loop_
 _atom_site_type_symbol
 _atom_site_label
 _atom_site_symmetry_multiplicity
 _atom_site_fract_x
 _atom_site_fract_y
 _atom_site_fract_z
 _atom_site_occupancy
  Y  Y0  1  0.790250  0.583324  0.813237  1
  Y  Y1  1  0.977013  0.916676  0.186763  1
  Y  Y2  1  0.210169  0.416420  0.187392  1
  Y  Y3  1  0.022777  0.083580  0.812608  1
  Er  Er4  1  0.204165  0.684347  0.565073  1
  Er  Er5  1  0.639092  0.815653  0.434927  1
  Er  Er6  1  0.795549  0.315548  0.434632  1
  Er  Er7  1  0.360916  0.184452  0.565368  1
  Er  Er8  1  0.420877  0.750000  0.000000  1
  Er  Er9  1  0.579992  0.250000  0.000000  1
  Os  Os10  1  0.597656  0.924580  0.778545  1
  Os  Os11  1  0.819110  0.575420  0.221455  1
  Ru  Ru12  1  0.402069  0.075448  0.221703  1
  Ru  Ru13  1  0.180367  0.424552  0.778297  1
