# generated using pymatgen
data_CeTh3Al18Ir5Rh
_symmetry_space_group_name_H-M   'P 1'
_cell_length_a   7.65859970
_cell_length_b   7.66695066
_cell_length_c   9.50336734
_cell_angle_alpha   90.02951915
_cell_angle_beta   89.88318215
_cell_angle_gamma   119.48204116
_symmetry_Int_Tables_number   1
_chemical_formula_structural   CeTh3Al18Ir5Rh
_chemical_formula_sum   'Ce1 Th3 Al18 Ir5 Rh1'
_cell_volume   485.76067005
_cell_formula_units_Z   1
loop_
 _symmetry_equiv_pos_site_id
 _symmetry_equiv_pos_as_xyz
  1  'x, y, z'
loop_
 _atom_site_type_symbol
 _atom_site_label
 _atom_site_symmetry_multiplicity
 _atom_site_fract_x
 _atom_site_fract_y
 _atom_site_fract_z
 _atom_site_occupancy
  Ce  Ce0  1  0.328373  0.003765  0.749758  1
  Th  Th1  1  0.996054  0.671883  0.250225  1
  Th  Th2  1  0.004954  0.329545  0.749712  1
  Th  Th3  1  0.670279  0.994189  0.250274  1
  Al  Al4  1  0.134132  0.132726  0.249927  1
  Al  Al5  1  0.868922  0.868089  0.750093  1
  Al  Al6  1  0.004687  0.335484  0.074750  1
  Al  Al7  1  0.997529  0.667183  0.924035  1
  Al  Al8  1  0.997606  0.667181  0.575888  1
  Al  Al9  1  0.335227  0.004845  0.429814  1
  Al  Al10  1  0.004985  0.335431  0.425335  1
  Al  Al11  1  0.662122  0.995811  0.576018  1
  Al  Al12  1  0.661911  0.995996  0.923935  1
  Al  Al13  1  0.335544  0.005215  0.070240  1
  Al  Al14  1  0.336406  0.334449  0.550547  1
  Al  Al15  1  0.663273  0.663189  0.453006  1
  Al  Al16  1  0.663182  0.663030  0.047564  1
  Al  Al17  1  0.336387  0.334511  0.948901  1
  Al  Al18  1  0.341599  0.544509  0.249923  1
  Al  Al19  1  0.657255  0.450996  0.750598  1
  Al  Al20  1  0.546129  0.339850  0.249427  1
  Al  Al21  1  0.454359  0.660619  0.750032  1
  Ir  Ir22  1  0.327043  0.671738  0.000318  1
  Ir  Ir23  1  0.327264  0.671745  0.499790  1
  Ir  Ir24  1  0.673759  0.328562  0.499741  1
  Ir  Ir25  1  0.998554  0.000223  0.000461  1
  Ir  Ir26  1  0.998659  0.000221  0.499594  1
  Rh  Rh27  1  0.673808  0.329014  0.000095  1
