# generated using pymatgen
data_Yb3Dy5(HfIr3)2
_symmetry_space_group_name_H-M   'P 1'
_cell_length_a   6.25663858
_cell_length_b   10.86133000
_cell_length_c   10.81238058
_cell_angle_alpha   90.00000000
_cell_angle_beta   89.75166823
_cell_angle_gamma   90.00000000
_symmetry_Int_Tables_number   1
_chemical_formula_structural   Yb3Dy5(HfIr3)2
_chemical_formula_sum   'Yb6 Dy10 Hf4 Ir12'
_cell_volume   734.75292245
_cell_formula_units_Z   2
loop_
 _symmetry_equiv_pos_site_id
 _symmetry_equiv_pos_as_xyz
  1  'x, y, z'
loop_
 _atom_site_type_symbol
 _atom_site_label
 _atom_site_symmetry_multiplicity
 _atom_site_fract_x
 _atom_site_fract_y
 _atom_site_fract_z
 _atom_site_occupancy
  Yb  Yb0  1  0.137425  0.166116  0.042350  1
  Yb  Yb1  1  0.637425  0.333884  0.042350  1
  Yb  Yb2  1  0.136417  0.459506  0.166109  1
  Yb  Yb3  1  0.636417  0.040495  0.166109  1
  Yb  Yb4  1  0.636053  0.461638  0.332137  1
  Yb  Yb5  1  0.136053  0.038363  0.332137  1
  Dy  Dy6  1  0.364835  0.834180  0.537170  1
  Dy  Dy7  1  0.864835  0.665820  0.537170  1
  Dy  Dy8  1  0.862740  0.833826  0.962773  1
  Dy  Dy9  1  0.362740  0.666174  0.962773  1
  Dy  Dy10  1  0.865129  0.537496  0.833750  1
  Dy  Dy11  1  0.365129  0.962504  0.833750  1
  Dy  Dy12  1  0.365038  0.537260  0.666107  1
  Dy  Dy13  1  0.865038  0.962740  0.666107  1
  Dy  Dy14  1  0.633485  0.167517  0.456752  1
  Dy  Dy15  1  0.133485  0.332483  0.456752  1
  Hf  Hf16  1  0.502088  0.750148  0.249907  1
  Hf  Hf17  1  0.002088  0.749852  0.249907  1
  Hf  Hf18  1  0.001979  0.250194  0.750260  1
  Hf  Hf19  1  0.501979  0.249806  0.750260  1
  Ir  Ir20  1  0.251399  0.884124  0.102533  1
  Ir  Ir21  1  0.751399  0.615876  0.102533  1
  Ir  Ir22  1  0.747478  0.887106  0.396761  1
  Ir  Ir23  1  0.247478  0.612894  0.396761  1
  Ir  Ir24  1  0.749381  0.104304  0.885914  1
  Ir  Ir25  1  0.249381  0.395696  0.885914  1
  Ir  Ir26  1  0.252576  0.107754  0.611116  1
  Ir  Ir27  1  0.752576  0.392246  0.611116  1
  Ir  Ir28  1  0.107224  0.749865  0.749988  1
  Ir  Ir29  1  0.607224  0.750135  0.749988  1
  Ir  Ir30  1  0.886751  0.250280  0.256375  1
  Ir  Ir31  1  0.386751  0.249720  0.256375  1
