# generated using pymatgen
data_Ho3Mn6Co2TcP6
_symmetry_space_group_name_H-M   'P 1'
_cell_length_a   3.70159300
_cell_length_b   10.76931400
_cell_length_c   12.45655300
_cell_angle_alpha   90.00000000
_cell_angle_beta   90.00000000
_cell_angle_gamma   90.00000000
_symmetry_Int_Tables_number   1
_chemical_formula_structural   Ho3Mn6Co2TcP6
_chemical_formula_sum   'Ho6 Mn12 Co4 Tc2 P12'
_cell_volume   496.56326188
_cell_formula_units_Z   2
loop_
 _symmetry_equiv_pos_site_id
 _symmetry_equiv_pos_as_xyz
  1  'x, y, z'
loop_
 _atom_site_type_symbol
 _atom_site_label
 _atom_site_symmetry_multiplicity
 _atom_site_fract_x
 _atom_site_fract_y
 _atom_site_fract_z
 _atom_site_occupancy
  Ho  Ho0  1  0.000000  0.500000  0.530871  1
  Ho  Ho1  1  0.500000  0.000000  0.469129  1
  Ho  Ho2  1  0.500000  0.821731  0.204586  1
  Ho  Ho3  1  0.500000  0.178269  0.204586  1
  Ho  Ho4  1  0.000000  0.678269  0.795414  1
  Ho  Ho5  1  0.000000  0.321731  0.795414  1
  Mn  Mn6  1  0.500000  0.297544  0.431211  1
  Mn  Mn7  1  0.500000  0.702456  0.431211  1
  Mn  Mn8  1  0.000000  0.202456  0.568789  1
  Mn  Mn9  1  0.000000  0.797544  0.568789  1
  Mn  Mn10  1  0.500000  0.880230  0.701692  1
  Mn  Mn11  1  0.500000  0.119770  0.701692  1
  Mn  Mn12  1  0.000000  0.619770  0.298308  1
  Mn  Mn13  1  0.000000  0.380230  0.298308  1
  Mn  Mn14  1  0.500000  0.329201  0.994546  1
  Mn  Mn15  1  0.500000  0.670799  0.994546  1
  Mn  Mn16  1  0.000000  0.170799  0.005454  1
  Mn  Mn17  1  0.000000  0.829201  0.005454  1
  Co  Co18  1  0.000000  0.500000  0.989412  1
  Co  Co19  1  0.500000  0.000000  0.010588  1
  Co  Co20  1  0.500000  0.500000  0.705249  1
  Co  Co21  1  0.000000  0.000000  0.294751  1
  Tc  Tc22  1  0.500000  0.500000  0.157084  1
  Tc  Tc23  1  0.000000  0.000000  0.842916  1
  P  P24  1  0.500000  0.318133  0.618195  1
  P  P25  1  0.500000  0.681867  0.618195  1
  P  P26  1  0.000000  0.181867  0.381805  1
  P  P27  1  0.000000  0.818133  0.381805  1
  P  P28  1  0.500000  0.500000  0.882875  1
  P  P29  1  0.000000  0.000000  0.117125  1
  P  P30  1  0.500000  0.847471  0.888494  1
  P  P31  1  0.500000  0.152529  0.888494  1
  P  P32  1  0.000000  0.652529  0.111506  1
  P  P33  1  0.000000  0.347471  0.111506  1
  P  P34  1  0.500000  0.500000  0.354051  1
  P  P35  1  0.000000  0.000000  0.645949  1
