# generated using pymatgen
data_CaNb(NiAs)2
_symmetry_space_group_name_H-M   'P 1'
_cell_length_a   3.96392800
_cell_length_b   3.96392770
_cell_length_c   15.15187800
_cell_angle_alpha   90.00000000
_cell_angle_beta   90.00000000
_cell_angle_gamma   120.00000251
_symmetry_Int_Tables_number   1
_chemical_formula_structural   CaNb(NiAs)2
_chemical_formula_sum   'Ca2 Nb2 Ni4 As4'
_cell_volume   206.18096481
_cell_formula_units_Z   2
loop_
 _symmetry_equiv_pos_site_id
 _symmetry_equiv_pos_as_xyz
  1  'x, y, z'
loop_
 _atom_site_type_symbol
 _atom_site_label
 _atom_site_symmetry_multiplicity
 _atom_site_fract_x
 _atom_site_fract_y
 _atom_site_fract_z
 _atom_site_occupancy
  Ca  Ca0  1  0.000000  0.000000  0.000000  1
  Ca  Ca1  1  0.000000  0.000000  0.500000  1
  Nb  Nb2  1  0.000000  0.000000  0.250000  1
  Nb  Nb3  1  0.000000  0.000000  0.750000  1
  Ni  Ni4  1  0.333333  0.666667  0.165826  1
  Ni  Ni5  1  0.666667  0.333333  0.834174  1
  Ni  Ni6  1  0.666667  0.333333  0.665826  1
  Ni  Ni7  1  0.333333  0.666667  0.334174  1
  As  As8  1  0.333333  0.666667  0.628351  1
  As  As9  1  0.666667  0.333333  0.371649  1
  As  As10  1  0.666667  0.333333  0.128351  1
  As  As11  1  0.333333  0.666667  0.871649  1
