# generated using pymatgen
data_Tb(S8F)3
_symmetry_space_group_name_H-M   'P 1'
_cell_length_a   4.49421250
_cell_length_b   14.74341351
_cell_length_c   14.74341251
_cell_angle_alpha   118.98058138
_cell_angle_beta   95.83184573
_cell_angle_gamma   95.83186797
_symmetry_Int_Tables_number   1
_chemical_formula_structural   Tb(S8F)3
_chemical_formula_sum   'Tb1 S24 F3'
_cell_volume   837.28470947
_cell_formula_units_Z   1
loop_
 _symmetry_equiv_pos_site_id
 _symmetry_equiv_pos_as_xyz
  1  'x, y, z'
loop_
 _atom_site_type_symbol
 _atom_site_label
 _atom_site_symmetry_multiplicity
 _atom_site_fract_x
 _atom_site_fract_y
 _atom_site_fract_z
 _atom_site_occupancy
  Tb  Tb0  1  0.737241  0.000000  0.000000  1
  S  S1  1  0.384715  0.399881  0.000000  1
  S  S2  1  0.554054  0.728562  0.000000  1
  S  S3  1  0.264539  0.519495  0.130833  1
  S  S4  1  0.385294  0.749672  0.132986  1
  S  S5  1  0.569480  0.656397  0.184175  1
  S  S6  1  0.635622  0.383314  0.250328  1
  S  S7  1  0.825490  0.271438  0.271438  1
  S  S8  1  0.913082  0.527777  0.343602  1
  S  S9  1  0.133705  0.869168  0.388662  1
  S  S10  1  0.635622  0.250328  0.383314  1
  S  S11  1  0.384715  0.000000  0.399881  1
  S  S12  1  0.385305  0.815826  0.472223  1
  S  S13  1  0.745045  0.611338  0.480506  1
  S  S14  1  0.264539  0.130833  0.519495  1
  S  S15  1  0.913082  0.343602  0.527777  1
  S  S16  1  0.984836  0.600119  0.600119  1
  S  S17  1  0.252308  0.867014  0.616686  1
  S  S18  1  0.745045  0.480506  0.611338  1
  S  S19  1  0.569480  0.184175  0.656397  1
  S  S20  1  0.554054  0.000000  0.728562  1
  S  S21  1  0.385294  0.132986  0.749672  1
  S  S22  1  0.385305  0.472223  0.815826  1
  S  S23  1  0.252308  0.616686  0.867014  1
  S  S24  1  0.133705  0.388662  0.869168  1
  F  F25  1  0.024794  0.115334  0.000000  1
  F  F26  1  0.024794  0.000000  0.115334  1
  F  F27  1  0.909461  0.884666  0.884666  1
