# generated using pymatgen
data_Sc6Bi2Mo
_symmetry_space_group_name_H-M   'P 1'
_cell_length_a   7.79638900
_cell_length_b   7.79638844
_cell_length_c   4.12985700
_cell_angle_alpha   90.00000000
_cell_angle_beta   90.00000000
_cell_angle_gamma   120.00000661
_symmetry_Int_Tables_number   1
_chemical_formula_structural   Sc6Bi2Mo
_chemical_formula_sum   'Sc6 Bi2 Mo1'
_cell_volume   217.39651909
_cell_formula_units_Z   1
loop_
 _symmetry_equiv_pos_site_id
 _symmetry_equiv_pos_as_xyz
  1  'x, y, z'
loop_
 _atom_site_type_symbol
 _atom_site_label
 _atom_site_symmetry_multiplicity
 _atom_site_fract_x
 _atom_site_fract_y
 _atom_site_fract_z
 _atom_site_occupancy
  Sc  Sc0  1  0.614079  0.000000  0.000000  1
  Sc  Sc1  1  0.385922  0.385921  0.000000  1
  Sc  Sc2  1  0.000000  0.614080  0.000000  1
  Sc  Sc3  1  0.233728  0.000000  0.500000  1
  Sc  Sc4  1  0.000000  0.233729  0.500000  1
  Sc  Sc5  1  0.766272  0.766272  0.500000  1
  Bi  Bi6  1  0.666667  0.333334  0.500000  1
  Bi  Bi7  1  0.333334  0.666667  0.500000  1
  Mo  Mo8  1  0.000000  0.000000  0.000000  1
