# generated using pymatgen
data_Dy3Sc(P3Ir4)2
_symmetry_space_group_name_H-M   'P 1'
_cell_length_a   3.98652000
_cell_length_b   11.26218800
_cell_length_c   12.90710300
_cell_angle_alpha   90.00000000
_cell_angle_beta   90.00000000
_cell_angle_gamma   90.00000000
_symmetry_Int_Tables_number   1
_chemical_formula_structural   Dy3Sc(P3Ir4)2
_chemical_formula_sum   'Dy6 Sc2 P12 Ir16'
_cell_volume   579.48939935
_cell_formula_units_Z   2
loop_
 _symmetry_equiv_pos_site_id
 _symmetry_equiv_pos_as_xyz
  1  'x, y, z'
loop_
 _atom_site_type_symbol
 _atom_site_label
 _atom_site_symmetry_multiplicity
 _atom_site_fract_x
 _atom_site_fract_y
 _atom_site_fract_z
 _atom_site_occupancy
  Dy  Dy0  1  0.000000  0.500000  0.521507  1
  Dy  Dy1  1  0.500000  0.000000  0.478493  1
  Dy  Dy2  1  0.500000  0.820180  0.203342  1
  Dy  Dy3  1  0.500000  0.179820  0.203342  1
  Dy  Dy4  1  0.000000  0.679820  0.796658  1
  Dy  Dy5  1  0.000000  0.320180  0.796658  1
  Sc  Sc6  1  0.500000  0.500000  0.157770  1
  Sc  Sc7  1  0.000000  0.000000  0.842230  1
  P  P8  1  0.500000  0.500000  0.879219  1
  P  P9  1  0.000000  0.000000  0.120781  1
  P  P10  1  0.500000  0.500000  0.358178  1
  P  P11  1  0.000000  0.000000  0.641822  1
  P  P12  1  0.500000  0.312830  0.617148  1
  P  P13  1  0.500000  0.687170  0.617148  1
  P  P14  1  0.000000  0.187170  0.382852  1
  P  P15  1  0.000000  0.812830  0.382852  1
  P  P16  1  0.500000  0.843581  0.887784  1
  P  P17  1  0.500000  0.156419  0.887784  1
  P  P18  1  0.000000  0.656419  0.112216  1
  P  P19  1  0.000000  0.343581  0.112216  1
  Ir  Ir20  1  0.500000  0.500000  0.700309  1
  Ir  Ir21  1  0.000000  0.000000  0.299691  1
  Ir  Ir22  1  0.000000  0.500000  0.988842  1
  Ir  Ir23  1  0.500000  0.000000  0.011158  1
  Ir  Ir24  1  0.500000  0.330514  0.983377  1
  Ir  Ir25  1  0.500000  0.669486  0.983377  1
  Ir  Ir26  1  0.000000  0.169486  0.016623  1
  Ir  Ir27  1  0.000000  0.830514  0.016623  1
  Ir  Ir28  1  0.500000  0.291196  0.431264  1
  Ir  Ir29  1  0.500000  0.708804  0.431264  1
  Ir  Ir30  1  0.000000  0.208804  0.568736  1
  Ir  Ir31  1  0.000000  0.791196  0.568736  1
  Ir  Ir32  1  0.500000  0.872440  0.708864  1
  Ir  Ir33  1  0.500000  0.127560  0.708864  1
  Ir  Ir34  1  0.000000  0.627560  0.291136  1
  Ir  Ir35  1  0.000000  0.372440  0.291136  1
