# generated using pymatgen
data_Sc8Ta7Nb5Si15B
_symmetry_space_group_name_H-M   'P 1'
_cell_length_a   6.67380742
_cell_length_b   6.86254193
_cell_length_c   13.12568099
_cell_angle_alpha   90.01842887
_cell_angle_beta   89.95969704
_cell_angle_gamma   89.60277425
_symmetry_Int_Tables_number   1
_chemical_formula_structural   Sc8Ta7Nb5Si15B
_chemical_formula_sum   'Sc8 Ta7 Nb5 Si15 B1'
_cell_volume   601.13215317
_cell_formula_units_Z   1
loop_
 _symmetry_equiv_pos_site_id
 _symmetry_equiv_pos_as_xyz
  1  'x, y, z'
loop_
 _atom_site_type_symbol
 _atom_site_label
 _atom_site_symmetry_multiplicity
 _atom_site_fract_x
 _atom_site_fract_y
 _atom_site_fract_z
 _atom_site_occupancy
  Sc  Sc0  1  0.501531  0.668752  0.597171  1
  Sc  Sc1  1  0.003559  0.824168  0.901944  1
  Sc  Sc2  1  0.499442  0.326837  0.095054  1
  Sc  Sc3  1  0.999097  0.174835  0.405405  1
  Sc  Sc4  1  0.499109  0.326735  0.404797  1
  Sc  Sc5  1  0.999117  0.174437  0.094442  1
  Sc  Sc6  1  0.501530  0.669221  0.903083  1
  Sc  Sc7  1  0.003700  0.824126  0.598082  1
  Ta  Ta8  1  0.649851  0.188103  0.629479  1
  Ta  Ta9  1  0.171828  0.326840  0.872044  1
  Ta  Ta10  1  0.338849  0.824806  0.124275  1
  Ta  Ta11  1  0.828856  0.492408  0.750186  1
  Ta  Ta12  1  0.336663  0.007535  0.750137  1
  Ta  Ta13  1  0.163041  0.507271  0.249734  1
  Ta  Ta14  1  0.662412  0.994550  0.249965  1
  Nb  Nb15  1  0.837576  0.675772  0.375977  1
  Nb  Nb16  1  0.338441  0.825088  0.375862  1
  Nb  Nb17  1  0.837400  0.675834  0.123912  1
  Nb  Nb18  1  0.650858  0.187294  0.871288  1
  Nb  Nb19  1  0.171568  0.326163  0.627319  1
  Si  Si20  1  0.668994  0.969949  0.464014  1
  Si  Si21  1  0.170586  0.532599  0.037709  1
  Si  Si22  1  0.330027  0.030697  0.960577  1
  Si  Si23  1  0.832803  0.467585  0.540426  1
  Si  Si24  1  0.331205  0.030285  0.539711  1
  Si  Si25  1  0.833484  0.467569  0.959635  1
  Si  Si26  1  0.668657  0.969893  0.036389  1
  Si  Si27  1  0.169897  0.532476  0.461909  1
  Si  Si28  1  0.957046  0.116117  0.749688  1
  Si  Si29  1  0.541959  0.614618  0.250170  1
  Si  Si30  1  0.040952  0.886791  0.249826  1
  Si  Si31  1  0.704320  0.864112  0.749987  1
  Si  Si32  1  0.218582  0.625258  0.749991  1
  Si  Si33  1  0.294093  0.138163  0.249866  1
  Si  Si34  1  0.795965  0.361610  0.249810  1
  B  B35  1  0.447000  0.371503  0.750141  1
