# generated using pymatgen
data_Li2Tm2B12IrRh
_symmetry_space_group_name_H-M   'P 1'
_cell_length_a   3.49700600
_cell_length_b   8.79844687
_cell_length_c   11.17063164
_cell_angle_alpha   90.04048742
_cell_angle_beta   90.00000000
_cell_angle_gamma   90.00000000
_symmetry_Int_Tables_number   1
_chemical_formula_structural   Li2Tm2B12IrRh
_chemical_formula_sum   'Li4 Tm4 B24 Ir2 Rh2'
_cell_volume   343.70038273
_cell_formula_units_Z   2
loop_
 _symmetry_equiv_pos_site_id
 _symmetry_equiv_pos_as_xyz
  1  'x, y, z'
loop_
 _atom_site_type_symbol
 _atom_site_label
 _atom_site_symmetry_multiplicity
 _atom_site_fract_x
 _atom_site_fract_y
 _atom_site_fract_z
 _atom_site_occupancy
  Li  Li0  1  0.500000  0.446598  0.123413  1
  Li  Li1  1  0.500000  0.553402  0.876587  1
  Li  Li2  1  0.500000  0.054545  0.623185  1
  Li  Li3  1  0.500000  0.945455  0.376815  1
  Tm  Tm4  1  0.500000  0.316866  0.414338  1
  Tm  Tm5  1  0.500000  0.683134  0.585662  1
  Tm  Tm6  1  0.500000  0.183053  0.914455  1
  Tm  Tm7  1  0.500000  0.816947  0.085545  1
  B  B8  1  0.000000  0.091233  0.475175  1
  B  B9  1  0.000000  0.908767  0.524825  1
  B  B10  1  0.000000  0.408824  0.974931  1
  B  B11  1  0.000000  0.591176  0.025069  1
  B  B12  1  0.000000  0.124613  0.319220  1
  B  B13  1  0.000000  0.875387  0.680780  1
  B  B14  1  0.000000  0.375690  0.819285  1
  B  B15  1  0.000000  0.624310  0.180715  1
  B  B16  1  0.000000  0.055428  0.067187  1
  B  B17  1  0.000000  0.944572  0.932813  1
  B  B18  1  0.000000  0.444554  0.567293  1
  B  B19  1  0.000000  0.555446  0.432707  1
  B  B20  1  0.000000  0.479188  0.285740  1
  B  B21  1  0.000000  0.520812  0.714260  1
  B  B22  1  0.000000  0.021398  0.785346  1
  B  B23  1  0.000000  0.978602  0.214654  1
  B  B24  1  0.000000  0.258534  0.081540  1
  B  B25  1  0.000000  0.741466  0.918460  1
  B  B26  1  0.000000  0.241588  0.581732  1
  B  B27  1  0.000000  0.758412  0.418268  1
  B  B28  1  0.000000  0.293938  0.236298  1
  B  B29  1  0.000000  0.706062  0.763702  1
  B  B30  1  0.000000  0.206669  0.736138  1
  B  B31  1  0.000000  0.793331  0.263862  1
  Ir  Ir32  1  0.500000  0.140356  0.181758  1
  Ir  Ir33  1  0.500000  0.859644  0.818242  1
  Rh  Rh34  1  0.500000  0.359458  0.682021  1
  Rh  Rh35  1  0.500000  0.640542  0.317979  1
