# generated using pymatgen
data_Lu2Al3Mo
_symmetry_space_group_name_H-M   'P 1'
_cell_length_a   5.44946884
_cell_length_b   5.44946885
_cell_length_c   5.44946914
_cell_angle_alpha   60.77072371
_cell_angle_beta   60.77071643
_cell_angle_gamma   60.77073075
_symmetry_Int_Tables_number   1
_chemical_formula_structural   Lu2Al3Mo
_chemical_formula_sum   'Lu2 Al3 Mo1'
_cell_volume   116.42166771
_cell_formula_units_Z   1
loop_
 _symmetry_equiv_pos_site_id
 _symmetry_equiv_pos_as_xyz
  1  'x, y, z'
loop_
 _atom_site_type_symbol
 _atom_site_label
 _atom_site_symmetry_multiplicity
 _atom_site_fract_x
 _atom_site_fract_y
 _atom_site_fract_z
 _atom_site_occupancy
  Lu  Lu0  1  0.628197  0.628197  0.628197  1
  Lu  Lu1  1  0.371803  0.371803  0.371803  1
  Al  Al2  1  0.000000  0.500000  0.000000  1
  Al  Al3  1  0.500000  0.000000  0.000000  1
  Al  Al4  1  0.000000  0.000000  0.500000  1
  Mo  Mo5  1  0.000000  0.000000  0.000000  1
