# generated using pymatgen
data_Tm8Sc2Ga3NiBi2
_symmetry_space_group_name_H-M   'P 1'
_cell_length_a   8.41584351
_cell_length_b   8.41584402
_cell_length_c   8.58637888
_cell_angle_alpha   125.09748627
_cell_angle_beta   125.09749353
_cell_angle_gamma   80.02370380
_symmetry_Int_Tables_number   1
_chemical_formula_structural   Tm8Sc2Ga3NiBi2
_chemical_formula_sum   'Tm8 Sc2 Ga3 Ni1 Bi2'
_cell_volume   395.69066282
_cell_formula_units_Z   1
loop_
 _symmetry_equiv_pos_site_id
 _symmetry_equiv_pos_as_xyz
  1  'x, y, z'
loop_
 _atom_site_type_symbol
 _atom_site_label
 _atom_site_symmetry_multiplicity
 _atom_site_fract_x
 _atom_site_fract_y
 _atom_site_fract_z
 _atom_site_occupancy
  Tm  Tm0  1  0.778476  0.296939  0.797826  1
  Tm  Tm1  1  0.203061  0.721524  0.202174  1
  Tm  Tm2  1  0.480648  0.999111  0.202174  1
  Tm  Tm3  1  0.304406  0.457027  0.500000  1
  Tm  Tm4  1  0.042973  0.195594  0.500000  1
  Tm  Tm5  1  0.500889  0.019352  0.797826  1
  Tm  Tm6  1  0.705895  0.514385  0.500000  1
  Tm  Tm7  1  0.985615  0.794105  0.500000  1
  Sc  Sc8  1  0.992302  0.996110  0.988412  1
  Sc  Sc9  1  0.503890  0.507698  0.011588  1
  Ga  Ga10  1  0.148929  0.646838  0.795769  1
  Ga  Ga11  1  0.853162  0.351071  0.204231  1
  Ga  Ga12  1  0.637503  0.862497  0.500000  1
  Ni  Ni13  1  0.375663  0.124337  0.500000  1
  Bi  Bi14  1  0.243293  0.256707  0.000000  1
  Bi  Bi15  1  0.743293  0.756707  0.000000  1
