# generated using pymatgen
data_Pr3Sm3Ti2(Co4P3)4
_symmetry_space_group_name_H-M   'P 1'
_cell_length_a   3.74974400
_cell_length_b   10.73675866
_cell_length_c   12.45756877
_cell_angle_alpha   89.95969108
_cell_angle_beta   90.00000000
_cell_angle_gamma   90.00000000
_symmetry_Int_Tables_number   1
_chemical_formula_structural   Pr3Sm3Ti2(Co4P3)4
_chemical_formula_sum   'Pr3 Sm3 Ti2 Co16 P12'
_cell_volume   501.54279526
_cell_formula_units_Z   1
loop_
 _symmetry_equiv_pos_site_id
 _symmetry_equiv_pos_as_xyz
  1  'x, y, z'
loop_
 _atom_site_type_symbol
 _atom_site_label
 _atom_site_symmetry_multiplicity
 _atom_site_fract_x
 _atom_site_fract_y
 _atom_site_fract_z
 _atom_site_occupancy
  Pr  Pr0  1  0.000000  0.500290  0.525041  1
  Pr  Pr1  1  0.500000  0.999821  0.474564  1
  Pr  Pr2  1  0.000000  0.320166  0.795357  1
  Sm  Sm3  1  0.500000  0.819587  0.204191  1
  Sm  Sm4  1  0.500000  0.180347  0.203944  1
  Sm  Sm5  1  0.000000  0.680894  0.795978  1
  Ti  Ti6  1  0.500000  0.500060  0.150593  1
  Ti  Ti7  1  0.000000  0.999429  0.849630  1
  Co  Co8  1  0.500000  0.502377  0.705163  1
  Co  Co9  1  0.000000  0.999861  0.294148  1
  Co  Co10  1  0.000000  0.500796  0.988936  1
  Co  Co11  1  0.500000  0.999140  0.012571  1
  Co  Co12  1  0.500000  0.332470  0.995620  1
  Co  Co13  1  0.500000  0.668388  0.994903  1
  Co  Co14  1  0.000000  0.167012  0.006428  1
  Co  Co15  1  0.000000  0.832348  0.005733  1
  Co  Co16  1  0.500000  0.295652  0.430245  1
  Co  Co17  1  0.500000  0.704381  0.430933  1
  Co  Co18  1  0.000000  0.203692  0.567684  1
  Co  Co19  1  0.000000  0.795726  0.568914  1
  Co  Co20  1  0.500000  0.879600  0.708008  1
  Co  Co21  1  0.500000  0.118639  0.706828  1
  Co  Co22  1  0.000000  0.620033  0.292186  1
  Co  Co23  1  0.000000  0.379916  0.291934  1
  P  P24  1  0.500000  0.501940  0.887412  1
  P  P25  1  0.000000  0.999651  0.114209  1
  P  P26  1  0.500000  0.500022  0.347470  1
  P  P27  1  0.000000  0.999976  0.652400  1
  P  P28  1  0.500000  0.304901  0.613234  1
  P  P29  1  0.500000  0.694519  0.615731  1
  P  P30  1  0.000000  0.194019  0.383653  1
  P  P31  1  0.000000  0.805657  0.384236  1
  P  P32  1  0.500000  0.843875  0.894295  1
  P  P33  1  0.500000  0.154535  0.895841  1
  P  P34  1  0.000000  0.656394  0.106201  1
  P  P35  1  0.000000  0.343888  0.105786  1
