# generated using pymatgen
data_La6Nd2TmPt6
_symmetry_space_group_name_H-M   'P 1'
_cell_length_a   7.77390688
_cell_length_b   7.77390766
_cell_length_c   7.77390805
_cell_angle_alpha   71.84130085
_cell_angle_beta   71.84130126
_cell_angle_gamma   71.84129797
_symmetry_Int_Tables_number   1
_chemical_formula_structural   La6Nd2TmPt6
_chemical_formula_sum   'La6 Nd2 Tm1 Pt6'
_cell_volume   412.02806098
_cell_formula_units_Z   1
loop_
 _symmetry_equiv_pos_site_id
 _symmetry_equiv_pos_as_xyz
  1  'x, y, z'
loop_
 _atom_site_type_symbol
 _atom_site_label
 _atom_site_symmetry_multiplicity
 _atom_site_fract_x
 _atom_site_fract_y
 _atom_site_fract_z
 _atom_site_occupancy
  La  La0  1  0.326165  0.610834  0.838222  1
  La  La1  1  0.838222  0.326165  0.610834  1
  La  La2  1  0.610834  0.838222  0.326165  1
  La  La3  1  0.673835  0.389166  0.161778  1
  La  La4  1  0.161778  0.673835  0.389166  1
  La  La5  1  0.389166  0.161778  0.673835  1
  Nd  Nd6  1  0.801772  0.801772  0.801772  1
  Nd  Nd7  1  0.198228  0.198228  0.198228  1
  Tm  Tm8  1  0.000000  0.000000  0.000000  1
  Pt  Pt9  1  0.159867  0.960908  0.597314  1
  Pt  Pt10  1  0.597314  0.159867  0.960908  1
  Pt  Pt11  1  0.960908  0.597314  0.159867  1
  Pt  Pt12  1  0.840133  0.039092  0.402686  1
  Pt  Pt13  1  0.402686  0.840133  0.039092  1
  Pt  Pt14  1  0.039092  0.402686  0.840133  1
