# generated using pymatgen
data_TiNb11Ga8(CoC)4
_symmetry_space_group_name_H-M   'P 1'
_cell_length_a   8.23232496
_cell_length_b   8.21007718
_cell_length_c   8.23232478
_cell_angle_alpha   60.08936281
_cell_angle_beta   59.97089794
_cell_angle_gamma   60.08935679
_symmetry_Int_Tables_number   1
_chemical_formula_structural   TiNb11Ga8(CoC)4
_chemical_formula_sum   'Ti1 Nb11 Ga8 Co4 C4'
_cell_volume   393.88246570
_cell_formula_units_Z   1
loop_
 _symmetry_equiv_pos_site_id
 _symmetry_equiv_pos_as_xyz
  1  'x, y, z'
loop_
 _atom_site_type_symbol
 _atom_site_label
 _atom_site_symmetry_multiplicity
 _atom_site_fract_x
 _atom_site_fract_y
 _atom_site_fract_z
 _atom_site_occupancy
  Ti  Ti0  1  0.689572  0.310428  0.689572  1
  Nb  Nb1  1  0.939352  0.558017  0.560321  1
  Nb  Nb2  1  0.560321  0.942310  0.939352  1
  Nb  Nb3  1  0.942012  0.557988  0.942012  1
  Nb  Nb4  1  0.560321  0.558017  0.939352  1
  Nb  Nb5  1  0.939352  0.942310  0.560321  1
  Nb  Nb6  1  0.689400  0.693092  0.309698  1
  Nb  Nb7  1  0.309698  0.693092  0.689400  1
  Nb  Nb8  1  0.689400  0.307811  0.309698  1
  Nb  Nb9  1  0.309698  0.307811  0.689400  1
  Nb  Nb10  1  0.559965  0.940035  0.559965  1
  Nb  Nb11  1  0.309709  0.690291  0.309709  1
  Ga  Ga12  1  0.332746  0.333289  0.332746  1
  Ga  Ga13  1  0.250609  0.916274  0.916841  1
  Ga  Ga14  1  0.916489  0.249392  0.916489  1
  Ga  Ga15  1  0.916841  0.916274  0.250609  1
  Ga  Ga16  1  0.332746  0.001220  0.332746  1
  Ga  Ga17  1  0.336125  0.333397  0.997082  1
  Ga  Ga18  1  0.997082  0.333397  0.336125  1
  Ga  Ga19  1  0.916489  0.917629  0.916489  1
  Co  Co20  1  0.124856  0.126116  0.124856  1
  Co  Co21  1  0.625282  0.125050  0.124617  1
  Co  Co22  1  0.124856  0.624171  0.124856  1
  Co  Co23  1  0.124617  0.125050  0.625282  1
  C  C24  1  0.625977  0.619387  0.625977  1
  C  C25  1  0.124577  0.624747  0.625929  1
  C  C26  1  0.625977  0.128659  0.625977  1
  C  C27  1  0.625929  0.624747  0.124577  1
