# generated using pymatgen
data_TbY6CoI12
_symmetry_space_group_name_H-M   'P 1'
_cell_length_a   9.76361982
_cell_length_b   9.76503304
_cell_length_c   9.76631054
_cell_angle_alpha   106.86328585
_cell_angle_beta   106.88471958
_cell_angle_gamma   106.87200324
_symmetry_Int_Tables_number   1
_chemical_formula_structural   TbY6CoI12
_chemical_formula_sum   'Tb1 Y6 Co1 I12'
_cell_volume   778.12636757
_cell_formula_units_Z   1
loop_
 _symmetry_equiv_pos_site_id
 _symmetry_equiv_pos_as_xyz
  1  'x, y, z'
loop_
 _atom_site_type_symbol
 _atom_site_label
 _atom_site_symmetry_multiplicity
 _atom_site_fract_x
 _atom_site_fract_y
 _atom_site_fract_z
 _atom_site_occupancy
  Tb  Tb0  1  0.711334  0.977660  0.907609  1
  Y  Y1  1  0.500029  0.500030  0.500028  1
  Y  Y2  1  0.022430  0.092290  0.288792  1
  Y  Y3  1  0.092433  0.288753  0.022342  1
  Y  Y4  1  0.288575  0.022317  0.092204  1
  Y  Y5  1  0.977828  0.907714  0.711257  1
  Y  Y6  1  0.907761  0.711265  0.977723  1
  Co  Co7  1  0.999728  0.000017  0.999955  1
  I  I8  1  0.160865  0.463736  0.386661  1
  I  I9  1  0.463747  0.386665  0.160881  1
  I  I10  1  0.386673  0.160867  0.463740  1
  I  I11  1  0.839169  0.536255  0.613345  1
  I  I12  1  0.536238  0.613182  0.839062  1
  I  I13  1  0.613316  0.838984  0.536079  1
  I  I14  1  0.678067  0.071971  0.225376  1
  I  I15  1  0.071883  0.225102  0.678030  1
  I  I16  1  0.225110  0.678006  0.071885  1
  I  I17  1  0.321694  0.928092  0.774877  1
  I  I18  1  0.928136  0.774918  0.321983  1
  I  I19  1  0.774985  0.322176  0.928171  1
