# generated using pymatgen
data_Li4Ta5(NbN4)3
_symmetry_space_group_name_H-M   'P 1'
_cell_length_a   5.24663000
_cell_length_b   5.24626409
_cell_length_c   10.33477800
_cell_angle_alpha   90.00000000
_cell_angle_beta   90.00000000
_cell_angle_gamma   119.99769522
_symmetry_Int_Tables_number   1
_chemical_formula_structural   Li4Ta5(NbN4)3
_chemical_formula_sum   'Li4 Ta5 Nb3 N12'
_cell_volume   246.36128262
_cell_formula_units_Z   1
loop_
 _symmetry_equiv_pos_site_id
 _symmetry_equiv_pos_as_xyz
  1  'x, y, z'
loop_
 _atom_site_type_symbol
 _atom_site_label
 _atom_site_symmetry_multiplicity
 _atom_site_fract_x
 _atom_site_fract_y
 _atom_site_fract_z
 _atom_site_occupancy
  Li  Li0  1  0.333347  0.666545  0.999884  1
  Li  Li1  1  0.333347  0.666545  0.500116  1
  Li  Li2  1  0.666653  0.333197  0.500116  1
  Li  Li3  1  0.666653  0.333197  0.999884  1
  Ta  Ta4  1  0.000000  0.002113  0.500407  1
  Ta  Ta5  1  0.000000  0.002113  0.999593  1
  Ta  Ta6  1  0.648209  0.647299  0.250000  1
  Ta  Ta7  1  0.351791  0.999090  0.250000  1
  Ta  Ta8  1  0.000000  0.648215  0.750000  1
  Nb  Nb9  1  0.000000  0.351622  0.250000  1
  Nb  Nb10  1  0.648338  0.999107  0.750000  1
  Nb  Nb11  1  0.351662  0.350769  0.750000  1
  N  N12  1  0.682550  0.678734  0.623840  1
  N  N13  1  0.682550  0.678734  0.876160  1
  N  N14  1  0.325153  0.321222  0.124013  1
  N  N15  1  0.325153  0.321222  0.375987  1
  N  N16  1  0.317450  0.996184  0.876160  1
  N  N17  1  0.317450  0.996184  0.623840  1
  N  N18  1  0.000000  0.682755  0.375284  1
  N  N19  1  0.000000  0.682755  0.124716  1
  N  N20  1  0.674847  0.996068  0.124013  1
  N  N21  1  0.674847  0.996068  0.375987  1
  N  N22  1  0.000000  0.325132  0.876848  1
  N  N23  1  0.000000  0.325132  0.623152  1
