# generated using pymatgen
data_Er3Ga2Ag3Sb
_symmetry_space_group_name_H-M   'P 1'
_cell_length_a   7.34697200
_cell_length_b   7.34697203
_cell_length_c   4.24431900
_cell_angle_alpha   90.00000000
_cell_angle_beta   90.00000000
_cell_angle_gamma   119.99999088
_symmetry_Int_Tables_number   1
_chemical_formula_structural   Er3Ga2Ag3Sb
_chemical_formula_sum   'Er3 Ga2 Ag3 Sb1'
_cell_volume   198.40630095
_cell_formula_units_Z   1
loop_
 _symmetry_equiv_pos_site_id
 _symmetry_equiv_pos_as_xyz
  1  'x, y, z'
loop_
 _atom_site_type_symbol
 _atom_site_label
 _atom_site_symmetry_multiplicity
 _atom_site_fract_x
 _atom_site_fract_y
 _atom_site_fract_z
 _atom_site_occupancy
  Er  Er0  1  0.408797  0.983904  0.500000  1
  Er  Er1  1  0.016096  0.424892  0.500000  1
  Er  Er2  1  0.575108  0.591203  0.500000  1
  Ga  Ga3  1  0.333333  0.666667  0.000000  1
  Ga  Ga4  1  0.000000  0.000000  0.500000  1
  Ag  Ag5  1  0.747580  0.983858  0.000000  1
  Ag  Ag6  1  0.016142  0.763723  0.000000  1
  Ag  Ag7  1  0.236277  0.252420  0.000000  1
  Sb  Sb8  1  0.666667  0.333333  0.000000  1
