# generated using pymatgen
data_Sr3Ac5(YbSi4)2
_symmetry_space_group_name_H-M   'P 1'
_cell_length_a   7.95208500
_cell_length_b   8.40151069
_cell_length_c   16.01601731
_cell_angle_alpha   90.07318454
_cell_angle_beta   90.00000000
_cell_angle_gamma   90.00000000
_symmetry_Int_Tables_number   1
_chemical_formula_structural   Sr3Ac5(YbSi4)2
_chemical_formula_sum   'Sr6 Ac10 Yb4 Si16'
_cell_volume   1070.02167027
_cell_formula_units_Z   2
loop_
 _symmetry_equiv_pos_site_id
 _symmetry_equiv_pos_as_xyz
  1  'x, y, z'
loop_
 _atom_site_type_symbol
 _atom_site_label
 _atom_site_symmetry_multiplicity
 _atom_site_fract_x
 _atom_site_fract_y
 _atom_site_fract_z
 _atom_site_occupancy
  Sr  Sr0  1  0.313091  0.183193  0.124628  1
  Sr  Sr1  1  0.813091  0.316807  0.375372  1
  Sr  Sr2  1  0.187289  0.682164  0.877787  1
  Sr  Sr3  1  0.687289  0.817836  0.622213  1
  Sr  Sr4  1  0.313710  0.183260  0.375677  1
  Sr  Sr5  1  0.813710  0.316740  0.124323  1
  Ac  Ac6  1  0.186715  0.683397  0.625716  1
  Ac  Ac7  1  0.686715  0.816603  0.874284  1
  Ac  Ac8  1  0.960003  0.811416  0.399274  1
  Ac  Ac9  1  0.460003  0.688584  0.100726  1
  Ac  Ac10  1  0.540057  0.309746  0.599621  1
  Ac  Ac11  1  0.040057  0.190254  0.900379  1
  Ac  Ac12  1  0.039150  0.188848  0.599706  1
  Ac  Ac13  1  0.539150  0.311152  0.900294  1
  Ac  Ac14  1  0.460537  0.689750  0.399364  1
  Ac  Ac15  1  0.960537  0.810250  0.100636  1
  Yb  Yb16  1  0.359858  0.015552  0.750736  1
  Yb  Yb17  1  0.859858  0.484448  0.749264  1
  Yb  Yb18  1  0.139667  0.510539  0.249837  1
  Yb  Yb19  1  0.639667  0.989461  0.250163  1
  Si  Si20  1  0.866980  0.521923  0.539164  1
  Si  Si21  1  0.366980  0.978077  0.960836  1
  Si  Si22  1  0.633464  0.023588  0.460545  1
  Si  Si23  1  0.133464  0.476412  0.039455  1
  Si  Si24  1  0.134203  0.478851  0.461694  1
  Si  Si25  1  0.634203  0.021149  0.038306  1
  Si  Si26  1  0.366560  0.974201  0.538486  1
  Si  Si27  1  0.866560  0.525799  0.961514  1
  Si  Si28  1  0.981461  0.919714  0.748517  1
  Si  Si29  1  0.481461  0.580286  0.751483  1
  Si  Si30  1  0.518662  0.419990  0.249875  1
  Si  Si31  1  0.018662  0.080010  0.250125  1
  Si  Si32  1  0.255022  0.376072  0.749150  1
  Si  Si33  1  0.755022  0.123928  0.750850  1
  Si  Si34  1  0.243573  0.874452  0.250005  1
  Si  Si35  1  0.743573  0.625548  0.249995  1
