# generated using pymatgen
data_Dy3Lu2Pb3S
_symmetry_space_group_name_H-M   'P 1'
_cell_length_a   9.11019100
_cell_length_b   9.11019002
_cell_length_c   6.64643400
_cell_angle_alpha   90.00000000
_cell_angle_beta   90.00000000
_cell_angle_gamma   119.99999992
_symmetry_Int_Tables_number   1
_chemical_formula_structural   Dy3Lu2Pb3S
_chemical_formula_sum   'Dy6 Lu4 Pb6 S2'
_cell_volume   477.72090522
_cell_formula_units_Z   2
loop_
 _symmetry_equiv_pos_site_id
 _symmetry_equiv_pos_as_xyz
  1  'x, y, z'
loop_
 _atom_site_type_symbol
 _atom_site_label
 _atom_site_symmetry_multiplicity
 _atom_site_fract_x
 _atom_site_fract_y
 _atom_site_fract_z
 _atom_site_occupancy
  Dy  Dy0  1  0.755840  0.755840  0.750000  1
  Dy  Dy1  1  0.244160  0.000000  0.750000  1
  Dy  Dy2  1  0.000000  0.244160  0.750000  1
  Dy  Dy3  1  0.244160  0.244160  0.250000  1
  Dy  Dy4  1  0.755840  0.000000  0.250000  1
  Dy  Dy5  1  0.000000  0.755840  0.250000  1
  Lu  Lu6  1  0.666667  0.333333  0.000000  1
  Lu  Lu7  1  0.333333  0.666667  0.000000  1
  Lu  Lu8  1  0.333333  0.666667  0.500000  1
  Lu  Lu9  1  0.666667  0.333333  0.500000  1
  Pb  Pb10  1  0.398491  0.398491  0.750000  1
  Pb  Pb11  1  0.601509  0.000000  0.750000  1
  Pb  Pb12  1  0.000000  0.601509  0.750000  1
  Pb  Pb13  1  0.601509  0.601509  0.250000  1
  Pb  Pb14  1  0.398491  0.000000  0.250000  1
  Pb  Pb15  1  0.000000  0.398491  0.250000  1
  S  S16  1  0.000000  0.000000  0.000000  1
  S  S17  1  0.000000  0.000000  0.500000  1
