# generated using pymatgen
data_Sm3PtBr3
_symmetry_space_group_name_H-M   'P 1'
_cell_length_a   10.41786670
_cell_length_b   10.41786725
_cell_length_c   10.41786700
_cell_angle_alpha   109.47121820
_cell_angle_beta   109.47121928
_cell_angle_gamma   109.47122367
_symmetry_Int_Tables_number   1
_chemical_formula_structural   Sm3PtBr3
_chemical_formula_sum   'Sm12 Pt4 Br12'
_cell_volume   870.39129193
_cell_formula_units_Z   4
loop_
 _symmetry_equiv_pos_site_id
 _symmetry_equiv_pos_as_xyz
  1  'x, y, z'
loop_
 _atom_site_type_symbol
 _atom_site_label
 _atom_site_symmetry_multiplicity
 _atom_site_fract_x
 _atom_site_fract_y
 _atom_site_fract_z
 _atom_site_occupancy
  Sm  Sm0  1  0.468782  0.484391  0.234391  1
  Sm  Sm1  1  0.750000  0.234391  0.265609  1
  Sm  Sm2  1  0.750000  0.015609  0.484391  1
  Sm  Sm3  1  0.234391  0.468782  0.484391  1
  Sm  Sm4  1  0.265609  0.750000  0.234391  1
  Sm  Sm5  1  0.031218  0.265609  0.015609  1
  Sm  Sm6  1  0.015609  0.031218  0.265609  1
  Sm  Sm7  1  0.484391  0.750000  0.015609  1
  Sm  Sm8  1  0.484391  0.234391  0.468782  1
  Sm  Sm9  1  0.015609  0.484391  0.750000  1
  Sm  Sm10  1  0.265609  0.015609  0.031218  1
  Sm  Sm11  1  0.234391  0.265609  0.750000  1
  Pt  Pt12  1  0.250000  0.250000  0.250000  1
  Pt  Pt13  1  0.500000  0.000000  0.250000  1
  Pt  Pt14  1  0.000000  0.250000  0.500000  1
  Pt  Pt15  1  0.250000  0.500000  0.000000  1
  Br  Br16  1  0.250000  0.754673  0.745327  1
  Br  Br17  1  0.509346  0.504673  0.754673  1
  Br  Br18  1  0.990654  0.745327  0.995327  1
  Br  Br19  1  0.745327  0.250000  0.754673  1
  Br  Br20  1  0.995327  0.990654  0.745327  1
  Br  Br21  1  0.250000  0.995327  0.504673  1
  Br  Br22  1  0.754673  0.509346  0.504673  1
  Br  Br23  1  0.504673  0.250000  0.995327  1
  Br  Br24  1  0.754673  0.745327  0.250000  1
  Br  Br25  1  0.745327  0.995327  0.990654  1
  Br  Br26  1  0.995327  0.504673  0.250000  1
  Br  Br27  1  0.504673  0.754673  0.509346  1
