# generated using pymatgen
data_Tb9Er(CoPt2)2
_symmetry_space_group_name_H-M   'P 1'
_cell_length_a   11.11090000
_cell_length_b   11.11090000
_cell_length_c   6.36007200
_cell_angle_alpha   90.00000000
_cell_angle_beta   90.00000000
_cell_angle_gamma   90.00000000
_symmetry_Int_Tables_number   1
_chemical_formula_structural   Tb9Er(CoPt2)2
_chemical_formula_sum   'Tb18 Er2 Co4 Pt8'
_cell_volume   785.16423698
_cell_formula_units_Z   2
loop_
 _symmetry_equiv_pos_site_id
 _symmetry_equiv_pos_as_xyz
  1  'x, y, z'
loop_
 _atom_site_type_symbol
 _atom_site_label
 _atom_site_symmetry_multiplicity
 _atom_site_fract_x
 _atom_site_fract_y
 _atom_site_fract_z
 _atom_site_occupancy
  Tb  Tb0  1  0.297680  0.086204  0.374579  1
  Tb  Tb1  1  0.297680  0.913796  0.874579  1
  Tb  Tb2  1  0.702320  0.086204  0.874579  1
  Tb  Tb3  1  0.702320  0.913796  0.374579  1
  Tb  Tb4  1  0.586375  0.798545  0.873952  1
  Tb  Tb5  1  0.586375  0.201455  0.373952  1
  Tb  Tb6  1  0.413625  0.798545  0.373952  1
  Tb  Tb7  1  0.413625  0.201455  0.873952  1
  Tb  Tb8  1  0.201455  0.413625  0.626048  1
  Tb  Tb9  1  0.201455  0.586375  0.126048  1
  Tb  Tb10  1  0.798545  0.413625  0.126048  1
  Tb  Tb11  1  0.798545  0.586375  0.626048  1
  Tb  Tb12  1  0.913796  0.702320  0.125421  1
  Tb  Tb13  1  0.913796  0.297680  0.625421  1
  Tb  Tb14  1  0.086204  0.702320  0.625421  1
  Tb  Tb15  1  0.086204  0.297680  0.125421  1
  Tb  Tb16  1  0.500000  0.500000  0.000000  1
  Tb  Tb17  1  0.500000  0.500000  0.500000  1
  Er  Er18  1  0.000000  0.000000  0.500000  1
  Er  Er19  1  0.000000  0.000000  0.000000  1
  Co  Co20  1  0.500000  0.000000  0.119060  1
  Co  Co21  1  0.500000  0.000000  0.619060  1
  Co  Co22  1  0.000000  0.500000  0.880940  1
  Co  Co23  1  0.000000  0.500000  0.380940  1
  Pt  Pt24  1  0.848199  0.151801  0.250000  1
  Pt  Pt25  1  0.848199  0.848199  0.750000  1
  Pt  Pt26  1  0.151801  0.151801  0.750000  1
  Pt  Pt27  1  0.151801  0.848199  0.250000  1
  Pt  Pt28  1  0.654119  0.345881  0.750000  1
  Pt  Pt29  1  0.654119  0.654119  0.250000  1
  Pt  Pt30  1  0.345881  0.345881  0.250000  1
  Pt  Pt31  1  0.345881  0.654119  0.750000  1
