# generated using pymatgen
data_K2SmU(CuSe3)2
_symmetry_space_group_name_H-M   'P 1'
_cell_length_a   4.15042000
_cell_length_b   7.62920287
_cell_length_c   10.72925802
_cell_angle_alpha   89.98910386
_cell_angle_beta   90.00000000
_cell_angle_gamma   74.21616530
_symmetry_Int_Tables_number   1
_chemical_formula_structural   K2SmU(CuSe3)2
_chemical_formula_sum   'K2 Sm1 U1 Cu2 Se6'
_cell_volume   326.92566801
_cell_formula_units_Z   1
loop_
 _symmetry_equiv_pos_site_id
 _symmetry_equiv_pos_as_xyz
  1  'x, y, z'
loop_
 _atom_site_type_symbol
 _atom_site_label
 _atom_site_symmetry_multiplicity
 _atom_site_fract_x
 _atom_site_fract_y
 _atom_site_fract_z
 _atom_site_occupancy
  K  K0  1  0.254233  0.491536  0.232807  1
  K  K1  1  0.745768  0.508465  0.767193  1
  Sm  Sm2  1  0.000000  0.000000  0.000000  1
  U  U3  1  0.000000  0.000000  0.500000  1
  Cu  Cu4  1  0.533407  0.933187  0.253119  1
  Cu  Cu5  1  0.466594  0.066812  0.746881  1
  Se  Se6  1  0.628983  0.742035  0.068456  1
  Se  Se7  1  0.934737  0.130525  0.261549  1
  Se  Se8  1  0.623104  0.753794  0.443390  1
  Se  Se9  1  0.376897  0.246206  0.556611  1
  Se  Se10  1  0.065264  0.869474  0.738451  1
  Se  Se11  1  0.371018  0.257965  0.931544  1
