# generated using pymatgen
data_Rb2FeP2O7
_symmetry_space_group_name_H-M   'P 1'
_cell_length_a   5.93179800
_cell_length_b   8.26237400
_cell_length_c   8.26237400
_cell_angle_alpha   90.00000000
_cell_angle_beta   90.00000000
_cell_angle_gamma   90.00000000
_symmetry_Int_Tables_number   1
_chemical_formula_structural   Rb2FeP2O7
_chemical_formula_sum   'Rb4 Fe2 P4 O14'
_cell_volume   404.94501076
_cell_formula_units_Z   2
loop_
 _symmetry_equiv_pos_site_id
 _symmetry_equiv_pos_as_xyz
  1  'x, y, z'
loop_
 _atom_site_type_symbol
 _atom_site_label
 _atom_site_symmetry_multiplicity
 _atom_site_fract_x
 _atom_site_fract_y
 _atom_site_fract_z
 _atom_site_occupancy
  Rb  Rb0  1  0.511153  0.334382  0.165618  1
  Rb  Rb1  1  0.488850  0.834381  0.334382  1
  Rb  Rb2  1  0.488850  0.165618  0.665619  1
  Rb  Rb3  1  0.511153  0.665619  0.834381  1
  Fe  Fe4  1  0.000000  0.000000  0.000000  1
  Fe  Fe5  1  0.000000  0.500001  0.500001  1
  P  P6  1  0.033917  0.632874  0.132873  1
  P  P7  1  0.966084  0.132873  0.367127  1
  P  P8  1  0.966084  0.867127  0.632874  1
  P  P9  1  0.033917  0.367127  0.867127  1
  O  O10  1  0.124849  0.500001  0.000000  1
  O  O11  1  0.149111  0.791181  0.075454  1
  O  O12  1  0.779440  0.636113  0.136114  1
  O  O13  1  0.850890  0.075454  0.208819  1
  O  O14  1  0.149111  0.575453  0.291180  1
  O  O15  1  0.220559  0.136114  0.363887  1
  O  O16  1  0.850890  0.291180  0.424547  1
  O  O17  1  0.875152  0.000000  0.500001  1
  O  O18  1  0.850890  0.708820  0.575453  1
  O  O19  1  0.220559  0.863886  0.636113  1
  O  O20  1  0.149111  0.424547  0.708820  1
  O  O21  1  0.850890  0.924545  0.791181  1
  O  O22  1  0.779440  0.363887  0.863886  1
  O  O23  1  0.149111  0.208819  0.924545  1
