# generated using pymatgen
data_Y3ErAl17GaIr6
_symmetry_space_group_name_H-M   'P 1'
_cell_length_a   7.54575753
_cell_length_b   7.54429201
_cell_length_c   9.51740900
_cell_angle_alpha   90.00000000
_cell_angle_beta   90.00000000
_cell_angle_gamma   119.45788382
_symmetry_Int_Tables_number   1
_chemical_formula_structural   Y3ErAl17GaIr6
_chemical_formula_sum   'Y3 Er1 Al17 Ga1 Ir6'
_cell_volume   471.75586097
_cell_formula_units_Z   1
loop_
 _symmetry_equiv_pos_site_id
 _symmetry_equiv_pos_as_xyz
  1  'x, y, z'
loop_
 _atom_site_type_symbol
 _atom_site_label
 _atom_site_symmetry_multiplicity
 _atom_site_fract_x
 _atom_site_fract_y
 _atom_site_fract_z
 _atom_site_occupancy
  Y  Y0  1  0.993355  0.674479  0.250000  1
  Y  Y1  1  0.674386  0.993335  0.250000  1
  Y  Y2  1  0.327903  0.005416  0.750000  1
  Er  Er3  1  0.005309  0.327664  0.750000  1
  Al  Al4  1  0.869676  0.870120  0.750000  1
  Al  Al5  1  0.001329  0.335786  0.072786  1
  Al  Al6  1  0.998536  0.663920  0.925609  1
  Al  Al7  1  0.998536  0.663920  0.574391  1
  Al  Al8  1  0.335809  0.001355  0.426740  1
  Al  Al9  1  0.001329  0.335786  0.427214  1
  Al  Al10  1  0.664797  0.998960  0.574355  1
  Al  Al11  1  0.664797  0.998960  0.925645  1
  Al  Al12  1  0.335809  0.001355  0.073260  1
  Al  Al13  1  0.332780  0.333162  0.554110  1
  Al  Al14  1  0.665820  0.665830  0.449327  1
  Al  Al15  1  0.665820  0.665830  0.050673  1
  Al  Al16  1  0.332780  0.333162  0.945890  1
  Al  Al17  1  0.338656  0.549237  0.250000  1
  Al  Al18  1  0.661098  0.451579  0.750000  1
  Al  Al19  1  0.549315  0.338739  0.250000  1
  Al  Al20  1  0.451043  0.660065  0.750000  1
  Ga  Ga21  1  0.135223  0.135244  0.250000  1
  Ir  Ir22  1  0.671242  0.327647  0.999968  1
  Ir  Ir23  1  0.327444  0.670815  0.999975  1
  Ir  Ir24  1  0.327444  0.670815  0.500025  1
  Ir  Ir25  1  0.671242  0.327647  0.500032  1
  Ir  Ir26  1  0.999263  0.999587  0.997356  1
  Ir  Ir27  1  0.999263  0.999587  0.502644  1
