# generated using pymatgen
data_ErAgRh2O7
_symmetry_space_group_name_H-M   'P 1'
_cell_length_a   7.33301390
_cell_length_b   7.17740956
_cell_length_c   7.17740988
_cell_angle_alpha   59.28615407
_cell_angle_beta   59.28022069
_cell_angle_gamma   59.28022282
_symmetry_Int_Tables_number   1
_chemical_formula_structural   ErAgRh2O7
_chemical_formula_sum   'Er2 Ag2 Rh4 O14'
_cell_volume   262.75155353
_cell_formula_units_Z   2
loop_
 _symmetry_equiv_pos_site_id
 _symmetry_equiv_pos_as_xyz
  1  'x, y, z'
loop_
 _atom_site_type_symbol
 _atom_site_label
 _atom_site_symmetry_multiplicity
 _atom_site_fract_x
 _atom_site_fract_y
 _atom_site_fract_z
 _atom_site_occupancy
  Er  Er0  1  0.625000  0.625000  0.625000  1
  Er  Er1  1  0.125000  0.625000  0.625000  1
  Ag  Ag2  1  0.625000  0.625000  0.125000  1
  Ag  Ag3  1  0.625000  0.125000  0.625000  1
  Rh  Rh4  1  0.625000  0.125000  0.125000  1
  Rh  Rh5  1  0.125000  0.125000  0.125000  1
  Rh  Rh6  1  0.125000  0.625000  0.125000  1
  Rh  Rh7  1  0.125000  0.125000  0.625000  1
  O  O8  1  0.033398  0.466602  0.466602  1
  O  O9  1  0.797397  0.792751  0.216172  1
  O  O10  1  0.799524  0.200476  0.200476  1
  O  O11  1  0.742006  0.757994  0.757994  1
  O  O12  1  0.056318  0.457249  0.033828  1
  O  O13  1  0.452603  0.033828  0.457249  1
  O  O14  1  0.056318  0.033828  0.457249  1
  O  O15  1  0.507994  0.492006  0.492006  1
  O  O16  1  0.193682  0.216172  0.792751  1
  O  O17  1  0.193682  0.792751  0.216172  1
  O  O18  1  0.797397  0.216172  0.792751  1
  O  O19  1  0.450476  0.049524  0.049524  1
  O  O20  1  0.452603  0.457249  0.033828  1
  O  O21  1  0.216602  0.783398  0.783398  1
