# generated using pymatgen
data_Be3Nb16VTe16
_symmetry_space_group_name_H-M   'P 1'
_cell_length_a   4.82147800
_cell_length_b   11.07811445
_cell_length_c   19.25614305
_cell_angle_alpha   89.86321617
_cell_angle_beta   90.00000000
_cell_angle_gamma   90.00000000
_symmetry_Int_Tables_number   1
_chemical_formula_structural   Be3Nb16VTe16
_chemical_formula_sum   'Be3 Nb16 V1 Te16'
_cell_volume   1028.52322476
_cell_formula_units_Z   1
loop_
 _symmetry_equiv_pos_site_id
 _symmetry_equiv_pos_as_xyz
  1  'x, y, z'
loop_
 _atom_site_type_symbol
 _atom_site_label
 _atom_site_symmetry_multiplicity
 _atom_site_fract_x
 _atom_site_fract_y
 _atom_site_fract_z
 _atom_site_occupancy
  Be  Be0  1  0.241903  0.500000  0.500000  1
  Be  Be1  1  0.750252  0.000000  0.000000  1
  Be  Be2  1  0.757673  0.500000  0.500000  1
  Nb  Nb3  1  0.501187  0.560170  0.388798  1
  Nb  Nb4  1  0.501187  0.439830  0.611202  1
  Nb  Nb5  1  0.505167  0.063182  0.116008  1
  Nb  Nb6  1  0.505167  0.936818  0.883992  1
  Nb  Nb7  1  0.498233  0.693873  0.534548  1
  Nb  Nb8  1  0.498233  0.306127  0.465452  1
  Nb  Nb9  1  0.506267  0.202820  0.963590  1
  Nb  Nb10  1  0.506267  0.797180  0.036410  1
  Nb  Nb11  1  0.003142  0.684252  0.443751  1
  Nb  Nb12  1  0.003142  0.315748  0.556249  1
  Nb  Nb13  1  0.993887  0.188017  0.056511  1
  Nb  Nb14  1  0.993887  0.811983  0.943489  1
  Nb  Nb15  1  0.996704  0.403505  0.394259  1
  Nb  Nb16  1  0.996704  0.596495  0.605741  1
  Nb  Nb17  1  0.995559  0.901437  0.107700  1
  Nb  Nb18  1  0.995559  0.098563  0.892300  1
  V  V19  1  0.250237  0.000000  0.000000  1
  Te  Te20  1  0.998481  0.840782  0.560336  1
  Te  Te21  1  0.998481  0.159218  0.439664  1
  Te  Te22  1  0.005197  0.345010  0.937871  1
  Te  Te23  1  0.005197  0.654990  0.062129  1
  Te  Te24  1  0.498642  0.334477  0.318308  1
  Te  Te25  1  0.498642  0.665523  0.681692  1
  Te  Te26  1  0.497994  0.832866  0.183620  1
  Te  Te27  1  0.497994  0.167134  0.816380  1
  Te  Te28  1  0.501272  0.816139  0.404002  1
  Te  Te29  1  0.501272  0.183861  0.595998  1
  Te  Te30  1  0.495012  0.319924  0.096206  1
  Te  Te31  1  0.495012  0.680076  0.903794  1
  Te  Te32  1  0.000540  0.605898  0.303787  1
  Te  Te33  1  0.000540  0.394102  0.696213  1
  Te  Te34  1  0.002680  0.106766  0.197653  1
  Te  Te35  1  0.002680  0.893234  0.802347  1
