# generated using pymatgen
data_YbPtCl6
_symmetry_space_group_name_H-M   'P 1'
_cell_length_a   6.57919669
_cell_length_b   6.57914907
_cell_length_c   6.55806282
_cell_angle_alpha   89.97432002
_cell_angle_beta   89.97434809
_cell_angle_gamma   119.99434600
_symmetry_Int_Tables_number   1
_chemical_formula_structural   YbPtCl6
_chemical_formula_sum   'Yb1 Pt1 Cl6'
_cell_volume   245.85178590
_cell_formula_units_Z   1
loop_
 _symmetry_equiv_pos_site_id
 _symmetry_equiv_pos_as_xyz
  1  'x, y, z'
loop_
 _atom_site_type_symbol
 _atom_site_label
 _atom_site_symmetry_multiplicity
 _atom_site_fract_x
 _atom_site_fract_y
 _atom_site_fract_z
 _atom_site_occupancy
  Yb  Yb0  1  0.666685  0.333312  0.999998  1
  Pt  Pt1  1  0.333354  0.666648  0.000001  1
  Cl  Cl2  1  0.621097  0.664653  0.212841  1
  Cl  Cl3  1  0.043446  0.378712  0.212975  1
  Cl  Cl4  1  0.335016  0.956230  0.212853  1
  Cl  Cl5  1  0.621287  0.956556  0.787025  1
  Cl  Cl6  1  0.043772  0.664985  0.787150  1
  Cl  Cl7  1  0.335346  0.378905  0.787155  1
