# generated using pymatgen
data_Ho2Lu6Cd2IrRu
_symmetry_space_group_name_H-M   'P 1'
_cell_length_a   9.47832630
_cell_length_b   9.47277908
_cell_length_c   9.51502863
_cell_angle_alpha   59.89098428
_cell_angle_beta   59.83320205
_cell_angle_gamma   59.70231683
_symmetry_Int_Tables_number   1
_chemical_formula_structural   Ho2Lu6Cd2IrRu
_chemical_formula_sum   'Ho4 Lu12 Cd4 Ir2 Ru2'
_cell_volume   601.46866853
_cell_formula_units_Z   2
loop_
 _symmetry_equiv_pos_site_id
 _symmetry_equiv_pos_as_xyz
  1  'x, y, z'
loop_
 _atom_site_type_symbol
 _atom_site_label
 _atom_site_symmetry_multiplicity
 _atom_site_fract_x
 _atom_site_fract_y
 _atom_site_fract_z
 _atom_site_occupancy
  Ho  Ho0  1  0.809348  0.188722  0.812996  1
  Ho  Ho1  1  0.188722  0.809348  0.188935  1
  Ho  Ho2  1  0.810934  0.810934  0.189066  1
  Ho  Ho3  1  0.189006  0.189006  0.810994  1
  Lu  Lu4  1  0.597976  0.598388  0.598308  1
  Lu  Lu5  1  0.598388  0.597976  0.205330  1
  Lu  Lu6  1  0.597480  0.208692  0.596620  1
  Lu  Lu7  1  0.208692  0.597480  0.597209  1
  Lu  Lu8  1  0.062166  0.437698  0.439587  1
  Lu  Lu9  1  0.437698  0.062166  0.060548  1
  Lu  Lu10  1  0.437952  0.062068  0.439837  1
  Lu  Lu11  1  0.062068  0.437952  0.060142  1
  Lu  Lu12  1  0.437999  0.437999  0.062001  1
  Lu  Lu13  1  0.059587  0.059587  0.440413  1
  Lu  Lu14  1  0.189296  0.808873  0.812053  1
  Lu  Lu15  1  0.808873  0.189296  0.189779  1
  Cd  Cd16  1  0.830671  0.830476  0.830737  1
  Cd  Cd17  1  0.830476  0.830671  0.508117  1
  Cd  Cd18  1  0.830583  0.507383  0.831089  1
  Cd  Cd19  1  0.507383  0.830583  0.830942  1
  Ir  Ir20  1  0.393575  0.827026  0.389872  1
  Ir  Ir21  1  0.827026  0.393575  0.389527  1
  Ru  Ru22  1  0.392273  0.391828  0.387875  1
  Ru  Ru23  1  0.391828  0.392273  0.828024  1
