# generated using pymatgen
data_Hf8Al15Ru5Pt2
_symmetry_space_group_name_H-M   'P 1'
_cell_length_a   8.89979494
_cell_length_b   8.87256733
_cell_length_c   8.89927500
_cell_angle_alpha   120.12135143
_cell_angle_beta   119.95153241
_cell_angle_gamma   90.03122547
_symmetry_Int_Tables_number   1
_chemical_formula_structural   Hf8Al15Ru5Pt2
_chemical_formula_sum   'Hf8 Al15 Ru5 Pt2'
_cell_volume   496.21491452
_cell_formula_units_Z   1
loop_
 _symmetry_equiv_pos_site_id
 _symmetry_equiv_pos_as_xyz
  1  'x, y, z'
loop_
 _atom_site_type_symbol
 _atom_site_label
 _atom_site_symmetry_multiplicity
 _atom_site_fract_x
 _atom_site_fract_y
 _atom_site_fract_z
 _atom_site_occupancy
  Hf  Hf0  1  0.804862  0.294348  0.079206  1
  Hf  Hf1  1  0.214900  0.294246  0.489328  1
  Hf  Hf2  1  0.198598  0.693166  0.494567  1
  Hf  Hf3  1  0.210311  0.720514  0.920158  1
  Hf  Hf4  1  0.800177  0.720387  0.510097  1
  Hf  Hf5  1  0.775262  0.280175  0.504981  1
  Hf  Hf6  1  0.383120  0.124548  0.741431  1
  Hf  Hf7  1  0.379175  0.638015  0.258824  1
  Al  Al8  1  0.985836  0.485792  0.499866  1
  Al  Al9  1  0.162619  0.333337  0.170769  1
  Al  Al10  1  0.158792  0.985148  0.826260  1
  Al  Al11  1  0.152271  0.347929  0.808985  1
  Al  Al12  1  0.538840  0.347755  0.195566  1
  Al  Al13  1  0.839386  0.659267  0.819960  1
  Al  Al14  1  0.842978  0.027757  0.184651  1
  Al  Al15  1  0.836440  0.656926  0.175617  1
  Al  Al16  1  0.481484  0.656927  0.820577  1
  Al  Al17  1  0.376601  0.123044  0.258912  1
  Al  Al18  1  0.864163  0.122950  0.746410  1
  Al  Al19  1  0.617956  0.870642  0.252709  1
  Al  Al20  1  0.620932  0.368765  0.747843  1
  Al  Al21  1  0.623108  0.876236  0.739372  1
  Al  Al22  1  0.136946  0.876271  0.253187  1
  Ru  Ru23  1  0.498985  0.499456  0.000523  1
  Ru  Ru24  1  0.497699  0.495855  0.499704  1
  Ru  Ru25  1  0.996045  0.495766  0.998151  1
  Ru  Ru26  1  0.999604  0.000223  0.000725  1
  Ru  Ru27  1  0.506482  0.006929  0.500491  1
  Pt  Pt28  1  0.997477  0.998837  0.499804  1
  Pt  Pt29  1  0.498945  0.998789  0.001327  1
