# generated using pymatgen
data_Ho7ErTi3Si16W9
_symmetry_space_group_name_H-M   'P 1'
_cell_length_a   6.88928509
_cell_length_b   6.88922326
_cell_length_c   12.77772805
_cell_angle_alpha   89.97733566
_cell_angle_beta   90.03013409
_cell_angle_gamma   89.86065159
_symmetry_Int_Tables_number   1
_chemical_formula_structural   Ho7ErTi3Si16W9
_chemical_formula_sum   'Ho7 Er1 Ti3 Si16 W9'
_cell_volume   606.45234254
_cell_formula_units_Z   1
loop_
 _symmetry_equiv_pos_site_id
 _symmetry_equiv_pos_as_xyz
  1  'x, y, z'
loop_
 _atom_site_type_symbol
 _atom_site_label
 _atom_site_symmetry_multiplicity
 _atom_site_fract_x
 _atom_site_fract_y
 _atom_site_fract_z
 _atom_site_occupancy
  Ho  Ho0  1  0.339370  0.001840  0.468712  1
  Ho  Ho1  1  0.497060  0.838187  0.719241  1
  Ho  Ho2  1  0.499370  0.161735  0.217489  1
  Ho  Ho3  1  0.838194  0.497067  0.280718  1
  Ho  Ho4  1  0.161702  0.499369  0.782543  1
  Ho  Ho5  1  0.660060  0.999264  0.968887  1
  Ho  Ho6  1  0.001818  0.339370  0.531307  1
  Er  Er7  1  0.999440  0.659750  0.031080  1
  Ti  Ti8  1  0.170396  0.831623  0.248471  1
  Ti  Ti9  1  0.831671  0.170451  0.751479  1
  Ti  Ti10  1  0.668999  0.668993  0.500013  1
  Si  Si11  1  0.200494  0.129789  0.682874  1
  Si  Si12  1  0.372355  0.698701  0.933154  1
  Si  Si13  1  0.629429  0.298667  0.433120  1
  Si  Si14  1  0.698890  0.372783  0.066906  1
  Si  Si15  1  0.298668  0.629413  0.566878  1
  Si  Si16  1  0.796953  0.871030  0.183413  1
  Si  Si17  1  0.129797  0.200556  0.317137  1
  Si  Si18  1  0.871285  0.796751  0.816526  1
  Si  Si19  1  0.289254  0.962685  0.062322  1
  Si  Si20  1  0.539835  0.792109  0.313878  1
  Si  Si21  1  0.459296  0.208929  0.814196  1
  Si  Si22  1  0.792108  0.539784  0.686129  1
  Si  Si23  1  0.208722  0.459411  0.185663  1
  Si  Si24  1  0.709196  0.040998  0.564012  1
  Si  Si25  1  0.962882  0.289702  0.937738  1
  Si  Si26  1  0.040982  0.709181  0.436014  1
  W  W27  1  0.331528  0.331706  0.000017  1
  W  W28  1  0.157523  0.002343  0.873417  1
  W  W29  1  0.494799  0.664632  0.124828  1
  W  W30  1  0.505566  0.340766  0.624755  1
  W  W31  1  0.664840  0.494956  0.875237  1
  W  W32  1  0.340750  0.505596  0.375200  1
  W  W33  1  0.840288  0.994054  0.374100  1
  W  W34  1  0.002411  0.157554  0.126655  1
  W  W35  1  0.994070  0.840256  0.625889  1
