# generated using pymatgen
data_Sc12Co4TcSb
_symmetry_space_group_name_H-M   'P 1'
_cell_length_a   7.73115784
_cell_length_b   7.73115801
_cell_length_c   7.73115771
_cell_angle_alpha   111.53419646
_cell_angle_beta   110.54831131
_cell_angle_gamma   106.37641514
_symmetry_Int_Tables_number   1
_chemical_formula_structural   Sc12Co4TcSb
_chemical_formula_sum   'Sc12 Co4 Tc1 Sb1'
_cell_volume   354.92192152
_cell_formula_units_Z   1
loop_
 _symmetry_equiv_pos_site_id
 _symmetry_equiv_pos_as_xyz
  1  'x, y, z'
loop_
 _atom_site_type_symbol
 _atom_site_label
 _atom_site_symmetry_multiplicity
 _atom_site_fract_x
 _atom_site_fract_y
 _atom_site_fract_z
 _atom_site_occupancy
  Sc  Sc0  1  0.425404  0.224728  0.200675  1
  Sc  Sc1  1  0.574596  0.775272  0.799325  1
  Sc  Sc2  1  0.024053  0.224728  0.799325  1
  Sc  Sc3  1  0.975947  0.775272  0.200675  1
  Sc  Sc4  1  0.310520  0.612885  0.302365  1
  Sc  Sc5  1  0.689480  0.387115  0.697635  1
  Sc  Sc6  1  0.310520  0.008154  0.697635  1
  Sc  Sc7  1  0.689480  0.991846  0.302365  1
  Sc  Sc8  1  0.183503  0.273500  0.457004  1
  Sc  Sc9  1  0.816497  0.726499  0.542996  1
  Sc  Sc10  1  0.183503  0.726499  0.910003  1
  Sc  Sc11  1  0.816497  0.273500  0.089997  1
  Co  Co12  1  0.367715  0.000000  0.367715  1
  Co  Co13  1  0.632285  0.000000  0.632285  1
  Co  Co14  1  0.117968  0.617968  0.500000  1
  Co  Co15  1  0.882032  0.382032  0.500000  1
  Tc  Tc16  1  0.000000  0.000000  0.000000  1
  Sb  Sb17  1  0.500000  0.500000  0.000000  1
