# generated using pymatgen
data_CaTb4Dy2FeI12
_symmetry_space_group_name_H-M   'P 1'
_cell_length_a   9.78139731
_cell_length_b   9.76136174
_cell_length_c   9.84463209
_cell_angle_alpha   106.65466699
_cell_angle_beta   107.09204206
_cell_angle_gamma   106.71815048
_symmetry_Int_Tables_number   1
_chemical_formula_structural   CaTb4Dy2FeI12
_chemical_formula_sum   'Ca1 Tb4 Dy2 Fe1 I12'
_cell_volume   786.57793806
_cell_formula_units_Z   1
loop_
 _symmetry_equiv_pos_site_id
 _symmetry_equiv_pos_as_xyz
  1  'x, y, z'
loop_
 _atom_site_type_symbol
 _atom_site_label
 _atom_site_symmetry_multiplicity
 _atom_site_fract_x
 _atom_site_fract_y
 _atom_site_fract_z
 _atom_site_occupancy
  Ca  Ca0  1  0.499728  0.499997  0.499922  1
  Tb  Tb1  1  0.285459  0.023623  0.092472  1
  Tb  Tb2  1  0.907152  0.713771  0.976902  1
  Tb  Tb3  1  0.976062  0.904345  0.699017  1
  Tb  Tb4  1  0.714601  0.976514  0.908194  1
  Dy  Dy5  1  0.092559  0.284719  0.022666  1
  Dy  Dy6  1  0.024009  0.095654  0.299218  1
  Fe  Fe7  1  0.999825  0.999254  0.999609  1
  I  I8  1  0.453763  0.377265  0.149793  1
  I  I9  1  0.147544  0.453802  0.373436  1
  I  I10  1  0.376874  0.148381  0.453705  1
  I  I11  1  0.544880  0.622728  0.849659  1
  I  I12  1  0.851323  0.544601  0.624828  1
  I  I13  1  0.621716  0.851747  0.546702  1
  I  I14  1  0.777382  0.317308  0.926509  1
  I  I15  1  0.925648  0.773811  0.318575  1
  I  I16  1  0.318115  0.926494  0.777842  1
  I  I17  1  0.224366  0.682930  0.074172  1
  I  I18  1  0.075279  0.228700  0.682932  1
  I  I19  1  0.683715  0.074356  0.223848  1
