# generated using pymatgen
data_LiSm6Sc(Co4P3)4
_symmetry_space_group_name_H-M   'P 1'
_cell_length_a   3.75535100
_cell_length_b   10.67861000
_cell_length_c   12.39811200
_cell_angle_alpha   90.00000000
_cell_angle_beta   90.00000000
_cell_angle_gamma   90.00000000
_symmetry_Int_Tables_number   1
_chemical_formula_structural   LiSm6Sc(Co4P3)4
_chemical_formula_sum   'Li1 Sm6 Sc1 Co16 P12'
_cell_volume   497.18820396
_cell_formula_units_Z   1
loop_
 _symmetry_equiv_pos_site_id
 _symmetry_equiv_pos_as_xyz
  1  'x, y, z'
loop_
 _atom_site_type_symbol
 _atom_site_label
 _atom_site_symmetry_multiplicity
 _atom_site_fract_x
 _atom_site_fract_y
 _atom_site_fract_z
 _atom_site_occupancy
  Li  Li0  1  0.000000  0.000000  0.844243  1
  Sm  Sm1  1  0.000000  0.500000  0.527132  1
  Sm  Sm2  1  0.500000  0.000000  0.477648  1
  Sm  Sm3  1  0.500000  0.820946  0.207429  1
  Sm  Sm4  1  0.500000  0.179054  0.207429  1
  Sm  Sm5  1  0.000000  0.681477  0.794948  1
  Sm  Sm6  1  0.000000  0.318523  0.794948  1
  Sc  Sc7  1  0.500000  0.500000  0.152182  1
  Co  Co8  1  0.500000  0.500000  0.704341  1
  Co  Co9  1  0.000000  0.000000  0.294852  1
  Co  Co10  1  0.000000  0.500000  0.985358  1
  Co  Co11  1  0.500000  0.000000  0.012073  1
  Co  Co12  1  0.500000  0.328486  0.991923  1
  Co  Co13  1  0.500000  0.671514  0.991923  1
  Co  Co14  1  0.000000  0.163926  0.000573  1
  Co  Co15  1  0.000000  0.836074  0.000573  1
  Co  Co16  1  0.500000  0.295685  0.433479  1
  Co  Co17  1  0.500000  0.704315  0.433479  1
  Co  Co18  1  0.000000  0.202417  0.569793  1
  Co  Co19  1  0.000000  0.797583  0.569793  1
  Co  Co20  1  0.500000  0.880434  0.706350  1
  Co  Co21  1  0.500000  0.119566  0.706350  1
  Co  Co22  1  0.000000  0.620863  0.297341  1
  Co  Co23  1  0.000000  0.379137  0.297341  1
  P  P24  1  0.500000  0.500000  0.885023  1
  P  P25  1  0.000000  0.000000  0.112890  1
  P  P26  1  0.500000  0.500000  0.355482  1
  P  P27  1  0.000000  0.000000  0.655064  1
  P  P28  1  0.500000  0.305661  0.615867  1
  P  P29  1  0.500000  0.694339  0.615867  1
  P  P30  1  0.000000  0.192382  0.387400  1
  P  P31  1  0.000000  0.807618  0.387400  1
  P  P32  1  0.500000  0.847921  0.891775  1
  P  P33  1  0.500000  0.152079  0.891775  1
  P  P34  1  0.000000  0.661838  0.099977  1
  P  P35  1  0.000000  0.338162  0.099977  1
