# generated using pymatgen
data_YbY6NiCl12
_symmetry_space_group_name_H-M   'P 1'
_cell_length_a   8.78865890
_cell_length_b   8.78865776
_cell_length_c   8.78865755
_cell_angle_alpha   106.61970222
_cell_angle_beta   106.61969968
_cell_angle_gamma   106.61969152
_symmetry_Int_Tables_number   1
_chemical_formula_structural   YbY6NiCl12
_chemical_formula_sum   'Yb1 Y6 Ni1 Cl12'
_cell_volume   571.10833288
_cell_formula_units_Z   1
loop_
 _symmetry_equiv_pos_site_id
 _symmetry_equiv_pos_as_xyz
  1  'x, y, z'
loop_
 _atom_site_type_symbol
 _atom_site_label
 _atom_site_symmetry_multiplicity
 _atom_site_fract_x
 _atom_site_fract_y
 _atom_site_fract_z
 _atom_site_occupancy
  Yb  Yb0  1  0.500000  0.500000  0.500000  1
  Y  Y1  1  0.106860  0.023561  0.317635  1
  Y  Y2  1  0.023561  0.317635  0.106860  1
  Y  Y3  1  0.317635  0.106860  0.023561  1
  Y  Y4  1  0.893139  0.976439  0.682365  1
  Y  Y5  1  0.976439  0.682365  0.893139  1
  Y  Y6  1  0.682365  0.893139  0.976439  1
  Ni  Ni7  1  0.000000  0.000000  0.000000  1
  Cl  Cl8  1  0.073403  0.678316  0.218590  1
  Cl  Cl9  1  0.678316  0.218590  0.073403  1
  Cl  Cl10  1  0.218590  0.073403  0.678316  1
  Cl  Cl11  1  0.926597  0.321684  0.781410  1
  Cl  Cl12  1  0.321684  0.781410  0.926597  1
  Cl  Cl13  1  0.781410  0.926597  0.321684  1
  Cl  Cl14  1  0.453319  0.161806  0.375370  1
  Cl  Cl15  1  0.161806  0.375370  0.453319  1
  Cl  Cl16  1  0.375370  0.453319  0.161806  1
  Cl  Cl17  1  0.546681  0.838194  0.624630  1
  Cl  Cl18  1  0.838194  0.624630  0.546681  1
  Cl  Cl19  1  0.624630  0.546681  0.838194  1
