# generated using pymatgen
data_Zr3MnGa6Ru
_symmetry_space_group_name_H-M   'P 1'
_cell_length_a   8.82099600
_cell_length_b   5.46206522
_cell_length_c   7.80147478
_cell_angle_alpha   89.72936129
_cell_angle_beta   90.00000000
_cell_angle_gamma   90.00000000
_symmetry_Int_Tables_number   1
_chemical_formula_structural   Zr3MnGa6Ru
_chemical_formula_sum   'Zr6 Mn2 Ga12 Ru2'
_cell_volume   375.87753532
_cell_formula_units_Z   2
loop_
 _symmetry_equiv_pos_site_id
 _symmetry_equiv_pos_as_xyz
  1  'x, y, z'
loop_
 _atom_site_type_symbol
 _atom_site_label
 _atom_site_symmetry_multiplicity
 _atom_site_fract_x
 _atom_site_fract_y
 _atom_site_fract_z
 _atom_site_occupancy
  Zr  Zr0  1  0.528727  0.249047  0.150055  1
  Zr  Zr1  1  0.971273  0.249047  0.150055  1
  Zr  Zr2  1  0.749999  0.746487  0.276689  1
  Zr  Zr3  1  0.250000  0.253512  0.723310  1
  Zr  Zr4  1  0.028728  0.750952  0.849945  1
  Zr  Zr5  1  0.471273  0.750952  0.849945  1
  Mn  Mn6  1  0.000000  0.500000  0.500000  1
  Mn  Mn7  1  0.500000  0.500000  0.500000  1
  Ga  Ga8  1  0.250000  0.008123  0.038933  1
  Ga  Ga9  1  0.250000  0.487495  0.046713  1
  Ga  Ga10  1  0.062292  0.749627  0.231988  1
  Ga  Ga11  1  0.437708  0.749627  0.231988  1
  Ga  Ga12  1  0.250000  0.235824  0.369858  1
  Ga  Ga13  1  0.749999  0.249528  0.430710  1
  Ga  Ga14  1  0.250000  0.750471  0.569290  1
  Ga  Ga15  1  0.749999  0.764175  0.630141  1
  Ga  Ga16  1  0.562292  0.250372  0.768011  1
  Ga  Ga17  1  0.937708  0.250372  0.768011  1
  Ga  Ga18  1  0.749999  0.512504  0.953287  1
  Ga  Ga19  1  0.749999  0.991876  0.961067  1
  Ru  Ru20  1  0.000000  0.000000  0.500000  1
  Ru  Ru21  1  0.500000  0.000000  0.500000  1
