# generated using pymatgen
data_PrNd(Re2Si)4
_symmetry_space_group_name_H-M   'P 1'
_cell_length_a   4.16973400
_cell_length_b   7.35816434
_cell_length_c   15.56372879
_cell_angle_alpha   89.93103236
_cell_angle_beta   90.00000000
_cell_angle_gamma   90.00000000
_symmetry_Int_Tables_number   1
_chemical_formula_structural   PrNd(Re2Si)4
_chemical_formula_sum   'Pr2 Nd2 Re16 Si8'
_cell_volume   477.51956935
_cell_formula_units_Z   2
loop_
 _symmetry_equiv_pos_site_id
 _symmetry_equiv_pos_as_xyz
  1  'x, y, z'
loop_
 _atom_site_type_symbol
 _atom_site_label
 _atom_site_symmetry_multiplicity
 _atom_site_fract_x
 _atom_site_fract_y
 _atom_site_fract_z
 _atom_site_occupancy
  Pr  Pr0  1  0.000000  0.577738  0.118483  1
  Pr  Pr1  1  0.000000  0.422262  0.881517  1
  Nd  Nd2  1  0.500000  0.078007  0.381867  1
  Nd  Nd3  1  0.500000  0.921993  0.618133  1
  Re  Re4  1  0.000000  0.136317  0.052451  1
  Re  Re5  1  0.000000  0.863683  0.947549  1
  Re  Re6  1  0.500000  0.637199  0.447728  1
  Re  Re7  1  0.500000  0.362801  0.552272  1
  Re  Re8  1  0.000000  0.731826  0.321378  1
  Re  Re9  1  0.000000  0.268174  0.678622  1
  Re  Re10  1  0.500000  0.230784  0.179480  1
  Re  Re11  1  0.500000  0.769216  0.820520  1
  Re  Re12  1  0.000000  0.431863  0.418520  1
  Re  Re13  1  0.000000  0.568137  0.581480  1
  Re  Re14  1  0.500000  0.932093  0.081591  1
  Re  Re15  1  0.500000  0.067907  0.918409  1
  Re  Re16  1  0.000000  0.989441  0.206771  1
  Re  Re17  1  0.000000  0.010559  0.793229  1
  Re  Re18  1  0.500000  0.488575  0.294076  1
  Re  Re19  1  0.500000  0.511425  0.705924  1
  Si  Si20  1  0.000000  0.827238  0.475764  1
  Si  Si21  1  0.000000  0.172762  0.524236  1
  Si  Si22  1  0.500000  0.325360  0.024647  1
  Si  Si23  1  0.500000  0.674640  0.975353  1
  Si  Si24  1  0.000000  0.290476  0.273957  1
  Si  Si25  1  0.000000  0.709524  0.726043  1
  Si  Si26  1  0.500000  0.791610  0.227158  1
  Si  Si27  1  0.500000  0.208390  0.772842  1
