# generated using pymatgen
data_LiLaH6Os
_symmetry_space_group_name_H-M   'P 1'
_cell_length_a   5.08530398
_cell_length_b   5.08530410
_cell_length_c   5.08530300
_cell_angle_alpha   60.00001367
_cell_angle_beta   60.00001286
_cell_angle_gamma   60.00000938
_symmetry_Int_Tables_number   1
_chemical_formula_structural   LiLaH6Os
_chemical_formula_sum   'Li1 La1 H6 Os1'
_cell_volume   92.98990452
_cell_formula_units_Z   1
loop_
 _symmetry_equiv_pos_site_id
 _symmetry_equiv_pos_as_xyz
  1  'x, y, z'
loop_
 _atom_site_type_symbol
 _atom_site_label
 _atom_site_symmetry_multiplicity
 _atom_site_fract_x
 _atom_site_fract_y
 _atom_site_fract_z
 _atom_site_occupancy
  Li  Li0  1  0.250000  0.250000  0.250000  1
  La  La1  1  0.750000  0.750000  0.750000  1
  H  H2  1  0.760160  0.239840  0.239840  1
  H  H3  1  0.239840  0.760160  0.239840  1
  H  H4  1  0.760160  0.760160  0.239840  1
  H  H5  1  0.239840  0.760160  0.760160  1
  H  H6  1  0.760160  0.239840  0.760160  1
  H  H7  1  0.239840  0.239840  0.760160  1
  Os  Os8  1  0.000000  0.000000  0.000000  1
