# generated using pymatgen
data_Dy2FeCu(TeO6)2
_symmetry_space_group_name_H-M   'P 1'
_cell_length_a   5.18319630
_cell_length_b   5.18276519
_cell_length_c   9.84742031
_cell_angle_alpha   89.99646287
_cell_angle_beta   90.00446906
_cell_angle_gamma   120.00146596
_symmetry_Int_Tables_number   1
_chemical_formula_structural   Dy2FeCu(TeO6)2
_chemical_formula_sum   'Dy2 Fe1 Cu1 Te2 O12'
_cell_volume   229.08986714
_cell_formula_units_Z   1
loop_
 _symmetry_equiv_pos_site_id
 _symmetry_equiv_pos_as_xyz
  1  'x, y, z'
loop_
 _atom_site_type_symbol
 _atom_site_label
 _atom_site_symmetry_multiplicity
 _atom_site_fract_x
 _atom_site_fract_y
 _atom_site_fract_z
 _atom_site_occupancy
  Dy  Dy0  1  0.999987  0.999997  0.999324  1
  Dy  Dy1  1  0.999994  0.999975  0.500689  1
  Fe  Fe2  1  0.333384  0.666579  0.250106  1
  Cu  Cu3  1  0.666589  0.333302  0.749944  1
  Te  Te4  1  0.666619  0.333338  0.249980  1
  Te  Te5  1  0.333417  0.666780  0.749991  1
  O  O6  1  0.646840  0.634336  0.138870  1
  O  O7  1  0.987512  0.353078  0.138853  1
  O  O8  1  0.365512  0.012370  0.138876  1
  O  O9  1  0.987469  0.634345  0.361189  1
  O  O10  1  0.365602  0.352990  0.361175  1
  O  O11  1  0.646921  0.012492  0.361191  1
  O  O12  1  0.355891  0.989467  0.639063  1
  O  O13  1  0.633577  0.644199  0.639072  1
  O  O14  1  0.010573  0.366497  0.639039  1
  O  O15  1  0.010582  0.644238  0.860878  1
  O  O16  1  0.633646  0.989523  0.860867  1
  O  O17  1  0.355888  0.366491  0.860894  1
