# generated using pymatgen
data_NdEr3Tm(MnB3)2
_symmetry_space_group_name_H-M   'P 1'
_cell_length_a   5.40513906
_cell_length_b   5.40513921
_cell_length_c   8.27263300
_cell_angle_alpha   70.93212989
_cell_angle_beta   70.93212684
_cell_angle_gamma   60.00001684
_symmetry_Int_Tables_number   1
_chemical_formula_structural   NdEr3Tm(MnB3)2
_chemical_formula_sum   'Nd1 Er3 Tm1 Mn2 B6'
_cell_volume   193.84558204
_cell_formula_units_Z   1
loop_
 _symmetry_equiv_pos_site_id
 _symmetry_equiv_pos_as_xyz
  1  'x, y, z'
loop_
 _atom_site_type_symbol
 _atom_site_label
 _atom_site_symmetry_multiplicity
 _atom_site_fract_x
 _atom_site_fract_y
 _atom_site_fract_z
 _atom_site_occupancy
  Nd  Nd0  1  0.999916  0.999916  0.000252  1
  Er  Er1  1  0.249375  0.249375  0.251874  1
  Er  Er2  1  0.750659  0.750659  0.748023  1
  Er  Er3  1  0.417657  0.417657  0.747031  1
  Tm  Tm4  1  0.581975  0.581975  0.254073  1
  Mn  Mn5  1  0.114366  0.114366  0.656900  1
  Mn  Mn6  1  0.885723  0.885723  0.342831  1
  B  B7  1  0.166923  0.833238  0.499836  1
  B  B8  1  0.833238  0.500002  0.499836  1
  B  B9  1  0.500002  0.166923  0.499836  1
  B  B10  1  0.166923  0.500002  0.499836  1
  B  B11  1  0.500002  0.833238  0.499836  1
  B  B12  1  0.833238  0.166923  0.499836  1
