# generated using pymatgen
data_Tb15YMgHg3Ir4
_symmetry_space_group_name_H-M   'P 1'
_cell_length_a   9.67015938
_cell_length_b   9.66997740
_cell_length_c   9.67435200
_cell_angle_alpha   59.98503392
_cell_angle_beta   59.98565684
_cell_angle_gamma   59.99350434
_symmetry_Int_Tables_number   1
_chemical_formula_structural   Tb15YMgHg3Ir4
_chemical_formula_sum   'Tb15 Y1 Mg1 Hg3 Ir4'
_cell_volume   639.51160449
_cell_formula_units_Z   1
loop_
 _symmetry_equiv_pos_site_id
 _symmetry_equiv_pos_as_xyz
  1  'x, y, z'
loop_
 _atom_site_type_symbol
 _atom_site_label
 _atom_site_symmetry_multiplicity
 _atom_site_fract_x
 _atom_site_fract_y
 _atom_site_fract_z
 _atom_site_occupancy
  Tb  Tb0  1  0.599593  0.598077  0.596909  1
  Tb  Tb1  1  0.599593  0.598077  0.205420  1
  Tb  Tb2  1  0.600761  0.203601  0.597819  1
  Tb  Tb3  1  0.193654  0.602715  0.601815  1
  Tb  Tb4  1  0.057376  0.440810  0.442661  1
  Tb  Tb5  1  0.436710  0.060982  0.061800  1
  Tb  Tb6  1  0.436710  0.060982  0.440509  1
  Tb  Tb7  1  0.057376  0.440810  0.059153  1
  Tb  Tb8  1  0.437883  0.439517  0.061300  1
  Tb  Tb9  1  0.057621  0.058821  0.441779  1
  Tb  Tb10  1  0.188235  0.810843  0.811817  1
  Tb  Tb11  1  0.810310  0.189413  0.187710  1
  Tb  Tb12  1  0.810310  0.189413  0.812567  1
  Tb  Tb13  1  0.188235  0.810843  0.189106  1
  Tb  Tb14  1  0.810891  0.812773  0.188168  1
  Y  Y15  1  0.187629  0.189567  0.811402  1
  Mg  Mg16  1  0.534056  0.821411  0.822267  1
  Hg  Hg17  1  0.832248  0.836969  0.837221  1
  Hg  Hg18  1  0.832248  0.836969  0.493564  1
  Hg  Hg19  1  0.832565  0.492416  0.837510  1
  Ir  Ir20  1  0.389854  0.393555  0.391750  1
  Ir  Ir21  1  0.389854  0.393555  0.824840  1
  Ir  Ir22  1  0.390734  0.825091  0.392087  1
  Ir  Ir23  1  0.825555  0.392793  0.390826  1
