# generated using pymatgen
data_Li4LaTb3Si8
_symmetry_space_group_name_H-M   'P 1'
_cell_length_a   3.83921000
_cell_length_b   7.66717451
_cell_length_c   10.33133691
_cell_angle_alpha   89.74542215
_cell_angle_beta   90.00000000
_cell_angle_gamma   90.00000000
_symmetry_Int_Tables_number   1
_chemical_formula_structural   Li4LaTb3Si8
_chemical_formula_sum   'Li4 La1 Tb3 Si8'
_cell_volume   304.10912642
_cell_formula_units_Z   1
loop_
 _symmetry_equiv_pos_site_id
 _symmetry_equiv_pos_as_xyz
  1  'x, y, z'
loop_
 _atom_site_type_symbol
 _atom_site_label
 _atom_site_symmetry_multiplicity
 _atom_site_fract_x
 _atom_site_fract_y
 _atom_site_fract_z
 _atom_site_occupancy
  Li  Li0  1  0.250000  0.995646  0.392118  1
  Li  Li1  1  0.750000  0.009632  0.610619  1
  Li  Li2  1  0.250000  0.490059  0.106699  1
  Li  Li3  1  0.750000  0.508452  0.893351  1
  La  La4  1  0.750000  0.358862  0.363417  1
  Tb  Tb5  1  0.250000  0.133672  0.863814  1
  Tb  Tb6  1  0.750000  0.862733  0.133969  1
  Tb  Tb7  1  0.250000  0.637611  0.636519  1
  Si  Si8  1  0.750000  0.262248  0.063079  1
  Si  Si9  1  0.250000  0.730414  0.930619  1
  Si  Si10  1  0.750000  0.777240  0.430656  1
  Si  Si11  1  0.250000  0.231060  0.576155  1
  Si  Si12  1  0.750000  0.839799  0.820239  1
  Si  Si13  1  0.250000  0.154646  0.173248  1
  Si  Si14  1  0.750000  0.340380  0.684992  1
  Si  Si15  1  0.250000  0.667544  0.320505  1
