# generated using pymatgen
data_Er3Lu5(Ta3Si4)4
_symmetry_space_group_name_H-M   'P 1'
_cell_length_a   6.99957089
_cell_length_b   7.00006831
_cell_length_c   12.90118900
_cell_angle_alpha   89.99526073
_cell_angle_beta   90.02578953
_cell_angle_gamma   89.99759690
_symmetry_Int_Tables_number   1
_chemical_formula_structural   Er3Lu5(Ta3Si4)4
_chemical_formula_sum   'Er3 Lu5 Ta12 Si16'
_cell_volume   632.12561086
_cell_formula_units_Z   1
loop_
 _symmetry_equiv_pos_site_id
 _symmetry_equiv_pos_as_xyz
  1  'x, y, z'
loop_
 _atom_site_type_symbol
 _atom_site_label
 _atom_site_symmetry_multiplicity
 _atom_site_fract_x
 _atom_site_fract_y
 _atom_site_fract_z
 _atom_site_occupancy
  Er  Er0  1  0.657761  0.997245  0.968010  1
  Er  Er1  1  0.002893  0.342137  0.531866  1
  Er  Er2  1  0.997235  0.657757  0.032010  1
  Lu  Lu3  1  0.342550  0.002044  0.468104  1
  Lu  Lu4  1  0.497956  0.842226  0.718182  1
  Lu  Lu5  1  0.501851  0.157937  0.218569  1
  Lu  Lu6  1  0.842145  0.497965  0.281846  1
  Lu  Lu7  1  0.158010  0.501857  0.781475  1
  Ta  Ta8  1  0.328065  0.328094  0.000033  1
  Ta  Ta9  1  0.171846  0.828568  0.250277  1
  Ta  Ta10  1  0.828407  0.171566  0.749795  1
  Ta  Ta11  1  0.671771  0.672128  0.499957  1
  Ta  Ta12  1  0.152559  0.005881  0.873796  1
  Ta  Ta13  1  0.493417  0.651836  0.124647  1
  Ta  Ta14  1  0.506031  0.348031  0.624019  1
  Ta  Ta15  1  0.651758  0.493398  0.875472  1
  Ta  Ta16  1  0.348332  0.506578  0.375723  1
  Ta  Ta17  1  0.847744  0.994292  0.374082  1
  Ta  Ta18  1  0.005980  0.152514  0.126309  1
  Ta  Ta19  1  0.994100  0.847895  0.625728  1
  Si  Si20  1  0.204867  0.134997  0.681219  1
  Si  Si21  1  0.364281  0.703215  0.930661  1
  Si  Si22  1  0.635175  0.296034  0.430532  1
  Si  Si23  1  0.703220  0.364266  0.069393  1
  Si  Si24  1  0.296862  0.636692  0.569138  1
  Si  Si25  1  0.795232  0.864934  0.181776  1
  Si  Si26  1  0.136072  0.204006  0.319076  1
  Si  Si27  1  0.864946  0.795330  0.818230  1
  Si  Si28  1  0.295567  0.954638  0.064572  1
  Si  Si29  1  0.545774  0.796431  0.314315  1
  Si  Si30  1  0.453772  0.204239  0.813722  1
  Si  Si31  1  0.795715  0.546141  0.685985  1
  Si  Si32  1  0.204326  0.453569  0.186318  1
  Si  Si33  1  0.703298  0.045278  0.564278  1
  Si  Si34  1  0.954656  0.295499  0.935423  1
  Si  Si35  1  0.045829  0.704781  0.435464  1
