# generated using pymatgen
data_Zr4VReOs6
_symmetry_space_group_name_H-M   'P 1'
_cell_length_a   5.13554574
_cell_length_b   5.13554678
_cell_length_c   8.69335400
_cell_angle_alpha   90.00000000
_cell_angle_beta   90.00000000
_cell_angle_gamma   116.97739904
_symmetry_Int_Tables_number   1
_chemical_formula_structural   Zr4VReOs6
_chemical_formula_sum   'Zr4 V1 Re1 Os6'
_cell_volume   204.32842389
_cell_formula_units_Z   1
loop_
 _symmetry_equiv_pos_site_id
 _symmetry_equiv_pos_as_xyz
  1  'x, y, z'
loop_
 _atom_site_type_symbol
 _atom_site_label
 _atom_site_symmetry_multiplicity
 _atom_site_fract_x
 _atom_site_fract_y
 _atom_site_fract_z
 _atom_site_occupancy
  Zr  Zr0  1  0.331765  0.668235  0.435808  1
  Zr  Zr1  1  0.667564  0.332436  0.567206  1
  Zr  Zr2  1  0.667564  0.332436  0.932794  1
  Zr  Zr3  1  0.331765  0.668235  0.064192  1
  V  V4  1  0.166302  0.833698  0.750000  1
  Re  Re5  1  0.832858  0.167142  0.250000  1
  Os  Os6  1  0.003296  0.996704  0.501262  1
  Os  Os7  1  0.003296  0.996704  0.998738  1
  Os  Os8  1  0.829568  0.653923  0.250000  1
  Os  Os9  1  0.346077  0.170432  0.250000  1
  Os  Os10  1  0.169751  0.349806  0.750000  1
  Os  Os11  1  0.650194  0.830249  0.750000  1
