# generated using pymatgen
data_KRb3(Tm3Se5)4
_symmetry_space_group_name_H-M   'P 1'
_cell_length_a   4.08783000
_cell_length_b   12.15659887
_cell_length_c   21.89507529
_cell_angle_alpha   90.15267413
_cell_angle_beta   90.00000000
_cell_angle_gamma   90.00000000
_symmetry_Int_Tables_number   1
_chemical_formula_structural   KRb3(Tm3Se5)4
_chemical_formula_sum   'K1 Rb3 Tm12 Se20'
_cell_volume   1088.05240737
_cell_formula_units_Z   1
loop_
 _symmetry_equiv_pos_site_id
 _symmetry_equiv_pos_as_xyz
  1  'x, y, z'
loop_
 _atom_site_type_symbol
 _atom_site_label
 _atom_site_symmetry_multiplicity
 _atom_site_fract_x
 _atom_site_fract_y
 _atom_site_fract_z
 _atom_site_occupancy
  K  K0  1  0.250000  0.843988  0.099148  1
  Rb  Rb1  1  0.750000  0.150643  0.905595  1
  Rb  Rb2  1  0.750000  0.349206  0.405220  1
  Rb  Rb3  1  0.250000  0.650769  0.594752  1
  Tm  Tm4  1  0.750000  0.801529  0.828170  1
  Tm  Tm5  1  0.250000  0.196649  0.171476  1
  Tm  Tm6  1  0.250000  0.301436  0.672525  1
  Tm  Tm7  1  0.750000  0.699215  0.327026  1
  Tm  Tm8  1  0.250000  0.957367  0.698731  1
  Tm  Tm9  1  0.750000  0.041684  0.300717  1
  Tm  Tm10  1  0.750000  0.457572  0.801800  1
  Tm  Tm11  1  0.250000  0.543505  0.197789  1
  Tm  Tm12  1  0.750000  0.390599  0.053455  1
  Tm  Tm13  1  0.250000  0.611755  0.947133  1
  Tm  Tm14  1  0.250000  0.889999  0.446601  1
  Tm  Tm15  1  0.750000  0.110072  0.553218  1
  Se  Se16  1  0.250000  0.947476  0.569482  1
  Se  Se17  1  0.750000  0.052411  0.430021  1
  Se  Se18  1  0.750000  0.448611  0.930732  1
  Se  Se19  1  0.250000  0.553855  0.069590  1
  Se  Se20  1  0.750000  0.770527  0.956141  1
  Se  Se21  1  0.250000  0.231870  0.044501  1
  Se  Se22  1  0.250000  0.268987  0.544760  1
  Se  Se23  1  0.750000  0.731015  0.454668  1
  Se  Se24  1  0.250000  0.956945  0.827236  1
  Se  Se25  1  0.750000  0.040236  0.171624  1
  Se  Se26  1  0.750000  0.456844  0.673114  1
  Se  Se27  1  0.250000  0.543914  0.326161  1
  Se  Se28  1  0.750000  0.128533  0.683863  1
  Se  Se29  1  0.250000  0.871471  0.315867  1
  Se  Se30  1  0.250000  0.628842  0.816454  1
  Se  Se31  1  0.750000  0.371320  0.183821  1
  Se  Se32  1  0.750000  0.697852  0.198214  1
  Se  Se33  1  0.250000  0.304229  0.801049  1
  Se  Se34  1  0.250000  0.195015  0.300012  1
  Se  Se35  1  0.750000  0.804059  0.699333  1
