# generated using pymatgen
data_Tb3Dy3(AlC3)2
_symmetry_space_group_name_H-M   'P 1'
_cell_length_a   3.58469500
_cell_length_b   7.08155890
_cell_length_c   10.01095818
_cell_angle_alpha   89.94350715
_cell_angle_beta   90.00000000
_cell_angle_gamma   90.00000000
_symmetry_Int_Tables_number   1
_chemical_formula_structural   Tb3Dy3(AlC3)2
_chemical_formula_sum   'Tb3 Dy3 Al2 C6'
_cell_volume   254.13034029
_cell_formula_units_Z   1
loop_
 _symmetry_equiv_pos_site_id
 _symmetry_equiv_pos_as_xyz
  1  'x, y, z'
loop_
 _atom_site_type_symbol
 _atom_site_label
 _atom_site_symmetry_multiplicity
 _atom_site_fract_x
 _atom_site_fract_y
 _atom_site_fract_z
 _atom_site_occupancy
  Tb  Tb0  1  0.500000  0.509529  0.199302  1
  Tb  Tb1  1  0.000000  0.750180  0.458932  1
  Tb  Tb2  1  0.000000  0.250075  0.541249  1
  Dy  Dy3  1  0.500000  0.489071  0.800492  1
  Dy  Dy4  1  0.500000  0.989387  0.199720  1
  Dy  Dy5  1  0.500000  0.010613  0.800083  1
  Al  Al6  1  0.000000  0.751069  0.005776  1
  Al  Al7  1  0.000000  0.248764  0.993635  1
  C  C8  1  0.500000  0.509094  0.566579  1
  C  C9  1  0.500000  0.491263  0.434679  1
  C  C10  1  0.500000  0.991215  0.565858  1
  C  C11  1  0.500000  0.009021  0.434024  1
  C  C12  1  0.000000  0.750913  0.208358  1
  C  C13  1  0.000000  0.249804  0.791313  1
