# generated using pymatgen
data_TaMn8Tc3
_symmetry_space_group_name_H-M   'P 1'
_cell_length_a   4.69201300
_cell_length_b   4.69201322
_cell_length_c   7.72444500
_cell_angle_alpha   90.00000000
_cell_angle_beta   90.00000000
_cell_angle_gamma   119.99999137
_symmetry_Int_Tables_number   1
_chemical_formula_structural   TaMn8Tc3
_chemical_formula_sum   'Ta1 Mn8 Tc3'
_cell_volume   147.27071281
_cell_formula_units_Z   1
loop_
 _symmetry_equiv_pos_site_id
 _symmetry_equiv_pos_as_xyz
  1  'x, y, z'
loop_
 _atom_site_type_symbol
 _atom_site_label
 _atom_site_symmetry_multiplicity
 _atom_site_fract_x
 _atom_site_fract_y
 _atom_site_fract_z
 _atom_site_occupancy
  Ta  Ta0  1  0.333333  0.666667  0.437402  1
  Mn  Mn1  1  0.000000  0.000000  0.996993  1
  Mn  Mn2  1  0.000000  0.000000  0.497961  1
  Mn  Mn3  1  0.827252  0.654503  0.247089  1
  Mn  Mn4  1  0.172649  0.827351  0.752742  1
  Mn  Mn5  1  0.654701  0.827351  0.752742  1
  Mn  Mn6  1  0.345497  0.172748  0.247089  1
  Mn  Mn7  1  0.827252  0.172748  0.247089  1
  Mn  Mn8  1  0.172649  0.345299  0.752742  1
  Tc  Tc9  1  0.333333  0.666667  0.064187  1
  Tc  Tc10  1  0.666667  0.333333  0.572164  1
  Tc  Tc11  1  0.666667  0.333333  0.931800  1
