# generated using pymatgen
data_Ca4Dy3YZn8
_symmetry_space_group_name_H-M   'P 1'
_cell_length_a   7.31843900
_cell_length_b   7.33195200
_cell_length_c   7.25950500
_cell_angle_alpha   90.00000000
_cell_angle_beta   89.99993737
_cell_angle_gamma   90.00000000
_symmetry_Int_Tables_number   1
_chemical_formula_structural   Ca4Dy3YZn8
_chemical_formula_sum   'Ca4 Dy3 Y1 Zn8'
_cell_volume   389.53373861
_cell_formula_units_Z   1
loop_
 _symmetry_equiv_pos_site_id
 _symmetry_equiv_pos_as_xyz
  1  'x, y, z'
loop_
 _atom_site_type_symbol
 _atom_site_label
 _atom_site_symmetry_multiplicity
 _atom_site_fract_x
 _atom_site_fract_y
 _atom_site_fract_z
 _atom_site_occupancy
  Ca  Ca0  1  0.749516  0.250000  0.000116  1
  Ca  Ca1  1  0.249518  0.750000  0.499885  1
  Ca  Ca2  1  0.750480  0.250000  0.500116  1
  Ca  Ca3  1  0.250490  0.750000  0.999884  1
  Dy  Dy4  1  0.250627  0.250000  0.999998  1
  Dy  Dy5  1  0.749402  0.750000  0.000007  1
  Dy  Dy6  1  0.750640  0.750000  0.499988  1
  Y  Y7  1  0.249300  0.250000  0.500015  1
  Zn  Zn8  1  0.000007  0.500311  0.248393  1
  Zn  Zn9  1  0.000007  0.999691  0.248393  1
  Zn  Zn10  1  0.500370  0.999916  0.251111  1
  Zn  Zn11  1  0.500370  0.500084  0.251111  1
  Zn  Zn12  1  0.500003  0.500320  0.748880  1
  Zn  Zn13  1  0.500003  0.999682  0.748880  1
  Zn  Zn14  1  0.999634  0.999919  0.751611  1
  Zn  Zn15  1  0.999634  0.500081  0.751611  1
