# generated using pymatgen
data_SmTiMnO5
_symmetry_space_group_name_H-M   'P 1'
_cell_length_a   5.85538700
_cell_length_b   7.54536900
_cell_length_c   8.76908600
_cell_angle_alpha   90.00000000
_cell_angle_beta   90.00000000
_cell_angle_gamma   90.00000000
_symmetry_Int_Tables_number   1
_chemical_formula_structural   SmTiMnO5
_chemical_formula_sum   'Sm4 Ti4 Mn4 O20'
_cell_volume   387.42747571
_cell_formula_units_Z   4
loop_
 _symmetry_equiv_pos_site_id
 _symmetry_equiv_pos_as_xyz
  1  'x, y, z'
loop_
 _atom_site_type_symbol
 _atom_site_label
 _atom_site_symmetry_multiplicity
 _atom_site_fract_x
 _atom_site_fract_y
 _atom_site_fract_z
 _atom_site_occupancy
  Sm  Sm0  1  0.000000  0.360149  0.672194  1
  Sm  Sm1  1  0.000000  0.639851  0.327806  1
  Sm  Sm2  1  0.000000  0.860149  0.827806  1
  Sm  Sm3  1  0.000000  0.139851  0.172194  1
  Ti  Ti4  1  0.256918  0.500000  0.000000  1
  Ti  Ti5  1  0.743082  0.000000  0.500000  1
  Ti  Ti6  1  0.743082  0.500000  0.000000  1
  Ti  Ti7  1  0.256918  0.000000  0.500000  1
  Mn  Mn8  1  0.500000  0.089986  0.852531  1
  Mn  Mn9  1  0.500000  0.910014  0.147469  1
  Mn  Mn10  1  0.500000  0.589986  0.647469  1
  Mn  Mn11  1  0.500000  0.410014  0.352531  1
  O  O12  1  0.245477  0.896488  0.290981  1
  O  O13  1  0.245477  0.103512  0.709019  1
  O  O14  1  0.754523  0.396488  0.209019  1
  O  O15  1  0.754523  0.603512  0.790981  1
  O  O16  1  0.754523  0.103512  0.709019  1
  O  O17  1  0.754523  0.896488  0.290981  1
  O  O18  1  0.245477  0.603512  0.790981  1
  O  O19  1  0.245477  0.396488  0.209019  1
  O  O20  1  0.500000  0.348549  0.930770  1
  O  O21  1  0.500000  0.651451  0.069230  1
  O  O22  1  0.500000  0.848549  0.569230  1
  O  O23  1  0.500000  0.151451  0.430770  1
  O  O24  1  0.274837  0.000000  0.000000  1
  O  O25  1  0.725163  0.500000  0.500000  1
  O  O26  1  0.725163  0.000000  0.000000  1
  O  O27  1  0.274837  0.500000  0.500000  1
  O  O28  1  0.000000  0.163685  0.447405  1
  O  O29  1  0.000000  0.836315  0.552595  1
  O  O30  1  0.000000  0.663685  0.052595  1
  O  O31  1  0.000000  0.336315  0.947405  1
