# generated using pymatgen
data_B3(Ir2Au)2
_symmetry_space_group_name_H-M   'P 1'
_cell_length_a   14.29714755
_cell_length_b   14.29714798
_cell_length_c   2.79009500
_cell_angle_alpha   90.00000000
_cell_angle_beta   90.00000000
_cell_angle_gamma   168.24168862
_symmetry_Int_Tables_number   1
_chemical_formula_structural   B3(Ir2Au)2
_chemical_formula_sum   'B3 Ir4 Au2'
_cell_volume   116.22174593
_cell_formula_units_Z   1
loop_
 _symmetry_equiv_pos_site_id
 _symmetry_equiv_pos_as_xyz
  1  'x, y, z'
loop_
 _atom_site_type_symbol
 _atom_site_label
 _atom_site_symmetry_multiplicity
 _atom_site_fract_x
 _atom_site_fract_y
 _atom_site_fract_z
 _atom_site_occupancy
  B  B0  1  0.394034  0.605966  0.500000  1
  B  B1  1  0.603004  0.396996  0.000000  1
  B  B2  1  0.990725  0.009275  0.500000  1
  Ir  Ir3  1  0.133627  0.866373  0.500000  1
  Ir  Ir4  1  0.864718  0.135282  0.000000  1
  Ir  Ir5  1  0.544116  0.455884  0.500000  1
  Ir  Ir6  1  0.455782  0.544218  0.000000  1
  Au  Au7  1  0.287403  0.712597  0.500000  1
  Au  Au8  1  0.710592  0.289408  0.000000  1
