# generated using pymatgen
data_Sm3Er(TcB4)4
_symmetry_space_group_name_H-M   'P 1'
_cell_length_a   3.63053500
_cell_length_b   6.00618647
_cell_length_c   11.62804245
_cell_angle_alpha   89.89365221
_cell_angle_beta   90.00000000
_cell_angle_gamma   90.00000000
_symmetry_Int_Tables_number   1
_chemical_formula_structural   Sm3Er(TcB4)4
_chemical_formula_sum   'Sm3 Er1 Tc4 B16'
_cell_volume   253.55682182
_cell_formula_units_Z   1
loop_
 _symmetry_equiv_pos_site_id
 _symmetry_equiv_pos_as_xyz
  1  'x, y, z'
loop_
 _atom_site_type_symbol
 _atom_site_label
 _atom_site_symmetry_multiplicity
 _atom_site_fract_x
 _atom_site_fract_y
 _atom_site_fract_z
 _atom_site_occupancy
  Sm  Sm0  1  0.000000  0.626602  0.349421  1
  Sm  Sm1  1  0.000000  0.373400  0.651201  1
  Sm  Sm2  1  0.000000  0.126858  0.149788  1
  Er  Er3  1  0.000000  0.873374  0.850178  1
  Tc  Tc4  1  0.000000  0.632911  0.085136  1
  Tc  Tc5  1  0.000000  0.367728  0.912448  1
  Tc  Tc6  1  0.000000  0.131161  0.414023  1
  Tc  Tc7  1  0.000000  0.868400  0.588391  1
  B  B8  1  0.500000  0.785157  0.183271  1
  B  B9  1  0.500000  0.211832  0.816043  1
  B  B10  1  0.500000  0.284978  0.315908  1
  B  B11  1  0.500000  0.715004  0.685913  1
  B  B12  1  0.500000  0.863207  0.029875  1
  B  B13  1  0.500000  0.136818  0.967033  1
  B  B14  1  0.500000  0.361975  0.468766  1
  B  B15  1  0.500000  0.637920  0.532750  1
  B  B16  1  0.500000  0.887420  0.454286  1
  B  B17  1  0.500000  0.111508  0.547500  1
  B  B18  1  0.500000  0.388563  0.045099  1
  B  B19  1  0.500000  0.614903  0.951801  1
  B  B20  1  0.500000  0.976738  0.309088  1
  B  B21  1  0.500000  0.021559  0.693275  1
  B  B22  1  0.500000  0.476978  0.190099  1
  B  B23  1  0.500000  0.525006  0.808706  1
