# generated using pymatgen
data_Mg4Ga6ReMo
_symmetry_space_group_name_H-M   'P 1'
_cell_length_a   5.22884879
_cell_length_b   5.22884747
_cell_length_c   8.70005500
_cell_angle_alpha   90.00000000
_cell_angle_beta   90.00000000
_cell_angle_gamma   117.32936125
_symmetry_Int_Tables_number   1
_chemical_formula_structural   Mg4Ga6ReMo
_chemical_formula_sum   'Mg4 Ga6 Re1 Mo1'
_cell_volume   211.31671184
_cell_formula_units_Z   1
loop_
 _symmetry_equiv_pos_site_id
 _symmetry_equiv_pos_as_xyz
  1  'x, y, z'
loop_
 _atom_site_type_symbol
 _atom_site_label
 _atom_site_symmetry_multiplicity
 _atom_site_fract_x
 _atom_site_fract_y
 _atom_site_fract_z
 _atom_site_occupancy
  Mg  Mg0  1  0.675885  0.324115  0.065858  1
  Mg  Mg1  1  0.323927  0.676073  0.931766  1
  Mg  Mg2  1  0.323927  0.676073  0.568234  1
  Mg  Mg3  1  0.675885  0.324115  0.434142  1
  Ga  Ga4  1  0.830044  0.643261  0.750000  1
  Ga  Ga5  1  0.170657  0.357485  0.250000  1
  Ga  Ga6  1  0.356739  0.169956  0.750000  1
  Ga  Ga7  1  0.642515  0.829343  0.250000  1
  Ga  Ga8  1  0.000753  0.999247  0.500945  1
  Ga  Ga9  1  0.000753  0.999247  0.999055  1
  Re  Re10  1  0.155774  0.844226  0.250000  1
  Mo  Mo11  1  0.843143  0.156857  0.750000  1
