# generated using pymatgen
data_Pr2Al9RuPt2
_symmetry_space_group_name_H-M   'P 1'
_cell_length_a   7.67758056
_cell_length_b   7.67758058
_cell_length_c   9.64529800
_cell_angle_alpha   90.00000000
_cell_angle_beta   90.00000000
_cell_angle_gamma   119.45729237
_symmetry_Int_Tables_number   1
_chemical_formula_structural   Pr2Al9RuPt2
_chemical_formula_sum   'Pr4 Al18 Ru2 Pt4'
_cell_volume   495.04443510
_cell_formula_units_Z   2
loop_
 _symmetry_equiv_pos_site_id
 _symmetry_equiv_pos_as_xyz
  1  'x, y, z'
loop_
 _atom_site_type_symbol
 _atom_site_label
 _atom_site_symmetry_multiplicity
 _atom_site_fract_x
 _atom_site_fract_y
 _atom_site_fract_z
 _atom_site_occupancy
  Pr  Pr0  1  0.994463  0.667869  0.250000  1
  Pr  Pr1  1  0.005537  0.332131  0.750000  1
  Pr  Pr2  1  0.667869  0.994463  0.250000  1
  Pr  Pr3  1  0.332131  0.005537  0.750000  1
  Al  Al4  1  0.125729  0.125729  0.250000  1
  Al  Al5  1  0.874271  0.874271  0.750000  1
  Al  Al6  1  0.002128  0.328475  0.073613  1
  Al  Al7  1  0.997872  0.671525  0.926387  1
  Al  Al8  1  0.997872  0.671525  0.573613  1
  Al  Al9  1  0.328475  0.002128  0.426387  1
  Al  Al10  1  0.002128  0.328475  0.426387  1
  Al  Al11  1  0.671525  0.997872  0.573613  1
  Al  Al12  1  0.671525  0.997872  0.926387  1
  Al  Al13  1  0.328475  0.002128  0.073613  1
  Al  Al14  1  0.328948  0.328948  0.549066  1
  Al  Al15  1  0.671052  0.671052  0.450934  1
  Al  Al16  1  0.671052  0.671052  0.049066  1
  Al  Al17  1  0.328948  0.328948  0.950934  1
  Al  Al18  1  0.341572  0.543138  0.250000  1
  Al  Al19  1  0.658428  0.456862  0.750000  1
  Al  Al20  1  0.543138  0.341572  0.250000  1
  Al  Al21  1  0.456862  0.658428  0.750000  1
  Ru  Ru22  1  0.000000  0.000000  0.000000  1
  Ru  Ru23  1  0.000000  0.000000  0.500000  1
  Pt  Pt24  1  0.671232  0.328768  0.000000  1
  Pt  Pt25  1  0.328768  0.671232  0.000000  1
  Pt  Pt26  1  0.328768  0.671232  0.500000  1
  Pt  Pt27  1  0.671232  0.328768  0.500000  1
