# generated using pymatgen
data_Th2Co3Si5P2Ru9
_symmetry_space_group_name_H-M   'P 1'
_cell_length_a   9.54239000
_cell_length_b   9.53419127
_cell_length_c   3.86580100
_cell_angle_alpha   90.00000000
_cell_angle_beta   90.00000000
_cell_angle_gamma   120.22107886
_symmetry_Int_Tables_number   1
_chemical_formula_structural   Th2Co3Si5P2Ru9
_chemical_formula_sum   'Th2 Co3 Si5 P2 Ru9'
_cell_volume   303.90604416
_cell_formula_units_Z   1
loop_
 _symmetry_equiv_pos_site_id
 _symmetry_equiv_pos_as_xyz
  1  'x, y, z'
loop_
 _atom_site_type_symbol
 _atom_site_label
 _atom_site_symmetry_multiplicity
 _atom_site_fract_x
 _atom_site_fract_y
 _atom_site_fract_z
 _atom_site_occupancy
  Th  Th0  1  0.332865  0.666647  0.000000  1
  Th  Th1  1  0.669698  0.336202  0.500000  1
  Co  Co2  1  0.149464  0.877905  0.000000  1
  Co  Co3  1  0.123949  0.271024  0.000000  1
  Co  Co4  1  0.724708  0.850756  0.000000  1
  Si  Si5  1  0.397832  0.102714  0.000000  1
  Si  Si6  1  0.899526  0.294704  0.000000  1
  Si  Si7  1  0.705638  0.604782  0.000000  1
  Si  Si8  1  0.102546  0.715869  0.500000  1
  Si  Si9  1  0.998729  0.997668  0.000000  1
  P  P10  1  0.284889  0.386409  0.500000  1
  P  P11  1  0.611764  0.897360  0.500000  1
  Ru  Ru12  1  0.426623  0.368857  0.000000  1
  Ru  Ru13  1  0.633265  0.059412  0.000000  1
  Ru  Ru14  1  0.939459  0.570819  0.000000  1
  Ru  Ru15  1  0.382828  0.940895  0.500000  1
  Ru  Ru16  1  0.064179  0.437819  0.500000  1
  Ru  Ru17  1  0.557109  0.621735  0.500000  1
  Ru  Ru18  1  0.207669  0.111052  0.500000  1
  Ru  Ru19  1  0.887732  0.093591  0.500000  1
  Ru  Ru20  1  0.899529  0.793781  0.500000  1
