# generated using pymatgen
data_Ti8Al15Co3Pt4
_symmetry_space_group_name_H-M   'P 1'
_cell_length_a   8.59303663
_cell_length_b   8.60275832
_cell_length_c   8.62032462
_cell_angle_alpha   120.13243651
_cell_angle_beta   119.84370470
_cell_angle_gamma   89.96873420
_symmetry_Int_Tables_number   1
_chemical_formula_structural   Ti8Al15Co3Pt4
_chemical_formula_sum   'Ti8 Al15 Co3 Pt4'
_cell_volume   450.88413595
_cell_formula_units_Z   1
loop_
 _symmetry_equiv_pos_site_id
 _symmetry_equiv_pos_as_xyz
  1  'x, y, z'
loop_
 _atom_site_type_symbol
 _atom_site_label
 _atom_site_symmetry_multiplicity
 _atom_site_fract_x
 _atom_site_fract_y
 _atom_site_fract_z
 _atom_site_occupancy
  Ti  Ti0  1  0.792456  0.290550  0.077826  1
  Ti  Ti1  1  0.212540  0.289208  0.498337  1
  Ti  Ti2  1  0.208119  0.708578  0.497251  1
  Ti  Ti3  1  0.210276  0.712296  0.921803  1
  Ti  Ti4  1  0.792222  0.714761  0.502244  1
  Ti  Ti5  1  0.787658  0.287152  0.501219  1
  Ti  Ti6  1  0.380723  0.117553  0.734921  1
  Ti  Ti7  1  0.370592  0.643078  0.258071  1
  Al  Al8  1  0.998112  0.497883  0.499901  1
  Al  Al9  1  0.149406  0.336178  0.172829  1
  Al  Al10  1  0.153336  0.975735  0.822056  1
  Al  Al11  1  0.151431  0.346907  0.819362  1
  Al  Al12  1  0.530638  0.344356  0.187600  1
  Al  Al13  1  0.852235  0.661973  0.824624  1
  Al  Al14  1  0.849160  0.029771  0.180924  1
  Al  Al15  1  0.847732  0.652439  0.178117  1
  Al  Al16  1  0.470416  0.656504  0.813468  1
  Al  Al17  1  0.372041  0.114521  0.259774  1
  Al  Al18  1  0.855630  0.121959  0.744305  1
  Al  Al19  1  0.618628  0.881553  0.264656  1
  Al  Al20  1  0.628491  0.357025  0.741581  1
  Al  Al21  1  0.628750  0.883057  0.741298  1
  Al  Al22  1  0.139760  0.878026  0.253327  1
  Co  Co23  1  0.005481  0.503518  0.004887  1
  Co  Co24  1  0.000562  0.000769  0.998992  1
  Co  Co25  1  0.494937  0.996781  0.500870  1
  Pt  Pt26  1  0.997848  0.999417  0.499047  1
  Pt  Pt27  1  0.500307  0.999504  0.000804  1
  Pt  Pt28  1  0.500421  0.500302  0.999440  1
  Pt  Pt29  1  0.500091  0.498645  0.500464  1
