# generated using pymatgen
data_Th8Co3CuSi12
_symmetry_space_group_name_H-M   'P 1'
_cell_length_a   8.11800300
_cell_length_b   8.11800290
_cell_length_c   8.42869300
_cell_angle_alpha   90.00000000
_cell_angle_beta   90.00000000
_cell_angle_gamma   119.99999633
_symmetry_Int_Tables_number   1
_chemical_formula_structural   Th8Co3CuSi12
_chemical_formula_sum   'Th8 Co3 Cu1 Si12'
_cell_volume   481.04897446
_cell_formula_units_Z   1
loop_
 _symmetry_equiv_pos_site_id
 _symmetry_equiv_pos_as_xyz
  1  'x, y, z'
loop_
 _atom_site_type_symbol
 _atom_site_label
 _atom_site_symmetry_multiplicity
 _atom_site_fract_x
 _atom_site_fract_y
 _atom_site_fract_z
 _atom_site_occupancy
  Th  Th0  1  0.000000  0.000000  0.749499  1
  Th  Th1  1  0.000000  0.000000  0.250601  1
  Th  Th2  1  0.502328  0.497672  0.747358  1
  Th  Th3  1  0.502328  0.004657  0.747358  1
  Th  Th4  1  0.995343  0.497672  0.747358  1
  Th  Th5  1  0.502799  0.497201  0.252782  1
  Th  Th6  1  0.994404  0.497201  0.252782  1
  Th  Th7  1  0.502799  0.005596  0.252782  1
  Co  Co8  1  0.666667  0.333333  0.998433  1
  Co  Co9  1  0.666667  0.333333  0.501440  1
  Co  Co10  1  0.333333  0.666667  0.498102  1
  Cu  Cu11  1  0.333333  0.666667  0.000950  1
  Si  Si12  1  0.827780  0.172220  0.999763  1
  Si  Si13  1  0.827780  0.655561  0.999763  1
  Si  Si14  1  0.344439  0.172220  0.999763  1
  Si  Si15  1  0.829621  0.170379  0.500368  1
  Si  Si16  1  0.829621  0.659242  0.500368  1
  Si  Si17  1  0.340758  0.170379  0.500368  1
  Si  Si18  1  0.171680  0.828320  0.499715  1
  Si  Si19  1  0.656639  0.828320  0.499715  1
  Si  Si20  1  0.171680  0.343361  0.499715  1
  Si  Si21  1  0.167909  0.832091  0.000339  1
  Si  Si22  1  0.664181  0.832091  0.000339  1
  Si  Si23  1  0.167909  0.335819  0.000339  1
