# generated using pymatgen
data_ScMnCo3P3W
_symmetry_space_group_name_H-M   'P 1'
_cell_length_a   3.60004800
_cell_length_b   10.39383800
_cell_length_c   11.97908700
_cell_angle_alpha   90.00000000
_cell_angle_beta   90.00000000
_cell_angle_gamma   90.00000000
_symmetry_Int_Tables_number   1
_chemical_formula_structural   ScMnCo3P3W
_chemical_formula_sum   'Sc4 Mn4 Co12 P12 W4'
_cell_volume   448.23725921
_cell_formula_units_Z   4
loop_
 _symmetry_equiv_pos_site_id
 _symmetry_equiv_pos_as_xyz
  1  'x, y, z'
loop_
 _atom_site_type_symbol
 _atom_site_label
 _atom_site_symmetry_multiplicity
 _atom_site_fract_x
 _atom_site_fract_y
 _atom_site_fract_z
 _atom_site_occupancy
  Sc  Sc0  1  0.250000  0.584303  0.708481  1
  Sc  Sc1  1  0.250000  0.915697  0.208481  1
  Sc  Sc2  1  0.750000  0.415697  0.291519  1
  Sc  Sc3  1  0.750000  0.084303  0.791519  1
  Mn  Mn4  1  0.250000  0.408204  0.490049  1
  Mn  Mn5  1  0.250000  0.091796  0.990049  1
  Mn  Mn6  1  0.750000  0.591796  0.509951  1
  Mn  Mn7  1  0.750000  0.908204  0.009951  1
  Co  Co8  1  0.250000  0.224995  0.178425  1
  Co  Co9  1  0.250000  0.275006  0.678425  1
  Co  Co10  1  0.750000  0.775006  0.821575  1
  Co  Co11  1  0.750000  0.724994  0.321575  1
  Co  Co12  1  0.250000  0.886996  0.698897  1
  Co  Co13  1  0.250000  0.613004  0.198897  1
  Co  Co14  1  0.750000  0.113004  0.301103  1
  Co  Co15  1  0.750000  0.386996  0.801103  1
  Co  Co16  1  0.250000  0.465581  0.933590  1
  Co  Co17  1  0.250000  0.034419  0.433590  1
  Co  Co18  1  0.750000  0.534419  0.066410  1
  Co  Co19  1  0.750000  0.965581  0.566410  1
  P  P20  1  0.250000  0.421449  0.117985  1
  P  P21  1  0.250000  0.078551  0.617985  1
  P  P22  1  0.750000  0.578551  0.882015  1
  P  P23  1  0.750000  0.921449  0.382015  1
  P  P24  1  0.250000  0.264991  0.862165  1
  P  P25  1  0.250000  0.235009  0.362165  1
  P  P26  1  0.750000  0.735009  0.137835  1
  P  P27  1  0.750000  0.764991  0.637835  1
  P  P28  1  0.250000  0.592648  0.381790  1
  P  P29  1  0.250000  0.907352  0.881790  1
  P  P30  1  0.750000  0.407352  0.618210  1
  P  P31  1  0.750000  0.092648  0.118210  1
  W  W32  1  0.250000  0.711575  0.988446  1
  W  W33  1  0.250000  0.788425  0.488446  1
  W  W34  1  0.750000  0.288425  0.011554  1
  W  W35  1  0.750000  0.211575  0.511554  1
