# generated using pymatgen
data_TmTh5(CoSn)6
_symmetry_space_group_name_H-M   'P 1'
_cell_length_a   7.35790200
_cell_length_b   7.36586786
_cell_length_c   8.03922800
_cell_angle_alpha   90.00000000
_cell_angle_beta   90.00000000
_cell_angle_gamma   120.03990622
_symmetry_Int_Tables_number   1
_chemical_formula_structural   TmTh5(CoSn)6
_chemical_formula_sum   'Tm1 Th5 Co6 Sn6'
_cell_volume   377.17953510
_cell_formula_units_Z   1
loop_
 _symmetry_equiv_pos_site_id
 _symmetry_equiv_pos_as_xyz
  1  'x, y, z'
loop_
 _atom_site_type_symbol
 _atom_site_label
 _atom_site_symmetry_multiplicity
 _atom_site_fract_x
 _atom_site_fract_y
 _atom_site_fract_z
 _atom_site_occupancy
  Tm  Tm0  1  0.403632  0.000863  0.750000  1
  Th  Th1  1  0.416016  0.000883  0.250000  1
  Th  Th2  1  0.584748  0.585867  0.750000  1
  Th  Th3  1  0.589435  0.588643  0.250000  1
  Th  Th4  1  0.999639  0.410997  0.250000  1
  Th  Th5  1  0.000868  0.415147  0.750000  1
  Co  Co6  1  0.671555  0.337543  0.502033  1
  Co  Co7  1  0.671555  0.337543  0.997967  1
  Co  Co8  1  0.333511  0.661347  0.000467  1
  Co  Co9  1  0.333511  0.661347  0.499533  1
  Co  Co10  1  0.998050  0.000239  0.750000  1
  Co  Co11  1  0.998280  0.999681  0.250000  1
  Sn  Sn12  1  0.249978  0.245259  0.501749  1
  Sn  Sn13  1  0.249978  0.245259  0.998251  1
  Sn  Sn14  1  0.744731  0.000008  0.992248  1
  Sn  Sn15  1  0.004893  0.754683  0.502112  1
  Sn  Sn16  1  0.744731  0.000008  0.507752  1
  Sn  Sn17  1  0.004893  0.754683  0.997888  1
