# generated using pymatgen
data_La2Nd3GdNb2O14
_symmetry_space_group_name_H-M   'P 1'
_cell_length_a   6.67783351
_cell_length_b   6.67898398
_cell_length_c   7.78822300
_cell_angle_alpha   90.00000000
_cell_angle_beta   90.00000000
_cell_angle_gamma   109.23904512
_symmetry_Int_Tables_number   1
_chemical_formula_structural   La2Nd3GdNb2O14
_chemical_formula_sum   'La2 Nd3 Gd1 Nb2 O14'
_cell_volume   327.96409713
_cell_formula_units_Z   1
loop_
 _symmetry_equiv_pos_site_id
 _symmetry_equiv_pos_as_xyz
  1  'x, y, z'
loop_
 _atom_site_type_symbol
 _atom_site_label
 _atom_site_symmetry_multiplicity
 _atom_site_fract_x
 _atom_site_fract_y
 _atom_site_fract_z
 _atom_site_occupancy
  La  La0  1  0.492357  0.493597  0.500800  1
  La  La1  1  0.492357  0.493597  0.999200  1
  Nd  Nd2  1  0.537404  0.999135  0.750000  1
  Nd  Nd3  1  0.998192  0.536037  0.250000  1
  Nd  Nd4  1  0.463482  0.999541  0.250000  1
  Gd  Gd5  1  0.999272  0.467309  0.750000  1
  Nb  Nb6  1  0.999631  0.999541  0.501364  1
  Nb  Nb7  1  0.999631  0.999541  0.998636  1
  O  O8  1  0.685964  0.930037  0.469262  1
  O  O9  1  0.941422  0.689149  0.536302  1
  O  O10  1  0.685964  0.930037  0.030738  1
  O  O11  1  0.941422  0.689149  0.963698  1
  O  O12  1  0.317553  0.072857  0.529620  1
  O  O13  1  0.066365  0.316548  0.472959  1
  O  O14  1  0.317553  0.072857  0.970380  1
  O  O15  1  0.066365  0.316548  0.027041  1
  O  O16  1  0.361290  0.626967  0.750000  1
  O  O17  1  0.629965  0.368856  0.250000  1
  O  O18  1  0.643692  0.364656  0.750000  1
  O  O19  1  0.362440  0.634122  0.250000  1
  O  O20  1  0.938391  0.061628  0.750000  1
  O  O21  1  0.059285  0.938293  0.250000  1
