# generated using pymatgen
data_La2As2RuRh3Au2
_symmetry_space_group_name_H-M   'P 1'
_cell_length_a   4.12964400
_cell_length_b   4.12956100
_cell_length_c   11.38152700
_cell_angle_alpha   90.00000000
_cell_angle_beta   90.00000000
_cell_angle_gamma   90.00000000
_symmetry_Int_Tables_number   1
_chemical_formula_structural   La2As2RuRh3Au2
_chemical_formula_sum   'La2 As2 Ru1 Rh3 Au2'
_cell_volume   194.09620013
_cell_formula_units_Z   1
loop_
 _symmetry_equiv_pos_site_id
 _symmetry_equiv_pos_as_xyz
  1  'x, y, z'
loop_
 _atom_site_type_symbol
 _atom_site_label
 _atom_site_symmetry_multiplicity
 _atom_site_fract_x
 _atom_site_fract_y
 _atom_site_fract_z
 _atom_site_occupancy
  La  La0  1  0.000000  0.500000  0.256659  1
  La  La1  1  0.500000  0.000000  0.743337  1
  As  As2  1  0.000000  0.500000  0.881866  1
  As  As3  1  0.500000  0.000000  0.118151  1
  Ru  Ru4  1  0.000000  0.000000  0.000021  1
  Rh  Rh5  1  0.500000  0.500000  0.000028  1
  Rh  Rh6  1  0.000000  0.500000  0.671291  1
  Rh  Rh7  1  0.500000  0.000000  0.328701  1
  Au  Au8  1  0.000000  0.000000  0.499974  1
  Au  Au9  1  0.500000  0.500000  0.499975  1
