# generated using pymatgen
data_DyScMn10Fe2P7
_symmetry_space_group_name_H-M   'P 1'
_cell_length_a   9.24214833
_cell_length_b   9.23568926
_cell_length_c   3.53273500
_cell_angle_alpha   90.00000000
_cell_angle_beta   90.00000000
_cell_angle_gamma   120.05377840
_symmetry_Int_Tables_number   1
_chemical_formula_structural   DyScMn10Fe2P7
_chemical_formula_sum   'Dy1 Sc1 Mn10 Fe2 P7'
_cell_volume   261.00470562
_cell_formula_units_Z   1
loop_
 _symmetry_equiv_pos_site_id
 _symmetry_equiv_pos_as_xyz
  1  'x, y, z'
loop_
 _atom_site_type_symbol
 _atom_site_label
 _atom_site_symmetry_multiplicity
 _atom_site_fract_x
 _atom_site_fract_y
 _atom_site_fract_z
 _atom_site_occupancy
  Dy  Dy0  1  0.000273  0.000414  0.500000  1
  Sc  Sc1  1  0.334303  0.667121  0.000000  1
  Mn  Mn2  1  0.713975  0.760789  0.000000  1
  Mn  Mn3  1  0.239403  0.954757  0.000000  1
  Mn  Mn4  1  0.045353  0.285993  0.000000  1
  Mn  Mn5  1  0.943396  0.489355  0.000000  1
  Mn  Mn6  1  0.105173  0.723251  0.500000  1
  Mn  Mn7  1  0.275690  0.380887  0.500000  1
  Mn  Mn8  1  0.618109  0.893129  0.500000  1
  Mn  Mn9  1  0.767639  0.562064  0.500000  1
  Mn  Mn10  1  0.436948  0.204913  0.500000  1
  Mn  Mn11  1  0.794323  0.232472  0.500000  1
  Fe  Fe12  1  0.510406  0.452346  0.000000  1
  Fe  Fe13  1  0.547514  0.058241  0.000000  1
  P  P14  1  0.954740  0.741826  0.000000  1
  P  P15  1  0.259090  0.214465  0.000000  1
  P  P16  1  0.785519  0.045153  0.000000  1
  P  P17  1  0.082763  0.465442  0.500000  1
  P  P18  1  0.534777  0.613258  0.500000  1
  P  P19  1  0.385561  0.921355  0.500000  1
  P  P20  1  0.665046  0.332769  0.000000  1
