# generated using pymatgen
data_Tb2Al(GaPt2)2
_symmetry_space_group_name_H-M   'P 1'
_cell_length_a   8.15912039
_cell_length_b   8.15911936
_cell_length_c   7.65566200
_cell_angle_alpha   90.00000000
_cell_angle_beta   90.00000000
_cell_angle_gamma   139.95577458
_symmetry_Int_Tables_number   1
_chemical_formula_structural   Tb2Al(GaPt2)2
_chemical_formula_sum   'Tb4 Al2 Ga4 Pt8'
_cell_volume   327.89595972
_cell_formula_units_Z   2
loop_
 _symmetry_equiv_pos_site_id
 _symmetry_equiv_pos_as_xyz
  1  'x, y, z'
loop_
 _atom_site_type_symbol
 _atom_site_label
 _atom_site_symmetry_multiplicity
 _atom_site_fract_x
 _atom_site_fract_y
 _atom_site_fract_z
 _atom_site_occupancy
  Tb  Tb0  1  0.107318  0.892682  0.406847  1
  Tb  Tb1  1  0.892682  0.107318  0.593153  1
  Tb  Tb2  1  0.392682  0.607318  0.906847  1
  Tb  Tb3  1  0.607318  0.392682  0.093153  1
  Al  Al4  1  0.000000  0.000000  0.000000  1
  Al  Al5  1  0.500000  0.500000  0.500000  1
  Ga  Ga6  1  0.022006  0.477994  0.250000  1
  Ga  Ga7  1  0.477994  0.022006  0.750000  1
  Ga  Ga8  1  0.977994  0.522006  0.750000  1
  Ga  Ga9  1  0.522006  0.977994  0.250000  1
  Pt  Pt10  1  0.192257  0.307743  0.250000  1
  Pt  Pt11  1  0.307743  0.192257  0.750000  1
  Pt  Pt12  1  0.807743  0.692257  0.750000  1
  Pt  Pt13  1  0.692257  0.807743  0.250000  1
  Pt  Pt14  1  0.180890  0.819110  0.026620  1
  Pt  Pt15  1  0.819110  0.180890  0.973380  1
  Pt  Pt16  1  0.319110  0.680890  0.526620  1
  Pt  Pt17  1  0.680890  0.319110  0.473380  1
