# generated using pymatgen
data_Nd2Cd13Au6
_symmetry_space_group_name_H-M   'P 1'
_cell_length_a   8.94205026
_cell_length_b   8.94205074
_cell_length_c   14.15205309
_cell_angle_alpha   63.17095097
_cell_angle_beta   63.17094842
_cell_angle_gamma   28.28063254
_symmetry_Int_Tables_number   1
_chemical_formula_structural   Nd2Cd13Au6
_chemical_formula_sum   'Nd2 Cd13 Au6'
_cell_volume   474.53065830
_cell_formula_units_Z   1
loop_
 _symmetry_equiv_pos_site_id
 _symmetry_equiv_pos_as_xyz
  1  'x, y, z'
loop_
 _atom_site_type_symbol
 _atom_site_label
 _atom_site_symmetry_multiplicity
 _atom_site_fract_x
 _atom_site_fract_y
 _atom_site_fract_z
 _atom_site_occupancy
  Nd  Nd0  1  0.820998  0.820998  0.277944  1
  Nd  Nd1  1  0.179002  0.179002  0.722056  1
  Cd  Cd2  1  0.808002  0.808002  0.530818  1
  Cd  Cd3  1  0.007004  0.007004  0.325463  1
  Cd  Cd4  1  0.707261  0.707261  0.121537  1
  Cd  Cd5  1  0.506696  0.506696  0.836537  1
  Cd  Cd6  1  0.352978  0.352978  0.071305  1
  Cd  Cd7  1  0.191998  0.191998  0.469182  1
  Cd  Cd8  1  0.411140  0.411140  0.591520  1
  Cd  Cd9  1  0.992996  0.992996  0.674537  1
  Cd  Cd10  1  0.000000  0.000000  0.000000  1
  Cd  Cd11  1  0.647022  0.647022  0.928695  1
  Cd  Cd12  1  0.292739  0.292739  0.878463  1
  Cd  Cd13  1  0.588860  0.588860  0.408480  1
  Cd  Cd14  1  0.493304  0.493304  0.163463  1
  Au  Au15  1  0.807364  0.807364  0.734532  1
  Au  Au16  1  0.192636  0.192636  0.265468  1
  Au  Au17  1  0.118876  0.118876  0.083814  1
  Au  Au18  1  0.386524  0.386524  0.389781  1
  Au  Au19  1  0.613476  0.613476  0.610219  1
  Au  Au20  1  0.881124  0.881124  0.916186  1
