# generated using pymatgen
data_Ac2SiPtBr
_symmetry_space_group_name_H-M   'P 1'
_cell_length_a   4.43386000
_cell_length_b   4.43386002
_cell_length_c   8.34355000
_cell_angle_alpha   90.00000000
_cell_angle_beta   90.00000000
_cell_angle_gamma   119.99998491
_symmetry_Int_Tables_number   1
_chemical_formula_structural   Ac2SiPtBr
_chemical_formula_sum   'Ac2 Si1 Pt1 Br1'
_cell_volume   142.05140216
_cell_formula_units_Z   1
loop_
 _symmetry_equiv_pos_site_id
 _symmetry_equiv_pos_as_xyz
  1  'x, y, z'
loop_
 _atom_site_type_symbol
 _atom_site_label
 _atom_site_symmetry_multiplicity
 _atom_site_fract_x
 _atom_site_fract_y
 _atom_site_fract_z
 _atom_site_occupancy
  Ac  Ac0  1  0.000000  0.000000  0.230916  1
  Ac  Ac1  1  0.000000  0.000000  0.769084  1
  Si  Si2  1  0.333333  0.666667  0.000000  1
  Pt  Pt3  1  0.666667  0.333333  0.000000  1
  Br  Br4  1  0.666667  0.333333  0.500000  1
