# generated using pymatgen
data_Ce7(DyTc2)3
_symmetry_space_group_name_H-M   'P 1'
_cell_length_a   7.97294600
_cell_length_b   7.97294533
_cell_length_c   6.77531800
_cell_angle_alpha   90.00000000
_cell_angle_beta   90.00000000
_cell_angle_gamma   120.00000280
_symmetry_Int_Tables_number   1
_chemical_formula_structural   Ce7(DyTc2)3
_chemical_formula_sum   'Ce7 Dy3 Tc6'
_cell_volume   372.99062123
_cell_formula_units_Z   1
loop_
 _symmetry_equiv_pos_site_id
 _symmetry_equiv_pos_as_xyz
  1  'x, y, z'
loop_
 _atom_site_type_symbol
 _atom_site_label
 _atom_site_symmetry_multiplicity
 _atom_site_fract_x
 _atom_site_fract_y
 _atom_site_fract_z
 _atom_site_occupancy
  Ce  Ce0  1  0.666667  0.333333  0.500000  1
  Ce  Ce1  1  0.760661  0.761160  0.749171  1
  Ce  Ce2  1  0.238840  0.999501  0.749171  1
  Ce  Ce3  1  0.000499  0.239339  0.749171  1
  Ce  Ce4  1  0.238840  0.239339  0.250829  1
  Ce  Ce5  1  0.760661  0.999501  0.250829  1
  Ce  Ce6  1  0.000499  0.761160  0.250829  1
  Dy  Dy7  1  0.666667  0.333333  0.000000  1
  Dy  Dy8  1  0.333333  0.666667  0.000000  1
  Dy  Dy9  1  0.333333  0.666667  0.500000  1
  Tc  Tc10  1  0.364487  0.360141  0.746462  1
  Tc  Tc11  1  0.639859  0.004346  0.746462  1
  Tc  Tc12  1  0.995654  0.635513  0.746462  1
  Tc  Tc13  1  0.639859  0.635513  0.253538  1
  Tc  Tc14  1  0.364487  0.004346  0.253538  1
  Tc  Tc15  1  0.995654  0.360141  0.253538  1
