# generated using pymatgen
data_Hf5Co19(SiP3)3
_symmetry_space_group_name_H-M   'P 1'
_cell_length_a   11.84766500
_cell_length_b   11.84766400
_cell_length_c   3.60287600
_cell_angle_alpha   90.00000000
_cell_angle_beta   90.00000000
_cell_angle_gamma   120.00000000
_symmetry_Int_Tables_number   1
_chemical_formula_structural   Hf5Co19(SiP3)3
_chemical_formula_sum   'Hf5 Co19 Si3 P9'
_cell_volume   437.97108768
_cell_formula_units_Z   1
loop_
 _symmetry_equiv_pos_site_id
 _symmetry_equiv_pos_as_xyz
  1  'x, y, z'
loop_
 _atom_site_type_symbol
 _atom_site_label
 _atom_site_symmetry_multiplicity
 _atom_site_fract_x
 _atom_site_fract_y
 _atom_site_fract_z
 _atom_site_occupancy
  Hf  Hf0  1  0.333333  0.666667  0.000000  1
  Hf  Hf1  1  0.666667  0.333333  0.000000  1
  Hf  Hf2  1  0.000000  0.181778  0.500000  1
  Hf  Hf3  1  0.818222  0.818222  0.500000  1
  Hf  Hf4  1  0.181778  0.000000  0.500000  1
  Co  Co5  1  0.624481  0.824739  0.000000  1
  Co  Co6  1  0.175261  0.799742  0.000000  1
  Co  Co7  1  0.200258  0.375519  0.000000  1
  Co  Co8  1  0.375519  0.200258  0.000000  1
  Co  Co9  1  0.824739  0.624481  0.000000  1
  Co  Co10  1  0.799742  0.175261  0.000000  1
  Co  Co11  1  0.000000  0.553374  0.000000  1
  Co  Co12  1  0.446626  0.446626  0.000000  1
  Co  Co13  1  0.553374  0.000000  0.000000  1
  Co  Co14  1  0.514227  0.643875  0.500000  1
  Co  Co15  1  0.356125  0.870352  0.500000  1
  Co  Co16  1  0.129648  0.485773  0.500000  1
  Co  Co17  1  0.485773  0.129648  0.500000  1
  Co  Co18  1  0.643875  0.514227  0.500000  1
  Co  Co19  1  0.870352  0.356125  0.500000  1
  Co  Co20  1  0.000000  0.715369  0.500000  1
  Co  Co21  1  0.284631  0.284631  0.500000  1
  Co  Co22  1  0.715369  0.000000  0.500000  1
  Co  Co23  1  0.000000  0.000000  0.000000  1
  Si  Si24  1  0.000000  0.362014  0.000000  1
  Si  Si25  1  0.637986  0.637986  0.000000  1
  Si  Si26  1  0.362014  0.000000  0.000000  1
  P  P27  1  0.516851  0.832867  0.500000  1
  P  P28  1  0.167133  0.683984  0.500000  1
  P  P29  1  0.316016  0.483149  0.500000  1
  P  P30  1  0.483149  0.316016  0.500000  1
  P  P31  1  0.832867  0.516851  0.500000  1
  P  P32  1  0.683984  0.167133  0.500000  1
  P  P33  1  0.000000  0.823336  0.000000  1
  P  P34  1  0.176664  0.176664  0.000000  1
  P  P35  1  0.823336  0.000000  0.000000  1
