# generated using pymatgen
data_Np5Pa3(BeSi3)4
_symmetry_space_group_name_H-M   'P 1'
_cell_length_a   7.83479000
_cell_length_b   7.83478948
_cell_length_c   8.01429800
_cell_angle_alpha   90.00000000
_cell_angle_beta   90.00000000
_cell_angle_gamma   120.00001062
_symmetry_Int_Tables_number   1
_chemical_formula_structural   Np5Pa3(BeSi3)4
_chemical_formula_sum   'Np5 Pa3 Be4 Si12'
_cell_volume   426.04038088
_cell_formula_units_Z   1
loop_
 _symmetry_equiv_pos_site_id
 _symmetry_equiv_pos_as_xyz
  1  'x, y, z'
loop_
 _atom_site_type_symbol
 _atom_site_label
 _atom_site_symmetry_multiplicity
 _atom_site_fract_x
 _atom_site_fract_y
 _atom_site_fract_z
 _atom_site_occupancy
  Np  Np0  1  0.000000  0.000000  0.250000  1
  Np  Np1  1  0.000000  0.000000  0.750000  1
  Np  Np2  1  0.500374  0.499626  0.250000  1
  Np  Np3  1  0.500374  0.000747  0.250000  1
  Np  Np4  1  0.999253  0.499626  0.250000  1
  Pa  Pa5  1  0.499724  0.500276  0.750000  1
  Pa  Pa6  1  0.499724  0.999449  0.750000  1
  Pa  Pa7  1  0.000551  0.500276  0.750000  1
  Be  Be8  1  0.333333  0.666667  0.498360  1
  Be  Be9  1  0.666667  0.333333  0.502563  1
  Be  Be10  1  0.666667  0.333333  0.997437  1
  Be  Be11  1  0.333333  0.666667  0.001640  1
  Si  Si12  1  0.172898  0.827102  0.497373  1
  Si  Si13  1  0.172898  0.345794  0.497373  1
  Si  Si14  1  0.654206  0.827102  0.497373  1
  Si  Si15  1  0.827121  0.172879  0.497592  1
  Si  Si16  1  0.827121  0.654245  0.497592  1
  Si  Si17  1  0.345755  0.172879  0.497592  1
  Si  Si18  1  0.827121  0.172879  0.002408  1
  Si  Si19  1  0.827121  0.654245  0.002408  1
  Si  Si20  1  0.345755  0.172879  0.002408  1
  Si  Si21  1  0.172898  0.827102  0.002627  1
  Si  Si22  1  0.172898  0.345794  0.002627  1
  Si  Si23  1  0.654206  0.827102  0.002627  1
