# generated using pymatgen
data_Sr5Ti4IrO15
_symmetry_space_group_name_H-M   'P 1'
_cell_length_a   11.85691825
_cell_length_b   11.85691849
_cell_length_c   11.85691857
_cell_angle_alpha   27.25582038
_cell_angle_beta   27.25582006
_cell_angle_gamma   27.25582250
_symmetry_Int_Tables_number   1
_chemical_formula_structural   Sr5Ti4IrO15
_chemical_formula_sum   'Sr5 Ti4 Ir1 O15'
_cell_volume   308.47142745
_cell_formula_units_Z   1
loop_
 _symmetry_equiv_pos_site_id
 _symmetry_equiv_pos_as_xyz
  1  'x, y, z'
loop_
 _atom_site_type_symbol
 _atom_site_label
 _atom_site_symmetry_multiplicity
 _atom_site_fract_x
 _atom_site_fract_y
 _atom_site_fract_z
 _atom_site_occupancy
  Sr  Sr0  1  0.899186  0.899186  0.899186  1
  Sr  Sr1  1  0.100814  0.100814  0.100814  1
  Sr  Sr2  1  0.500000  0.500000  0.500000  1
  Sr  Sr3  1  0.299222  0.299222  0.299222  1
  Sr  Sr4  1  0.700778  0.700778  0.700778  1
  Ti  Ti5  1  0.400087  0.400087  0.400087  1
  Ti  Ti6  1  0.799843  0.799843  0.799843  1
  Ti  Ti7  1  0.200157  0.200157  0.200157  1
  Ti  Ti8  1  0.599913  0.599913  0.599913  1
  Ir  Ir9  1  0.000000  0.000000  0.000000  1
  O  O10  1  0.399838  0.399838  0.900217  1
  O  O11  1  0.600162  0.600162  0.099783  1
  O  O12  1  0.000000  0.000000  0.500000  1
  O  O13  1  0.798091  0.798091  0.302294  1
  O  O14  1  0.201909  0.201909  0.697706  1
  O  O15  1  0.900217  0.399838  0.399838  1
  O  O16  1  0.099783  0.600162  0.600162  1
  O  O17  1  0.500000  0.000000  0.000000  1
  O  O18  1  0.302294  0.798091  0.798091  1
  O  O19  1  0.697706  0.201909  0.201909  1
  O  O20  1  0.399838  0.900217  0.399838  1
  O  O21  1  0.600162  0.099783  0.600162  1
  O  O22  1  0.000000  0.500000  0.000000  1
  O  O23  1  0.798091  0.302294  0.798091  1
  O  O24  1  0.201909  0.697706  0.201909  1
