# generated using pymatgen
data_Sm3CCl5
_symmetry_space_group_name_H-M   'P 1'
_cell_length_a   7.31666015
_cell_length_b   8.63697045
_cell_length_c   8.77980679
_cell_angle_alpha   107.94560100
_cell_angle_beta   97.31151762
_cell_angle_gamma   105.84710170
_symmetry_Int_Tables_number   1
_chemical_formula_structural   Sm3CCl5
_chemical_formula_sum   'Sm6 C2 Cl10'
_cell_volume   494.04307832
_cell_formula_units_Z   2
loop_
 _symmetry_equiv_pos_site_id
 _symmetry_equiv_pos_as_xyz
  1  'x, y, z'
loop_
 _atom_site_type_symbol
 _atom_site_label
 _atom_site_symmetry_multiplicity
 _atom_site_fract_x
 _atom_site_fract_y
 _atom_site_fract_z
 _atom_site_occupancy
  Sm  Sm0  1  0.882169  0.951940  0.233524  1
  Sm  Sm1  1  0.117831  0.048060  0.766476  1
  Sm  Sm2  1  0.025776  0.711128  0.913005  1
  Sm  Sm3  1  0.974224  0.288872  0.086995  1
  Sm  Sm4  1  0.601777  0.840612  0.789055  1
  Sm  Sm5  1  0.398223  0.159388  0.210945  1
  C  C6  1  0.903543  0.965091  0.951075  1
  C  C7  1  0.096457  0.034909  0.048925  1
  Cl  Cl8  1  0.755570  0.915891  0.537887  1
  Cl  Cl9  1  0.244430  0.084109  0.462113  1
  Cl  Cl10  1  0.458735  0.824345  0.080328  1
  Cl  Cl11  1  0.541265  0.175655  0.919672  1
  Cl  Cl12  1  0.820052  0.264031  0.353390  1
  Cl  Cl13  1  0.179948  0.735969  0.646610  1
  Cl  Cl14  1  0.909010  0.627121  0.172284  1
  Cl  Cl15  1  0.090990  0.372879  0.827716  1
  Cl  Cl16  1  0.652869  0.532046  0.719750  1
  Cl  Cl17  1  0.347131  0.467954  0.280250  1
