# generated using pymatgen
data_ErLu9(InBi2)2
_symmetry_space_group_name_H-M   'P 1'
_cell_length_a   6.39599006
_cell_length_b   8.95211393
_cell_length_c   8.92181400
_cell_angle_alpha   120.11241919
_cell_angle_beta   90.00784000
_cell_angle_gamma   89.98439873
_symmetry_Int_Tables_number   1
_chemical_formula_structural   ErLu9(InBi2)2
_chemical_formula_sum   'Er1 Lu9 In2 Bi4'
_cell_volume   441.90007219
_cell_formula_units_Z   1
loop_
 _symmetry_equiv_pos_site_id
 _symmetry_equiv_pos_as_xyz
  1  'x, y, z'
loop_
 _atom_site_type_symbol
 _atom_site_label
 _atom_site_symmetry_multiplicity
 _atom_site_fract_x
 _atom_site_fract_y
 _atom_site_fract_z
 _atom_site_occupancy
  Er  Er0  1  0.750285  0.234624  0.000000  1
  Lu  Lu1  1  0.496218  0.332278  0.659713  1
  Lu  Lu2  1  0.496218  0.672566  0.340287  1
  Lu  Lu3  1  0.003766  0.672375  0.340071  1
  Lu  Lu4  1  0.003766  0.332305  0.659929  1
  Lu  Lu5  1  0.750151  0.765881  0.763764  1
  Lu  Lu6  1  0.750151  0.002118  0.236236  1
  Lu  Lu7  1  0.250438  0.767898  0.000000  1
  Lu  Lu8  1  0.250197  0.231341  0.242071  1
  Lu  Lu9  1  0.250197  0.989270  0.757929  1
  In  In10  1  0.249204  0.604024  0.605285  1
  In  In11  1  0.249204  0.998739  0.394715  1
  Bi  Bi12  1  0.750096  0.606328  0.000000  1
  Bi  Bi13  1  0.749939  0.397541  0.393563  1
  Bi  Bi14  1  0.749939  0.003978  0.606437  1
  Bi  Bi15  1  0.250233  0.388735  0.000000  1
