# generated using pymatgen
data_TlCrSb12RuPt2
_symmetry_space_group_name_H-M   'P 1'
_cell_length_a   8.23337417
_cell_length_b   8.19895233
_cell_length_c   8.23889228
_cell_angle_alpha   109.21007346
_cell_angle_beta   109.63470632
_cell_angle_gamma   109.35042770
_symmetry_Int_Tables_number   1
_chemical_formula_structural   TlCrSb12RuPt2
_chemical_formula_sum   'Tl1 Cr1 Sb12 Ru1 Pt2'
_cell_volume   429.28317114
_cell_formula_units_Z   1
loop_
 _symmetry_equiv_pos_site_id
 _symmetry_equiv_pos_as_xyz
  1  'x, y, z'
loop_
 _atom_site_type_symbol
 _atom_site_label
 _atom_site_symmetry_multiplicity
 _atom_site_fract_x
 _atom_site_fract_y
 _atom_site_fract_z
 _atom_site_occupancy
  Tl  Tl0  1  0.000000  0.000000  0.000000  1
  Cr  Cr1  1  0.000000  0.500000  0.000000  1
  Sb  Sb2  1  0.663818  0.850878  0.503601  1
  Sb  Sb3  1  0.336182  0.149122  0.496399  1
  Sb  Sb4  1  0.849269  0.187070  0.345886  1
  Sb  Sb5  1  0.823697  0.665170  0.160200  1
  Sb  Sb6  1  0.848017  0.503141  0.663017  1
  Sb  Sb7  1  0.176303  0.334830  0.839800  1
  Sb  Sb8  1  0.150731  0.812930  0.654114  1
  Sb  Sb9  1  0.501701  0.652830  0.847906  1
  Sb  Sb10  1  0.498299  0.347170  0.152094  1
  Sb  Sb11  1  0.151983  0.496859  0.336983  1
  Sb  Sb12  1  0.336931  0.839547  0.185221  1
  Sb  Sb13  1  0.663069  0.160453  0.814779  1
  Ru  Ru14  1  0.000000  0.000000  0.500000  1
  Pt  Pt15  1  0.500000  0.500000  0.500000  1
  Pt  Pt16  1  0.500000  0.000000  0.000000  1
