# generated using pymatgen
data_Y7HoCdInPd2
_symmetry_space_group_name_H-M   'P 1'
_cell_length_a   9.75002479
_cell_length_b   9.75002559
_cell_length_c   9.76281400
_cell_angle_alpha   59.95660219
_cell_angle_beta   59.95659947
_cell_angle_gamma   59.94785005
_symmetry_Int_Tables_number   1
_chemical_formula_structural   Y7HoCdInPd2
_chemical_formula_sum   'Y14 Ho2 Cd2 In2 Pd4'
_cell_volume   655.56394558
_cell_formula_units_Z   2
loop_
 _symmetry_equiv_pos_site_id
 _symmetry_equiv_pos_as_xyz
  1  'x, y, z'
loop_
 _atom_site_type_symbol
 _atom_site_label
 _atom_site_symmetry_multiplicity
 _atom_site_fract_x
 _atom_site_fract_y
 _atom_site_fract_z
 _atom_site_occupancy
  Y  Y0  1  0.354487  0.937807  0.353853  1
  Y  Y1  1  0.937807  0.354487  0.353853  1
  Y  Y2  1  0.809484  0.190831  0.190117  1
  Y  Y3  1  0.190831  0.809484  0.809568  1
  Y  Y4  1  0.190831  0.809484  0.190117  1
  Y  Y5  1  0.809484  0.190831  0.809568  1
  Y  Y6  1  0.189492  0.189492  0.810508  1
  Y  Y7  1  0.808678  0.808678  0.191322  1
  Y  Y8  1  0.937298  0.565021  0.564717  1
  Y  Y9  1  0.565021  0.937298  0.932964  1
  Y  Y10  1  0.565021  0.937298  0.564717  1
  Y  Y11  1  0.937298  0.565021  0.932964  1
  Y  Y12  1  0.565314  0.565314  0.934686  1
  Y  Y13  1  0.936379  0.936379  0.563621  1
  Ho  Ho14  1  0.352444  0.352444  0.352388  1
  Ho  Ho15  1  0.352444  0.352444  0.942725  1
  Cd  Cd16  1  0.581064  0.251724  0.583607  1
  Cd  Cd17  1  0.251724  0.581064  0.583607  1
  In  In18  1  0.582087  0.582087  0.584486  1
  In  In19  1  0.582087  0.582087  0.251340  1
  Pd  Pd20  1  0.144931  0.144931  0.144128  1
  Pd  Pd21  1  0.144931  0.144931  0.566008  1
  Pd  Pd22  1  0.145341  0.565520  0.144569  1
  Pd  Pd23  1  0.565520  0.145341  0.144569  1
