# generated using pymatgen
data_Tb12HoErRh6
_symmetry_space_group_name_H-M   'P 1'
_cell_length_a   9.84902200
_cell_length_b   9.84902128
_cell_length_c   6.20252300
_cell_angle_alpha   90.00000000
_cell_angle_beta   90.00000000
_cell_angle_gamma   119.99999570
_symmetry_Int_Tables_number   1
_chemical_formula_structural   Tb12HoErRh6
_chemical_formula_sum   'Tb12 Ho1 Er1 Rh6'
_cell_volume   521.05697904
_cell_formula_units_Z   1
loop_
 _symmetry_equiv_pos_site_id
 _symmetry_equiv_pos_as_xyz
  1  'x, y, z'
loop_
 _atom_site_type_symbol
 _atom_site_label
 _atom_site_symmetry_multiplicity
 _atom_site_fract_x
 _atom_site_fract_y
 _atom_site_fract_z
 _atom_site_occupancy
  Tb  Tb0  1  0.751647  0.875824  0.991488  1
  Tb  Tb1  1  0.875946  0.124054  0.491598  1
  Tb  Tb2  1  0.540895  0.459105  0.798108  1
  Tb  Tb3  1  0.082139  0.541070  0.298053  1
  Tb  Tb4  1  0.458930  0.917861  0.298053  1
  Tb  Tb5  1  0.540895  0.081790  0.798108  1
  Tb  Tb6  1  0.918210  0.459105  0.798108  1
  Tb  Tb7  1  0.458930  0.541070  0.298053  1
  Tb  Tb8  1  0.124176  0.248353  0.991488  1
  Tb  Tb9  1  0.875946  0.751892  0.491598  1
  Tb  Tb10  1  0.248108  0.124054  0.491598  1
  Tb  Tb11  1  0.124176  0.875824  0.991488  1
  Ho  Ho12  1  0.666667  0.333333  0.283650  1
  Er  Er13  1  0.333333  0.666667  0.783147  1
  Rh  Rh14  1  0.190397  0.809603  0.563442  1
  Rh  Rh15  1  0.380452  0.190226  0.063047  1
  Rh  Rh16  1  0.809774  0.619548  0.063047  1
  Rh  Rh17  1  0.190397  0.380795  0.563442  1
  Rh  Rh18  1  0.619205  0.809603  0.563442  1
  Rh  Rh19  1  0.809774  0.190226  0.063047  1
