# generated using pymatgen
data_Dy7Lu3Pt8
_symmetry_space_group_name_H-M   'P 1'
_cell_length_a   7.44573500
_cell_length_b   7.53772775
_cell_length_c   14.62467500
_cell_angle_alpha   90.05844355
_cell_angle_beta   90.00000000
_cell_angle_gamma   90.00000000
_symmetry_Int_Tables_number   1
_chemical_formula_structural   Dy7Lu3Pt8
_chemical_formula_sum   'Dy14 Lu6 Pt16'
_cell_volume   820.79371110
_cell_formula_units_Z   2
loop_
 _symmetry_equiv_pos_site_id
 _symmetry_equiv_pos_as_xyz
  1  'x, y, z'
loop_
 _atom_site_type_symbol
 _atom_site_label
 _atom_site_symmetry_multiplicity
 _atom_site_fract_x
 _atom_site_fract_y
 _atom_site_fract_z
 _atom_site_occupancy
  Dy  Dy0  1  0.343170  0.831188  0.122096  1
  Dy  Dy1  1  0.843170  0.668812  0.377904  1
  Dy  Dy2  1  0.343980  0.831790  0.377635  1
  Dy  Dy3  1  0.843980  0.668210  0.122365  1
  Dy  Dy4  1  0.656327  0.168342  0.877283  1
  Dy  Dy5  1  0.156327  0.331658  0.622717  1
  Dy  Dy6  1  0.502420  0.679452  0.594239  1
  Dy  Dy7  1  0.002420  0.820548  0.905761  1
  Dy  Dy8  1  0.498363  0.320897  0.093665  1
  Dy  Dy9  1  0.998363  0.179103  0.406335  1
  Dy  Dy10  1  0.498429  0.320406  0.407516  1
  Dy  Dy11  1  0.998429  0.179594  0.092484  1
  Dy  Dy12  1  0.500812  0.677295  0.905169  1
  Dy  Dy13  1  0.000812  0.822705  0.594831  1
  Lu  Lu14  1  0.656154  0.168031  0.623967  1
  Lu  Lu15  1  0.156154  0.331969  0.876033  1
  Lu  Lu16  1  0.819032  0.510587  0.749893  1
  Lu  Lu17  1  0.319032  0.989413  0.750107  1
  Lu  Lu18  1  0.181196  0.487728  0.250125  1
  Lu  Lu19  1  0.681196  0.012272  0.249875  1
  Pt  Pt20  1  0.683590  0.970693  0.459227  1
  Pt  Pt21  1  0.183590  0.529307  0.040773  1
  Pt  Pt22  1  0.314068  0.035043  0.956940  1
  Pt  Pt23  1  0.814068  0.464957  0.543060  1
  Pt  Pt24  1  0.319677  0.031851  0.543651  1
  Pt  Pt25  1  0.819677  0.468149  0.956349  1
  Pt  Pt26  1  0.682492  0.968554  0.042479  1
  Pt  Pt27  1  0.182492  0.531446  0.457521  1
  Pt  Pt28  1  0.454316  0.387014  0.750051  1
  Pt  Pt29  1  0.954316  0.112986  0.749949  1
  Pt  Pt30  1  0.545260  0.610117  0.249920  1
  Pt  Pt31  1  0.045260  0.889883  0.250080  1
  Pt  Pt32  1  0.681643  0.856408  0.749232  1
  Pt  Pt33  1  0.181643  0.643592  0.750768  1
  Pt  Pt34  1  0.319071  0.145352  0.250065  1
  Pt  Pt35  1  0.819071  0.354648  0.249935  1
