# generated using pymatgen
data_Ca2U6Re3TcB24
_symmetry_space_group_name_H-M   'P 1'
_cell_length_a   3.64395000
_cell_length_b   9.29555667
_cell_length_c   11.40095918
_cell_angle_alpha   89.92925780
_cell_angle_beta   90.00000000
_cell_angle_gamma   90.00000000
_symmetry_Int_Tables_number   1
_chemical_formula_structural   Ca2U6Re3TcB24
_chemical_formula_sum   'Ca2 U6 Re3 Tc1 B24'
_cell_volume   386.17919382
_cell_formula_units_Z   1
loop_
 _symmetry_equiv_pos_site_id
 _symmetry_equiv_pos_as_xyz
  1  'x, y, z'
loop_
 _atom_site_type_symbol
 _atom_site_label
 _atom_site_symmetry_multiplicity
 _atom_site_fract_x
 _atom_site_fract_y
 _atom_site_fract_z
 _atom_site_occupancy
  Ca  Ca0  1  0.000000  0.338511  0.408956  1
  Ca  Ca1  1  0.000000  0.661651  0.590805  1
  U  U2  1  0.000000  0.836752  0.092672  1
  U  U3  1  0.000000  0.163602  0.907234  1
  U  U4  1  0.000000  0.956010  0.396552  1
  U  U5  1  0.000000  0.043439  0.603035  1
  U  U6  1  0.000000  0.457816  0.104364  1
  U  U7  1  0.000000  0.542380  0.896089  1
  Re  Re8  1  0.000000  0.350139  0.686505  1
  Re  Re9  1  0.000000  0.142964  0.176581  1
  Re  Re10  1  0.000000  0.857185  0.823464  1
  Tc  Tc11  1  0.000000  0.649615  0.313454  1
  B  B12  1  0.500000  0.553219  0.429725  1
  B  B13  1  0.500000  0.446828  0.570116  1
  B  B14  1  0.500000  0.050074  0.067354  1
  B  B15  1  0.500000  0.950135  0.932577  1
  B  B16  1  0.500000  0.743062  0.421825  1
  B  B17  1  0.500000  0.256596  0.577994  1
  B  B18  1  0.500000  0.242735  0.076396  1
  B  B19  1  0.500000  0.757391  0.923688  1
  B  B20  1  0.500000  0.804236  0.273020  1
  B  B21  1  0.500000  0.195681  0.727022  1
  B  B22  1  0.500000  0.301598  0.224557  1
  B  B23  1  0.500000  0.698435  0.775547  1
  B  B24  1  0.500000  0.646055  0.187483  1
  B  B25  1  0.500000  0.354061  0.812811  1
  B  B26  1  0.500000  0.143822  0.310935  1
  B  B27  1  0.500000  0.856030  0.689040  1
  B  B28  1  0.500000  0.987672  0.218778  1
  B  B29  1  0.500000  0.012251  0.781210  1
  B  B30  1  0.500000  0.490245  0.280562  1
  B  B31  1  0.500000  0.510010  0.719552  1
  B  B32  1  0.500000  0.643532  0.039152  1
  B  B33  1  0.500000  0.356802  0.961187  1
  B  B34  1  0.500000  0.137561  0.461404  1
  B  B35  1  0.500000  0.861904  0.538353  1
