# generated using pymatgen
data_Y6Ti16Ir7
_symmetry_space_group_name_H-M   'P 1'
_cell_length_a   9.14180083
_cell_length_b   9.14180035
_cell_length_c   9.14180000
_cell_angle_alpha   60.00000128
_cell_angle_beta   60.00000302
_cell_angle_gamma   60.00000445
_symmetry_Int_Tables_number   1
_chemical_formula_structural   Y6Ti16Ir7
_chemical_formula_sum   'Y6 Ti16 Ir7'
_cell_volume   540.23191190
_cell_formula_units_Z   1
loop_
 _symmetry_equiv_pos_site_id
 _symmetry_equiv_pos_as_xyz
  1  'x, y, z'
loop_
 _atom_site_type_symbol
 _atom_site_label
 _atom_site_symmetry_multiplicity
 _atom_site_fract_x
 _atom_site_fract_y
 _atom_site_fract_z
 _atom_site_occupancy
  Y  Y0  1  0.698822  0.698822  0.301178  1
  Y  Y1  1  0.301178  0.698822  0.301178  1
  Y  Y2  1  0.698822  0.301178  0.301178  1
  Y  Y3  1  0.301178  0.301178  0.698822  1
  Y  Y4  1  0.698822  0.301178  0.698822  1
  Y  Y5  1  0.301178  0.698822  0.698822  1
  Ti  Ti6  1  0.881752  0.881752  0.354745  1
  Ti  Ti7  1  0.881752  0.354745  0.881752  1
  Ti  Ti8  1  0.354745  0.881752  0.881752  1
  Ti  Ti9  1  0.881752  0.881752  0.881752  1
  Ti  Ti10  1  0.118248  0.118248  0.645255  1
  Ti  Ti11  1  0.118248  0.645255  0.118248  1
  Ti  Ti12  1  0.645255  0.118248  0.118248  1
  Ti  Ti13  1  0.118248  0.118248  0.118248  1
  Ti  Ti14  1  0.673624  0.673624  0.979125  1
  Ti  Ti15  1  0.673624  0.979125  0.673624  1
  Ti  Ti16  1  0.979125  0.673624  0.673624  1
  Ti  Ti17  1  0.673624  0.673624  0.673624  1
  Ti  Ti18  1  0.326376  0.326376  0.020875  1
  Ti  Ti19  1  0.326376  0.020875  0.326376  1
  Ti  Ti20  1  0.020875  0.326376  0.326376  1
  Ti  Ti21  1  0.326376  0.326376  0.326376  1
  Ir  Ir22  1  0.000000  0.000000  0.000000  1
  Ir  Ir23  1  0.000000  0.000000  0.500000  1
  Ir  Ir24  1  0.500000  0.000000  0.500000  1
  Ir  Ir25  1  0.000000  0.500000  0.500000  1
  Ir  Ir26  1  0.500000  0.500000  0.000000  1
  Ir  Ir27  1  0.000000  0.500000  0.000000  1
  Ir  Ir28  1  0.500000  0.000000  0.000000  1
