# generated using pymatgen
data_RbLa(GaO2)4
_symmetry_space_group_name_H-M   'P 1'
_cell_length_a   6.75074806
_cell_length_b   6.75074777
_cell_length_c   6.75074800
_cell_angle_alpha   103.92985244
_cell_angle_beta   93.33623165
_cell_angle_gamma   134.51298418
_symmetry_Int_Tables_number   1
_chemical_formula_structural   RbLa(GaO2)4
_chemical_formula_sum   'Rb1 La1 Ga4 O8'
_cell_volume   201.15565583
_cell_formula_units_Z   1
loop_
 _symmetry_equiv_pos_site_id
 _symmetry_equiv_pos_as_xyz
  1  'x, y, z'
loop_
 _atom_site_type_symbol
 _atom_site_label
 _atom_site_symmetry_multiplicity
 _atom_site_fract_x
 _atom_site_fract_y
 _atom_site_fract_z
 _atom_site_occupancy
  Rb  Rb0  1  0.985688  0.985688  0.000000  1
  La  La1  1  0.074631  0.574631  0.500000  1
  Ga  Ga2  1  0.374858  0.834796  0.121932  1
  Ga  Ga3  1  0.712863  0.834796  0.459938  1
  Ga  Ga4  1  0.374858  0.252926  0.540062  1
  Ga  Ga5  1  0.712864  0.252926  0.878067  1
  O  O6  1  0.727080  0.201279  0.133111  1
  O  O7  1  0.413531  0.623502  0.209971  1
  O  O8  1  0.238981  0.913592  0.325389  1
  O  O9  1  0.068169  0.201280  0.474198  1
  O  O10  1  0.727080  0.593970  0.525802  1
  O  O11  1  0.588203  0.913592  0.674611  1
  O  O12  1  0.413532  0.203561  0.790029  1
  O  O13  1  0.068169  0.593971  0.866889  1
