# generated using pymatgen
data_Ho4HgPd8Pt3
_symmetry_space_group_name_H-M   'P 1'
_cell_length_a   4.19531800
_cell_length_b   5.85196521
_cell_length_c   11.64048600
_cell_angle_alpha   87.00968852
_cell_angle_beta   90.00000000
_cell_angle_gamma   90.00000000
_symmetry_Int_Tables_number   1
_chemical_formula_structural   Ho4HgPd8Pt3
_chemical_formula_sum   'Ho4 Hg1 Pd8 Pt3'
_cell_volume   285.39475185
_cell_formula_units_Z   1
loop_
 _symmetry_equiv_pos_site_id
 _symmetry_equiv_pos_as_xyz
  1  'x, y, z'
loop_
 _atom_site_type_symbol
 _atom_site_label
 _atom_site_symmetry_multiplicity
 _atom_site_fract_x
 _atom_site_fract_y
 _atom_site_fract_z
 _atom_site_occupancy
  Ho  Ho0  1  0.500000  0.756716  0.376122  1
  Ho  Ho1  1  0.500000  0.716825  0.862647  1
  Ho  Ho2  1  0.500000  0.283175  0.137353  1
  Ho  Ho3  1  0.500000  0.243284  0.623878  1
  Hg  Hg4  1  0.000000  0.000000  0.000000  1
  Pd  Pd5  1  0.000000  0.017163  0.252529  1
  Pd  Pd6  1  0.000000  0.982837  0.747471  1
  Pd  Pd7  1  0.000000  0.500000  0.500000  1
  Pd  Pd8  1  0.500000  0.257779  0.377911  1
  Pd  Pd9  1  0.500000  0.229894  0.877729  1
  Pd  Pd10  1  0.500000  0.770106  0.122271  1
  Pd  Pd11  1  0.500000  0.742221  0.622089  1
  Pd  Pd12  1  0.000000  0.000000  0.500000  1
  Pt  Pt13  1  0.000000  0.500000  0.000000  1
  Pt  Pt14  1  0.000000  0.519871  0.251448  1
  Pt  Pt15  1  0.000000  0.480129  0.748552  1
