# generated using pymatgen
data_LiNd2(Co3As2)3
_symmetry_space_group_name_H-M   'P 1'
_cell_length_a   3.85753400
_cell_length_b   10.75477700
_cell_length_c   12.29991100
_cell_angle_alpha   90.00000000
_cell_angle_beta   90.00000000
_cell_angle_gamma   90.00000000
_symmetry_Int_Tables_number   1
_chemical_formula_structural   LiNd2(Co3As2)3
_chemical_formula_sum   'Li2 Nd4 Co18 As12'
_cell_volume   510.28539833
_cell_formula_units_Z   2
loop_
 _symmetry_equiv_pos_site_id
 _symmetry_equiv_pos_as_xyz
  1  'x, y, z'
loop_
 _atom_site_type_symbol
 _atom_site_label
 _atom_site_symmetry_multiplicity
 _atom_site_fract_x
 _atom_site_fract_y
 _atom_site_fract_z
 _atom_site_occupancy
  Li  Li0  1  0.250000  0.698805  0.991646  1
  Li  Li1  1  0.250000  0.801195  0.491646  1
  Nd  Nd2  1  0.250000  0.578986  0.699876  1
  Nd  Nd3  1  0.250000  0.921014  0.199876  1
  Nd  Nd4  1  0.750000  0.419847  0.299201  1
  Nd  Nd5  1  0.750000  0.080153  0.799201  1
  Co  Co6  1  0.750000  0.294595  0.007978  1
  Co  Co7  1  0.750000  0.205405  0.507978  1
  Co  Co8  1  0.250000  0.403610  0.488808  1
  Co  Co9  1  0.250000  0.096390  0.988808  1
  Co  Co10  1  0.750000  0.588961  0.512397  1
  Co  Co11  1  0.750000  0.911039  0.012397  1
  Co  Co12  1  0.250000  0.218120  0.175242  1
  Co  Co13  1  0.250000  0.281880  0.675242  1
  Co  Co14  1  0.750000  0.785920  0.825048  1
  Co  Co15  1  0.750000  0.714080  0.325048  1
  Co  Co16  1  0.250000  0.882260  0.697411  1
  Co  Co17  1  0.250000  0.617740  0.197411  1
  Co  Co18  1  0.750000  0.119526  0.302908  1
  Co  Co19  1  0.750000  0.380474  0.802908  1
  Co  Co20  1  0.250000  0.466848  0.931621  1
  Co  Co21  1  0.250000  0.033152  0.431621  1
  Co  Co22  1  0.750000  0.529472  0.066190  1
  Co  Co23  1  0.750000  0.970528  0.566190  1
  As  As24  1  0.250000  0.418333  0.111994  1
  As  As25  1  0.250000  0.081667  0.611994  1
  As  As26  1  0.750000  0.581314  0.884951  1
  As  As27  1  0.750000  0.918686  0.384951  1
  As  As28  1  0.250000  0.270644  0.868037  1
  As  As29  1  0.250000  0.229356  0.368037  1
  As  As30  1  0.750000  0.726921  0.135246  1
  As  As31  1  0.750000  0.773079  0.635246  1
  As  As32  1  0.250000  0.603970  0.394601  1
  As  As33  1  0.250000  0.896030  0.894601  1
  As  As34  1  0.750000  0.392828  0.606846  1
  As  As35  1  0.750000  0.107172  0.106846  1
