# generated using pymatgen
data_Ta2SnGeRu3
_symmetry_space_group_name_H-M   'P 1'
_cell_length_a   4.37401429
_cell_length_b   4.37401354
_cell_length_c   7.63549161
_cell_angle_alpha   73.35585028
_cell_angle_beta   73.35585397
_cell_angle_gamma   60.00000228
_symmetry_Int_Tables_number   1
_chemical_formula_structural   Ta2SnGeRu3
_chemical_formula_sum   'Ta2 Sn1 Ge1 Ru3'
_cell_volume   119.39124482
_cell_formula_units_Z   1
loop_
 _symmetry_equiv_pos_site_id
 _symmetry_equiv_pos_as_xyz
  1  'x, y, z'
loop_
 _atom_site_type_symbol
 _atom_site_label
 _atom_site_symmetry_multiplicity
 _atom_site_fract_x
 _atom_site_fract_y
 _atom_site_fract_z
 _atom_site_occupancy
  Ta  Ta0  1  0.249388  0.249388  0.251835  1
  Ta  Ta1  1  0.752479  0.752479  0.742561  1
  Sn  Sn2  1  0.505566  0.505566  0.483302  1
  Ge  Ge3  1  0.993589  0.993589  0.019232  1
  Ru  Ru4  1  0.629431  0.629431  0.111709  1
  Ru  Ru5  1  0.121712  0.121712  0.634865  1
  Ru  Ru6  1  0.372833  0.372833  0.881500  1
