# generated using pymatgen
data_Pm2HoUO8
_symmetry_space_group_name_H-M   'P 1'
_cell_length_a   6.65414698
_cell_length_b   6.65414758
_cell_length_c   6.65414645
_cell_angle_alpha   131.61940746
_cell_angle_beta   131.61940628
_cell_angle_gamma   70.83080131
_symmetry_Int_Tables_number   1
_chemical_formula_structural   Pm2HoUO8
_chemical_formula_sum   'Pm2 Ho1 U1 O8'
_cell_volume   161.27131917
_cell_formula_units_Z   1
loop_
 _symmetry_equiv_pos_site_id
 _symmetry_equiv_pos_as_xyz
  1  'x, y, z'
loop_
 _atom_site_type_symbol
 _atom_site_label
 _atom_site_symmetry_multiplicity
 _atom_site_fract_x
 _atom_site_fract_y
 _atom_site_fract_z
 _atom_site_occupancy
  Pm  Pm0  1  0.000000  0.000000  0.000000  1
  Pm  Pm1  1  0.750000  0.250000  0.500000  1
  Ho  Ho2  1  0.500000  0.500000  0.000000  1
  U  U3  1  0.250000  0.750000  0.500000  1
  O  O4  1  0.369310  0.398848  0.508216  1
  O  O5  1  0.890632  0.861094  0.491784  1
  O  O6  1  0.138906  0.109368  0.508216  1
  O  O7  1  0.601152  0.109368  0.970462  1
  O  O8  1  0.890632  0.398848  0.029538  1
  O  O9  1  0.601152  0.630690  0.491784  1
  O  O10  1  0.138906  0.630690  0.029538  1
  O  O11  1  0.369310  0.861094  0.970462  1
