# generated using pymatgen
data_Tm13Th3(CdIr)4
_symmetry_space_group_name_H-M   'P 1'
_cell_length_a   9.62050101
_cell_length_b   9.61111384
_cell_length_c   9.61111300
_cell_angle_alpha   60.00000632
_cell_angle_beta   60.03227851
_cell_angle_gamma   60.03227853
_symmetry_Int_Tables_number   1
_chemical_formula_structural   Tm13Th3(CdIr)4
_chemical_formula_sum   'Tm13 Th3 Cd4 Ir4'
_cell_volume   628.69764349
_cell_formula_units_Z   1
loop_
 _symmetry_equiv_pos_site_id
 _symmetry_equiv_pos_as_xyz
  1  'x, y, z'
loop_
 _atom_site_type_symbol
 _atom_site_label
 _atom_site_symmetry_multiplicity
 _atom_site_fract_x
 _atom_site_fract_y
 _atom_site_fract_z
 _atom_site_occupancy
  Tm  Tm0  1  0.196818  0.601061  0.601061  1
  Tm  Tm1  1  0.062141  0.439040  0.439040  1
  Tm  Tm2  1  0.436548  0.063282  0.063282  1
  Tm  Tm3  1  0.436548  0.063282  0.436887  1
  Tm  Tm4  1  0.062141  0.439040  0.059778  1
  Tm  Tm5  1  0.436548  0.436887  0.063282  1
  Tm  Tm6  1  0.062141  0.059778  0.439040  1
  Tm  Tm7  1  0.185475  0.814246  0.814246  1
  Tm  Tm8  1  0.816194  0.183829  0.183829  1
  Tm  Tm9  1  0.816194  0.183829  0.816147  1
  Tm  Tm10  1  0.185475  0.814246  0.186034  1
  Tm  Tm11  1  0.816194  0.816147  0.183829  1
  Tm  Tm12  1  0.185475  0.186034  0.814246  1
  Th  Th13  1  0.598531  0.600915  0.600915  1
  Th  Th14  1  0.598531  0.600915  0.199639  1
  Th  Th15  1  0.598531  0.199639  0.600915  1
  Cd  Cd16  1  0.836340  0.831364  0.831364  1
  Cd  Cd17  1  0.836340  0.831364  0.500931  1
  Cd  Cd18  1  0.836340  0.500931  0.831364  1
  Cd  Cd19  1  0.498049  0.833983  0.833983  1
  Ir  Ir20  1  0.392099  0.392224  0.392224  1
  Ir  Ir21  1  0.392099  0.392224  0.823452  1
  Ir  Ir22  1  0.392099  0.823452  0.392224  1
  Ir  Ir23  1  0.823148  0.392284  0.392284  1
