# generated using pymatgen
data_CaTh3(Zn5Ge)2
_symmetry_space_group_name_H-M   'P 1'
_cell_length_a   8.40727000
_cell_length_b   8.40727127
_cell_length_c   8.92162300
_cell_angle_alpha   89.93749938
_cell_angle_beta   90.06250745
_cell_angle_gamma   149.29143668
_symmetry_Int_Tables_number   1
_chemical_formula_structural   CaTh3(Zn5Ge)2
_chemical_formula_sum   'Ca1 Th3 Zn10 Ge2'
_cell_volume   322.02916194
_cell_formula_units_Z   1
loop_
 _symmetry_equiv_pos_site_id
 _symmetry_equiv_pos_as_xyz
  1  'x, y, z'
loop_
 _atom_site_type_symbol
 _atom_site_label
 _atom_site_symmetry_multiplicity
 _atom_site_fract_x
 _atom_site_fract_y
 _atom_site_fract_z
 _atom_site_occupancy
  Ca  Ca0  1  0.000000  0.000000  0.000000  1
  Th  Th1  1  0.201707  0.798293  0.249886  1
  Th  Th2  1  0.798293  0.201707  0.750114  1
  Th  Th3  1  0.000000  0.000000  0.500000  1
  Zn  Zn4  1  0.813341  0.186659  0.391651  1
  Zn  Zn5  1  0.186659  0.813341  0.608349  1
  Zn  Zn6  1  0.816209  0.183791  0.107372  1
  Zn  Zn7  1  0.183791  0.816209  0.892628  1
  Zn  Zn8  1  0.653478  0.346522  0.481210  1
  Zn  Zn9  1  0.346522  0.653478  0.518790  1
  Zn  Zn10  1  0.651868  0.348132  0.019865  1
  Zn  Zn11  1  0.348132  0.651868  0.980135  1
  Zn  Zn12  1  0.402667  0.597333  0.253157  1
  Zn  Zn13  1  0.597333  0.402667  0.746843  1
  Ge  Ge14  1  0.558384  0.441616  0.256513  1
  Ge  Ge15  1  0.441616  0.558384  0.743487  1
