# generated using pymatgen
data_Ce10CoOs3Au2
_symmetry_space_group_name_H-M   'P 1'
_cell_length_a   8.63500225
_cell_length_b   8.63500242
_cell_length_c   8.77593800
_cell_angle_alpha   128.43991804
_cell_angle_beta   128.43991048
_cell_angle_gamma   74.71140970
_symmetry_Int_Tables_number   1
_chemical_formula_structural   Ce10CoOs3Au2
_chemical_formula_sum   'Ce10 Co1 Os3 Au2'
_cell_volume   393.32224889
_cell_formula_units_Z   1
loop_
 _symmetry_equiv_pos_site_id
 _symmetry_equiv_pos_as_xyz
  1  'x, y, z'
loop_
 _atom_site_type_symbol
 _atom_site_label
 _atom_site_symmetry_multiplicity
 _atom_site_fract_x
 _atom_site_fract_y
 _atom_site_fract_z
 _atom_site_occupancy
  Ce  Ce0  1  0.002614  0.000477  0.003091  1
  Ce  Ce1  1  0.499523  0.497386  0.996909  1
  Ce  Ce2  1  0.800475  0.301885  0.825587  1
  Ce  Ce3  1  0.198115  0.699525  0.174414  1
  Ce  Ce4  1  0.474890  0.976300  0.174414  1
  Ce  Ce5  1  0.306111  0.463465  0.500000  1
  Ce  Ce6  1  0.036535  0.193889  0.500000  1
  Ce  Ce7  1  0.523700  0.025110  0.825586  1
  Ce  Ce8  1  0.696242  0.529948  0.500000  1
  Ce  Ce9  1  0.970052  0.803758  0.500000  1
  Co  Co10  1  0.361368  0.138632  0.500000  1
  Os  Os11  1  0.138901  0.637316  0.776218  1
  Os  Os12  1  0.862684  0.361099  0.223782  1
  Os  Os13  1  0.629637  0.870363  0.500000  1
  Au  Au14  1  0.249577  0.250423  0.000000  1
  Au  Au15  1  0.749577  0.750423  0.000000  1
