# generated using pymatgen
data_Ho2Nb3Sn(B2Ru5)2
_symmetry_space_group_name_H-M   'P 1'
_cell_length_a   9.53242046
_cell_length_b   9.63173214
_cell_length_c   3.09960300
_cell_angle_alpha   90.00000000
_cell_angle_beta   90.00000000
_cell_angle_gamma   91.19604661
_symmetry_Int_Tables_number   1
_chemical_formula_structural   Ho2Nb3Sn(B2Ru5)2
_chemical_formula_sum   'Ho2 Nb3 Sn1 B4 Ru10'
_cell_volume   284.52407961
_cell_formula_units_Z   1
loop_
 _symmetry_equiv_pos_site_id
 _symmetry_equiv_pos_as_xyz
  1  'x, y, z'
loop_
 _atom_site_type_symbol
 _atom_site_label
 _atom_site_symmetry_multiplicity
 _atom_site_fract_x
 _atom_site_fract_y
 _atom_site_fract_z
 _atom_site_occupancy
  Ho  Ho0  1  0.820023  0.673201  0.000000  1
  Ho  Ho1  1  0.179977  0.326799  0.000000  1
  Nb  Nb2  1  0.321735  0.827633  0.000000  1
  Nb  Nb3  1  0.678265  0.172367  0.000000  1
  Nb  Nb4  1  0.000000  0.000000  0.000000  1
  Sn  Sn5  1  0.500000  0.500000  0.000000  1
  B  B6  1  0.618974  0.879419  0.000000  1
  B  B7  1  0.381026  0.120581  0.000000  1
  B  B8  1  0.120694  0.622813  0.000000  1
  B  B9  1  0.879306  0.377187  0.000000  1
  Ru  Ru10  1  0.555736  0.729062  0.500000  1
  Ru  Ru11  1  0.444264  0.270938  0.500000  1
  Ru  Ru12  1  0.077584  0.786257  0.500000  1
  Ru  Ru13  1  0.922416  0.213743  0.500000  1
  Ru  Ru14  1  0.281894  0.591233  0.500000  1
  Ru  Ru15  1  0.718106  0.408767  0.500000  1
  Ru  Ru16  1  0.222372  0.060319  0.500000  1
  Ru  Ru17  1  0.777628  0.939681  0.500000  1
  Ru  Ru18  1  0.500000  0.000000  0.500000  1
  Ru  Ru19  1  0.000000  0.500000  0.500000  1
