# generated using pymatgen
data_Zr5Ta(B2Ru5)2
_symmetry_space_group_name_H-M   'P 1'
_cell_length_a   9.52949800
_cell_length_b   9.52949800
_cell_length_c   3.13558200
_cell_angle_alpha   90.00000000
_cell_angle_beta   90.00000000
_cell_angle_gamma   90.00000000
_symmetry_Int_Tables_number   1
_chemical_formula_structural   Zr5Ta(B2Ru5)2
_chemical_formula_sum   'Zr5 Ta1 B4 Ru10'
_cell_volume   284.74637843
_cell_formula_units_Z   1
loop_
 _symmetry_equiv_pos_site_id
 _symmetry_equiv_pos_as_xyz
  1  'x, y, z'
loop_
 _atom_site_type_symbol
 _atom_site_label
 _atom_site_symmetry_multiplicity
 _atom_site_fract_x
 _atom_site_fract_y
 _atom_site_fract_z
 _atom_site_occupancy
  Zr  Zr0  1  0.824647  0.676131  0.000000  1
  Zr  Zr1  1  0.175353  0.323869  0.000000  1
  Zr  Zr2  1  0.323869  0.824647  0.000000  1
  Zr  Zr3  1  0.676131  0.175353  0.000000  1
  Zr  Zr4  1  0.500000  0.500000  0.000000  1
  Ta  Ta5  1  0.000000  0.000000  0.000000  1
  B  B6  1  0.620730  0.878092  0.000000  1
  B  B7  1  0.379270  0.121908  0.000000  1
  B  B8  1  0.121908  0.620730  0.000000  1
  B  B9  1  0.878092  0.379270  0.000000  1
  Ru  Ru10  1  0.573327  0.722353  0.500000  1
  Ru  Ru11  1  0.426673  0.277647  0.500000  1
  Ru  Ru12  1  0.069318  0.782767  0.500000  1
  Ru  Ru13  1  0.930682  0.217233  0.500000  1
  Ru  Ru14  1  0.277647  0.573327  0.500000  1
  Ru  Ru15  1  0.722353  0.426673  0.500000  1
  Ru  Ru16  1  0.217233  0.069318  0.500000  1
  Ru  Ru17  1  0.782767  0.930682  0.500000  1
  Ru  Ru18  1  0.500000  0.000000  0.500000  1
  Ru  Ru19  1  0.000000  0.500000  0.500000  1
