# generated using pymatgen
data_Li2SmThPt2
_symmetry_space_group_name_H-M   'P 1'
_cell_length_a   4.00624100
_cell_length_b   7.35931375
_cell_length_c   8.89945100
_cell_angle_alpha   92.02255016
_cell_angle_beta   90.00000000
_cell_angle_gamma   90.00000000
_symmetry_Int_Tables_number   1
_chemical_formula_structural   Li2SmThPt2
_chemical_formula_sum   'Li4 Sm2 Th2 Pt4'
_cell_volume   262.22069390
_cell_formula_units_Z   2
loop_
 _symmetry_equiv_pos_site_id
 _symmetry_equiv_pos_as_xyz
  1  'x, y, z'
loop_
 _atom_site_type_symbol
 _atom_site_label
 _atom_site_symmetry_multiplicity
 _atom_site_fract_x
 _atom_site_fract_y
 _atom_site_fract_z
 _atom_site_occupancy
  Li  Li0  1  0.250000  0.122018  0.946081  1
  Li  Li1  1  0.750000  0.877982  0.053919  1
  Li  Li2  1  0.250000  0.624207  0.550950  1
  Li  Li3  1  0.750000  0.375793  0.449050  1
  Sm  Sm4  1  0.250000  0.056701  0.320397  1
  Sm  Sm5  1  0.750000  0.943299  0.679603  1
  Th  Th6  1  0.250000  0.551508  0.186905  1
  Th  Th7  1  0.750000  0.448492  0.813095  1
  Pt  Pt8  1  0.750000  0.758182  0.366038  1
  Pt  Pt9  1  0.250000  0.241818  0.633962  1
  Pt  Pt10  1  0.750000  0.270881  0.122457  1
  Pt  Pt11  1  0.250000  0.729119  0.877543  1
