# generated using pymatgen
data_SrCe3As7Ir8
_symmetry_space_group_name_H-M   'P 1'
_cell_length_a   4.13810800
_cell_length_b   13.24937659
_cell_length_c   13.59043838
_cell_angle_alpha   97.83690445
_cell_angle_beta   90.00000000
_cell_angle_gamma   90.00000000
_symmetry_Int_Tables_number   1
_chemical_formula_structural   SrCe3As7Ir8
_chemical_formula_sum   'Sr2 Ce6 As14 Ir16'
_cell_volume   738.16840988
_cell_formula_units_Z   2
loop_
 _symmetry_equiv_pos_site_id
 _symmetry_equiv_pos_as_xyz
  1  'x, y, z'
loop_
 _atom_site_type_symbol
 _atom_site_label
 _atom_site_symmetry_multiplicity
 _atom_site_fract_x
 _atom_site_fract_y
 _atom_site_fract_z
 _atom_site_occupancy
  Sr  Sr0  1  0.750000  0.103230  0.205986  1
  Sr  Sr1  1  0.250000  0.896770  0.794014  1
  Ce  Ce2  1  0.750000  0.207522  0.558768  1
  Ce  Ce3  1  0.250000  0.792478  0.441232  1
  Ce  Ce4  1  0.750000  0.517595  0.707784  1
  Ce  Ce5  1  0.250000  0.482405  0.292216  1
  Ce  Ce6  1  0.750000  0.287763  0.897898  1
  Ce  Ce7  1  0.250000  0.712237  0.102102  1
  As  As8  1  0.750000  0.742964  0.923181  1
  As  As9  1  0.250000  0.257036  0.076819  1
  As  As10  1  0.750000  0.906021  0.588890  1
  As  As11  1  0.250000  0.093979  0.411110  1
  As  As12  1  0.750000  0.528873  0.127907  1
  As  As13  1  0.250000  0.471127  0.872093  1
  As  As14  1  0.750000  0.844226  0.278680  1
  As  As15  1  0.250000  0.155774  0.721320  1
  As  As16  1  0.750000  0.607150  0.432780  1
  As  As17  1  0.250000  0.392850  0.567220  1
  As  As18  1  0.750000  0.315037  0.312385  1
  As  As19  1  0.250000  0.684963  0.687615  1
  As  As20  1  0.750000  0.061392  0.900488  1
  As  As21  1  0.250000  0.938608  0.099512  1
  Ir  Ir22  1  0.750000  0.344329  0.138360  1
  Ir  Ir23  1  0.250000  0.655671  0.861640  1
  Ir  Ir24  1  0.750000  0.720187  0.596365  1
  Ir  Ir25  1  0.250000  0.279813  0.403635  1
  Ir  Ir26  1  0.750000  0.919912  0.002305  1
  Ir  Ir27  1  0.250000  0.080088  0.997695  1
  Ir  Ir28  1  0.750000  0.426066  0.474620  1
  Ir  Ir29  1  0.250000  0.573934  0.525380  1
  Ir  Ir30  1  0.750000  0.060656  0.719726  1
  Ir  Ir31  1  0.250000  0.939344  0.280274  1
  Ir  Ir32  1  0.750000  0.554151  0.952604  1
  Ir  Ir33  1  0.250000  0.445849  0.047396  1
  Ir  Ir34  1  0.750000  0.661904  0.267607  1
  Ir  Ir35  1  0.250000  0.338096  0.732393  1
  Ir  Ir36  1  0.750000  0.985409  0.426187  1
  Ir  Ir37  1  0.250000  0.014591  0.573813  1
