# generated using pymatgen
data_Hf5GaBi2
_symmetry_space_group_name_H-M   'P 1'
_cell_length_a   5.57452898
_cell_length_b   8.39454967
_cell_length_c   8.39455001
_cell_angle_alpha   83.67053679
_cell_angle_beta   70.60782930
_cell_angle_gamma   70.60782107
_symmetry_Int_Tables_number   1
_chemical_formula_structural   Hf5GaBi2
_chemical_formula_sum   'Hf10 Ga2 Bi4'
_cell_volume   349.52095401
_cell_formula_units_Z   2
loop_
 _symmetry_equiv_pos_site_id
 _symmetry_equiv_pos_as_xyz
  1  'x, y, z'
loop_
 _atom_site_type_symbol
 _atom_site_label
 _atom_site_symmetry_multiplicity
 _atom_site_fract_x
 _atom_site_fract_y
 _atom_site_fract_z
 _atom_site_occupancy
  Hf  Hf0  1  0.711320  0.861515  0.715846  1
  Hf  Hf1  1  0.288680  0.138485  0.284154  1
  Hf  Hf2  1  0.788680  0.284154  0.138485  1
  Hf  Hf3  1  0.211320  0.715846  0.861515  1
  Hf  Hf4  1  0.572834  0.715846  0.138485  1
  Hf  Hf5  1  0.427166  0.284154  0.861515  1
  Hf  Hf6  1  0.072834  0.138485  0.715846  1
  Hf  Hf7  1  0.927166  0.861515  0.284154  1
  Hf  Hf8  1  0.750000  0.500000  0.500000  1
  Hf  Hf9  1  0.250000  0.500000  0.500000  1
  Ga  Ga10  1  0.250000  0.000000  0.000000  1
  Ga  Ga11  1  0.750000  0.000000  0.000000  1
  Bi  Bi12  1  0.166008  0.500000  0.167985  1
  Bi  Bi13  1  0.833992  0.500000  0.832015  1
  Bi  Bi14  1  0.333992  0.832015  0.500000  1
  Bi  Bi15  1  0.666008  0.167985  0.500000  1
