# generated using pymatgen
data_DyY9Si5P
_symmetry_space_group_name_H-M   'P 1'
_cell_length_a   8.43398500
_cell_length_b   8.43840967
_cell_length_c   6.33367300
_cell_angle_alpha   90.00229572
_cell_angle_beta   89.99869650
_cell_angle_gamma   119.98301602
_symmetry_Int_Tables_number   1
_chemical_formula_structural   DyY9Si5P
_chemical_formula_sum   'Dy1 Y9 Si5 P1'
_cell_volume   390.43972604
_cell_formula_units_Z   1
loop_
 _symmetry_equiv_pos_site_id
 _symmetry_equiv_pos_as_xyz
  1  'x, y, z'
loop_
 _atom_site_type_symbol
 _atom_site_label
 _atom_site_symmetry_multiplicity
 _atom_site_fract_x
 _atom_site_fract_y
 _atom_site_fract_z
 _atom_site_occupancy
  Dy  Dy0  1  0.333711  0.667512  0.500432  1
  Y  Y1  1  0.000986  0.756351  0.749993  1
  Y  Y2  1  0.000937  0.244715  0.250010  1
  Y  Y3  1  0.756216  0.755292  0.250009  1
  Y  Y4  1  0.754414  0.999995  0.749994  1
  Y  Y5  1  0.244626  0.243656  0.749991  1
  Y  Y6  1  0.244545  0.999996  0.250009  1
  Y  Y7  1  0.666188  0.332493  0.999569  1
  Y  Y8  1  0.666192  0.332491  0.500429  1
  Y  Y9  1  0.333698  0.667510  0.999569  1
  Si  Si10  1  0.393867  0.393205  0.250030  1
  Si  Si11  1  0.000711  0.606815  0.250022  1
  Si  Si12  1  0.000159  0.393315  0.749974  1
  Si  Si13  1  0.606819  0.606695  0.749974  1
  Si  Si14  1  0.607631  0.999981  0.250022  1
  P  P15  1  0.389298  0.999979  0.749972  1
