# generated using pymatgen
data_Ta5Ti3Nb4(BOs)12
_symmetry_space_group_name_H-M   'P 1'
_cell_length_a   3.10282600
_cell_length_b   9.05921848
_cell_length_c   15.68548183
_cell_angle_alpha   90.03730065
_cell_angle_beta   90.00000000
_cell_angle_gamma   90.00000000
_symmetry_Int_Tables_number   1
_chemical_formula_structural   Ta5Ti3Nb4(BOs)12
_chemical_formula_sum   'Ta5 Ti3 Nb4 B12 Os12'
_cell_volume   440.90591740
_cell_formula_units_Z   1
loop_
 _symmetry_equiv_pos_site_id
 _symmetry_equiv_pos_as_xyz
  1  'x, y, z'
loop_
 _atom_site_type_symbol
 _atom_site_label
 _atom_site_symmetry_multiplicity
 _atom_site_fract_x
 _atom_site_fract_y
 _atom_site_fract_z
 _atom_site_occupancy
  Ta  Ta0  1  0.000000  0.799052  0.495249  1
  Ta  Ta1  1  0.000000  0.201206  0.503197  1
  Ta  Ta2  1  0.000000  0.296894  0.004134  1
  Ta  Ta3  1  0.000000  0.703124  0.996835  1
  Ta  Ta4  1  0.000000  0.515654  0.593302  1
  Ti  Ti5  1  0.000000  0.485481  0.404788  1
  Ti  Ti6  1  0.000000  0.014914  0.907043  1
  Ti  Ti7  1  0.000000  0.985636  0.093715  1
  Nb  Nb8  1  0.000000  0.684938  0.202654  1
  Nb  Nb9  1  0.000000  0.313725  0.798681  1
  Nb  Nb10  1  0.000000  0.185113  0.296672  1
  Nb  Nb11  1  0.000000  0.814743  0.703825  1
  B  B12  1  0.500000  0.602580  0.493811  1
  B  B13  1  0.500000  0.397519  0.500691  1
  B  B14  1  0.500000  0.100704  0.004018  1
  B  B15  1  0.500000  0.899381  0.996252  1
  B  B16  1  0.000000  0.613732  0.833792  1
  B  B17  1  0.000000  0.387232  0.168927  1
  B  B18  1  0.000000  0.108409  0.670042  1
  B  B19  1  0.000000  0.887307  0.330214  1
  B  B20  1  0.500000  0.715595  0.598764  1
  B  B21  1  0.500000  0.290909  0.399711  1
  B  B22  1  0.500000  0.208229  0.900599  1
  B  B23  1  0.500000  0.791684  0.100026  1
  Os  Os24  1  0.500000  0.715807  0.356887  1
  Os  Os25  1  0.500000  0.281930  0.643217  1
  Os  Os26  1  0.500000  0.215501  0.141898  1
  Os  Os27  1  0.500000  0.784661  0.858511  1
  Os  Os28  1  0.500000  0.516254  0.093756  1
  Os  Os29  1  0.500000  0.483927  0.907333  1
  Os  Os30  1  0.500000  0.015332  0.405768  1
  Os  Os31  1  0.500000  0.985274  0.593637  1
  Os  Os32  1  0.500000  0.563067  0.734848  1
  Os  Os33  1  0.500000  0.435814  0.267099  1
  Os  Os34  1  0.500000  0.063187  0.768191  1
  Os  Os35  1  0.500000  0.935488  0.231913  1
