# generated using pymatgen
data_Ba2NdThTe8
_symmetry_space_group_name_H-M   'P 1'
_cell_length_a   8.82283455
_cell_length_b   8.82283362
_cell_length_c   10.67167027
_cell_angle_alpha   53.89617169
_cell_angle_beta   53.89617749
_cell_angle_gamma   42.77917305
_symmetry_Int_Tables_number   1
_chemical_formula_structural   Ba2NdThTe8
_chemical_formula_sum   'Ba2 Nd1 Th1 Te8'
_cell_volume   436.84766962
_cell_formula_units_Z   1
loop_
 _symmetry_equiv_pos_site_id
 _symmetry_equiv_pos_as_xyz
  1  'x, y, z'
loop_
 _atom_site_type_symbol
 _atom_site_label
 _atom_site_symmetry_multiplicity
 _atom_site_fract_x
 _atom_site_fract_y
 _atom_site_fract_z
 _atom_site_occupancy
  Ba  Ba0  1  0.900898  0.900898  0.306717  1
  Ba  Ba1  1  0.100036  0.100036  0.693364  1
  Nd  Nd2  1  0.637869  0.637869  0.226032  1
  Th  Th3  1  0.362047  0.362047  0.773948  1
  Te  Te4  1  0.110116  0.606441  0.043446  1
  Te  Te5  1  0.391230  0.896432  0.951522  1
  Te  Te6  1  0.896432  0.391230  0.951522  1
  Te  Te7  1  0.606441  0.110116  0.043446  1
  Te  Te8  1  0.100315  0.100315  0.350006  1
  Te  Te9  1  0.899386  0.899386  0.651956  1
  Te  Te10  1  0.610375  0.610375  0.555747  1
  Te  Te11  1  0.384854  0.384854  0.452295  1
