# generated using pymatgen
data_Y3ErAl3(Ga5Ir2)3
_symmetry_space_group_name_H-M   'P 1'
_cell_length_a   7.57497304
_cell_length_b   7.57342880
_cell_length_c   9.51827105
_cell_angle_alpha   89.99148221
_cell_angle_beta   89.99070706
_cell_angle_gamma   119.72653531
_symmetry_Int_Tables_number   1
_chemical_formula_structural   Y3ErAl3(Ga5Ir2)3
_chemical_formula_sum   'Y3 Er1 Al3 Ga15 Ir6'
_cell_volume   474.19009812
_cell_formula_units_Z   1
loop_
 _symmetry_equiv_pos_site_id
 _symmetry_equiv_pos_as_xyz
  1  'x, y, z'
loop_
 _atom_site_type_symbol
 _atom_site_label
 _atom_site_symmetry_multiplicity
 _atom_site_fract_x
 _atom_site_fract_y
 _atom_site_fract_z
 _atom_site_occupancy
  Y  Y0  1  0.000437  0.330341  0.749188  1
  Y  Y1  1  0.670272  0.000205  0.249902  1
  Y  Y2  1  0.330366  0.000453  0.749190  1
  Er  Er3  1  0.000411  0.670308  0.249939  1
  Al  Al4  1  0.664847  0.664626  0.447872  1
  Al  Al5  1  0.668541  0.668303  0.052316  1
  Al  Al6  1  0.332150  0.332151  0.948509  1
  Ga  Ga7  1  0.127618  0.127381  0.249353  1
  Ga  Ga8  1  0.872324  0.872327  0.749415  1
  Ga  Ga9  1  0.000030  0.335701  0.079210  1
  Ga  Ga10  1  0.000156  0.664919  0.921028  1
  Ga  Ga11  1  0.999458  0.664734  0.578977  1
  Ga  Ga12  1  0.335369  0.001123  0.418723  1
  Ga  Ga13  1  0.001474  0.336098  0.418713  1
  Ga  Ga14  1  0.664733  0.999450  0.579231  1
  Ga  Ga15  1  0.664901  0.000126  0.920769  1
  Ga  Ga16  1  0.334992  0.999677  0.079199  1
  Ga  Ga17  1  0.329157  0.329155  0.563822  1
  Ga  Ga18  1  0.346677  0.549931  0.249874  1
  Ga  Ga19  1  0.656852  0.451569  0.750186  1
  Ga  Ga20  1  0.550265  0.347226  0.249869  1
  Ga  Ga21  1  0.451548  0.656832  0.750188  1
  Ir  Ir22  1  0.669058  0.330575  0.999770  1
  Ir  Ir23  1  0.330339  0.668969  0.999779  1
  Ir  Ir24  1  0.330158  0.671921  0.499065  1
  Ir  Ir25  1  0.672032  0.330427  0.499085  1
  Ir  Ir26  1  0.000159  0.999997  0.999348  1
  Ir  Ir27  1  0.995674  0.995475  0.497480  1
