# generated using pymatgen
data_Cd5Sn(Pd2Au)6
_symmetry_space_group_name_H-M   'P 1'
_cell_length_a   4.26946500
_cell_length_b   7.51694200
_cell_length_c   12.84352300
_cell_angle_alpha   90.00002417
_cell_angle_beta   89.99979224
_cell_angle_gamma   89.99999238
_symmetry_Int_Tables_number   1
_chemical_formula_structural   Cd5Sn(Pd2Au)6
_chemical_formula_sum   'Cd5 Sn1 Pd12 Au6'
_cell_volume   412.19130361
_cell_formula_units_Z   1
loop_
 _symmetry_equiv_pos_site_id
 _symmetry_equiv_pos_as_xyz
  1  'x, y, z'
loop_
 _atom_site_type_symbol
 _atom_site_label
 _atom_site_symmetry_multiplicity
 _atom_site_fract_x
 _atom_site_fract_y
 _atom_site_fract_z
 _atom_site_occupancy
  Cd  Cd0  1  0.499999  0.500000  0.165211  1
  Cd  Cd1  1  0.999996  0.000000  0.334394  1
  Cd  Cd2  1  0.500001  0.500000  0.500000  1
  Cd  Cd3  1  0.000004  0.000000  0.665606  1
  Cd  Cd4  1  0.500001  0.500000  0.834790  1
  Sn  Sn5  1  0.000000  0.000000  0.000000  1
  Pd  Pd6  1  0.500001  0.237034  0.000000  1
  Pd  Pd7  1  0.499999  0.762966  0.000000  1
  Pd  Pd8  1  0.999993  0.245975  0.162542  1
  Pd  Pd9  1  0.999992  0.754026  0.162542  1
  Pd  Pd10  1  0.499996  0.253300  0.334054  1
  Pd  Pd11  1  0.499996  0.746699  0.334054  1
  Pd  Pd12  1  0.000000  0.250391  0.500000  1
  Pd  Pd13  1  0.000000  0.749609  0.500000  1
  Pd  Pd14  1  0.500003  0.253300  0.665946  1
  Pd  Pd15  1  0.500003  0.746699  0.665946  1
  Pd  Pd16  1  0.000008  0.245974  0.837458  1
  Pd  Pd17  1  0.000007  0.754025  0.837458  1
  Au  Au18  1  0.000000  0.500000  0.000000  1
  Au  Au19  1  0.499994  0.000000  0.174198  1
  Au  Au20  1  0.999998  0.500000  0.331149  1
  Au  Au21  1  0.500001  0.000000  0.500000  1
  Au  Au22  1  0.000002  0.500000  0.668850  1
  Au  Au23  1  0.500006  0.000000  0.825802  1
