# generated using pymatgen
data_ZrScZn2PtRh
_symmetry_space_group_name_H-M   'P 1'
_cell_length_a   5.08638098
_cell_length_b   5.08638193
_cell_length_c   5.26453100
_cell_angle_alpha   90.00000000
_cell_angle_beta   90.00000000
_cell_angle_gamma   130.18556266
_symmetry_Int_Tables_number   1
_chemical_formula_structural   ZrScZn2PtRh
_chemical_formula_sum   'Zr1 Sc1 Zn2 Pt1 Rh1'
_cell_volume   104.05127155
_cell_formula_units_Z   1
loop_
 _symmetry_equiv_pos_site_id
 _symmetry_equiv_pos_as_xyz
  1  'x, y, z'
loop_
 _atom_site_type_symbol
 _atom_site_label
 _atom_site_symmetry_multiplicity
 _atom_site_fract_x
 _atom_site_fract_y
 _atom_site_fract_z
 _atom_site_occupancy
  Zr  Zr0  1  0.711753  0.288247  0.250000  1
  Sc  Sc1  1  0.290407  0.709593  0.750000  1
  Zn  Zn2  1  0.002520  0.997480  0.496616  1
  Zn  Zn3  1  0.002520  0.997480  0.003384  1
  Pt  Pt4  1  0.595916  0.404084  0.750000  1
  Rh  Rh5  1  0.396883  0.603117  0.250000  1
