# generated using pymatgen
data_Er4PdRh3O14
_symmetry_space_group_name_H-M   'P 1'
_cell_length_a   7.19643361
_cell_length_b   7.19643331
_cell_length_c   7.17677189
_cell_angle_alpha   59.90933687
_cell_angle_beta   59.90933814
_cell_angle_gamma   60.00000023
_symmetry_Int_Tables_number   1
_chemical_formula_structural   Er4PdRh3O14
_chemical_formula_sum   'Er4 Pd1 Rh3 O14'
_cell_volume   262.45344140
_cell_formula_units_Z   1
loop_
 _symmetry_equiv_pos_site_id
 _symmetry_equiv_pos_as_xyz
  1  'x, y, z'
loop_
 _atom_site_type_symbol
 _atom_site_label
 _atom_site_symmetry_multiplicity
 _atom_site_fract_x
 _atom_site_fract_y
 _atom_site_fract_z
 _atom_site_occupancy
  Er  Er0  1  0.625000  0.625000  0.125000  1
  Er  Er1  1  0.625000  0.625000  0.625000  1
  Er  Er2  1  0.625000  0.125000  0.625000  1
  Er  Er3  1  0.125000  0.625000  0.625000  1
  Pd  Pd4  1  0.125000  0.125000  0.625000  1
  Rh  Rh5  1  0.625000  0.125000  0.125000  1
  Rh  Rh6  1  0.125000  0.125000  0.125000  1
  Rh  Rh7  1  0.125000  0.625000  0.125000  1
  O  O8  1  0.033556  0.467675  0.465214  1
  O  O9  1  0.787874  0.787874  0.209816  1
  O  O10  1  0.787874  0.214436  0.209816  1
  O  O11  1  0.749977  0.749977  0.750068  1
  O  O12  1  0.035564  0.462126  0.040184  1
  O  O13  1  0.467675  0.033556  0.465214  1
  O  O14  1  0.033556  0.033556  0.465214  1
  O  O15  1  0.500023  0.500023  0.499932  1
  O  O16  1  0.216444  0.216444  0.784786  1
  O  O17  1  0.214436  0.787874  0.209816  1
  O  O18  1  0.782325  0.216444  0.784786  1
  O  O19  1  0.462126  0.035564  0.040184  1
  O  O20  1  0.462126  0.462126  0.040184  1
  O  O21  1  0.216444  0.782325  0.784786  1
