# generated using pymatgen
data_PaBe11CuNi
_symmetry_space_group_name_H-M   'P 1'
_cell_length_a   7.30375626
_cell_length_b   7.32658129
_cell_length_c   7.27722917
_cell_angle_alpha   60.01563385
_cell_angle_beta   60.42255799
_cell_angle_gamma   59.65692663
_symmetry_Int_Tables_number   1
_chemical_formula_structural   PaBe11CuNi
_chemical_formula_sum   'Pa2 Be22 Cu2 Ni2'
_cell_volume   275.53191353
_cell_formula_units_Z   2
loop_
 _symmetry_equiv_pos_site_id
 _symmetry_equiv_pos_as_xyz
  1  'x, y, z'
loop_
 _atom_site_type_symbol
 _atom_site_label
 _atom_site_symmetry_multiplicity
 _atom_site_fract_x
 _atom_site_fract_y
 _atom_site_fract_z
 _atom_site_occupancy
  Pa  Pa0  1  0.255475  0.244525  0.255475  1
  Pa  Pa1  1  0.744525  0.755475  0.744525  1
  Be  Be2  1  0.500000  0.500000  0.500000  1
  Be  Be3  1  0.000000  0.000000  0.000000  1
  Be  Be4  1  0.282897  0.934560  0.717103  1
  Be  Be5  1  0.717103  0.065440  0.282897  1
  Be  Be6  1  0.933132  0.280469  0.066868  1
  Be  Be7  1  0.066868  0.719531  0.933132  1
  Be  Be8  1  0.201157  0.801156  0.557228  1
  Be  Be9  1  0.798843  0.198844  0.442772  1
  Be  Be10  1  0.442772  0.559541  0.798843  1
  Be  Be11  1  0.557228  0.440459  0.201157  1
  Be  Be12  1  0.713666  0.287423  0.934708  1
  Be  Be13  1  0.286334  0.712577  0.065292  1
  Be  Be14  1  0.065292  0.935798  0.286334  1
  Be  Be15  1  0.934708  0.064202  0.713666  1
  Be  Be16  1  0.563766  0.202893  0.795142  1
  Be  Be17  1  0.436234  0.797107  0.204858  1
  Be  Be18  1  0.795142  0.438200  0.563766  1
  Be  Be19  1  0.204858  0.561800  0.436234  1
  Be  Be20  1  0.939215  0.711611  0.289924  1
  Be  Be21  1  0.060785  0.288389  0.710076  1
  Be  Be22  1  0.289924  0.059250  0.939215  1
  Be  Be23  1  0.710076  0.940750  0.060785  1
  Cu  Cu24  1  0.805235  0.555610  0.194765  1
  Cu  Cu25  1  0.194765  0.444390  0.805235  1
  Ni  Ni26  1  0.554680  0.804811  0.445320  1
  Ni  Ni27  1  0.445320  0.195189  0.554680  1
