# generated using pymatgen
data_Al8Fe4Ir3Pt
_symmetry_space_group_name_H-M   'P 1'
_cell_length_a   5.93393600
_cell_length_b   4.17144200
_cell_length_c   8.34477600
_cell_angle_alpha   90.00000000
_cell_angle_beta   90.00007982
_cell_angle_gamma   90.00000000
_symmetry_Int_Tables_number   1
_chemical_formula_structural   Al8Fe4Ir3Pt
_chemical_formula_sum   'Al8 Fe4 Ir3 Pt1'
_cell_volume   206.55882326
_cell_formula_units_Z   1
loop_
 _symmetry_equiv_pos_site_id
 _symmetry_equiv_pos_as_xyz
  1  'x, y, z'
loop_
 _atom_site_type_symbol
 _atom_site_label
 _atom_site_symmetry_multiplicity
 _atom_site_fract_x
 _atom_site_fract_y
 _atom_site_fract_z
 _atom_site_occupancy
  Al  Al0  1  0.994635  0.750001  0.125104  1
  Al  Al1  1  0.505359  0.750001  0.125106  1
  Al  Al2  1  0.997511  0.250001  0.378552  1
  Al  Al3  1  0.502483  0.250001  0.378557  1
  Al  Al4  1  0.499804  0.750001  0.624930  1
  Al  Al5  1  0.000202  0.750001  0.624931  1
  Al  Al6  1  0.502752  0.250001  0.871417  1
  Al  Al7  1  0.997255  0.250001  0.871422  1
  Fe  Fe8  1  0.749994  0.250001  0.125026  1
  Fe  Fe9  1  0.249995  0.750001  0.372211  1
  Fe  Fe10  1  0.750006  0.250001  0.624949  1
  Fe  Fe11  1  0.250005  0.750001  0.877784  1
  Ir  Ir12  1  0.749998  0.750001  0.374410  1
  Ir  Ir13  1  0.250000  0.250001  0.624950  1
  Ir  Ir14  1  0.750003  0.750001  0.875623  1
  Pt  Pt15  1  0.249998  0.250001  0.125026  1
