# generated using pymatgen
data_DyScGa3Au
_symmetry_space_group_name_H-M   'P 1'
_cell_length_a   4.42947700
_cell_length_b   4.42947572
_cell_length_c   7.01568900
_cell_angle_alpha   90.00000000
_cell_angle_beta   90.00000000
_cell_angle_gamma   119.99998713
_symmetry_Int_Tables_number   1
_chemical_formula_structural   DyScGa3Au
_chemical_formula_sum   'Dy1 Sc1 Ga3 Au1'
_cell_volume   119.20810759
_cell_formula_units_Z   1
loop_
 _symmetry_equiv_pos_site_id
 _symmetry_equiv_pos_as_xyz
  1  'x, y, z'
loop_
 _atom_site_type_symbol
 _atom_site_label
 _atom_site_symmetry_multiplicity
 _atom_site_fract_x
 _atom_site_fract_y
 _atom_site_fract_z
 _atom_site_occupancy
  Dy  Dy0  1  0.333333  0.666667  0.252423  1
  Sc  Sc1  1  0.333333  0.666667  0.732845  1
  Ga  Ga2  1  0.666667  0.333333  0.483983  1
  Ga  Ga3  1  0.666667  0.333333  0.035161  1
  Ga  Ga4  1  0.000000  0.000000  0.945427  1
  Au  Au5  1  0.000000  0.000000  0.550163  1
