# generated using pymatgen
data_Ho3Hf5(Si4W)2
_symmetry_space_group_name_H-M   'P 1'
_cell_length_a   7.10130653
_cell_length_b   7.09656753
_cell_length_c   12.96264200
_cell_angle_alpha   90.00000000
_cell_angle_beta   90.00000000
_cell_angle_gamma   89.92475372
_symmetry_Int_Tables_number   1
_chemical_formula_structural   Ho3Hf5(Si4W)2
_chemical_formula_sum   'Ho6 Hf10 Si16 W4'
_cell_volume   653.25050146
_cell_formula_units_Z   2
loop_
 _symmetry_equiv_pos_site_id
 _symmetry_equiv_pos_as_xyz
  1  'x, y, z'
loop_
 _atom_site_type_symbol
 _atom_site_label
 _atom_site_symmetry_multiplicity
 _atom_site_fract_x
 _atom_site_fract_y
 _atom_site_fract_z
 _atom_site_occupancy
  Ho  Ho0  1  0.498042  0.155485  0.533376  1
  Ho  Ho1  1  0.501958  0.844515  0.033376  1
  Ho  Ho2  1  0.657144  0.002979  0.282570  1
  Ho  Ho3  1  0.342856  0.997021  0.782570  1
  Ho  Ho4  1  0.844601  0.502116  0.967707  1
  Ho  Ho5  1  0.155399  0.497884  0.467707  1
  Hf  Hf6  1  0.996530  0.654062  0.716541  1
  Hf  Hf7  1  0.003470  0.345938  0.216541  1
  Hf  Hf8  1  0.493741  0.353924  0.125124  1
  Hf  Hf9  1  0.506259  0.646076  0.625124  1
  Hf  Hf10  1  0.856252  0.007432  0.874140  1
  Hf  Hf11  1  0.143748  0.992568  0.374140  1
  Hf  Hf12  1  0.646785  0.504152  0.374662  1
  Hf  Hf13  1  0.353215  0.495848  0.874662  1
  Hf  Hf14  1  0.006301  0.854833  0.125570  1
  Hf  Hf15  1  0.993699  0.145167  0.625570  1
  Si  Si16  1  0.802409  0.145537  0.071623  1
  Si  Si17  1  0.197591  0.854463  0.571623  1
  Si  Si18  1  0.646495  0.700364  0.816818  1
  Si  Si19  1  0.353505  0.299636  0.316818  1
  Si  Si20  1  0.860059  0.204859  0.430395  1
  Si  Si21  1  0.139941  0.795141  0.930395  1
  Si  Si22  1  0.706082  0.638290  0.181172  1
  Si  Si23  1  0.293918  0.361710  0.681172  1
  Si  Si24  1  0.550782  0.203945  0.933723  1
  Si  Si25  1  0.449218  0.796055  0.433723  1
  Si  Si26  1  0.704415  0.948120  0.683608  1
  Si  Si27  1  0.295585  0.051880  0.183608  1
  Si  Si28  1  0.799968  0.453175  0.567647  1
  Si  Si29  1  0.200032  0.546825  0.067647  1
  Si  Si30  1  0.951913  0.696881  0.314886  1
  Si  Si31  1  0.048087  0.303119  0.814886  1
  W  W32  1  0.678575  0.327499  0.749871  1
  W  W33  1  0.321425  0.672501  0.249871  1
  W  W34  1  0.826451  0.821927  0.500566  1
  W  W35  1  0.173549  0.178073  0.000566  1
