# generated using pymatgen
data_Tb3TmAl18(OsRh2)2
_symmetry_space_group_name_H-M   'P 1'
_cell_length_a   7.51666301
_cell_length_b   7.51980625
_cell_length_c   9.50021000
_cell_angle_alpha   90.00000000
_cell_angle_beta   90.00000000
_cell_angle_gamma   118.33931704
_symmetry_Int_Tables_number   1
_chemical_formula_structural   Tb3TmAl18(OsRh2)2
_chemical_formula_sum   'Tb3 Tm1 Al18 Os2 Rh4'
_cell_volume   472.63135359
_cell_formula_units_Z   1
loop_
 _symmetry_equiv_pos_site_id
 _symmetry_equiv_pos_as_xyz
  1  'x, y, z'
loop_
 _atom_site_type_symbol
 _atom_site_label
 _atom_site_symmetry_multiplicity
 _atom_site_fract_x
 _atom_site_fract_y
 _atom_site_fract_z
 _atom_site_occupancy
  Tb  Tb0  1  0.994264  0.681924  0.250000  1
  Tb  Tb1  1  0.007332  0.318129  0.750000  1
  Tb  Tb2  1  0.681825  0.994135  0.250000  1
  Tm  Tm3  1  0.316699  0.007064  0.750000  1
  Al  Al4  1  0.136696  0.136318  0.250000  1
  Al  Al5  1  0.864455  0.864039  0.750000  1
  Al  Al6  1  0.003665  0.338827  0.074736  1
  Al  Al7  1  0.997047  0.661706  0.924337  1
  Al  Al8  1  0.997047  0.661706  0.575663  1
  Al  Al9  1  0.338766  0.003263  0.426323  1
  Al  Al10  1  0.003665  0.338827  0.425264  1
  Al  Al11  1  0.660121  0.996193  0.575955  1
  Al  Al12  1  0.660121  0.996193  0.924045  1
  Al  Al13  1  0.338766  0.003263  0.073677  1
  Al  Al14  1  0.332079  0.331281  0.545336  1
  Al  Al15  1  0.668397  0.668452  0.456410  1
  Al  Al16  1  0.668397  0.668452  0.043590  1
  Al  Al17  1  0.332079  0.331281  0.954664  1
  Al  Al18  1  0.341910  0.555252  0.250000  1
  Al  Al19  1  0.657040  0.443769  0.750000  1
  Al  Al20  1  0.554741  0.341547  0.250000  1
  Al  Al21  1  0.444669  0.659291  0.750000  1
  Os  Os22  1  0.001133  0.000503  0.998929  1
  Os  Os23  1  0.001133  0.000503  0.501071  1
  Rh  Rh24  1  0.670972  0.327799  0.999562  1
  Rh  Rh25  1  0.328003  0.671242  0.999541  1
  Rh  Rh26  1  0.328003  0.671242  0.500459  1
  Rh  Rh27  1  0.670972  0.327799  0.500438  1
