# generated using pymatgen
data_Sr4Mg2VReN8
_symmetry_space_group_name_H-M   'P 1'
_cell_length_a   5.92166100
_cell_length_b   6.25246375
_cell_length_c   6.82782257
_cell_angle_alpha   74.47067204
_cell_angle_beta   90.00000000
_cell_angle_gamma   90.00000000
_symmetry_Int_Tables_number   1
_chemical_formula_structural   Sr4Mg2VReN8
_chemical_formula_sum   'Sr4 Mg2 V1 Re1 N8'
_cell_volume   243.57109898
_cell_formula_units_Z   1
loop_
 _symmetry_equiv_pos_site_id
 _symmetry_equiv_pos_as_xyz
  1  'x, y, z'
loop_
 _atom_site_type_symbol
 _atom_site_label
 _atom_site_symmetry_multiplicity
 _atom_site_fract_x
 _atom_site_fract_y
 _atom_site_fract_z
 _atom_site_occupancy
  Sr  Sr0  1  0.250000  0.239530  0.067754  1
  Sr  Sr1  1  0.750000  0.749790  0.946139  1
  Sr  Sr2  1  0.750000  0.771562  0.423862  1
  Sr  Sr3  1  0.250000  0.231657  0.558916  1
  Mg  Mg4  1  0.750000  0.305040  0.302728  1
  Mg  Mg5  1  0.250000  0.711516  0.695702  1
  V  V6  1  0.250000  0.707918  0.200058  1
  Re  Re7  1  0.750000  0.288901  0.799612  1
  N  N8  1  0.507004  0.473894  0.751354  1
  N  N9  1  0.009438  0.523211  0.249843  1
  N  N10  1  0.490562  0.523211  0.249843  1
  N  N11  1  0.992996  0.473894  0.751354  1
  N  N12  1  0.750000  0.110573  0.620425  1
  N  N13  1  0.250000  0.889429  0.382786  1
  N  N14  1  0.750000  0.126234  0.068890  1
  N  N15  1  0.250000  0.873638  0.930734  1
