# generated using pymatgen
data_Gd2B10Ir
_symmetry_space_group_name_H-M   'P 1'
_cell_length_a   4.18100900
_cell_length_b   5.69640300
_cell_length_c   11.35547100
_cell_angle_alpha   90.00000000
_cell_angle_beta   90.00000000
_cell_angle_gamma   89.99995248
_symmetry_Int_Tables_number   1
_chemical_formula_structural   Gd2B10Ir
_chemical_formula_sum   'Gd4 B20 Ir2'
_cell_volume   270.44998482
_cell_formula_units_Z   2
loop_
 _symmetry_equiv_pos_site_id
 _symmetry_equiv_pos_as_xyz
  1  'x, y, z'
loop_
 _atom_site_type_symbol
 _atom_site_label
 _atom_site_symmetry_multiplicity
 _atom_site_fract_x
 _atom_site_fract_y
 _atom_site_fract_z
 _atom_site_occupancy
  Gd  Gd0  1  0.499999  0.205786  0.366199  1
  Gd  Gd1  1  0.500001  0.794214  0.633801  1
  Gd  Gd2  1  0.500001  0.294214  0.866199  1
  Gd  Gd3  1  0.499999  0.705786  0.133801  1
  B  B4  1  0.000000  0.381477  0.042954  1
  B  B5  1  0.000000  0.618523  0.957046  1
  B  B6  1  0.000000  0.118523  0.542954  1
  B  B7  1  0.000000  0.881477  0.457046  1
  B  B8  1  0.000000  0.362064  0.197466  1
  B  B9  1  0.000000  0.637936  0.802534  1
  B  B10  1  0.000000  0.137936  0.697466  1
  B  B11  1  0.000000  0.862064  0.302534  1
  B  B12  1  0.000000  0.054737  0.193070  1
  B  B13  1  0.000000  0.945263  0.806930  1
  B  B14  1  0.000000  0.445263  0.693070  1
  B  B15  1  0.000000  0.554737  0.306930  1
  B  B16  1  0.301161  0.219279  0.118875  1
  B  B17  1  0.698839  0.780721  0.881125  1
  B  B18  1  0.301162  0.780721  0.881125  1
  B  B19  1  0.698839  0.280721  0.618875  1
  B  B20  1  0.698838  0.219279  0.118875  1
  B  B21  1  0.301161  0.719279  0.381125  1
  B  B22  1  0.698838  0.719279  0.381125  1
  B  B23  1  0.301162  0.280721  0.618875  1
  Ir  Ir24  1  0.000000  0.000000  0.000000  1
  Ir  Ir25  1  0.000000  0.500000  0.500000  1
