# generated using pymatgen
data_MgZr(SiRh2)4
_symmetry_space_group_name_H-M   'P 1'
_cell_length_a   4.05073500
_cell_length_b   9.00905700
_cell_length_c   11.11131900
_cell_angle_alpha   90.00000000
_cell_angle_beta   90.00000000
_cell_angle_gamma   90.00000000
_symmetry_Int_Tables_number   1
_chemical_formula_structural   MgZr(SiRh2)4
_chemical_formula_sum   'Mg2 Zr2 Si8 Rh16'
_cell_volume   405.48872552
_cell_formula_units_Z   2
loop_
 _symmetry_equiv_pos_site_id
 _symmetry_equiv_pos_as_xyz
  1  'x, y, z'
loop_
 _atom_site_type_symbol
 _atom_site_label
 _atom_site_symmetry_multiplicity
 _atom_site_fract_x
 _atom_site_fract_y
 _atom_site_fract_z
 _atom_site_occupancy
  Mg  Mg0  1  0.750000  0.865336  0.181867  1
  Mg  Mg1  1  0.750000  0.634664  0.681867  1
  Zr  Zr2  1  0.250000  0.134526  0.824077  1
  Zr  Zr3  1  0.250000  0.365474  0.324077  1
  Si  Si4  1  0.250000  0.424154  0.635656  1
  Si  Si5  1  0.250000  0.075846  0.135656  1
  Si  Si6  1  0.750000  0.601907  0.361569  1
  Si  Si7  1  0.750000  0.898093  0.861569  1
  Si  Si8  1  0.250000  0.608863  0.058235  1
  Si  Si9  1  0.250000  0.891137  0.558235  1
  Si  Si10  1  0.750000  0.370588  0.938826  1
  Si  Si11  1  0.750000  0.129412  0.438826  1
  Rh  Rh12  1  0.250000  0.628221  0.504148  1
  Rh  Rh13  1  0.250000  0.871779  0.004148  1
  Rh  Rh14  1  0.750000  0.396117  0.498616  1
  Rh  Rh15  1  0.750000  0.103883  0.998616  1
  Rh  Rh16  1  0.250000  0.695365  0.260632  1
  Rh  Rh17  1  0.250000  0.804635  0.760632  1
  Rh  Rh18  1  0.750000  0.300874  0.728652  1
  Rh  Rh19  1  0.750000  0.199126  0.228652  1
  Rh  Rh20  1  0.250000  0.181390  0.561520  1
  Rh  Rh21  1  0.250000  0.318610  0.061520  1
  Rh  Rh22  1  0.750000  0.841485  0.442292  1
  Rh  Rh23  1  0.750000  0.658515  0.942292  1
  Rh  Rh24  1  0.250000  0.020923  0.342679  1
  Rh  Rh25  1  0.250000  0.479077  0.842679  1
  Rh  Rh26  1  0.750000  0.002795  0.661230  1
  Rh  Rh27  1  0.750000  0.497205  0.161230  1
