# generated using pymatgen
data_Dy2Co3Si4(PRu3)3
_symmetry_space_group_name_H-M   'P 1'
_cell_length_a   9.42202900
_cell_length_b   9.42202798
_cell_length_c   3.81875000
_cell_angle_alpha   90.00000000
_cell_angle_beta   90.00000000
_cell_angle_gamma   120.00000710
_symmetry_Int_Tables_number   1
_chemical_formula_structural   Dy2Co3Si4(PRu3)3
_chemical_formula_sum   'Dy2 Co3 Si4 P3 Ru9'
_cell_volume   293.58959126
_cell_formula_units_Z   1
loop_
 _symmetry_equiv_pos_site_id
 _symmetry_equiv_pos_as_xyz
  1  'x, y, z'
loop_
 _atom_site_type_symbol
 _atom_site_label
 _atom_site_symmetry_multiplicity
 _atom_site_fract_x
 _atom_site_fract_y
 _atom_site_fract_z
 _atom_site_occupancy
  Dy  Dy0  1  0.333333  0.666667  0.000000  1
  Dy  Dy1  1  0.666667  0.333333  0.500000  1
  Co  Co2  1  0.152240  0.879047  0.000000  1
  Co  Co3  1  0.120953  0.273193  0.000000  1
  Co  Co4  1  0.726807  0.847760  0.000000  1
  Si  Si5  1  0.403633  0.108275  0.000000  1
  Si  Si6  1  0.891725  0.295359  0.000000  1
  Si  Si7  1  0.704641  0.596367  0.000000  1
  Si  Si8  1  0.000000  0.000000  0.000000  1
  P  P9  1  0.108375  0.715478  0.500000  1
  P  P10  1  0.284522  0.392897  0.500000  1
  P  P11  1  0.607103  0.891625  0.500000  1
  Ru  Ru12  1  0.423836  0.369588  0.000000  1
  Ru  Ru13  1  0.630412  0.054248  0.000000  1
  Ru  Ru14  1  0.945752  0.576164  0.000000  1
  Ru  Ru15  1  0.378898  0.937770  0.500000  1
  Ru  Ru16  1  0.062230  0.441127  0.500000  1
  Ru  Ru17  1  0.558873  0.621102  0.500000  1
  Ru  Ru18  1  0.206781  0.113256  0.500000  1
  Ru  Ru19  1  0.886744  0.093525  0.500000  1
  Ru  Ru20  1  0.906475  0.793219  0.500000  1
