# generated using pymatgen
data_Li8Dy5Y3Sn7Bi
_symmetry_space_group_name_H-M   'P 1'
_cell_length_a   9.41551000
_cell_length_b   9.41481613
_cell_length_c   7.30282927
_cell_angle_alpha   90.09548154
_cell_angle_beta   90.00000000
_cell_angle_gamma   120.00243800
_symmetry_Int_Tables_number   1
_chemical_formula_structural   Li8Dy5Y3Sn7Bi
_chemical_formula_sum   'Li8 Dy5 Y3 Sn7 Bi1'
_cell_volume   560.61665629
_cell_formula_units_Z   1
loop_
 _symmetry_equiv_pos_site_id
 _symmetry_equiv_pos_as_xyz
  1  'x, y, z'
loop_
 _atom_site_type_symbol
 _atom_site_label
 _atom_site_symmetry_multiplicity
 _atom_site_fract_x
 _atom_site_fract_y
 _atom_site_fract_z
 _atom_site_occupancy
  Li  Li0  1  0.166638  0.333277  0.285597  1
  Li  Li1  1  0.167950  0.833634  0.288815  1
  Li  Li2  1  0.665685  0.833634  0.288815  1
  Li  Li3  1  0.833346  0.666693  0.787629  1
  Li  Li4  1  0.829136  0.164695  0.791234  1
  Li  Li5  1  0.335559  0.164695  0.791234  1
  Li  Li6  1  0.335291  0.670584  0.668667  1
  Li  Li7  1  0.666140  0.332280  0.170582  1
  Dy  Dy8  1  0.487289  0.974578  0.994729  1
  Dy  Dy9  1  0.493062  0.514606  0.996536  1
  Dy  Dy10  1  0.021542  0.514606  0.996536  1
  Dy  Dy11  1  0.997305  0.994610  0.497315  1
  Dy  Dy12  1  0.997839  0.995677  0.002417  1
  Y  Y13  1  0.512701  0.025400  0.493695  1
  Y  Y14  1  0.517440  0.490587  0.491148  1
  Y  Y15  1  0.973147  0.490587  0.491148  1
  Sn  Sn16  1  0.166270  0.832786  0.730306  1
  Sn  Sn17  1  0.666516  0.832786  0.730306  1
  Sn  Sn18  1  0.833443  0.666886  0.229936  1
  Sn  Sn19  1  0.833934  0.167246  0.229500  1
  Sn  Sn20  1  0.333312  0.167246  0.229500  1
  Sn  Sn21  1  0.332727  0.665455  0.260925  1
  Sn  Sn22  1  0.667027  0.334052  0.762647  1
  Bi  Bi23  1  0.166700  0.333400  0.732777  1
