# generated using pymatgen
data_Ac2NdRuBr3
_symmetry_space_group_name_H-M   'P 1'
_cell_length_a   4.36537700
_cell_length_b   9.67555543
_cell_length_c   12.55855842
_cell_angle_alpha   87.82014377
_cell_angle_beta   90.00000000
_cell_angle_gamma   90.00000000
_symmetry_Int_Tables_number   1
_chemical_formula_structural   Ac2NdRuBr3
_chemical_formula_sum   'Ac4 Nd2 Ru2 Br6'
_cell_volume   530.05759375
_cell_formula_units_Z   2
loop_
 _symmetry_equiv_pos_site_id
 _symmetry_equiv_pos_as_xyz
  1  'x, y, z'
loop_
 _atom_site_type_symbol
 _atom_site_label
 _atom_site_symmetry_multiplicity
 _atom_site_fract_x
 _atom_site_fract_y
 _atom_site_fract_z
 _atom_site_occupancy
  Ac  Ac0  1  0.250000  0.323771  0.373832  1
  Ac  Ac1  1  0.750000  0.676229  0.626168  1
  Ac  Ac2  1  0.250000  0.900501  0.387026  1
  Ac  Ac3  1  0.750000  0.099499  0.612974  1
  Nd  Nd4  1  0.250000  0.883281  0.838677  1
  Nd  Nd5  1  0.750000  0.116719  0.161323  1
  Ru  Ru6  1  0.250000  0.886038  0.628885  1
  Ru  Ru7  1  0.750000  0.113962  0.371115  1
  Br  Br8  1  0.250000  0.397624  0.628006  1
  Br  Br9  1  0.750000  0.602376  0.371994  1
  Br  Br10  1  0.250000  0.904139  0.112156  1
  Br  Br11  1  0.750000  0.095861  0.887844  1
  Br  Br12  1  0.250000  0.330609  0.119389  1
  Br  Br13  1  0.750000  0.669391  0.880611  1
