# generated using pymatgen
data_ThSi2Ni8Ir
_symmetry_space_group_name_H-M   'P 1'
_cell_length_a   7.67986000
_cell_length_b   7.67986175
_cell_length_c   7.67986083
_cell_angle_alpha   99.51351386
_cell_angle_beta   99.51351315
_cell_angle_gamma   132.02382085
_symmetry_Int_Tables_number   1
_chemical_formula_structural   ThSi2Ni8Ir
_chemical_formula_sum   'Th2 Si4 Ni16 Ir2'
_cell_volume   307.42644781
_cell_formula_units_Z   2
loop_
 _symmetry_equiv_pos_site_id
 _symmetry_equiv_pos_as_xyz
  1  'x, y, z'
loop_
 _atom_site_type_symbol
 _atom_site_label
 _atom_site_symmetry_multiplicity
 _atom_site_fract_x
 _atom_site_fract_y
 _atom_site_fract_z
 _atom_site_occupancy
  Th  Th0  1  0.500000  0.500000  0.000000  1
  Th  Th1  1  0.750000  0.250000  0.500000  1
  Si  Si2  1  0.625000  0.875000  0.750000  1
  Si  Si3  1  0.125000  0.375000  0.250000  1
  Si  Si4  1  0.125000  0.875000  0.750000  1
  Si  Si5  1  0.125000  0.875000  0.250000  1
  Ni  Ni6  1  0.687425  0.019116  0.082434  1
  Ni  Ni7  1  0.687425  0.604992  0.668310  1
  Ni  Ni8  1  0.269116  0.437425  0.582434  1
  Ni  Ni9  1  0.269116  0.686682  0.831690  1
  Ni  Ni10  1  0.936682  0.019116  0.331690  1
  Ni  Ni11  1  0.936682  0.604992  0.917566  1
  Ni  Ni12  1  0.854992  0.437425  0.168310  1
  Ni  Ni13  1  0.854992  0.686682  0.417566  1
  Ni  Ni14  1  0.562575  0.730884  0.417566  1
  Ni  Ni15  1  0.562575  0.145008  0.831690  1
  Ni  Ni16  1  0.980884  0.312575  0.917566  1
  Ni  Ni17  1  0.980884  0.063318  0.668310  1
  Ni  Ni18  1  0.313318  0.730884  0.168310  1
  Ni  Ni19  1  0.313318  0.145008  0.582434  1
  Ni  Ni20  1  0.395008  0.312575  0.331690  1
  Ni  Ni21  1  0.395008  0.063318  0.082434  1
  Ir  Ir22  1  0.250000  0.750000  0.500000  1
  Ir  Ir23  1  0.000000  0.000000  0.000000  1
