# generated using pymatgen
data_CsBa2I5
_symmetry_space_group_name_H-M   'P 1'
_cell_length_a   9.45765200
_cell_length_b   10.80878597
_cell_length_c   15.12585226
_cell_angle_alpha   89.69781839
_cell_angle_beta   90.00000000
_cell_angle_gamma   90.00000000
_symmetry_Int_Tables_number   1
_chemical_formula_structural   CsBa2I5
_chemical_formula_sum   'Cs4 Ba8 I20'
_cell_volume   1546.22987885
_cell_formula_units_Z   4
loop_
 _symmetry_equiv_pos_site_id
 _symmetry_equiv_pos_as_xyz
  1  'x, y, z'
loop_
 _atom_site_type_symbol
 _atom_site_label
 _atom_site_symmetry_multiplicity
 _atom_site_fract_x
 _atom_site_fract_y
 _atom_site_fract_z
 _atom_site_occupancy
  Cs  Cs0  1  0.942972  0.010696  0.166648  1
  Cs  Cs1  1  0.442972  0.989304  0.333352  1
  Cs  Cs2  1  0.057028  0.989304  0.833352  1
  Cs  Cs3  1  0.557028  0.010696  0.666648  1
  Ba  Ba4  1  0.971674  0.500131  0.177693  1
  Ba  Ba5  1  0.471674  0.499869  0.322307  1
  Ba  Ba6  1  0.028326  0.499869  0.822307  1
  Ba  Ba7  1  0.528326  0.500131  0.677693  1
  Ba  Ba8  1  0.430583  0.253267  0.007168  1
  Ba  Ba9  1  0.930583  0.746733  0.492832  1
  Ba  Ba10  1  0.569417  0.746733  0.992832  1
  Ba  Ba11  1  0.069417  0.253267  0.507168  1
  I  I12  1  0.048049  0.287228  0.002365  1
  I  I13  1  0.548049  0.712772  0.497635  1
  I  I14  1  0.951951  0.712772  0.997635  1
  I  I15  1  0.451951  0.287228  0.502365  1
  I  I16  1  0.689626  0.725187  0.217123  1
  I  I17  1  0.189626  0.274813  0.282877  1
  I  I18  1  0.310374  0.274813  0.782877  1
  I  I19  1  0.810374  0.725187  0.717123  1
  I  I20  1  0.836948  0.460888  0.400773  1
  I  I21  1  0.336948  0.539112  0.099227  1
  I  I22  1  0.163052  0.539112  0.599227  1
  I  I23  1  0.663052  0.460888  0.900773  1
  I  I24  1  0.664257  0.288188  0.187029  1
  I  I25  1  0.164257  0.711812  0.312971  1
  I  I26  1  0.335743  0.711812  0.812971  1
  I  I27  1  0.835743  0.288188  0.687029  1
  I  I28  1  0.823468  0.036435  0.421345  1
  I  I29  1  0.323468  0.963565  0.078655  1
  I  I30  1  0.176532  0.963565  0.578655  1
  I  I31  1  0.676532  0.036435  0.921345  1
