# generated using pymatgen
data_HoTh3Ga6Ir7
_symmetry_space_group_name_H-M   'P 1'
_cell_length_a   7.42473637
_cell_length_b   7.42473635
_cell_length_c   7.37768600
_cell_angle_alpha   109.34289707
_cell_angle_beta   109.34289704
_cell_angle_gamma   109.59923886
_symmetry_Int_Tables_number   1
_chemical_formula_structural   HoTh3Ga6Ir7
_chemical_formula_sum   'Ho1 Th3 Ga6 Ir7'
_cell_volume   313.57807301
_cell_formula_units_Z   1
loop_
 _symmetry_equiv_pos_site_id
 _symmetry_equiv_pos_as_xyz
  1  'x, y, z'
loop_
 _atom_site_type_symbol
 _atom_site_label
 _atom_site_symmetry_multiplicity
 _atom_site_fract_x
 _atom_site_fract_y
 _atom_site_fract_z
 _atom_site_occupancy
  Ho  Ho0  1  0.000000  0.000000  0.500000  1
  Th  Th1  1  0.000000  0.500000  0.000000  1
  Th  Th2  1  0.500000  0.000000  0.000000  1
  Th  Th3  1  0.500000  0.500000  0.500000  1
  Ga  Ga4  1  0.683842  0.683842  0.005783  1
  Ga  Ga5  1  0.316158  0.000000  0.321941  1
  Ga  Ga6  1  0.000000  0.316158  0.321941  1
  Ga  Ga7  1  0.316158  0.316158  0.994217  1
  Ga  Ga8  1  0.683842  0.000000  0.678059  1
  Ga  Ga9  1  0.000000  0.683842  0.678059  1
  Ir  Ir10  1  0.750077  0.249923  0.500000  1
  Ir  Ir11  1  0.750077  0.500154  0.250077  1
  Ir  Ir12  1  0.499846  0.249923  0.749923  1
  Ir  Ir13  1  0.249923  0.499846  0.749923  1
  Ir  Ir14  1  0.249923  0.750077  0.500000  1
  Ir  Ir15  1  0.500154  0.750077  0.250077  1
  Ir  Ir16  1  0.000000  0.000000  0.000000  1
