# generated using pymatgen
data_AcCoSi2Tc
_symmetry_space_group_name_H-M   'P 1'
_cell_length_a   6.01330666
_cell_length_b   6.01330691
_cell_length_c   6.01330613
_cell_angle_alpha   138.93650406
_cell_angle_beta   138.93650587
_cell_angle_gamma   59.47167766
_symmetry_Int_Tables_number   1
_chemical_formula_structural   AcCoSi2Tc
_chemical_formula_sum   'Ac1 Co1 Si2 Tc1'
_cell_volume   92.90034037
_cell_formula_units_Z   1
loop_
 _symmetry_equiv_pos_site_id
 _symmetry_equiv_pos_as_xyz
  1  'x, y, z'
loop_
 _atom_site_type_symbol
 _atom_site_label
 _atom_site_symmetry_multiplicity
 _atom_site_fract_x
 _atom_site_fract_y
 _atom_site_fract_z
 _atom_site_occupancy
  Ac  Ac0  1  0.000000  0.000000  0.000000  1
  Co  Co1  1  0.250000  0.750000  0.500000  1
  Si  Si2  1  0.647169  0.647169  0.000000  1
  Si  Si3  1  0.352831  0.352831  0.000000  1
  Tc  Tc4  1  0.750000  0.250000  0.500000  1
