# generated using pymatgen
data_Y2Er4Al24GaOs7
_symmetry_space_group_name_H-M   'P 1'
_cell_length_a   8.85835278
_cell_length_b   8.85742217
_cell_length_c   9.54382605
_cell_angle_alpha   90.08882397
_cell_angle_beta   89.85499636
_cell_angle_gamma   119.88514520
_symmetry_Int_Tables_number   1
_chemical_formula_structural   Y2Er4Al24GaOs7
_chemical_formula_sum   'Y2 Er4 Al24 Ga1 Os7'
_cell_volume   649.25233176
_cell_formula_units_Z   1
loop_
 _symmetry_equiv_pos_site_id
 _symmetry_equiv_pos_as_xyz
  1  'x, y, z'
loop_
 _atom_site_type_symbol
 _atom_site_label
 _atom_site_symmetry_multiplicity
 _atom_site_fract_x
 _atom_site_fract_y
 _atom_site_fract_z
 _atom_site_occupancy
  Y  Y0  1  0.191806  0.384393  0.245443  1
  Y  Y1  1  0.808194  0.615607  0.754557  1
  Er  Er2  1  0.613697  0.808203  0.246320  1
  Er  Er3  1  0.386303  0.191797  0.753680  1
  Er  Er4  1  0.195214  0.804910  0.255812  1
  Er  Er5  1  0.804786  0.195090  0.744188  1
  Al  Al6  1  0.327562  0.672790  0.022995  1
  Al  Al7  1  0.672438  0.327210  0.977005  1
  Al  Al8  1  0.665919  0.333970  0.519318  1
  Al  Al9  1  0.334081  0.666030  0.480682  1
  Al  Al10  1  0.162431  0.325636  0.572223  1
  Al  Al11  1  0.837569  0.674364  0.427777  1
  Al  Al12  1  0.674126  0.837490  0.571763  1
  Al  Al13  1  0.852337  0.678639  0.082676  1
  Al  Al14  1  0.325874  0.162510  0.428237  1
  Al  Al15  1  0.147663  0.321361  0.917324  1
  Al  Al16  1  0.163056  0.837126  0.576262  1
  Al  Al17  1  0.321469  0.147344  0.081864  1
  Al  Al18  1  0.836944  0.162874  0.423738  1
  Al  Al19  1  0.678531  0.852656  0.918136  1
  Al  Al20  1  0.836526  0.162924  0.076780  1
  Al  Al21  1  0.163474  0.837076  0.923220  1
  Al  Al22  1  0.561880  0.120779  0.249522  1
  Al  Al23  1  0.438120  0.879221  0.750478  1
  Al  Al24  1  0.878905  0.438167  0.249599  1
  Al  Al25  1  0.121095  0.561833  0.750401  1
  Al  Al26  1  0.566102  0.434914  0.257998  1
  Al  Al27  1  0.433898  0.565086  0.742002  1
  Al  Al28  1  0.998126  0.999362  0.250716  1
  Al  Al29  1  0.001874  0.000638  0.749284  1
  Ga  Ga30  1  0.500000  0.500000  0.000000  1
  Os  Os31  1  0.500000  0.000000  0.000000  1
  Os  Os32  1  0.000000  0.500000  0.000000  1
  Os  Os33  1  0.500000  0.000000  0.500000  1
  Os  Os34  1  0.000000  0.500000  0.500000  1
  Os  Os35  1  0.500000  0.500000  0.500000  1
  Os  Os36  1  0.000000  0.000000  0.000000  1
  Os  Os37  1  0.000000  0.000000  0.500000  1
