# generated using pymatgen
data_YbLuI26
_symmetry_space_group_name_H-M   'P 1'
_cell_length_a   12.97843413
_cell_length_b   11.50303897
_cell_length_c   15.28210946
_cell_angle_alpha   122.15791111
_cell_angle_beta   91.08118126
_cell_angle_gamma   101.81716928
_symmetry_Int_Tables_number   1
_chemical_formula_structural   YbLuI26
_chemical_formula_sum   'Yb1 Lu1 I26'
_cell_volume   1867.89220949
_cell_formula_units_Z   1
loop_
 _symmetry_equiv_pos_site_id
 _symmetry_equiv_pos_as_xyz
  1  'x, y, z'
loop_
 _atom_site_type_symbol
 _atom_site_label
 _atom_site_symmetry_multiplicity
 _atom_site_fract_x
 _atom_site_fract_y
 _atom_site_fract_z
 _atom_site_occupancy
  Yb  Yb0  1  0.332781  0.875340  0.935556  1
  Lu  Lu1  1  0.663128  0.119844  0.062732  1
  I  I2  1  0.384915  0.663272  0.987415  1
  I  I3  1  0.610607  0.323485  0.012740  1
  I  I4  1  0.584271  0.815235  0.395840  1
  I  I5  1  0.423157  0.196639  0.610029  1
  I  I6  1  0.734503  0.688268  0.016379  1
  I  I7  1  0.256930  0.305372  0.983725  1
  I  I8  1  0.719128  0.966499  0.164628  1
  I  I9  1  0.273727  0.032817  0.831246  1
  I  I10  1  0.457533  0.148761  0.141717  1
  I  I11  1  0.560853  0.859415  0.866014  1
  I  I12  1  0.228088  0.657394  0.698321  1
  I  I13  1  0.775318  0.344805  0.287539  1
  I  I14  1  0.099557  0.831454  0.981906  1
  I  I15  1  0.882143  0.159132  0.011380  1
  I  I16  1  0.078644  0.073692  0.192340  1
  I  I17  1  0.913993  0.909630  0.800204  1
  I  I18  1  0.277011  0.922742  0.461193  1
  I  I19  1  0.729791  0.088584  0.546575  1
  I  I20  1  0.321695  0.423705  0.648456  1
  I  I21  1  0.682826  0.586407  0.348052  1
  I  I22  1  0.859683  0.375329  0.708978  1
  I  I23  1  0.142995  0.637478  0.302437  1
  I  I24  1  0.946804  0.700384  0.604040  1
  I  I25  1  0.058294  0.290876  0.394035  1
  I  I26  1  0.258605  0.636746  0.133512  1
  I  I27  1  0.743018  0.366696  0.873011  1
