# generated using pymatgen
data_Nd4(HgRh)3
_symmetry_space_group_name_H-M   'P 1'
_cell_length_a   7.87005597
_cell_length_b   7.87005592
_cell_length_c   3.89602200
_cell_angle_alpha   90.00000000
_cell_angle_beta   90.00000000
_cell_angle_gamma   89.20492737
_symmetry_Int_Tables_number   1
_chemical_formula_structural   Nd4(HgRh)3
_chemical_formula_sum   'Nd4 Hg3 Rh3'
_cell_volume   241.28772258
_cell_formula_units_Z   1
loop_
 _symmetry_equiv_pos_site_id
 _symmetry_equiv_pos_as_xyz
  1  'x, y, z'
loop_
 _atom_site_type_symbol
 _atom_site_label
 _atom_site_symmetry_multiplicity
 _atom_site_fract_x
 _atom_site_fract_y
 _atom_site_fract_z
 _atom_site_occupancy
  Nd  Nd0  1  0.837473  0.699327  0.500000  1
  Nd  Nd1  1  0.324512  0.824512  0.500000  1
  Nd  Nd2  1  0.646561  0.146561  0.500000  1
  Nd  Nd3  1  0.199327  0.337473  0.500000  1
  Hg  Hg4  1  0.005993  0.997553  0.000000  1
  Hg  Hg5  1  0.497553  0.505993  0.000000  1
  Hg  Hg6  1  0.871327  0.371327  0.000000  1
  Rh  Rh7  1  0.362514  0.127489  0.000000  1
  Rh  Rh8  1  0.627489  0.862514  0.000000  1
  Rh  Rh9  1  0.127251  0.627251  0.000000  1
