# generated using pymatgen
data_Tm4Lu(SiSb)2
_symmetry_space_group_name_H-M   'P 1'
_cell_length_a   8.39521440
_cell_length_b   8.39552630
_cell_length_c   7.74219801
_cell_angle_alpha   90.00552288
_cell_angle_beta   89.99563349
_cell_angle_gamma   125.24479234
_symmetry_Int_Tables_number   1
_chemical_formula_structural   Tm4Lu(SiSb)2
_chemical_formula_sum   'Tm8 Lu2 Si4 Sb4'
_cell_volume   445.65969638
_cell_formula_units_Z   2
loop_
 _symmetry_equiv_pos_site_id
 _symmetry_equiv_pos_as_xyz
  1  'x, y, z'
loop_
 _atom_site_type_symbol
 _atom_site_label
 _atom_site_symmetry_multiplicity
 _atom_site_fract_x
 _atom_site_fract_y
 _atom_site_fract_z
 _atom_site_occupancy
  Tm  Tm0  1  0.540336  0.790531  0.164959  1
  Tm  Tm1  1  0.290529  0.040326  0.335029  1
  Tm  Tm2  1  0.209487  0.459648  0.835028  1
  Tm  Tm3  1  0.959634  0.709471  0.664951  1
  Tm  Tm4  1  0.709434  0.959635  0.664967  1
  Tm  Tm5  1  0.459657  0.209450  0.835012  1
  Tm  Tm6  1  0.790556  0.540394  0.164959  1
  Tm  Tm7  1  0.040402  0.290559  0.335050  1
  Lu  Lu8  1  0.499967  0.499981  0.500058  1
  Lu  Lu9  1  0.999996  0.999967  0.999993  1
  Si  Si10  1  0.633200  0.633227  0.867995  1
  Si  Si11  1  0.133238  0.133227  0.631994  1
  Si  Si12  1  0.866780  0.866776  0.368006  1
  Si  Si13  1  0.366781  0.366796  0.131986  1
  Sb  Sb14  1  0.294071  0.705939  0.499990  1
  Sb  Sb15  1  0.205942  0.794065  0.000024  1
  Sb  Sb16  1  0.705936  0.294065  0.500041  1
  Sb  Sb17  1  0.794053  0.205945  0.999958  1
