# generated using pymatgen
data_KPaCuS3
_symmetry_space_group_name_H-M   'P 1'
_cell_length_a   7.43609493
_cell_length_b   7.43609475
_cell_length_c   10.38529700
_cell_angle_alpha   90.00000000
_cell_angle_beta   90.00000000
_cell_angle_gamma   149.14847013
_symmetry_Int_Tables_number   1
_chemical_formula_structural   KPaCuS3
_chemical_formula_sum   'K2 Pa2 Cu2 S6'
_cell_volume   294.48937543
_cell_formula_units_Z   2
loop_
 _symmetry_equiv_pos_site_id
 _symmetry_equiv_pos_as_xyz
  1  'x, y, z'
loop_
 _atom_site_type_symbol
 _atom_site_label
 _atom_site_symmetry_multiplicity
 _atom_site_fract_x
 _atom_site_fract_y
 _atom_site_fract_z
 _atom_site_occupancy
  K  K0  1  0.744986  0.255014  0.250000  1
  K  K1  1  0.255014  0.744986  0.750000  1
  Pa  Pa2  1  0.000000  0.000000  0.000000  1
  Pa  Pa3  1  0.000000  0.000000  0.500000  1
  Cu  Cu4  1  0.466981  0.533019  0.250000  1
  Cu  Cu5  1  0.533019  0.466981  0.750000  1
  S  S6  1  0.061923  0.938077  0.250000  1
  S  S7  1  0.938077  0.061923  0.750000  1
  S  S8  1  0.622722  0.377278  0.565748  1
  S  S9  1  0.622722  0.377278  0.934252  1
  S  S10  1  0.377278  0.622722  0.065748  1
  S  S11  1  0.377278  0.622722  0.434252  1
