# generated using pymatgen
data_Dy8Lu4InCo4Rh
_symmetry_space_group_name_H-M   'P 1'
_cell_length_a   8.25074768
_cell_length_b   8.25074769
_cell_length_c   8.25074868
_cell_angle_alpha   110.68260421
_cell_angle_beta   111.14934783
_cell_angle_gamma   106.61917115
_symmetry_Int_Tables_number   1
_chemical_formula_structural   Dy8Lu4InCo4Rh
_chemical_formula_sum   'Dy8 Lu4 In1 Co4 Rh1'
_cell_volume   431.56651161
_cell_formula_units_Z   1
loop_
 _symmetry_equiv_pos_site_id
 _symmetry_equiv_pos_as_xyz
  1  'x, y, z'
loop_
 _atom_site_type_symbol
 _atom_site_label
 _atom_site_symmetry_multiplicity
 _atom_site_fract_x
 _atom_site_fract_y
 _atom_site_fract_z
 _atom_site_occupancy
  Dy  Dy0  1  0.188402  0.291734  0.480136  1
  Dy  Dy1  1  0.811598  0.708266  0.519864  1
  Dy  Dy2  1  0.188402  0.708266  0.896666  1
  Dy  Dy3  1  0.811598  0.291734  0.103334  1
  Dy  Dy4  1  0.312959  0.617190  0.304231  1
  Dy  Dy5  1  0.687041  0.382810  0.695769  1
  Dy  Dy6  1  0.312959  0.008729  0.695769  1
  Dy  Dy7  1  0.687041  0.991271  0.304231  1
  Lu  Lu8  1  0.405138  0.211415  0.193724  1
  Lu  Lu9  1  0.594862  0.788585  0.806276  1
  Lu  Lu10  1  0.017691  0.211415  0.806276  1
  Lu  Lu11  1  0.982309  0.788585  0.193724  1
  In  In12  1  0.500000  0.500000  0.000000  1
  Co  Co13  1  0.378071  0.000000  0.378071  1
  Co  Co14  1  0.621929  0.000000  0.621929  1
  Co  Co15  1  0.112253  0.612253  0.500000  1
  Co  Co16  1  0.887747  0.387747  0.500000  1
  Rh  Rh17  1  0.000000  0.000000  0.000000  1
