# generated using pymatgen
data_Mo(PtRh3)2
_symmetry_space_group_name_H-M   'P 1'
_cell_length_a   6.15232529
_cell_length_b   6.15232820
_cell_length_c   6.15232459
_cell_angle_alpha   95.92945939
_cell_angle_beta   95.45172701
_cell_angle_gamma   143.29163432
_symmetry_Int_Tables_number   1
_chemical_formula_structural   Mo(PtRh3)2
_chemical_formula_sum   'Mo1 Pt2 Rh6'
_cell_volume   132.11505940
_cell_formula_units_Z   1
loop_
 _symmetry_equiv_pos_site_id
 _symmetry_equiv_pos_as_xyz
  1  'x, y, z'
loop_
 _atom_site_type_symbol
 _atom_site_label
 _atom_site_symmetry_multiplicity
 _atom_site_fract_x
 _atom_site_fract_y
 _atom_site_fract_z
 _atom_site_occupancy
  Mo  Mo0  1  0.000000  0.000000  0.000000  1
  Pt  Pt1  1  0.669984  0.000000  0.669984  1
  Pt  Pt2  1  0.330016  0.000000  0.330016  1
  Rh  Rh3  1  0.338953  0.337682  0.676635  1
  Rh  Rh4  1  0.661047  0.662318  0.323365  1
  Rh  Rh5  1  0.661047  0.337682  0.998730  1
  Rh  Rh6  1  0.338953  0.662318  0.001270  1
  Rh  Rh7  1  0.999998  0.326809  0.326811  1
  Rh  Rh8  1  0.000002  0.673191  0.673189  1
