# generated using pymatgen
data_Nd5(CoTe)2
_symmetry_space_group_name_H-M   'P 1'
_cell_length_a   4.12157000
_cell_length_b   8.01930046
_cell_length_c   15.52346800
_cell_angle_alpha   90.00000000
_cell_angle_beta   90.00000000
_cell_angle_gamma   75.10916846
_symmetry_Int_Tables_number   1
_chemical_formula_structural   Nd5(CoTe)2
_chemical_formula_sum   'Nd10 Co4 Te4'
_cell_volume   495.85257523
_cell_formula_units_Z   2
loop_
 _symmetry_equiv_pos_site_id
 _symmetry_equiv_pos_as_xyz
  1  'x, y, z'
loop_
 _atom_site_type_symbol
 _atom_site_label
 _atom_site_symmetry_multiplicity
 _atom_site_fract_x
 _atom_site_fract_y
 _atom_site_fract_z
 _atom_site_occupancy
  Nd  Nd0  1  0.039245  0.921507  0.122081  1
  Nd  Nd1  1  0.740955  0.518089  0.127225  1
  Nd  Nd2  1  0.395094  0.209808  0.250000  1
  Nd  Nd3  1  0.740955  0.518089  0.372776  1
  Nd  Nd4  1  0.039245  0.921507  0.377919  1
  Nd  Nd5  1  0.960753  0.078494  0.622081  1
  Nd  Nd6  1  0.259044  0.481911  0.627224  1
  Nd  Nd7  1  0.604904  0.790193  0.750000  1
  Nd  Nd8  1  0.259044  0.481911  0.872775  1
  Nd  Nd9  1  0.960753  0.078494  0.877920  1
  Co  Co10  1  0.173389  0.653218  0.250000  1
  Co  Co11  1  0.594491  0.811018  0.250000  1
  Co  Co12  1  0.405508  0.188981  0.750000  1
  Co  Co13  1  0.826610  0.346781  0.750000  1
  Te  Te14  1  0.383614  0.232771  0.040586  1
  Te  Te15  1  0.383614  0.232771  0.459414  1
  Te  Te16  1  0.616386  0.767227  0.540586  1
  Te  Te17  1  0.616386  0.767227  0.959414  1
