# generated using pymatgen
data_DyHo7(FeC2)4
_symmetry_space_group_name_H-M   'P 1'
_cell_length_a   5.01808000
_cell_length_b   6.23555653
_cell_length_c   9.63647913
_cell_angle_alpha   89.93898984
_cell_angle_beta   90.00000000
_cell_angle_gamma   90.00000000
_symmetry_Int_Tables_number   1
_chemical_formula_structural   DyHo7(FeC2)4
_chemical_formula_sum   'Dy1 Ho7 Fe4 C8'
_cell_volume   301.53028666
_cell_formula_units_Z   1
loop_
 _symmetry_equiv_pos_site_id
 _symmetry_equiv_pos_as_xyz
  1  'x, y, z'
loop_
 _atom_site_type_symbol
 _atom_site_label
 _atom_site_symmetry_multiplicity
 _atom_site_fract_x
 _atom_site_fract_y
 _atom_site_fract_z
 _atom_site_occupancy
  Dy  Dy0  1  0.250000  0.017397  0.284871  1
  Ho  Ho1  1  0.250000  0.683256  0.554810  1
  Ho  Ho2  1  0.750000  0.316969  0.445410  1
  Ho  Ho3  1  0.750000  0.816456  0.054706  1
  Ho  Ho4  1  0.250000  0.183132  0.945166  1
  Ho  Ho5  1  0.250000  0.517660  0.216173  1
  Ho  Ho6  1  0.750000  0.482148  0.783874  1
  Ho  Ho7  1  0.750000  0.982066  0.715844  1
  Fe  Fe8  1  0.250000  0.729623  0.855682  1
  Fe  Fe9  1  0.750000  0.270277  0.144049  1
  Fe  Fe10  1  0.750000  0.769940  0.355759  1
  Fe  Fe11  1  0.250000  0.229851  0.644272  1
  C  C12  1  0.250000  0.465752  0.760086  1
  C  C13  1  0.750000  0.534348  0.239907  1
  C  C14  1  0.750000  0.034273  0.259979  1
  C  C15  1  0.250000  0.965820  0.739804  1
  C  C16  1  0.250000  0.808354  0.039038  1
  C  C17  1  0.750000  0.191356  0.960459  1
  C  C18  1  0.750000  0.691091  0.539575  1
  C  C19  1  0.250000  0.310227  0.460534  1
