# generated using pymatgen
data_Cs2Ba2VPS8
_symmetry_space_group_name_H-M   'P 1'
_cell_length_a   6.90779400
_cell_length_b   6.91451100
_cell_length_c   9.85941922
_cell_angle_alpha   90.00000000
_cell_angle_beta   106.72500383
_cell_angle_gamma   90.00000000
_symmetry_Int_Tables_number   1
_chemical_formula_structural   Cs2Ba2VPS8
_chemical_formula_sum   'Cs2 Ba2 V1 P1 S8'
_cell_volume   451.00391268
_cell_formula_units_Z   1
loop_
 _symmetry_equiv_pos_site_id
 _symmetry_equiv_pos_as_xyz
  1  'x, y, z'
loop_
 _atom_site_type_symbol
 _atom_site_label
 _atom_site_symmetry_multiplicity
 _atom_site_fract_x
 _atom_site_fract_y
 _atom_site_fract_z
 _atom_site_occupancy
  Cs  Cs0  1  0.789848  0.250000  0.066943  1
  Cs  Cs1  1  0.207404  0.749999  0.931162  1
  Ba  Ba2  1  0.268003  0.749999  0.465027  1
  Ba  Ba3  1  0.728807  0.250000  0.536453  1
  V  V4  1  0.687057  0.749999  0.306134  1
  P  P5  1  0.314216  0.250000  0.695037  1
  S  S6  1  0.898811  0.749999  0.181979  1
  S  S7  1  0.492323  0.500521  0.258830  1
  S  S8  1  0.492323  0.999479  0.258830  1
  S  S9  1  0.170176  0.250000  0.479141  1
  S  S10  1  0.841601  0.749999  0.532920  1
  S  S11  1  0.498245  0.010543  0.737888  1
  S  S12  1  0.498245  0.489458  0.737888  1
  S  S13  1  0.112943  0.250000  0.811769  1
