# generated using pymatgen
data_Ce2Ho5Tm(Sc3Si4)4
_symmetry_space_group_name_H-M   'P 1'
_cell_length_a   7.08700363
_cell_length_b   7.36228086
_cell_length_c   13.94636685
_cell_angle_alpha   90.27084558
_cell_angle_beta   90.20606499
_cell_angle_gamma   90.07350562
_symmetry_Int_Tables_number   1
_chemical_formula_structural   Ce2Ho5Tm(Sc3Si4)4
_chemical_formula_sum   'Ce2 Ho5 Tm1 Sc12 Si16'
_cell_volume   727.65931465
_cell_formula_units_Z   1
loop_
 _symmetry_equiv_pos_site_id
 _symmetry_equiv_pos_as_xyz
  1  'x, y, z'
loop_
 _atom_site_type_symbol
 _atom_site_label
 _atom_site_symmetry_multiplicity
 _atom_site_fract_x
 _atom_site_fract_y
 _atom_site_fract_z
 _atom_site_occupancy
  Ce  Ce0  1  0.011150  0.170880  0.096803  1
  Ce  Ce1  1  0.988375  0.829805  0.904313  1
  Ho  Ho2  1  0.490342  0.677101  0.903072  1
  Ho  Ho3  1  0.987627  0.823471  0.597404  1
  Ho  Ho4  1  0.508889  0.323272  0.097199  1
  Ho  Ho5  1  0.012830  0.176076  0.402510  1
  Ho  Ho6  1  0.512566  0.324214  0.405056  1
  Tm  Tm7  1  0.487542  0.676319  0.595480  1
  Sc  Sc8  1  0.159855  0.505009  0.749931  1
  Sc  Sc9  1  0.840385  0.495576  0.249691  1
  Sc  Sc10  1  0.339275  0.001463  0.249634  1
  Sc  Sc11  1  0.661344  0.997948  0.750349  1
  Sc  Sc12  1  0.330040  0.177684  0.624130  1
  Sc  Sc13  1  0.670211  0.821851  0.375628  1
  Sc  Sc14  1  0.170198  0.676370  0.375269  1
  Sc  Sc15  1  0.667159  0.822528  0.126062  1
  Sc  Sc16  1  0.829678  0.323912  0.624126  1
  Sc  Sc17  1  0.332471  0.176771  0.873711  1
  Sc  Sc18  1  0.827999  0.326780  0.874108  1
  Sc  Sc19  1  0.171815  0.673806  0.125817  1
  Si  Si20  1  0.033657  0.118584  0.748378  1
  Si  Si21  1  0.966144  0.881480  0.251457  1
  Si  Si22  1  0.468586  0.613207  0.251580  1
  Si  Si23  1  0.531156  0.387272  0.748146  1
  Si  Si24  1  0.287626  0.873204  0.747865  1
  Si  Si25  1  0.712471  0.126272  0.251976  1
  Si  Si26  1  0.216646  0.371522  0.251358  1
  Si  Si27  1  0.782864  0.628826  0.748534  1
  Si  Si28  1  0.158046  0.465538  0.539418  1
  Si  Si29  1  0.843542  0.534872  0.460519  1
  Si  Si30  1  0.342665  0.964211  0.460701  1
  Si  Si31  1  0.841001  0.533617  0.039467  1
  Si  Si32  1  0.657449  0.033897  0.539745  1
  Si  Si33  1  0.158624  0.465942  0.960439  1
  Si  Si34  1  0.656309  0.037219  0.960987  1
  Si  Si35  1  0.343465  0.963503  0.039135  1
