# generated using pymatgen
data_TmLu3(B4W)4
_symmetry_space_group_name_H-M   'P 1'
_cell_length_a   3.59653500
_cell_length_b   5.99184765
_cell_length_c   11.57433139
_cell_angle_alpha   89.97147026
_cell_angle_beta   90.00000000
_cell_angle_gamma   90.00000000
_symmetry_Int_Tables_number   1
_chemical_formula_structural   TmLu3(B4W)4
_chemical_formula_sum   'Tm1 Lu3 B16 W4'
_cell_volume   249.42553512
_cell_formula_units_Z   1
loop_
 _symmetry_equiv_pos_site_id
 _symmetry_equiv_pos_as_xyz
  1  'x, y, z'
loop_
 _atom_site_type_symbol
 _atom_site_label
 _atom_site_symmetry_multiplicity
 _atom_site_fract_x
 _atom_site_fract_y
 _atom_site_fract_z
 _atom_site_occupancy
  Tm  Tm0  1  0.500000  0.372623  0.149358  1
  Lu  Lu1  1  0.500000  0.627457  0.850708  1
  Lu  Lu2  1  0.500000  0.127385  0.649265  1
  Lu  Lu3  1  0.500000  0.872648  0.350844  1
  B  B4  1  0.000000  0.114520  0.047756  1
  B  B5  1  0.000000  0.884842  0.951712  1
  B  B6  1  0.000000  0.384961  0.548175  1
  B  B7  1  0.000000  0.615215  0.452052  1
  B  B8  1  0.000000  0.131947  0.468149  1
  B  B9  1  0.000000  0.868030  0.531984  1
  B  B10  1  0.000000  0.367947  0.967720  1
  B  B11  1  0.000000  0.632204  0.031773  1
  B  B12  1  0.000000  0.022524  0.194456  1
  B  B13  1  0.000000  0.977075  0.805436  1
  B  B14  1  0.000000  0.477119  0.694414  1
  B  B15  1  0.000000  0.523203  0.305978  1
  B  B16  1  0.000000  0.210896  0.313237  1
  B  B17  1  0.000000  0.788903  0.687011  1
  B  B18  1  0.000000  0.288948  0.812785  1
  B  B19  1  0.000000  0.711554  0.187232  1
  W  W20  1  0.500000  0.368209  0.415188  1
  W  W21  1  0.500000  0.631883  0.585170  1
  W  W22  1  0.500000  0.131696  0.914645  1
  W  W23  1  0.500000  0.868210  0.084953  1
