# generated using pymatgen
data_Sm5U2O12
_symmetry_space_group_name_H-M   'P 1'
_cell_length_a   6.73167311
_cell_length_b   6.74894558
_cell_length_c   6.68602451
_cell_angle_alpha   99.46319401
_cell_angle_beta   98.66030707
_cell_angle_gamma   99.08179864
_symmetry_Int_Tables_number   1
_chemical_formula_structural   Sm5U2O12
_chemical_formula_sum   'Sm5 U2 O12'
_cell_volume   290.96800620
_cell_formula_units_Z   1
loop_
 _symmetry_equiv_pos_site_id
 _symmetry_equiv_pos_as_xyz
  1  'x, y, z'
loop_
 _atom_site_type_symbol
 _atom_site_label
 _atom_site_symmetry_multiplicity
 _atom_site_fract_x
 _atom_site_fract_y
 _atom_site_fract_z
 _atom_site_occupancy
  Sm  Sm0  1  0.860418  0.695152  0.393893  1
  Sm  Sm1  1  0.391533  0.857387  0.689227  1
  Sm  Sm2  1  0.306919  0.610522  0.142726  1
  Sm  Sm3  1  0.143735  0.309415  0.608384  1
  Sm  Sm4  1  0.605817  0.135101  0.310098  1
  U  U5  1  0.691180  0.397072  0.861656  1
  U  U6  1  0.000708  0.002554  0.999275  1
  O  O7  1  0.435209  0.179144  0.591686  1
  O  O8  1  0.591985  0.426188  0.161965  1
  O  O9  1  0.174347  0.583045  0.435587  1
  O  O10  1  0.564201  0.817890  0.409485  1
  O  O11  1  0.427990  0.565578  0.822108  1
  O  O12  1  0.810471  0.415660  0.579539  1
  O  O13  1  0.072231  0.313750  0.946010  1
  O  O14  1  0.691721  0.061419  0.923907  1
  O  O15  1  0.053437  0.927864  0.689903  1
  O  O16  1  0.923755  0.685337  0.050315  1
  O  O17  1  0.309604  0.945265  0.072326  1
  O  O18  1  0.944738  0.071658  0.311911  1
