# generated using pymatgen
data_Tm5MgRu4
_symmetry_space_group_name_H-M   'P 1'
_cell_length_a   3.36334400
_cell_length_b   3.36334400
_cell_length_c   18.11883400
_cell_angle_alpha   90.00000000
_cell_angle_beta   90.00000000
_cell_angle_gamma   90.00000000
_symmetry_Int_Tables_number   1
_chemical_formula_structural   Tm5MgRu4
_chemical_formula_sum   'Tm5 Mg1 Ru4'
_cell_volume   204.96175158
_cell_formula_units_Z   1
loop_
 _symmetry_equiv_pos_site_id
 _symmetry_equiv_pos_as_xyz
  1  'x, y, z'
loop_
 _atom_site_type_symbol
 _atom_site_label
 _atom_site_symmetry_multiplicity
 _atom_site_fract_x
 _atom_site_fract_y
 _atom_site_fract_z
 _atom_site_occupancy
  Tm  Tm0  1  0.000000  0.000000  0.868403  1
  Tm  Tm1  1  0.000000  0.000000  0.131597  1
  Tm  Tm2  1  0.000000  0.000000  0.313564  1
  Tm  Tm3  1  0.000000  0.000000  0.500000  1
  Tm  Tm4  1  0.000000  0.000000  0.686436  1
  Mg  Mg5  1  0.500000  0.500000  0.000000  1
  Ru  Ru6  1  0.500000  0.500000  0.216663  1
  Ru  Ru7  1  0.500000  0.500000  0.406085  1
  Ru  Ru8  1  0.500000  0.500000  0.593915  1
  Ru  Ru9  1  0.500000  0.500000  0.783337  1
