# generated using pymatgen
data_NaCrFe2Sb12Pt
_symmetry_space_group_name_H-M   'P 1'
_cell_length_a   8.13345921
_cell_length_b   8.11513343
_cell_length_c   8.09542930
_cell_angle_alpha   109.49100668
_cell_angle_beta   109.55943419
_cell_angle_gamma   110.03315365
_symmetry_Int_Tables_number   1
_chemical_formula_structural   NaCrFe2Sb12Pt
_chemical_formula_sum   'Na1 Cr1 Fe2 Sb12 Pt1'
_cell_volume   407.88428489
_cell_formula_units_Z   1
loop_
 _symmetry_equiv_pos_site_id
 _symmetry_equiv_pos_as_xyz
  1  'x, y, z'
loop_
 _atom_site_type_symbol
 _atom_site_label
 _atom_site_symmetry_multiplicity
 _atom_site_fract_x
 _atom_site_fract_y
 _atom_site_fract_z
 _atom_site_occupancy
  Na  Na0  1  0.000000  0.000000  0.000000  1
  Cr  Cr1  1  0.500000  0.500000  0.500000  1
  Fe  Fe2  1  0.500000  0.000000  0.000000  1
  Fe  Fe3  1  0.000000  0.500000  0.000000  1
  Sb  Sb4  1  0.846003  0.650693  0.499081  1
  Sb  Sb5  1  0.153997  0.349307  0.500919  1
  Sb  Sb6  1  0.160661  0.669355  0.831216  1
  Sb  Sb7  1  0.839339  0.330645  0.168784  1
  Sb  Sb8  1  0.671891  0.503547  0.851119  1
  Sb  Sb9  1  0.328109  0.496453  0.148881  1
  Sb  Sb10  1  0.649774  0.816505  0.144632  1
  Sb  Sb11  1  0.350226  0.183495  0.855368  1
  Sb  Sb12  1  0.502326  0.850145  0.671401  1
  Sb  Sb13  1  0.497674  0.149855  0.328599  1
  Sb  Sb14  1  0.183537  0.833407  0.330094  1
  Sb  Sb15  1  0.816463  0.166593  0.669906  1
  Pt  Pt16  1  0.000000  0.000000  0.500000  1
