# generated using pymatgen
data_Er8Ga12IrAu3
_symmetry_space_group_name_H-M   'P 1'
_cell_length_a   7.13497200
_cell_length_b   8.85609453
_cell_length_c   8.85609500
_cell_angle_alpha   119.99999800
_cell_angle_beta   90.00000000
_cell_angle_gamma   90.00000000
_symmetry_Int_Tables_number   1
_chemical_formula_structural   Er8Ga12IrAu3
_chemical_formula_sum   'Er8 Ga12 Ir1 Au3'
_cell_volume   484.62679655
_cell_formula_units_Z   1
loop_
 _symmetry_equiv_pos_site_id
 _symmetry_equiv_pos_as_xyz
  1  'x, y, z'
loop_
 _atom_site_type_symbol
 _atom_site_label
 _atom_site_symmetry_multiplicity
 _atom_site_fract_x
 _atom_site_fract_y
 _atom_site_fract_z
 _atom_site_occupancy
  Er  Er0  1  0.742255  0.000000  0.000000  1
  Er  Er1  1  0.250556  0.000000  0.000000  1
  Er  Er2  1  0.748587  0.486257  0.513743  1
  Er  Er3  1  0.256582  0.522048  0.477952  1
  Er  Er4  1  0.748587  0.027486  0.513743  1
  Er  Er5  1  0.256582  0.955903  0.477952  1
  Er  Er6  1  0.748587  0.486257  0.972514  1
  Er  Er7  1  0.256582  0.522048  0.044097  1
  Ga  Ga8  1  0.955205  0.837683  0.162317  1
  Ga  Ga9  1  0.048688  0.164739  0.835261  1
  Ga  Ga10  1  0.955205  0.324636  0.162317  1
  Ga  Ga11  1  0.459065  0.163695  0.836305  1
  Ga  Ga12  1  0.048688  0.670520  0.835261  1
  Ga  Ga13  1  0.542679  0.831287  0.168713  1
  Ga  Ga14  1  0.955205  0.837683  0.675364  1
  Ga  Ga15  1  0.459065  0.672610  0.836305  1
  Ga  Ga16  1  0.048688  0.164739  0.329480  1
  Ga  Ga17  1  0.542679  0.337427  0.168713  1
  Ga  Ga18  1  0.459065  0.163695  0.327390  1
  Ga  Ga19  1  0.542679  0.831287  0.662573  1
  Ir  Ir20  1  0.517166  0.666667  0.333333  1
  Au  Au21  1  0.953925  0.666667  0.333333  1
  Au  Au22  1  0.030756  0.333333  0.666667  1
  Au  Au23  1  0.472930  0.333333  0.666667  1
