# generated using pymatgen
data_Tb16DyTm3Sn16
_symmetry_space_group_name_H-M   'P 1'
_cell_length_a   8.02582500
_cell_length_b   8.19172600
_cell_length_c   15.49169200
_cell_angle_alpha   90.00000000
_cell_angle_beta   90.00000000
_cell_angle_gamma   90.00000000
_symmetry_Int_Tables_number   1
_chemical_formula_structural   Tb16DyTm3Sn16
_chemical_formula_sum   'Tb16 Dy1 Tm3 Sn16'
_cell_volume   1018.50685708
_cell_formula_units_Z   1
loop_
 _symmetry_equiv_pos_site_id
 _symmetry_equiv_pos_as_xyz
  1  'x, y, z'
loop_
 _atom_site_type_symbol
 _atom_site_label
 _atom_site_symmetry_multiplicity
 _atom_site_fract_x
 _atom_site_fract_y
 _atom_site_fract_z
 _atom_site_occupancy
  Tb  Tb0  1  0.366915  0.837384  0.878008  1
  Tb  Tb1  1  0.866537  0.662927  0.621977  1
  Tb  Tb2  1  0.633189  0.162764  0.377848  1
  Tb  Tb3  1  0.133185  0.337256  0.122210  1
  Tb  Tb4  1  0.633189  0.162764  0.122152  1
  Tb  Tb5  1  0.133185  0.337256  0.377790  1
  Tb  Tb6  1  0.366915  0.837384  0.621992  1
  Tb  Tb7  1  0.866537  0.662927  0.878023  1
  Tb  Tb8  1  0.519867  0.320375  0.902733  1
  Tb  Tb9  1  0.019647  0.179419  0.597249  1
  Tb  Tb10  1  0.480191  0.679505  0.402577  1
  Tb  Tb11  1  0.980253  0.820472  0.097356  1
  Tb  Tb12  1  0.480191  0.679505  0.097423  1
  Tb  Tb13  1  0.980253  0.820472  0.402644  1
  Tb  Tb14  1  0.519867  0.320375  0.597267  1
  Tb  Tb15  1  0.019647  0.179419  0.902751  1
  Dy  Dy16  1  0.198024  0.502608  0.750000  1
  Tm  Tm17  1  0.698276  0.997282  0.750000  1
  Tm  Tm18  1  0.801768  0.497327  0.250000  1
  Tm  Tm19  1  0.301805  0.002656  0.250000  1
  Sn  Sn20  1  0.293196  0.036076  0.042675  1
  Sn  Sn21  1  0.793224  0.463997  0.457345  1
  Sn  Sn22  1  0.706737  0.963968  0.542403  1
  Sn  Sn23  1  0.206722  0.536145  0.957952  1
  Sn  Sn24  1  0.706737  0.963968  0.957597  1
  Sn  Sn25  1  0.206722  0.536145  0.542048  1
  Sn  Sn26  1  0.293196  0.036076  0.457325  1
  Sn  Sn27  1  0.793224  0.463997  0.042655  1
  Sn  Sn28  1  0.564780  0.618411  0.750000  1
  Sn  Sn29  1  0.063378  0.882564  0.750000  1
  Sn  Sn30  1  0.436549  0.381971  0.250000  1
  Sn  Sn31  1  0.936420  0.117860  0.250000  1
  Sn  Sn32  1  0.328894  0.147361  0.750000  1
  Sn  Sn33  1  0.828252  0.351056  0.750000  1
  Sn  Sn34  1  0.671426  0.851375  0.250000  1
  Sn  Sn35  1  0.171102  0.648948  0.250000  1
