# generated using pymatgen
data_Th2FeNi3P4
_symmetry_space_group_name_H-M   'P 1'
_cell_length_a   4.07880500
_cell_length_b   4.07880500
_cell_length_c   9.00733500
_cell_angle_alpha   90.00000000
_cell_angle_beta   90.00000000
_cell_angle_gamma   90.00000000
_symmetry_Int_Tables_number   1
_chemical_formula_structural   Th2FeNi3P4
_chemical_formula_sum   'Th2 Fe1 Ni3 P4'
_cell_volume   149.85188188
_cell_formula_units_Z   1
loop_
 _symmetry_equiv_pos_site_id
 _symmetry_equiv_pos_as_xyz
  1  'x, y, z'
loop_
 _atom_site_type_symbol
 _atom_site_label
 _atom_site_symmetry_multiplicity
 _atom_site_fract_x
 _atom_site_fract_y
 _atom_site_fract_z
 _atom_site_occupancy
  Th  Th0  1  0.000000  0.500000  0.744999  1
  Th  Th1  1  0.500000  0.000000  0.248092  1
  Fe  Fe2  1  0.000000  0.500000  0.391241  1
  Ni  Ni3  1  0.500000  0.000000  0.613638  1
  Ni  Ni4  1  0.500000  0.500000  0.998246  1
  Ni  Ni5  1  0.000000  0.000000  0.998246  1
  P  P6  1  0.500000  0.000000  0.872300  1
  P  P7  1  0.000000  0.500000  0.136542  1
  P  P8  1  0.000000  0.000000  0.498348  1
  P  P9  1  0.500000  0.500000  0.498348  1
