# generated using pymatgen
data_Lu9Mg(Ni2Sb)2
_symmetry_space_group_name_H-M   'P 1'
_cell_length_a   8.47938441
_cell_length_b   8.47938454
_cell_length_c   8.47938468
_cell_angle_alpha   128.75059426
_cell_angle_beta   128.75059411
_cell_angle_gamma   75.41221056
_symmetry_Int_Tables_number   1
_chemical_formula_structural   Lu9Mg(Ni2Sb)2
_chemical_formula_sum   'Lu9 Mg1 Ni4 Sb2'
_cell_volume   360.85895109
_cell_formula_units_Z   1
loop_
 _symmetry_equiv_pos_site_id
 _symmetry_equiv_pos_as_xyz
  1  'x, y, z'
loop_
 _atom_site_type_symbol
 _atom_site_label
 _atom_site_symmetry_multiplicity
 _atom_site_fract_x
 _atom_site_fract_y
 _atom_site_fract_z
 _atom_site_occupancy
  Lu  Lu0  1  0.500000  0.500000  0.000000  1
  Lu  Lu1  1  0.801245  0.286823  0.823982  1
  Lu  Lu2  1  0.198755  0.713177  0.176018  1
  Lu  Lu3  1  0.462841  0.977263  0.176018  1
  Lu  Lu4  1  0.286823  0.462841  0.485578  1
  Lu  Lu5  1  0.022737  0.198755  0.485578  1
  Lu  Lu6  1  0.537159  0.022737  0.823982  1
  Lu  Lu7  1  0.713177  0.537159  0.514422  1
  Lu  Lu8  1  0.977263  0.801245  0.514422  1
  Mg  Mg9  1  0.000000  0.000000  0.000000  1
  Ni  Ni10  1  0.131327  0.624916  0.756244  1
  Ni  Ni11  1  0.868673  0.375084  0.243756  1
  Ni  Ni12  1  0.624916  0.868673  0.493589  1
  Ni  Ni13  1  0.375084  0.131327  0.506411  1
  Sb  Sb14  1  0.256904  0.256904  0.000000  1
  Sb  Sb15  1  0.743096  0.743096  0.000000  1
