# generated using pymatgen
data_Pr12Ga3SiI12
_symmetry_space_group_name_H-M   'P 1'
_cell_length_a   10.96768341
_cell_length_b   10.92474653
_cell_length_c   10.92474626
_cell_angle_alpha   109.39147156
_cell_angle_beta   109.55085336
_cell_angle_gamma   109.55085600
_symmetry_Int_Tables_number   1
_chemical_formula_structural   Pr12Ga3SiI12
_chemical_formula_sum   'Pr12 Ga3 Si1 I12'
_cell_volume   1006.67194763
_cell_formula_units_Z   1
loop_
 _symmetry_equiv_pos_site_id
 _symmetry_equiv_pos_as_xyz
  1  'x, y, z'
loop_
 _atom_site_type_symbol
 _atom_site_label
 _atom_site_symmetry_multiplicity
 _atom_site_fract_x
 _atom_site_fract_y
 _atom_site_fract_z
 _atom_site_occupancy
  Pr  Pr0  1  0.469576  0.486589  0.233198  1
  Pr  Pr1  1  0.750000  0.236017  0.263983  1
  Pr  Pr2  1  0.750000  0.013741  0.486259  1
  Pr  Pr3  1  0.236259  0.472518  0.486259  1
  Pr  Pr4  1  0.263622  0.746609  0.233198  1
  Pr  Pr5  1  0.030424  0.266802  0.013411  1
  Pr  Pr6  1  0.013983  0.027965  0.263983  1
  Pr  Pr7  1  0.482987  0.746609  0.013411  1
  Pr  Pr8  1  0.486017  0.236017  0.472035  1
  Pr  Pr9  1  0.017013  0.486589  0.753391  1
  Pr  Pr10  1  0.263741  0.013741  0.027482  1
  Pr  Pr11  1  0.236378  0.266802  0.753391  1
  Ga  Ga12  1  0.250000  0.250276  0.249724  1
  Ga  Ga13  1  0.499724  0.999449  0.249724  1
  Ga  Ga14  1  0.000276  0.250276  0.500551  1
  Si  Si15  1  0.250000  0.500000  0.000000  1
  I  I16  1  0.250000  0.757516  0.742484  1
  I  I17  1  0.515571  0.508132  0.758661  1
  I  I18  1  0.984429  0.741339  0.991868  1
  I  I19  1  0.743089  0.250529  0.758661  1
  I  I20  1  0.992484  0.984968  0.742484  1
  I  I21  1  0.250000  0.992307  0.507693  1
  I  I22  1  0.757693  0.515384  0.507693  1
  I  I23  1  0.507440  0.250529  0.991868  1
  I  I24  1  0.756911  0.741339  0.249471  1
  I  I25  1  0.742307  0.992307  0.984616  1
  I  I26  1  0.992560  0.508132  0.249471  1
  I  I27  1  0.507516  0.757516  0.515032  1
