# generated using pymatgen
data_Ga10PdRh
_symmetry_space_group_name_H-M   'P 1'
_cell_length_a   6.78352491
_cell_length_b   6.78352457
_cell_length_c   6.78352537
_cell_angle_alpha   122.58090904
_cell_angle_beta   122.58090168
_cell_angle_gamma   85.58500553
_symmetry_Int_Tables_number   1
_chemical_formula_structural   Ga10PdRh
_chemical_formula_sum   'Ga10 Pd1 Rh1'
_cell_volume   211.42980440
_cell_formula_units_Z   1
loop_
 _symmetry_equiv_pos_site_id
 _symmetry_equiv_pos_as_xyz
  1  'x, y, z'
loop_
 _atom_site_type_symbol
 _atom_site_label
 _atom_site_symmetry_multiplicity
 _atom_site_fract_x
 _atom_site_fract_y
 _atom_site_fract_z
 _atom_site_occupancy
  Ga  Ga0  1  0.999982  0.999982  0.000000  1
  Ga  Ga1  1  0.500018  0.500018  0.000000  1
  Ga  Ga2  1  0.790318  0.283148  0.792825  1
  Ga  Ga3  1  0.283148  0.490323  0.492830  1
  Ga  Ga4  1  0.997493  0.790318  0.507170  1
  Ga  Ga5  1  0.709682  0.502507  0.492830  1
  Ga  Ga6  1  0.009677  0.216852  0.507170  1
  Ga  Ga7  1  0.502507  0.009677  0.792825  1
  Ga  Ga8  1  0.216852  0.709682  0.207175  1
  Ga  Ga9  1  0.490323  0.997493  0.207175  1
  Pd  Pd10  1  0.750000  0.750000  0.000000  1
  Rh  Rh11  1  0.250000  0.250000  0.000000  1
