# generated using pymatgen
data_Y14TmLu(InRh)4
_symmetry_space_group_name_H-M   'P 1'
_cell_length_a   9.67467616
_cell_length_b   9.67232098
_cell_length_c   9.69269433
_cell_angle_alpha   59.99339183
_cell_angle_beta   60.02760522
_cell_angle_gamma   59.88825408
_symmetry_Int_Tables_number   1
_chemical_formula_structural   Y14TmLu(InRh)4
_chemical_formula_sum   'Y14 Tm1 Lu1 In4 Rh4'
_cell_volume   640.91029452
_cell_formula_units_Z   1
loop_
 _symmetry_equiv_pos_site_id
 _symmetry_equiv_pos_as_xyz
  1  'x, y, z'
loop_
 _atom_site_type_symbol
 _atom_site_label
 _atom_site_symmetry_multiplicity
 _atom_site_fract_x
 _atom_site_fract_y
 _atom_site_fract_z
 _atom_site_occupancy
  Y  Y0  1  0.061575  0.061593  0.436954  1
  Y  Y1  1  0.438398  0.061268  0.437418  1
  Y  Y2  1  0.059783  0.439097  0.060538  1
  Y  Y3  1  0.050345  0.648907  0.648552  1
  Y  Y4  1  0.439646  0.439605  0.059719  1
  Y  Y5  1  0.648899  0.050354  0.648539  1
  Y  Y6  1  0.190855  0.810003  0.190002  1
  Y  Y7  1  0.189437  0.189443  0.811144  1
  Y  Y8  1  0.808950  0.808970  0.192044  1
  Y  Y9  1  0.439133  0.059775  0.060525  1
  Y  Y10  1  0.809963  0.190908  0.190016  1
  Y  Y11  1  0.061275  0.438364  0.437435  1
  Y  Y12  1  0.809757  0.191405  0.810109  1
  Y  Y13  1  0.191387  0.809777  0.810105  1
  Tm  Tm14  1  0.652859  0.652860  0.651963  1
  Lu  Lu15  1  0.650027  0.650037  0.046770  1
  In  In16  1  0.416939  0.416838  0.416170  1
  In  In17  1  0.748812  0.417665  0.417264  1
  In  In18  1  0.417721  0.748771  0.417271  1
  In  In19  1  0.417814  0.417860  0.748626  1
  Rh  Rh20  1  0.856968  0.857022  0.427121  1
  Rh  Rh21  1  0.854744  0.854664  0.861784  1
  Rh  Rh22  1  0.430777  0.854008  0.859902  1
  Rh  Rh23  1  0.853936  0.430803  0.860030  1
