# generated using pymatgen
data_YEr9In8(PdRu)2
_symmetry_space_group_name_H-M   'P 1'
_cell_length_a   3.59421100
_cell_length_b   8.04459694
_cell_length_c   18.23773025
_cell_angle_alpha   90.09245907
_cell_angle_beta   90.00000000
_cell_angle_gamma   90.00000000
_symmetry_Int_Tables_number   1
_chemical_formula_structural   YEr9In8(PdRu)2
_chemical_formula_sum   'Y1 Er9 In8 Pd2 Ru2'
_cell_volume   527.32465945
_cell_formula_units_Z   1
loop_
 _symmetry_equiv_pos_site_id
 _symmetry_equiv_pos_as_xyz
  1  'x, y, z'
loop_
 _atom_site_type_symbol
 _atom_site_label
 _atom_site_symmetry_multiplicity
 _atom_site_fract_x
 _atom_site_fract_y
 _atom_site_fract_z
 _atom_site_occupancy
  Y  Y0  1  0.500000  0.500000  0.500000  1
  Er  Er1  1  0.500000  0.229085  0.777688  1
  Er  Er2  1  0.500000  0.770915  0.222312  1
  Er  Er3  1  0.500000  0.244856  0.280044  1
  Er  Er4  1  0.500000  0.755144  0.719956  1
  Er  Er5  1  0.500000  0.116808  0.587504  1
  Er  Er6  1  0.500000  0.883192  0.412496  1
  Er  Er7  1  0.500000  0.380276  0.085151  1
  Er  Er8  1  0.500000  0.619724  0.914849  1
  Er  Er9  1  0.500000  0.000000  0.000000  1
  In  In10  1  0.000000  0.071787  0.149761  1
  In  In11  1  0.000000  0.928213  0.850239  1
  In  In12  1  0.000000  0.425332  0.650151  1
  In  In13  1  0.000000  0.574668  0.349849  1
  In  In14  1  0.000000  0.206255  0.431140  1
  In  In15  1  0.000000  0.793745  0.568860  1
  In  In16  1  0.000000  0.292867  0.933095  1
  In  In17  1  0.000000  0.707133  0.066905  1
  Pd  Pd18  1  0.000000  0.478665  0.196055  1
  Pd  Pd19  1  0.000000  0.521335  0.803945  1
  Ru  Ru20  1  0.000000  0.020652  0.695807  1
  Ru  Ru21  1  0.000000  0.979348  0.304193  1
