# generated using pymatgen
data_YHo5Al19Si5Ru8
_symmetry_space_group_name_H-M   'P 1'
_cell_length_a   8.68704900
_cell_length_b   8.67407586
_cell_length_c   9.58411900
_cell_angle_alpha   90.00000000
_cell_angle_beta   90.00000000
_cell_angle_gamma   120.04949095
_symmetry_Int_Tables_number   1
_chemical_formula_structural   YHo5Al19Si5Ru8
_chemical_formula_sum   'Y1 Ho5 Al19 Si5 Ru8'
_cell_volume   625.11729696
_cell_formula_units_Z   1
loop_
 _symmetry_equiv_pos_site_id
 _symmetry_equiv_pos_as_xyz
  1  'x, y, z'
loop_
 _atom_site_type_symbol
 _atom_site_label
 _atom_site_symmetry_multiplicity
 _atom_site_fract_x
 _atom_site_fract_y
 _atom_site_fract_z
 _atom_site_occupancy
  Y  Y0  1  0.806350  0.612701  0.750000  1
  Ho  Ho1  1  0.194565  0.389133  0.250000  1
  Ho  Ho2  1  0.608441  0.806785  0.250000  1
  Ho  Ho3  1  0.389251  0.194671  0.750000  1
  Ho  Ho4  1  0.198343  0.806785  0.250000  1
  Ho  Ho5  1  0.805421  0.194671  0.750000  1
  Al  Al6  1  0.164776  0.329554  0.579002  1
  Al  Al7  1  0.834765  0.669528  0.420494  1
  Al  Al8  1  0.669741  0.835277  0.577958  1
  Al  Al9  1  0.834765  0.669528  0.079506  1
  Al  Al10  1  0.329590  0.165582  0.420868  1
  Al  Al11  1  0.164776  0.329554  0.920998  1
  Al  Al12  1  0.165536  0.835277  0.577958  1
  Al  Al13  1  0.329590  0.165582  0.079132  1
  Al  Al14  1  0.835994  0.165582  0.420868  1
  Al  Al15  1  0.669741  0.835277  0.922042  1
  Al  Al16  1  0.835994  0.165582  0.079132  1
  Al  Al17  1  0.165536  0.835277  0.922042  1
  Al  Al18  1  0.437420  0.874842  0.750000  1
  Al  Al19  1  0.873359  0.433961  0.250000  1
  Al  Al20  1  0.127071  0.563773  0.750000  1
  Al  Al21  1  0.560602  0.433961  0.250000  1
  Al  Al22  1  0.436702  0.563773  0.750000  1
  Al  Al23  1  0.999870  0.999739  0.250000  1
  Al  Al24  1  0.000708  0.001417  0.750000  1
  Si  Si25  1  0.332510  0.665021  0.037337  1
  Si  Si26  1  0.667113  0.334224  0.961102  1
  Si  Si27  1  0.667113  0.334224  0.538898  1
  Si  Si28  1  0.332510  0.665021  0.462663  1
  Si  Si29  1  0.563414  0.126828  0.250000  1
  Ru  Ru30  1  0.500781  0.001562  0.005936  1
  Ru  Ru31  1  0.998981  0.498802  0.000804  1
  Ru  Ru32  1  0.500781  0.001562  0.494064  1
  Ru  Ru33  1  0.499821  0.498802  0.000804  1
  Ru  Ru34  1  0.998981  0.498802  0.499196  1
  Ru  Ru35  1  0.499821  0.498802  0.499196  1
  Ru  Ru36  1  0.999634  0.999269  0.999937  1
  Ru  Ru37  1  0.999634  0.999269  0.500063  1
