# generated using pymatgen
data_Hf17ZrFeCoRe8
_symmetry_space_group_name_H-M   'P 1'
_cell_length_a   8.57930395
_cell_length_b   8.57930258
_cell_length_c   8.47096900
_cell_angle_alpha   90.00000000
_cell_angle_beta   90.00000000
_cell_angle_gamma   119.87689349
_symmetry_Int_Tables_number   1
_chemical_formula_structural   Hf17ZrFeCoRe8
_chemical_formula_sum   'Hf17 Zr1 Fe1 Co1 Re8'
_cell_volume   540.63626214
_cell_formula_units_Z   1
loop_
 _symmetry_equiv_pos_site_id
 _symmetry_equiv_pos_as_xyz
  1  'x, y, z'
loop_
 _atom_site_type_symbol
 _atom_site_label
 _atom_site_symmetry_multiplicity
 _atom_site_fract_x
 _atom_site_fract_y
 _atom_site_fract_z
 _atom_site_occupancy
  Hf  Hf0  1  0.200134  0.799866  0.441668  1
  Hf  Hf1  1  0.199676  0.400001  0.441149  1
  Hf  Hf2  1  0.599999  0.800324  0.441149  1
  Hf  Hf3  1  0.800793  0.199207  0.558615  1
  Hf  Hf4  1  0.801387  0.601527  0.558282  1
  Hf  Hf5  1  0.398473  0.198613  0.558282  1
  Hf  Hf6  1  0.800793  0.199207  0.941385  1
  Hf  Hf7  1  0.801387  0.601527  0.941718  1
  Hf  Hf8  1  0.398473  0.198613  0.941718  1
  Hf  Hf9  1  0.200134  0.799866  0.058332  1
  Hf  Hf10  1  0.199676  0.400001  0.058851  1
  Hf  Hf11  1  0.599999  0.800324  0.058851  1
  Hf  Hf12  1  0.540522  0.459478  0.250000  1
  Hf  Hf13  1  0.540693  0.081489  0.250000  1
  Hf  Hf14  1  0.918511  0.459307  0.250000  1
  Hf  Hf15  1  0.459031  0.918468  0.750000  1
  Hf  Hf16  1  0.081532  0.540969  0.750000  1
  Zr  Zr17  1  0.458588  0.541412  0.750000  1
  Fe  Fe18  1  0.333223  0.666777  0.250000  1
  Co  Co19  1  0.666882  0.333118  0.750000  1
  Re  Re20  1  0.889458  0.110542  0.250000  1
  Re  Re21  1  0.889559  0.778830  0.250000  1
  Re  Re22  1  0.221170  0.110441  0.250000  1
  Re  Re23  1  0.110757  0.889243  0.750000  1
  Re  Re24  1  0.109473  0.220310  0.750000  1
  Re  Re25  1  0.779690  0.890527  0.750000  1
  Re  Re26  1  0.999992  0.000008  0.499610  1
  Re  Re27  1  0.999992  0.000008  0.000390  1
