# generated using pymatgen
data_AcEuB4Ir5
_symmetry_space_group_name_H-M   'P 1'
_cell_length_a   7.60253362
_cell_length_b   6.32760587
_cell_length_c   5.76454442
_cell_angle_alpha   77.75694425
_cell_angle_beta   54.42679865
_cell_angle_gamma   47.81625444
_symmetry_Int_Tables_number   1
_chemical_formula_structural   AcEuB4Ir5
_chemical_formula_sum   'Ac1 Eu1 B4 Ir5'
_cell_volume   159.62948574
_cell_formula_units_Z   1
loop_
 _symmetry_equiv_pos_site_id
 _symmetry_equiv_pos_as_xyz
  1  'x, y, z'
loop_
 _atom_site_type_symbol
 _atom_site_label
 _atom_site_symmetry_multiplicity
 _atom_site_fract_x
 _atom_site_fract_y
 _atom_site_fract_z
 _atom_site_occupancy
  Ac  Ac0  1  0.860723  0.860725  0.139277  1
  Eu  Eu1  1  0.145366  0.145368  0.854634  1
  B  B2  1  0.467859  0.788992  0.211009  1
  B  B3  1  0.207746  0.530511  0.469490  1
  B  B4  1  0.788991  0.467860  0.532141  1
  B  B5  1  0.530509  0.207748  0.792253  1
  Ir  Ir6  1  0.500399  0.500399  0.999601  1
  Ir  Ir7  1  0.248262  0.248262  0.251739  1
  Ir  Ir8  1  0.000399  0.000399  0.499602  1
  Ir  Ir9  1  0.501477  0.501479  0.498522  1
  Ir  Ir10  1  0.748263  0.748261  0.751738  1
