# generated using pymatgen
data_Dy12Co3NiBiOs
_symmetry_space_group_name_H-M   'P 1'
_cell_length_a   8.32226687
_cell_length_b   8.32226555
_cell_length_c   8.32226640
_cell_angle_alpha   111.38539707
_cell_angle_beta   109.68263452
_cell_angle_gamma   107.37057020
_symmetry_Int_Tables_number   1
_chemical_formula_structural   Dy12Co3NiBiOs
_chemical_formula_sum   'Dy12 Co3 Ni1 Bi1 Os1'
_cell_volume   443.16670257
_cell_formula_units_Z   1
loop_
 _symmetry_equiv_pos_site_id
 _symmetry_equiv_pos_as_xyz
  1  'x, y, z'
loop_
 _atom_site_type_symbol
 _atom_site_label
 _atom_site_symmetry_multiplicity
 _atom_site_fract_x
 _atom_site_fract_y
 _atom_site_fract_z
 _atom_site_occupancy
  Dy  Dy0  1  0.822471  0.716031  0.538502  1
  Dy  Dy1  1  0.180414  0.281761  0.462175  1
  Dy  Dy2  1  0.180414  0.718239  0.898651  1
  Dy  Dy3  1  0.822471  0.283969  0.106440  1
  Dy  Dy4  1  0.681852  0.372807  0.686879  1
  Dy  Dy5  1  0.314071  0.627193  0.309044  1
  Dy  Dy6  1  0.681852  0.994973  0.309044  1
  Dy  Dy7  1  0.314071  0.005027  0.686879  1
  Dy  Dy8  1  0.590144  0.783971  0.806173  1
  Dy  Dy9  1  0.409286  0.215338  0.193948  1
  Dy  Dy10  1  0.978610  0.784662  0.193948  1
  Dy  Dy11  1  0.022202  0.216029  0.806173  1
  Co  Co12  1  0.361489  0.000000  0.361489  1
  Co  Co13  1  0.114070  0.612391  0.501679  1
  Co  Co14  1  0.889289  0.387609  0.501679  1
  Ni  Ni15  1  0.636573  0.000000  0.636573  1
  Bi  Bi16  1  0.500832  0.500000  0.000832  1
  Os  Os17  1  0.999890  0.000000  0.999890  1
