# generated using pymatgen
data_Er2Sc3Tc3(P3Ir4)4
_symmetry_space_group_name_H-M   'P 1'
_cell_length_a   12.59068400
_cell_length_b   12.59068383
_cell_length_c   3.94792900
_cell_angle_alpha   90.00000000
_cell_angle_beta   90.00000000
_cell_angle_gamma   120.00000044
_symmetry_Int_Tables_number   1
_chemical_formula_structural   Er2Sc3Tc3(P3Ir4)4
_chemical_formula_sum   'Er2 Sc3 Tc3 P12 Ir16'
_cell_volume   541.99915063
_cell_formula_units_Z   1
loop_
 _symmetry_equiv_pos_site_id
 _symmetry_equiv_pos_as_xyz
  1  'x, y, z'
loop_
 _atom_site_type_symbol
 _atom_site_label
 _atom_site_symmetry_multiplicity
 _atom_site_fract_x
 _atom_site_fract_y
 _atom_site_fract_z
 _atom_site_occupancy
  Er  Er0  1  0.333333  0.666667  0.000000  1
  Er  Er1  1  0.666667  0.333333  0.000000  1
  Sc  Sc2  1  0.821025  0.000000  0.500000  1
  Sc  Sc3  1  0.000000  0.821025  0.500000  1
  Sc  Sc4  1  0.178975  0.178975  0.500000  1
  Tc  Tc5  1  0.455580  0.000000  0.000000  1
  Tc  Tc6  1  0.000000  0.455580  0.000000  1
  Tc  Tc7  1  0.544420  0.544420  0.000000  1
  P  P8  1  0.174374  0.000000  0.000000  1
  P  P9  1  0.000000  0.174374  0.000000  1
  P  P10  1  0.825626  0.825626  0.000000  1
  P  P11  1  0.168763  0.484149  0.500000  1
  P  P12  1  0.515851  0.684614  0.500000  1
  P  P13  1  0.315386  0.831237  0.500000  1
  P  P14  1  0.684614  0.515851  0.500000  1
  P  P15  1  0.831237  0.315386  0.500000  1
  P  P16  1  0.484149  0.168763  0.500000  1
  P  P17  1  0.641114  0.000000  0.000000  1
  P  P18  1  0.000000  0.641114  0.000000  1
  P  P19  1  0.358886  0.358886  0.000000  1
  Ir  Ir20  1  0.357247  0.489573  0.500000  1
  Ir  Ir21  1  0.510427  0.867674  0.500000  1
  Ir  Ir22  1  0.132326  0.642753  0.500000  1
  Ir  Ir23  1  0.867674  0.510427  0.500000  1
  Ir  Ir24  1  0.642753  0.132326  0.500000  1
  Ir  Ir25  1  0.489573  0.357247  0.500000  1
  Ir  Ir26  1  0.178760  0.369117  0.000000  1
  Ir  Ir27  1  0.630883  0.809644  0.000000  1
  Ir  Ir28  1  0.190356  0.821240  0.000000  1
  Ir  Ir29  1  0.809644  0.630883  0.000000  1
  Ir  Ir30  1  0.821240  0.190356  0.000000  1
  Ir  Ir31  1  0.369117  0.178760  0.000000  1
  Ir  Ir32  1  0.289633  0.000000  0.500000  1
  Ir  Ir33  1  0.000000  0.289633  0.500000  1
  Ir  Ir34  1  0.710367  0.710367  0.500000  1
  Ir  Ir35  1  0.000000  0.000000  0.000000  1
