# generated using pymatgen
data_Fe3BI12
_symmetry_space_group_name_H-M   'P 1'
_cell_length_a   6.29627919
_cell_length_b   9.66745643
_cell_length_c   12.10493708
_cell_angle_alpha   71.68682025
_cell_angle_beta   90.24023738
_cell_angle_gamma   90.08812220
_symmetry_Int_Tables_number   1
_chemical_formula_structural   Fe3BI12
_chemical_formula_sum   'Fe3 B1 I12'
_cell_volume   699.49197736
_cell_formula_units_Z   1
loop_
 _symmetry_equiv_pos_site_id
 _symmetry_equiv_pos_as_xyz
  1  'x, y, z'
loop_
 _atom_site_type_symbol
 _atom_site_label
 _atom_site_symmetry_multiplicity
 _atom_site_fract_x
 _atom_site_fract_y
 _atom_site_fract_z
 _atom_site_occupancy
  Fe  Fe0  1  0.002899  0.175075  0.956711  1
  Fe  Fe1  1  0.502984  0.814550  0.545871  1
  Fe  Fe2  1  0.997010  0.825597  0.043170  1
  B  B3  1  0.497174  0.181557  0.455193  1
  I  I4  1  0.774349  0.327133  0.796270  1
  I  I5  1  0.269426  0.668163  0.704974  1
  I  I6  1  0.226880  0.673388  0.203041  1
  I  I7  1  0.701318  0.309740  0.314119  1
  I  I8  1  0.236128  0.321832  0.043361  1
  I  I9  1  0.741364  0.674886  0.456780  1
  I  I10  1  0.762450  0.678922  0.956476  1
  I  I11  1  0.289009  0.304464  0.534760  1
  I  I12  1  0.768483  0.001386  0.119444  1
  I  I13  1  0.290883  0.021210  0.387272  1
  I  I14  1  0.231557  0.999283  0.880537  1
  I  I15  1  0.708088  0.022816  0.602022  1
