# generated using pymatgen
data_CdPd3Au2
_symmetry_space_group_name_H-M   'P 1'
_cell_length_a   4.58874200
_cell_length_b   4.58874188
_cell_length_c   11.22941000
_cell_angle_alpha   90.00000000
_cell_angle_beta   90.00000000
_cell_angle_gamma   120.00000090
_symmetry_Int_Tables_number   1
_chemical_formula_structural   CdPd3Au2
_chemical_formula_sum   'Cd2 Pd6 Au4'
_cell_volume   204.77401026
_cell_formula_units_Z   2
loop_
 _symmetry_equiv_pos_site_id
 _symmetry_equiv_pos_as_xyz
  1  'x, y, z'
loop_
 _atom_site_type_symbol
 _atom_site_label
 _atom_site_symmetry_multiplicity
 _atom_site_fract_x
 _atom_site_fract_y
 _atom_site_fract_z
 _atom_site_occupancy
  Cd  Cd0  1  0.333333  0.666667  0.668855  1
  Cd  Cd1  1  0.666667  0.333333  0.331145  1
  Pd  Pd2  1  0.333333  0.666667  0.418446  1
  Pd  Pd3  1  0.666667  0.333333  0.082533  1
  Pd  Pd4  1  0.000000  0.000000  0.750083  1
  Pd  Pd5  1  0.000000  0.000000  0.249917  1
  Pd  Pd6  1  0.333333  0.666667  0.917467  1
  Pd  Pd7  1  0.666667  0.333333  0.581554  1
  Au  Au8  1  0.000000  0.000000  0.500000  1
  Au  Au9  1  0.333333  0.666667  0.165775  1
  Au  Au10  1  0.666667  0.333333  0.834225  1
  Au  Au11  1  0.000000  0.000000  0.000000  1
