# generated using pymatgen
data_TbDySc3P12Ru19
_symmetry_space_group_name_H-M   'P 1'
_cell_length_a   3.95244600
_cell_length_b   12.44805823
_cell_length_c   12.44989510
_cell_angle_alpha   119.99691838
_cell_angle_beta   90.00000000
_cell_angle_gamma   90.00000000
_symmetry_Int_Tables_number   1
_chemical_formula_structural   TbDySc3P12Ru19
_chemical_formula_sum   'Tb1 Dy1 Sc3 P12 Ru19'
_cell_volume   530.49019998
_cell_formula_units_Z   1
loop_
 _symmetry_equiv_pos_site_id
 _symmetry_equiv_pos_as_xyz
  1  'x, y, z'
loop_
 _atom_site_type_symbol
 _atom_site_label
 _atom_site_symmetry_multiplicity
 _atom_site_fract_x
 _atom_site_fract_y
 _atom_site_fract_z
 _atom_site_occupancy
  Tb  Tb0  1  0.000000  0.666652  0.333307  1
  Dy  Dy1  1  0.000000  0.333355  0.666685  1
  Sc  Sc2  1  0.500000  0.999843  0.181820  1
  Sc  Sc3  1  0.500000  0.181948  0.000168  1
  Sc  Sc4  1  0.500000  0.818181  0.818044  1
  P  P5  1  0.000000  0.000740  0.819473  1
  P  P6  1  0.000000  0.818743  0.999253  1
  P  P7  1  0.000000  0.180487  0.181277  1
  P  P8  1  0.500000  0.306240  0.476406  1
  P  P9  1  0.500000  0.170156  0.693736  1
  P  P10  1  0.500000  0.523576  0.829803  1
  P  P11  1  0.500000  0.831135  0.524247  1
  P  P12  1  0.500000  0.475770  0.306889  1
  P  P13  1  0.500000  0.693158  0.168915  1
  P  P14  1  0.000000  0.999691  0.372521  1
  P  P15  1  0.000000  0.372886  0.000291  1
  P  P16  1  0.000000  0.627445  0.627172  1
  Ru  Ru17  1  0.000000  0.999596  0.556248  1
  Ru  Ru18  1  0.000000  0.556610  0.000406  1
  Ru  Ru19  1  0.000000  0.443771  0.443357  1
  Ru  Ru20  1  0.500000  0.000628  0.721949  1
  Ru  Ru21  1  0.500000  0.721320  0.999385  1
  Ru  Ru22  1  0.500000  0.278055  0.278663  1
  Ru  Ru23  1  0.000000  0.187484  0.372551  1
  Ru  Ru24  1  0.000000  0.185076  0.812506  1
  Ru  Ru25  1  0.000000  0.627457  0.814919  1
  Ru  Ru26  1  0.000000  0.815845  0.628516  1
  Ru  Ru27  1  0.000000  0.371460  0.187296  1
  Ru  Ru28  1  0.000000  0.812704  0.184158  1
  Ru  Ru29  1  0.500000  0.125677  0.491251  1
  Ru  Ru30  1  0.500000  0.365530  0.874342  1
  Ru  Ru31  1  0.500000  0.508757  0.634457  1
  Ru  Ru32  1  0.500000  0.635319  0.509481  1
  Ru  Ru33  1  0.500000  0.490480  0.125850  1
  Ru  Ru34  1  0.500000  0.874131  0.364673  1
  Ru  Ru35  1  0.000000  0.999993  0.999986  1
