# generated using pymatgen
data_La(PrSi)4
_symmetry_space_group_name_H-M   'P 1'
_cell_length_a   7.95896779
_cell_length_b   7.95993386
_cell_length_c   15.43809915
_cell_angle_alpha   90.01581816
_cell_angle_beta   90.00053179
_cell_angle_gamma   90.07674274
_symmetry_Int_Tables_number   1
_chemical_formula_structural   La(PrSi)4
_chemical_formula_sum   'La4 Pr16 Si16'
_cell_volume   978.04677559
_cell_formula_units_Z   4
loop_
 _symmetry_equiv_pos_site_id
 _symmetry_equiv_pos_as_xyz
  1  'x, y, z'
loop_
 _atom_site_type_symbol
 _atom_site_label
 _atom_site_symmetry_multiplicity
 _atom_site_fract_x
 _atom_site_fract_y
 _atom_site_fract_z
 _atom_site_occupancy
  La  La0  1  0.879162  0.486838  0.302952  1
  La  La1  1  0.512946  0.120876  0.196692  1
  La  La2  1  0.486848  0.878362  0.697767  1
  La  La3  1  0.378552  0.013066  0.447254  1
  Pr  Pr4  1  0.373801  0.480301  0.373354  1
  Pr  Pr5  1  0.874541  0.019045  0.376882  1
  Pr  Pr6  1  0.980456  0.124854  0.122704  1
  Pr  Pr7  1  0.019851  0.873922  0.623514  1
  Pr  Pr8  1  0.626345  0.520496  0.873559  1
  Pr  Pr9  1  0.480333  0.374297  0.626831  1
  Pr  Pr10  1  0.519983  0.626894  0.126036  1
  Pr  Pr11  1  0.125622  0.980144  0.876738  1
  Pr  Pr12  1  0.988007  0.619890  0.052939  1
  Pr  Pr13  1  0.011751  0.380901  0.554032  1
  Pr  Pr14  1  0.620035  0.988328  0.946740  1
  Pr  Pr15  1  0.119257  0.511958  0.803555  1
  Pr  Pr16  1  0.692206  0.691699  0.500032  1
  Pr  Pr17  1  0.808001  0.192440  0.750015  1
  Pr  Pr18  1  0.191997  0.807919  0.250001  1
  Pr  Pr19  1  0.308048  0.307684  0.000112  1
  Si  Si20  1  0.080017  0.711732  0.440134  1
  Si  Si21  1  0.920142  0.287896  0.939767  1
  Si  Si22  1  0.713437  0.080895  0.560129  1
  Si  Si23  1  0.212520  0.420309  0.189554  1
  Si  Si24  1  0.788067  0.579490  0.690117  1
  Si  Si25  1  0.419596  0.213500  0.810158  1
  Si  Si26  1  0.580449  0.786892  0.309801  1
  Si  Si27  1  0.287178  0.919329  0.059561  1
  Si  Si28  1  0.830907  0.805702  0.796190  1
  Si  Si29  1  0.169427  0.194479  0.295287  1
  Si  Si30  1  0.806342  0.829661  0.203876  1
  Si  Si31  1  0.305150  0.669024  0.545829  1
  Si  Si32  1  0.694949  0.330729  0.045515  1
  Si  Si33  1  0.670700  0.305859  0.454546  1
  Si  Si34  1  0.329702  0.693980  0.953667  1
  Si  Si35  1  0.193679  0.170611  0.704161  1
