# generated using pymatgen
data_Tb12Cu3Si8Os
_symmetry_space_group_name_H-M   'P 1'
_cell_length_a   4.18344500
_cell_length_b   11.34899178
_cell_length_c   11.41521800
_cell_angle_alpha   89.88325438
_cell_angle_beta   90.00000000
_cell_angle_gamma   90.00000000
_symmetry_Int_Tables_number   1
_chemical_formula_structural   Tb12Cu3Si8Os
_chemical_formula_sum   'Tb12 Cu3 Si8 Os1'
_cell_volume   541.96925876
_cell_formula_units_Z   1
loop_
 _symmetry_equiv_pos_site_id
 _symmetry_equiv_pos_as_xyz
  1  'x, y, z'
loop_
 _atom_site_type_symbol
 _atom_site_label
 _atom_site_symmetry_multiplicity
 _atom_site_fract_x
 _atom_site_fract_y
 _atom_site_fract_z
 _atom_site_occupancy
  Tb  Tb0  1  0.250000  0.059203  0.877317  1
  Tb  Tb1  1  0.250000  0.437400  0.378293  1
  Tb  Tb2  1  0.750000  0.936313  0.120276  1
  Tb  Tb3  1  0.750000  0.561663  0.619703  1
  Tb  Tb4  1  0.250000  0.121848  0.556953  1
  Tb  Tb5  1  0.250000  0.383228  0.059853  1
  Tb  Tb6  1  0.750000  0.878935  0.440314  1
  Tb  Tb7  1  0.750000  0.622665  0.939329  1
  Tb  Tb8  1  0.250000  0.801769  0.711235  1
  Tb  Tb9  1  0.250000  0.696322  0.208296  1
  Tb  Tb10  1  0.750000  0.195428  0.291133  1
  Tb  Tb11  1  0.750000  0.303906  0.791572  1
  Cu  Cu12  1  0.250000  0.363149  0.631259  1
  Cu  Cu13  1  0.250000  0.137677  0.130771  1
  Cu  Cu14  1  0.750000  0.636039  0.368156  1
  Si  Si15  1  0.250000  0.813444  0.977259  1
  Si  Si16  1  0.250000  0.684144  0.473986  1
  Si  Si17  1  0.750000  0.188849  0.027329  1
  Si  Si18  1  0.750000  0.314551  0.525031  1
  Si  Si19  1  0.250000  0.493099  0.804903  1
  Si  Si20  1  0.250000  0.005254  0.304980  1
  Si  Si21  1  0.750000  0.504564  0.197094  1
  Si  Si22  1  0.750000  0.994982  0.693254  1
  Os  Os23  1  0.750000  0.865566  0.871703  1
