# generated using pymatgen
data_CeEr9Al3SiRu6
_symmetry_space_group_name_H-M   'P 1'
_cell_length_a   8.29409744
_cell_length_b   8.29622913
_cell_length_c   8.19908683
_cell_angle_alpha   110.11796826
_cell_angle_beta   109.23219775
_cell_angle_gamma   109.51384531
_symmetry_Int_Tables_number   1
_chemical_formula_structural   CeEr9Al3SiRu6
_chemical_formula_sum   'Ce1 Er9 Al3 Si1 Ru6'
_cell_volume   431.85275554
_cell_formula_units_Z   1
loop_
 _symmetry_equiv_pos_site_id
 _symmetry_equiv_pos_as_xyz
  1  'x, y, z'
loop_
 _atom_site_type_symbol
 _atom_site_label
 _atom_site_symmetry_multiplicity
 _atom_site_fract_x
 _atom_site_fract_y
 _atom_site_fract_z
 _atom_site_occupancy
  Ce  Ce0  1  0.194902  0.948997  0.247643  1
  Er  Er1  1  0.771887  0.777283  0.774802  1
  Er  Er2  1  0.317097  0.567665  0.747498  1
  Er  Er3  1  0.752339  0.320177  0.570981  1
  Er  Er4  1  0.569644  0.745959  0.316722  1
  Er  Er5  1  0.714107  0.497615  0.999175  1
  Er  Er6  1  0.004668  0.718112  0.500898  1
  Er  Er7  1  0.501377  0.998770  0.716641  1
  Er  Er8  1  0.248678  0.185874  0.935967  1
  Er  Er9  1  0.935373  0.249541  0.182830  1
  Al  Al10  1  0.092855  0.498404  0.004657  1
  Al  Al11  1  0.993026  0.089162  0.497164  1
  Al  Al12  1  0.508355  0.005912  0.093575  1
  Si  Si13  1  0.410754  0.411619  0.405584  1
  Ru  Ru14  1  0.871817  0.123128  0.750093  1
  Ru  Ru15  1  0.741401  0.868318  0.116592  1
  Ru  Ru16  1  0.126750  0.762446  0.901589  1
  Ru  Ru17  1  0.260381  0.618114  0.383776  1
  Ru  Ru18  1  0.361239  0.233131  0.595358  1
  Ru  Ru19  1  0.623348  0.379775  0.258456  1
