# generated using pymatgen
data_Dy8Ti9Nb2Si16Rh
_symmetry_space_group_name_H-M   'P 1'
_cell_length_a   7.05130446
_cell_length_b   7.04096244
_cell_length_c   12.90134510
_cell_angle_alpha   89.77858427
_cell_angle_beta   90.15284977
_cell_angle_gamma   89.79959818
_symmetry_Int_Tables_number   1
_chemical_formula_structural   Dy8Ti9Nb2Si16Rh
_chemical_formula_sum   'Dy8 Ti9 Nb2 Si16 Rh1'
_cell_volume   640.51458889
_cell_formula_units_Z   1
loop_
 _symmetry_equiv_pos_site_id
 _symmetry_equiv_pos_as_xyz
  1  'x, y, z'
loop_
 _atom_site_type_symbol
 _atom_site_label
 _atom_site_symmetry_multiplicity
 _atom_site_fract_x
 _atom_site_fract_y
 _atom_site_fract_z
 _atom_site_occupancy
  Dy  Dy0  1  0.997003  0.659219  0.032421  1
  Dy  Dy1  1  0.001648  0.341472  0.531595  1
  Dy  Dy2  1  0.659412  0.996795  0.967482  1
  Dy  Dy3  1  0.158289  0.502842  0.782612  1
  Dy  Dy4  1  0.841550  0.498632  0.285223  1
  Dy  Dy5  1  0.502942  0.158867  0.217418  1
  Dy  Dy6  1  0.499201  0.840819  0.714957  1
  Dy  Dy7  1  0.341857  0.000978  0.468518  1
  Ti  Ti8  1  0.850366  0.996624  0.376570  1
  Ti  Ti9  1  0.007396  0.151856  0.124530  1
  Ti  Ti10  1  0.996811  0.850580  0.623469  1
  Ti  Ti11  1  0.506954  0.344567  0.624374  1
  Ti  Ti12  1  0.151923  0.007827  0.875653  1
  Ti  Ti13  1  0.824462  0.172821  0.748367  1
  Ti  Ti14  1  0.173653  0.823421  0.251746  1
  Ti  Ti15  1  0.492354  0.650215  0.126423  1
  Ti  Ti16  1  0.650370  0.492135  0.873079  1
  Nb  Nb17  1  0.343983  0.507176  0.375044  1
  Nb  Nb18  1  0.326999  0.326898  0.999872  1
  Si  Si19  1  0.047698  0.714648  0.437455  1
  Si  Si20  1  0.951247  0.291095  0.934221  1
  Si  Si21  1  0.712292  0.049882  0.563975  1
  Si  Si22  1  0.205918  0.453808  0.185050  1
  Si  Si23  1  0.789060  0.550690  0.682434  1
  Si  Si24  1  0.453969  0.207205  0.814147  1
  Si  Si25  1  0.551716  0.791314  0.317273  1
  Si  Si26  1  0.291148  0.950978  0.065605  1
  Si  Si27  1  0.798646  0.867201  0.185496  1
  Si  Si28  1  0.296067  0.628539  0.566001  1
  Si  Si29  1  0.704300  0.369786  0.065330  1
  Si  Si30  1  0.629932  0.296190  0.434372  1
  Si  Si31  1  0.369937  0.704473  0.934136  1
  Si  Si32  1  0.130071  0.202615  0.316100  1
  Si  Si33  1  0.203077  0.130751  0.683947  1
  Si  Si34  1  0.867532  0.798360  0.814290  1
  Rh  Rh35  1  0.670220  0.668722  0.500813  1
