# generated using pymatgen
data_Rb8Y6CoI20
_symmetry_space_group_name_H-M   'P 1'
_cell_length_a   13.17657142
_cell_length_b   13.17657160
_cell_length_c   13.17657100
_cell_angle_alpha   60.00000401
_cell_angle_beta   60.00000358
_cell_angle_gamma   60.00000137
_symmetry_Int_Tables_number   1
_chemical_formula_structural   Rb8Y6CoI20
_chemical_formula_sum   'Rb8 Y6 Co1 I20'
_cell_volume   1617.67876580
_cell_formula_units_Z   1
loop_
 _symmetry_equiv_pos_site_id
 _symmetry_equiv_pos_as_xyz
  1  'x, y, z'
loop_
 _atom_site_type_symbol
 _atom_site_label
 _atom_site_symmetry_multiplicity
 _atom_site_fract_x
 _atom_site_fract_y
 _atom_site_fract_z
 _atom_site_occupancy
  Rb  Rb0  1  0.359824  0.359824  0.359824  1
  Rb  Rb1  1  0.640176  0.640176  0.640176  1
  Rb  Rb2  1  0.359824  0.359824  0.920530  1
  Rb  Rb3  1  0.359824  0.920530  0.359824  1
  Rb  Rb4  1  0.640176  0.640176  0.079470  1
  Rb  Rb5  1  0.640176  0.079470  0.640176  1
  Rb  Rb6  1  0.920530  0.359824  0.359824  1
  Rb  Rb7  1  0.079470  0.640176  0.640176  1
  Y  Y8  1  0.852088  0.147912  0.147912  1
  Y  Y9  1  0.147912  0.852088  0.852088  1
  Y  Y10  1  0.147912  0.852088  0.147912  1
  Y  Y11  1  0.852088  0.147912  0.852088  1
  Y  Y12  1  0.147912  0.147912  0.852088  1
  Y  Y13  1  0.852088  0.852088  0.147912  1
  Co  Co14  1  0.000000  0.000000  0.000000  1
  I  I15  1  0.331044  0.000000  0.000000  1
  I  I16  1  0.668956  0.000000  0.000000  1
  I  I17  1  0.000000  0.331044  0.668956  1
  I  I18  1  0.000000  0.668956  0.331044  1
  I  I19  1  0.000000  0.331044  0.000000  1
  I  I20  1  0.668956  0.000000  0.331044  1
  I  I21  1  0.000000  0.668956  0.000000  1
  I  I22  1  0.331044  0.000000  0.668956  1
  I  I23  1  0.000000  0.000000  0.331044  1
  I  I24  1  0.000000  0.000000  0.668956  1
  I  I25  1  0.668956  0.331044  0.000000  1
  I  I26  1  0.331044  0.668956  0.000000  1
  I  I27  1  0.680909  0.319091  0.319091  1
  I  I28  1  0.319091  0.680909  0.680909  1
  I  I29  1  0.319091  0.680909  0.319091  1
  I  I30  1  0.680909  0.319091  0.680909  1
  I  I31  1  0.319091  0.319091  0.680909  1
  I  I32  1  0.680909  0.680909  0.319091  1
  I  I33  1  0.250000  0.250000  0.250000  1
  I  I34  1  0.750000  0.750000  0.750000  1
