# generated using pymatgen
data_CaCd5(ClO)4
_symmetry_space_group_name_H-M   'P 1'
_cell_length_a   6.91907071
_cell_length_b   6.48922560
_cell_length_c   6.82753791
_cell_angle_alpha   64.10930463
_cell_angle_beta   90.75404680
_cell_angle_gamma   89.28552993
_symmetry_Int_Tables_number   1
_chemical_formula_structural   CaCd5(ClO)4
_chemical_formula_sum   'Ca1 Cd5 Cl4 O4'
_cell_volume   275.70293545
_cell_formula_units_Z   1
loop_
 _symmetry_equiv_pos_site_id
 _symmetry_equiv_pos_as_xyz
  1  'x, y, z'
loop_
 _atom_site_type_symbol
 _atom_site_label
 _atom_site_symmetry_multiplicity
 _atom_site_fract_x
 _atom_site_fract_y
 _atom_site_fract_z
 _atom_site_occupancy
  Ca  Ca0  1  0.872143  0.413845  0.225880  1
  Cd  Cd1  1  0.371715  0.588129  0.272237  1
  Cd  Cd2  1  0.129048  0.587576  0.771808  1
  Cd  Cd3  1  0.625485  0.408613  0.728868  1
  Cd  Cd4  1  0.494849  0.000311  0.503791  1
  Cd  Cd5  1  0.003591  0.003589  0.993417  1
  Cl  Cl6  1  0.638394  0.803589  0.939835  1
  Cl  Cl7  1  0.137159  0.188684  0.569164  1
  Cl  Cl8  1  0.865667  0.807921  0.433128  1
  Cl  Cl9  1  0.365432  0.194140  0.063333  1
  O  O10  1  0.607842  0.329331  0.439318  1
  O  O11  1  0.117260  0.670834  0.061476  1
  O  O12  1  0.384699  0.669560  0.565557  1
  O  O13  1  0.886717  0.333880  0.932188  1
