# generated using pymatgen
data_La7NdAl(Si4Ni)3
_symmetry_space_group_name_H-M   'P 1'
_cell_length_a   8.18000500
_cell_length_b   8.18000550
_cell_length_c   8.69958600
_cell_angle_alpha   90.00000000
_cell_angle_beta   90.00000000
_cell_angle_gamma   119.99999393
_symmetry_Int_Tables_number   1
_chemical_formula_structural   La7NdAl(Si4Ni)3
_chemical_formula_sum   'La7 Nd1 Al1 Si12 Ni3'
_cell_volume   504.12288016
_cell_formula_units_Z   1
loop_
 _symmetry_equiv_pos_site_id
 _symmetry_equiv_pos_as_xyz
  1  'x, y, z'
loop_
 _atom_site_type_symbol
 _atom_site_label
 _atom_site_symmetry_multiplicity
 _atom_site_fract_x
 _atom_site_fract_y
 _atom_site_fract_z
 _atom_site_occupancy
  La  La0  1  0.498568  0.501432  0.753227  1
  La  La1  1  0.498457  0.501543  0.246564  1
  La  La2  1  0.002865  0.501432  0.753227  1
  La  La3  1  0.003088  0.501543  0.246564  1
  La  La4  1  0.498568  0.997135  0.753227  1
  La  La5  1  0.498457  0.996912  0.246564  1
  La  La6  1  0.000000  0.000000  0.752913  1
  Nd  Nd7  1  0.000000  0.000000  0.247197  1
  Al  Al8  1  0.666667  0.333333  0.499322  1
  Si  Si9  1  0.829507  0.170493  0.000362  1
  Si  Si10  1  0.169453  0.830547  0.001157  1
  Si  Si11  1  0.340984  0.170493  0.000362  1
  Si  Si12  1  0.173917  0.826083  0.499426  1
  Si  Si13  1  0.661095  0.830547  0.001157  1
  Si  Si14  1  0.839239  0.160761  0.498944  1
  Si  Si15  1  0.829507  0.659016  0.000362  1
  Si  Si16  1  0.652166  0.826083  0.499426  1
  Si  Si17  1  0.169453  0.338905  0.001157  1
  Si  Si18  1  0.321520  0.160761  0.498944  1
  Si  Si19  1  0.173917  0.347834  0.499426  1
  Si  Si20  1  0.839239  0.678480  0.498944  1
  Ni  Ni21  1  0.666667  0.333333  0.001789  1
  Ni  Ni22  1  0.333333  0.666667  0.000787  1
  Ni  Ni23  1  0.333333  0.666667  0.498955  1
