# generated using pymatgen
data_Er2Lu7Zn4
_symmetry_space_group_name_H-M   'P 1'
_cell_length_a   8.43501450
_cell_length_b   8.43501394
_cell_length_c   8.41642728
_cell_angle_alpha   94.94163986
_cell_angle_beta   94.90260981
_cell_angle_gamma   145.97307941
_symmetry_Int_Tables_number   1
_chemical_formula_structural   Er2Lu7Zn4
_chemical_formula_sum   'Er2 Lu7 Zn4'
_cell_volume   320.36024668
_cell_formula_units_Z   1
loop_
 _symmetry_equiv_pos_site_id
 _symmetry_equiv_pos_as_xyz
  1  'x, y, z'
loop_
 _atom_site_type_symbol
 _atom_site_label
 _atom_site_symmetry_multiplicity
 _atom_site_fract_x
 _atom_site_fract_y
 _atom_site_fract_z
 _atom_site_occupancy
  Er  Er0  1  0.182367  0.887376  0.069744  1
  Er  Er1  1  0.112175  0.183171  0.295346  1
  Lu  Lu2  1  0.498556  0.498891  0.997450  1
  Lu  Lu3  1  0.886898  0.399972  0.286873  1
  Lu  Lu4  1  0.599413  0.888458  0.487872  1
  Lu  Lu5  1  0.401808  0.114537  0.516345  1
  Lu  Lu6  1  0.112408  0.599439  0.711845  1
  Lu  Lu7  1  0.886515  0.817421  0.703938  1
  Lu  Lu8  1  0.816671  0.110989  0.927660  1
  Zn  Zn9  1  0.397368  0.736013  0.133383  1
  Zn  Zn10  1  0.737804  0.602875  0.340682  1
  Zn  Zn11  1  0.262989  0.398773  0.661762  1
  Zn  Zn12  1  0.605022  0.262078  0.867100  1
