# generated using pymatgen
data_Dy3UAs6Ru7
_symmetry_space_group_name_H-M   'P 1'
_cell_length_a   7.27186937
_cell_length_b   7.20863938
_cell_length_c   7.20864070
_cell_angle_alpha   109.29286489
_cell_angle_beta   109.64900304
_cell_angle_gamma   109.64899435
_symmetry_Int_Tables_number   1
_chemical_formula_structural   Dy3UAs6Ru7
_chemical_formula_sum   'Dy3 U1 As6 Ru7'
_cell_volume   290.25069470
_cell_formula_units_Z   1
loop_
 _symmetry_equiv_pos_site_id
 _symmetry_equiv_pos_as_xyz
  1  'x, y, z'
loop_
 _atom_site_type_symbol
 _atom_site_label
 _atom_site_symmetry_multiplicity
 _atom_site_fract_x
 _atom_site_fract_y
 _atom_site_fract_z
 _atom_site_occupancy
  Dy  Dy0  1  0.000000  0.000000  0.500000  1
  Dy  Dy1  1  0.000000  0.500000  0.000000  1
  Dy  Dy2  1  0.500000  0.500000  0.500000  1
  U  U3  1  0.500000  0.000000  0.000000  1
  As  As4  1  0.314578  0.000000  0.316811  1
  As  As5  1  0.002233  0.316811  0.316811  1
  As  As6  1  0.997767  0.683189  0.683189  1
  As  As7  1  0.314578  0.316811  0.000000  1
  As  As8  1  0.685422  0.683189  0.000000  1
  As  As9  1  0.685422  0.000000  0.683189  1
  Ru  Ru10  1  0.744600  0.489200  0.244600  1
  Ru  Ru11  1  0.500000  0.755400  0.244600  1
  Ru  Ru12  1  0.500000  0.244600  0.755400  1
  Ru  Ru13  1  0.744600  0.244600  0.489200  1
  Ru  Ru14  1  0.255400  0.755400  0.510800  1
  Ru  Ru15  1  0.255400  0.510800  0.755400  1
  Ru  Ru16  1  0.000000  0.000000  0.000000  1
