# generated using pymatgen
data_Th3AlGa2Ir2Pt
_symmetry_space_group_name_H-M   'P 1'
_cell_length_a   7.34541245
_cell_length_b   7.34541388
_cell_length_c   4.07789000
_cell_angle_alpha   90.00000000
_cell_angle_beta   90.00000000
_cell_angle_gamma   120.44746833
_symmetry_Int_Tables_number   1
_chemical_formula_structural   Th3AlGa2Ir2Pt
_chemical_formula_sum   'Th3 Al1 Ga2 Ir2 Pt1'
_cell_volume   189.68048675
_cell_formula_units_Z   1
loop_
 _symmetry_equiv_pos_site_id
 _symmetry_equiv_pos_as_xyz
  1  'x, y, z'
loop_
 _atom_site_type_symbol
 _atom_site_label
 _atom_site_symmetry_multiplicity
 _atom_site_fract_x
 _atom_site_fract_y
 _atom_site_fract_z
 _atom_site_occupancy
  Th  Th0  1  0.415884  0.415884  0.500000  1
  Th  Th1  1  0.580933  0.001771  0.500000  1
  Th  Th2  1  0.001771  0.580933  0.500000  1
  Al  Al3  1  0.762833  0.762833  0.000000  1
  Ga  Ga4  1  0.240313  0.998281  0.000000  1
  Ga  Ga5  1  0.998281  0.240313  0.000000  1
  Ir  Ir6  1  0.668297  0.341560  0.000000  1
  Ir  Ir7  1  0.341560  0.668297  0.000000  1
  Pt  Pt8  1  0.990128  0.990128  0.500000  1
