# generated using pymatgen
data_BeNbFe4Si7W11C2
_symmetry_space_group_name_H-M   'P 1'
_cell_length_a   7.74823647
_cell_length_b   7.74823763
_cell_length_c   7.74823600
_cell_angle_alpha   60.20865192
_cell_angle_beta   60.20864703
_cell_angle_gamma   60.20865364
_symmetry_Int_Tables_number   1
_chemical_formula_structural   BeNbFe4Si7W11C2
_chemical_formula_sum   'Be1 Nb1 Fe4 Si7 W11 C2'
_cell_volume   330.47649748
_cell_formula_units_Z   1
loop_
 _symmetry_equiv_pos_site_id
 _symmetry_equiv_pos_as_xyz
  1  'x, y, z'
loop_
 _atom_site_type_symbol
 _atom_site_label
 _atom_site_symmetry_multiplicity
 _atom_site_fract_x
 _atom_site_fract_y
 _atom_site_fract_z
 _atom_site_occupancy
  Be  Be0  1  0.914942  0.918331  0.918331  1
  Nb  Nb1  1  0.298177  0.699599  0.699599  1
  Fe  Fe2  1  0.126119  0.128442  0.619516  1
  Fe  Fe3  1  0.126119  0.619516  0.128442  1
  Fe  Fe4  1  0.122256  0.123913  0.123913  1
  Fe  Fe5  1  0.622422  0.126378  0.126378  1
  Si  Si6  1  0.915476  0.245701  0.914034  1
  Si  Si7  1  0.334559  0.000155  0.330357  1
  Si  Si8  1  0.333992  0.334078  0.334078  1
  Si  Si9  1  0.997669  0.334023  0.334023  1
  Si  Si10  1  0.915476  0.914034  0.245701  1
  Si  Si11  1  0.247132  0.916570  0.916570  1
  Si  Si12  1  0.334559  0.330357  0.000155  1
  W  W13  1  0.307399  0.306818  0.693530  1
  W  W14  1  0.559029  0.942398  0.557017  1
  W  W15  1  0.941740  0.559455  0.559455  1
  W  W16  1  0.560611  0.943474  0.943474  1
  W  W17  1  0.693452  0.306199  0.306199  1
  W  W18  1  0.943836  0.558017  0.945129  1
  W  W19  1  0.307399  0.693530  0.306818  1
  W  W20  1  0.559029  0.557017  0.942398  1
  W  W21  1  0.695625  0.301007  0.695220  1
  W  W22  1  0.695625  0.695220  0.301007  1
  W  W23  1  0.943836  0.945129  0.558017  1
  C  C24  1  0.751254  0.751619  0.751619  1
  C  C25  1  0.502264  0.499021  0.499021  1
