# generated using pymatgen
data_Ho3ThCoAg
_symmetry_space_group_name_H-M   'P 1'
_cell_length_a   9.42777815
_cell_length_b   9.42777678
_cell_length_c   9.42777800
_cell_angle_alpha   60.00000273
_cell_angle_beta   60.00000754
_cell_angle_gamma   60.00000831
_symmetry_Int_Tables_number   1
_chemical_formula_structural   Ho3ThCoAg
_chemical_formula_sum   'Ho12 Th4 Co4 Ag4'
_cell_volume   592.53370064
_cell_formula_units_Z   4
loop_
 _symmetry_equiv_pos_site_id
 _symmetry_equiv_pos_as_xyz
  1  'x, y, z'
loop_
 _atom_site_type_symbol
 _atom_site_label
 _atom_site_symmetry_multiplicity
 _atom_site_fract_x
 _atom_site_fract_y
 _atom_site_fract_z
 _atom_site_occupancy
  Ho  Ho0  1  0.811961  0.188039  0.188039  1
  Ho  Ho1  1  0.188039  0.811961  0.811961  1
  Ho  Ho2  1  0.188039  0.811961  0.188039  1
  Ho  Ho3  1  0.811961  0.188039  0.811961  1
  Ho  Ho4  1  0.188039  0.188039  0.811961  1
  Ho  Ho5  1  0.811961  0.811961  0.188039  1
  Ho  Ho6  1  0.934593  0.565407  0.565407  1
  Ho  Ho7  1  0.565407  0.934593  0.934593  1
  Ho  Ho8  1  0.565407  0.934593  0.565407  1
  Ho  Ho9  1  0.934593  0.565407  0.934593  1
  Ho  Ho10  1  0.565407  0.565407  0.934593  1
  Ho  Ho11  1  0.934593  0.934593  0.565407  1
  Th  Th12  1  0.346906  0.346906  0.346906  1
  Th  Th13  1  0.346906  0.346906  0.959285  1
  Th  Th14  1  0.346906  0.959285  0.346906  1
  Th  Th15  1  0.959285  0.346906  0.346906  1
  Co  Co16  1  0.144219  0.144219  0.144219  1
  Co  Co17  1  0.144219  0.144219  0.567342  1
  Co  Co18  1  0.144219  0.567342  0.144219  1
  Co  Co19  1  0.567342  0.144219  0.144219  1
  Ag  Ag20  1  0.582183  0.582183  0.582183  1
  Ag  Ag21  1  0.582183  0.582183  0.253448  1
  Ag  Ag22  1  0.582183  0.253448  0.582183  1
  Ag  Ag23  1  0.253448  0.582183  0.582183  1
