# generated using pymatgen
data_SrCe(Al5Os)4
_symmetry_space_group_name_H-M   'P 1'
_cell_length_a   6.90613884
_cell_length_b   6.90613904
_cell_length_c   9.21126100
_cell_angle_alpha   90.00000000
_cell_angle_beta   90.00000000
_cell_angle_gamma   96.70838135
_symmetry_Int_Tables_number   1
_chemical_formula_structural   SrCe(Al5Os)4
_chemical_formula_sum   'Sr1 Ce1 Al20 Os4'
_cell_volume   436.32100437
_cell_formula_units_Z   1
loop_
 _symmetry_equiv_pos_site_id
 _symmetry_equiv_pos_as_xyz
  1  'x, y, z'
loop_
 _atom_site_type_symbol
 _atom_site_label
 _atom_site_symmetry_multiplicity
 _atom_site_fract_x
 _atom_site_fract_y
 _atom_site_fract_z
 _atom_site_occupancy
  Sr  Sr0  1  0.876130  0.123870  0.750000  1
  Ce  Ce1  1  0.125801  0.874199  0.250000  1
  Al  Al2  1  0.520190  0.781965  0.750000  1
  Al  Al3  1  0.781271  0.518215  0.250000  1
  Al  Al4  1  0.481785  0.218729  0.250000  1
  Al  Al5  1  0.218035  0.479810  0.750000  1
  Al  Al6  1  0.622884  0.377116  0.961260  1
  Al  Al7  1  0.377147  0.622853  0.052743  1
  Al  Al8  1  0.622884  0.377116  0.538740  1
  Al  Al9  1  0.377147  0.622853  0.447257  1
  Al  Al10  1  0.409602  0.142982  0.750000  1
  Al  Al11  1  0.143040  0.415199  0.250000  1
  Al  Al12  1  0.584801  0.856960  0.250000  1
  Al  Al13  1  0.857018  0.590398  0.750000  1
  Al  Al14  1  0.844030  0.155970  0.397371  1
  Al  Al15  1  0.162845  0.837155  0.601739  1
  Al  Al16  1  0.844030  0.155970  0.102629  1
  Al  Al17  1  0.162845  0.837155  0.898261  1
  Al  Al18  1  0.773819  0.775860  0.002134  1
  Al  Al19  1  0.773819  0.775860  0.497866  1
  Al  Al20  1  0.224140  0.226181  0.002134  1
  Al  Al21  1  0.224140  0.226181  0.497866  1
  Os  Os22  1  0.496353  0.000054  0.001185  1
  Os  Os23  1  0.999946  0.503647  0.001185  1
  Os  Os24  1  0.496353  0.000054  0.498815  1
  Os  Os25  1  0.999946  0.503647  0.498815  1
