# generated using pymatgen
data_Ho3TmCo16(MoP3)4
_symmetry_space_group_name_H-M   'P 1'
_cell_length_a   3.70437500
_cell_length_b   10.41203728
_cell_length_c   11.85342038
_cell_angle_alpha   90.02790949
_cell_angle_beta   90.00000000
_cell_angle_gamma   90.00000000
_symmetry_Int_Tables_number   1
_chemical_formula_structural   Ho3TmCo16(MoP3)4
_chemical_formula_sum   'Ho3 Tm1 Co16 Mo4 P12'
_cell_volume   457.18744394
_cell_formula_units_Z   1
loop_
 _symmetry_equiv_pos_site_id
 _symmetry_equiv_pos_as_xyz
  1  'x, y, z'
loop_
 _atom_site_type_symbol
 _atom_site_label
 _atom_site_symmetry_multiplicity
 _atom_site_fract_x
 _atom_site_fract_y
 _atom_site_fract_z
 _atom_site_occupancy
  Ho  Ho0  1  0.250000  0.583035  0.704033  1
  Ho  Ho1  1  0.250000  0.917024  0.204242  1
  Ho  Ho2  1  0.750000  0.416903  0.295798  1
  Tm  Tm3  1  0.750000  0.082883  0.796042  1
  Co  Co4  1  0.250000  0.406179  0.489173  1
  Co  Co5  1  0.250000  0.093900  0.988288  1
  Co  Co6  1  0.750000  0.593762  0.510698  1
  Co  Co7  1  0.750000  0.906687  0.010591  1
  Co  Co8  1  0.250000  0.221519  0.177876  1
  Co  Co9  1  0.250000  0.277643  0.678213  1
  Co  Co10  1  0.750000  0.778370  0.821925  1
  Co  Co11  1  0.750000  0.721921  0.321946  1
  Co  Co12  1  0.250000  0.888062  0.701404  1
  Co  Co13  1  0.250000  0.612659  0.200710  1
  Co  Co14  1  0.750000  0.112650  0.299356  1
  Co  Co15  1  0.750000  0.386903  0.799030  1
  Co  Co16  1  0.250000  0.465470  0.932686  1
  Co  Co17  1  0.250000  0.034300  0.433229  1
  Co  Co18  1  0.750000  0.534239  0.067029  1
  Co  Co19  1  0.750000  0.965975  0.567688  1
  Mo  Mo20  1  0.250000  0.709073  0.987397  1
  Mo  Mo21  1  0.250000  0.791322  0.487857  1
  Mo  Mo22  1  0.750000  0.291000  0.012062  1
  Mo  Mo23  1  0.750000  0.208719  0.512544  1
  P  P24  1  0.250000  0.420244  0.115277  1
  P  P25  1  0.250000  0.079631  0.616206  1
  P  P26  1  0.750000  0.579510  0.884449  1
  P  P27  1  0.750000  0.920440  0.384916  1
  P  P28  1  0.250000  0.267959  0.864587  1
  P  P29  1  0.250000  0.231110  0.364943  1
  P  P30  1  0.750000  0.731242  0.134991  1
  P  P31  1  0.750000  0.768769  0.635164  1
  P  P32  1  0.250000  0.595346  0.390988  1
  P  P33  1  0.250000  0.905486  0.890771  1
  P  P34  1  0.750000  0.404789  0.608889  1
  P  P35  1  0.750000  0.095278  0.109004  1
