# generated using pymatgen
data_TbY2Lu3FeSb2
_symmetry_space_group_name_H-M   'P 1'
_cell_length_a   8.11719754
_cell_length_b   8.11208106
_cell_length_c   4.14916700
_cell_angle_alpha   90.00000000
_cell_angle_beta   90.00000000
_cell_angle_gamma   119.97915990
_symmetry_Int_Tables_number   1
_chemical_formula_structural   TbY2Lu3FeSb2
_chemical_formula_sum   'Tb1 Y2 Lu3 Fe1 Sb2'
_cell_volume   236.65795436
_cell_formula_units_Z   1
loop_
 _symmetry_equiv_pos_site_id
 _symmetry_equiv_pos_as_xyz
  1  'x, y, z'
loop_
 _atom_site_type_symbol
 _atom_site_label
 _atom_site_symmetry_multiplicity
 _atom_site_fract_x
 _atom_site_fract_y
 _atom_site_fract_z
 _atom_site_occupancy
  Tb  Tb0  1  0.000000  0.604477  0.500000  1
  Y  Y1  1  0.604356  0.999877  0.500000  1
  Y  Y2  1  0.395644  0.395522  0.500000  1
  Lu  Lu3  1  0.231532  0.000144  0.000000  1
  Lu  Lu4  1  0.768468  0.768612  0.000000  1
  Lu  Lu5  1  0.000000  0.231425  0.000000  1
  Fe  Fe6  1  0.000000  0.000142  0.500000  1
  Sb  Sb7  1  0.333728  0.666765  0.000000  1
  Sb  Sb8  1  0.666272  0.333036  0.000000  1
