# generated using pymatgen
data_Tm13Th3MnCd4Ni3
_symmetry_space_group_name_H-M   'P 1'
_cell_length_a   9.49973776
_cell_length_b   9.53496084
_cell_length_c   9.53495938
_cell_angle_alpha   59.35446823
_cell_angle_beta   59.60976531
_cell_angle_gamma   59.60977221
_symmetry_Int_Tables_number   1
_chemical_formula_structural   Tm13Th3MnCd4Ni3
_chemical_formula_sum   'Tm13 Th3 Mn1 Cd4 Ni3'
_cell_volume   604.10001833
_cell_formula_units_Z   1
loop_
 _symmetry_equiv_pos_site_id
 _symmetry_equiv_pos_as_xyz
  1  'x, y, z'
loop_
 _atom_site_type_symbol
 _atom_site_label
 _atom_site_symmetry_multiplicity
 _atom_site_fract_x
 _atom_site_fract_y
 _atom_site_fract_z
 _atom_site_occupancy
  Tm  Tm0  1  0.949838  0.351165  0.351165  1
  Tm  Tm1  1  0.819038  0.187525  0.187525  1
  Tm  Tm2  1  0.187269  0.813121  0.813121  1
  Tm  Tm3  1  0.187104  0.816612  0.184761  1
  Tm  Tm4  1  0.811727  0.186922  0.813666  1
  Tm  Tm5  1  0.187104  0.184761  0.816612  1
  Tm  Tm6  1  0.811727  0.813666  0.186922  1
  Tm  Tm7  1  0.936913  0.565719  0.565719  1
  Tm  Tm8  1  0.560135  0.934293  0.934293  1
  Tm  Tm9  1  0.565547  0.934716  0.563802  1
  Tm  Tm10  1  0.935167  0.561036  0.936918  1
  Tm  Tm11  1  0.565547  0.563802  0.934716  1
  Tm  Tm12  1  0.935167  0.936918  0.561036  1
  Th  Th13  1  0.344623  0.349388  0.349388  1
  Th  Th14  1  0.341261  0.343398  0.959884  1
  Th  Th15  1  0.341261  0.959884  0.343398  1
  Mn  Mn16  1  0.159446  0.141270  0.141270  1
  Cd  Cd17  1  0.583848  0.580437  0.580437  1
  Cd  Cd18  1  0.583795  0.579650  0.252142  1
  Cd  Cd19  1  0.583795  0.252142  0.579650  1
  Cd  Cd20  1  0.252007  0.580576  0.580576  1
  Ni  Ni21  1  0.141705  0.142964  0.574932  1
  Ni  Ni22  1  0.141705  0.574932  0.142964  1
  Ni  Ni23  1  0.574270  0.145106  0.145106  1
