# generated using pymatgen
data_TbTmBeSiI2
_symmetry_space_group_name_H-M   'P 1'
_cell_length_a   3.95317900
_cell_length_b   3.95317787
_cell_length_c   12.08580700
_cell_angle_alpha   90.00000000
_cell_angle_beta   90.00000000
_cell_angle_gamma   119.99998436
_symmetry_Int_Tables_number   1
_chemical_formula_structural   TbTmBeSiI2
_chemical_formula_sum   'Tb1 Tm1 Be1 Si1 I2'
_cell_volume   163.56831879
_cell_formula_units_Z   1
loop_
 _symmetry_equiv_pos_site_id
 _symmetry_equiv_pos_as_xyz
  1  'x, y, z'
loop_
 _atom_site_type_symbol
 _atom_site_label
 _atom_site_symmetry_multiplicity
 _atom_site_fract_x
 _atom_site_fract_y
 _atom_site_fract_z
 _atom_site_occupancy
  Tb  Tb0  1  0.000000  0.000000  0.838836  1
  Tm  Tm1  1  0.000000  0.000000  0.159297  1
  Be  Be2  1  0.333333  0.666667  0.013663  1
  Si  Si3  1  0.666667  0.333333  0.993734  1
  I  I4  1  0.333333  0.666667  0.664640  1
  I  I5  1  0.666667  0.333333  0.329830  1
