# generated using pymatgen
data_CeEr3(BeSi3)2
_symmetry_space_group_name_H-M   'P 1'
_cell_length_a   7.84259200
_cell_length_b   7.84259295
_cell_length_c   8.08952100
_cell_angle_alpha   90.00000000
_cell_angle_beta   90.00000000
_cell_angle_gamma   119.99999599
_symmetry_Int_Tables_number   1
_chemical_formula_structural   CeEr3(BeSi3)2
_chemical_formula_sum   'Ce2 Er6 Be4 Si12'
_cell_volume   430.89628779
_cell_formula_units_Z   2
loop_
 _symmetry_equiv_pos_site_id
 _symmetry_equiv_pos_as_xyz
  1  'x, y, z'
loop_
 _atom_site_type_symbol
 _atom_site_label
 _atom_site_symmetry_multiplicity
 _atom_site_fract_x
 _atom_site_fract_y
 _atom_site_fract_z
 _atom_site_occupancy
  Ce  Ce0  1  0.000000  0.000000  0.250000  1
  Ce  Ce1  1  0.000000  0.000000  0.750000  1
  Er  Er2  1  0.499617  0.500383  0.250000  1
  Er  Er3  1  0.499617  0.999232  0.250000  1
  Er  Er4  1  0.000768  0.500383  0.250000  1
  Er  Er5  1  0.500383  0.499617  0.750000  1
  Er  Er6  1  0.999232  0.499617  0.750000  1
  Er  Er7  1  0.500383  0.000768  0.750000  1
  Be  Be8  1  0.666667  0.333333  0.494839  1
  Be  Be9  1  0.666667  0.333333  0.005161  1
  Be  Be10  1  0.333333  0.666667  0.994839  1
  Be  Be11  1  0.333333  0.666667  0.505161  1
  Si  Si12  1  0.826915  0.173085  0.499981  1
  Si  Si13  1  0.826915  0.653830  0.499981  1
  Si  Si14  1  0.346170  0.173085  0.499981  1
  Si  Si15  1  0.826915  0.173085  0.000019  1
  Si  Si16  1  0.826915  0.653830  0.000019  1
  Si  Si17  1  0.346170  0.173085  0.000019  1
  Si  Si18  1  0.173085  0.826915  0.999981  1
  Si  Si19  1  0.653830  0.826915  0.999981  1
  Si  Si20  1  0.173085  0.346170  0.999981  1
  Si  Si21  1  0.173085  0.826915  0.500019  1
  Si  Si22  1  0.653830  0.826915  0.500019  1
  Si  Si23  1  0.173085  0.346170  0.500019  1
