# generated using pymatgen
data_Th2Ni9Mo3P7
_symmetry_space_group_name_H-M   'P 1'
_cell_length_a   9.25358100
_cell_length_b   9.25358192
_cell_length_c   3.81914100
_cell_angle_alpha   90.00000000
_cell_angle_beta   90.00000000
_cell_angle_gamma   120.00000027
_symmetry_Int_Tables_number   1
_chemical_formula_structural   Th2Ni9Mo3P7
_chemical_formula_sum   'Th2 Ni9 Mo3 P7'
_cell_volume   283.21485444
_cell_formula_units_Z   1
loop_
 _symmetry_equiv_pos_site_id
 _symmetry_equiv_pos_as_xyz
  1  'x, y, z'
loop_
 _atom_site_type_symbol
 _atom_site_label
 _atom_site_symmetry_multiplicity
 _atom_site_fract_x
 _atom_site_fract_y
 _atom_site_fract_z
 _atom_site_occupancy
  Th  Th0  1  0.333333  0.666667  0.000000  1
  Th  Th1  1  0.000000  0.000000  0.500000  1
  Ni  Ni2  1  0.035685  0.269073  0.000000  1
  Ni  Ni3  1  0.730927  0.766611  0.000000  1
  Ni  Ni4  1  0.233389  0.964315  0.000000  1
  Ni  Ni5  1  0.537027  0.052339  0.000000  1
  Ni  Ni6  1  0.947661  0.484688  0.000000  1
  Ni  Ni7  1  0.515312  0.462973  0.000000  1
  Ni  Ni8  1  0.606258  0.889388  0.500000  1
  Ni  Ni9  1  0.110612  0.716868  0.500000  1
  Ni  Ni10  1  0.283132  0.393742  0.500000  1
  Mo  Mo11  1  0.776402  0.228845  0.500000  1
  Mo  Mo12  1  0.771155  0.547557  0.500000  1
  Mo  Mo13  1  0.452443  0.223598  0.500000  1
  P  P14  1  0.770953  0.033271  0.000000  1
  P  P15  1  0.966729  0.737683  0.000000  1
  P  P16  1  0.262317  0.229047  0.000000  1
  P  P17  1  0.376758  0.935223  0.500000  1
  P  P18  1  0.064777  0.441535  0.500000  1
  P  P19  1  0.558465  0.623242  0.500000  1
  P  P20  1  0.666667  0.333333  0.000000  1
