# generated using pymatgen
data_CaHo2CdSn2(SbO7)2
_symmetry_space_group_name_H-M   'P 1'
_cell_length_a   7.41906600
_cell_length_b   7.41906600
_cell_length_c   10.44528500
_cell_angle_alpha   90.00000000
_cell_angle_beta   90.00000000
_cell_angle_gamma   90.00000000
_symmetry_Int_Tables_number   1
_chemical_formula_structural   CaHo2CdSn2(SbO7)2
_chemical_formula_sum   'Ca2 Ho4 Cd2 Sn4 Sb4 O28'
_cell_volume   574.93502069
_cell_formula_units_Z   2
loop_
 _symmetry_equiv_pos_site_id
 _symmetry_equiv_pos_as_xyz
  1  'x, y, z'
loop_
 _atom_site_type_symbol
 _atom_site_label
 _atom_site_symmetry_multiplicity
 _atom_site_fract_x
 _atom_site_fract_y
 _atom_site_fract_z
 _atom_site_occupancy
  Ca  Ca0  1  0.499544  0.743709  0.999248  1
  Ca  Ca1  1  0.256291  0.500456  0.250752  1
  Ho  Ho2  1  0.001411  0.745487  0.000055  1
  Ho  Ho3  1  0.001276  0.254772  0.500091  1
  Ho  Ho4  1  0.254513  0.998589  0.249945  1
  Ho  Ho5  1  0.745228  0.998724  0.749909  1
  Cd  Cd6  1  0.499383  0.257098  0.500531  1
  Cd  Cd7  1  0.742902  0.500617  0.749469  1
  Sn  Sn8  1  0.757057  0.999825  0.249798  1
  Sn  Sn9  1  0.000173  0.757397  0.499809  1
  Sn  Sn10  1  0.242603  0.999827  0.750191  1
  Sn  Sn11  1  0.000175  0.242943  0.000202  1
  Sb  Sb12  1  0.244192  0.500068  0.750362  1
  Sb  Sb13  1  0.499932  0.755808  0.499638  1
  Sb  Sb14  1  0.499763  0.243685  0.000371  1
  Sb  Sb15  1  0.756315  0.500237  0.249629  1
  O  O16  1  0.243848  0.756152  0.125000  1
  O  O17  1  0.542722  0.949583  0.370511  1
  O  O18  1  0.760173  0.742919  0.167721  1
  O  O19  1  0.747934  0.252066  0.625000  1
  O  O20  1  0.969484  0.969184  0.374669  1
  O  O21  1  0.030816  0.030516  0.875331  1
  O  O22  1  0.050417  0.457278  0.879489  1
  O  O23  1  0.029717  0.970283  0.625000  1
  O  O24  1  0.257081  0.239827  0.082279  1
  O  O25  1  0.235460  0.256660  0.671949  1
  O  O26  1  0.256891  0.759937  0.418605  1
  O  O27  1  0.456881  0.949678  0.629050  1
  O  O28  1  0.456985  0.045954  0.873335  1
  O  O29  1  0.443637  0.446576  0.877370  1
  O  O30  1  0.553424  0.556363  0.372630  1
  O  O31  1  0.542628  0.046242  0.127125  1
  O  O32  1  0.553491  0.446509  0.125000  1
  O  O33  1  0.743340  0.764540  0.578051  1
  O  O34  1  0.764406  0.256994  0.328940  1
  O  O35  1  0.755558  0.750042  0.870386  1
  O  O36  1  0.743006  0.235594  0.921060  1
  O  O37  1  0.954046  0.543015  0.376665  1
  O  O38  1  0.968466  0.031534  0.125000  1
  O  O39  1  0.953758  0.457372  0.122875  1
  O  O40  1  0.050322  0.543119  0.620950  1
  O  O41  1  0.240063  0.743109  0.831395  1
  O  O42  1  0.249958  0.244442  0.379614  1
  O  O43  1  0.444728  0.555272  0.625000  1
