# generated using pymatgen
data_LaCeZn3CuRu
_symmetry_space_group_name_H-M   'P 1'
_cell_length_a   7.21515300
_cell_length_b   7.20738192
_cell_length_c   5.14124332
_cell_angle_alpha   90.27793357
_cell_angle_beta   90.00000000
_cell_angle_gamma   90.00000000
_symmetry_Int_Tables_number   1
_chemical_formula_structural   LaCeZn3CuRu
_chemical_formula_sum   'La2 Ce2 Zn6 Cu2 Ru2'
_cell_volume   267.35365744
_cell_formula_units_Z   2
loop_
 _symmetry_equiv_pos_site_id
 _symmetry_equiv_pos_as_xyz
  1  'x, y, z'
loop_
 _atom_site_type_symbol
 _atom_site_label
 _atom_site_symmetry_multiplicity
 _atom_site_fract_x
 _atom_site_fract_y
 _atom_site_fract_z
 _atom_site_occupancy
  La  La0  1  0.000000  0.507965  0.760515  1
  La  La1  1  0.500000  0.992940  0.232846  1
  Ce  Ce2  1  0.000000  0.992395  0.013406  1
  Ce  Ce3  1  0.500000  0.508241  0.009404  1
  Zn  Zn4  1  0.812018  0.317730  0.287342  1
  Zn  Zn5  1  0.312546  0.187619  0.717110  1
  Zn  Zn6  1  0.187982  0.317730  0.287342  1
  Zn  Zn7  1  0.687454  0.187619  0.717110  1
  Zn  Zn8  1  0.690738  0.810694  0.702320  1
  Zn  Zn9  1  0.309262  0.810694  0.702320  1
  Cu  Cu10  1  0.180424  0.681640  0.282467  1
  Cu  Cu11  1  0.819576  0.681640  0.282467  1
  Ru  Ru12  1  0.500000  0.497045  0.504017  1
  Ru  Ru13  1  0.000000  0.006047  0.501334  1
