# generated using pymatgen
data_NdTh2Ga3NiRh2
_symmetry_space_group_name_H-M   'P 1'
_cell_length_a   7.27219432
_cell_length_b   7.18813567
_cell_length_c   4.01210300
_cell_angle_alpha   90.00000000
_cell_angle_beta   90.00000000
_cell_angle_gamma   119.61836795
_symmetry_Int_Tables_number   1
_chemical_formula_structural   NdTh2Ga3NiRh2
_chemical_formula_sum   'Nd1 Th2 Ga3 Ni1 Rh2'
_cell_volume   182.32312110
_cell_formula_units_Z   1
loop_
 _symmetry_equiv_pos_site_id
 _symmetry_equiv_pos_as_xyz
  1  'x, y, z'
loop_
 _atom_site_type_symbol
 _atom_site_label
 _atom_site_symmetry_multiplicity
 _atom_site_fract_x
 _atom_site_fract_y
 _atom_site_fract_z
 _atom_site_occupancy
  Nd  Nd0  1  0.000000  0.411634  0.500000  1
  Th  Th1  1  0.587398  0.588466  0.500000  1
  Th  Th2  1  0.412602  0.001068  0.500000  1
  Ga  Ga3  1  0.000000  0.757495  0.000000  1
  Ga  Ga4  1  0.222018  0.231514  0.000000  1
  Ga  Ga5  1  0.777982  0.009497  0.000000  1
  Ni  Ni6  1  0.000000  0.983723  0.500000  1
  Rh  Rh7  1  0.358461  0.687533  0.000000  1
  Rh  Rh8  1  0.641539  0.329071  0.000000  1
