# generated using pymatgen
data_TbCe3Er6(SiB4)4
_symmetry_space_group_name_H-M   'P 1'
_cell_length_a   7.24056370
_cell_length_b   7.24056358
_cell_length_c   8.14149601
_cell_angle_alpha   89.99345829
_cell_angle_beta   89.99345462
_cell_angle_gamma   90.17796599
_symmetry_Int_Tables_number   1
_chemical_formula_structural   TbCe3Er6(SiB4)4
_chemical_formula_sum   'Tb1 Ce3 Er6 Si4 B16'
_cell_volume   426.82206626
_cell_formula_units_Z   1
loop_
 _symmetry_equiv_pos_site_id
 _symmetry_equiv_pos_as_xyz
  1  'x, y, z'
loop_
 _atom_site_type_symbol
 _atom_site_label
 _atom_site_symmetry_multiplicity
 _atom_site_fract_x
 _atom_site_fract_y
 _atom_site_fract_z
 _atom_site_occupancy
  Tb  Tb0  1  0.681586  0.181586  0.776733  1
  Ce  Ce1  1  0.681922  0.181922  0.229416  1
  Ce  Ce2  1  0.317482  0.817482  0.770413  1
  Ce  Ce3  1  0.318223  0.818223  0.230213  1
  Er  Er4  1  0.819982  0.679827  0.220052  1
  Er  Er5  1  0.819854  0.680208  0.779803  1
  Er  Er6  1  0.180208  0.319854  0.779803  1
  Er  Er7  1  0.179827  0.319982  0.220052  1
  Er  Er8  1  0.999053  0.000965  0.500287  1
  Er  Er9  1  0.500965  0.499053  0.500287  1
  Si  Si10  1  0.114413  0.614413  0.500560  1
  Si  Si11  1  0.884617  0.384617  0.500088  1
  Si  Si12  1  0.384006  0.116013  0.500660  1
  Si  Si13  1  0.616013  0.884006  0.500660  1
  B  B14  1  0.172491  0.039138  0.999067  1
  B  B15  1  0.827284  0.961061  0.999564  1
  B  B16  1  0.960312  0.172540  0.999271  1
  B  B17  1  0.328140  0.539138  0.999111  1
  B  B18  1  0.039138  0.828140  0.999111  1
  B  B19  1  0.672540  0.460312  0.999271  1
  B  B20  1  0.539138  0.672491  0.999067  1
  B  B21  1  0.461061  0.327284  0.999564  1
  B  B22  1  0.090898  0.590898  0.999244  1
  B  B23  1  0.909349  0.409349  0.000755  1
  B  B24  1  0.409877  0.090460  0.000051  1
  B  B25  1  0.590460  0.909877  0.000051  1
  B  B26  1  0.999743  0.000139  0.160858  1
  B  B27  1  0.000957  0.000319  0.837569  1
  B  B28  1  0.500319  0.500957  0.837569  1
  B  B29  1  0.500139  0.499743  0.160858  1
