# generated using pymatgen
data_Zr6Al8Si8Ir7
_symmetry_space_group_name_H-M   'P 1'
_cell_length_a   8.60882959
_cell_length_b   8.60882945
_cell_length_c   8.60883000
_cell_angle_alpha   59.99999790
_cell_angle_beta   59.99999841
_cell_angle_gamma   60.00000508
_symmetry_Int_Tables_number   1
_chemical_formula_structural   Zr6Al8Si8Ir7
_chemical_formula_sum   'Zr6 Al8 Si8 Ir7'
_cell_volume   451.14625201
_cell_formula_units_Z   1
loop_
 _symmetry_equiv_pos_site_id
 _symmetry_equiv_pos_as_xyz
  1  'x, y, z'
loop_
 _atom_site_type_symbol
 _atom_site_label
 _atom_site_symmetry_multiplicity
 _atom_site_fract_x
 _atom_site_fract_y
 _atom_site_fract_z
 _atom_site_occupancy
  Zr  Zr0  1  0.693736  0.306264  0.306264  1
  Zr  Zr1  1  0.306264  0.693736  0.693736  1
  Zr  Zr2  1  0.306264  0.693736  0.306264  1
  Zr  Zr3  1  0.693736  0.306264  0.693736  1
  Zr  Zr4  1  0.306264  0.306264  0.693736  1
  Zr  Zr5  1  0.693736  0.693736  0.306264  1
  Al  Al6  1  0.120152  0.120152  0.120152  1
  Al  Al7  1  0.879848  0.879848  0.879848  1
  Al  Al8  1  0.120152  0.120152  0.639545  1
  Al  Al9  1  0.120152  0.639545  0.120152  1
  Al  Al10  1  0.879848  0.879848  0.360455  1
  Al  Al11  1  0.879848  0.360455  0.879848  1
  Al  Al12  1  0.639545  0.120152  0.120152  1
  Al  Al13  1  0.360455  0.879848  0.879848  1
  Si  Si14  1  0.341745  0.341745  0.341745  1
  Si  Si15  1  0.658255  0.658255  0.658255  1
  Si  Si16  1  0.341745  0.341745  0.974765  1
  Si  Si17  1  0.341745  0.974765  0.341745  1
  Si  Si18  1  0.658255  0.658255  0.025235  1
  Si  Si19  1  0.658255  0.025235  0.658255  1
  Si  Si20  1  0.974765  0.341745  0.341745  1
  Si  Si21  1  0.025235  0.658255  0.658255  1
  Ir  Ir22  1  0.500000  0.000000  0.000000  1
  Ir  Ir23  1  0.000000  0.500000  0.500000  1
  Ir  Ir24  1  0.000000  0.500000  0.000000  1
  Ir  Ir25  1  0.500000  0.000000  0.500000  1
  Ir  Ir26  1  0.000000  0.000000  0.500000  1
  Ir  Ir27  1  0.500000  0.500000  0.000000  1
  Ir  Ir28  1  0.000000  0.000000  0.000000  1
