# generated using pymatgen
data_Li12Pr12TaW7O48
_symmetry_space_group_name_H-M   'P 1'
_cell_length_a   10.99043604
_cell_length_b   10.99043695
_cell_length_c   10.99043806
_cell_angle_alpha   109.42840173
_cell_angle_beta   109.42841073
_cell_angle_gamma   109.42840149
_symmetry_Int_Tables_number   1
_chemical_formula_structural   Li12Pr12TaW7O48
_chemical_formula_sum   'Li12 Pr12 Ta1 W7 O48'
_cell_volume   1023.55112959
_cell_formula_units_Z   1
loop_
 _symmetry_equiv_pos_site_id
 _symmetry_equiv_pos_as_xyz
  1  'x, y, z'
loop_
 _atom_site_type_symbol
 _atom_site_label
 _atom_site_symmetry_multiplicity
 _atom_site_fract_x
 _atom_site_fract_y
 _atom_site_fract_z
 _atom_site_occupancy
  Li  Li0  1  0.250185  0.874892  0.125041  1
  Li  Li1  1  0.374959  0.249815  0.125108  1
  Li  Li2  1  0.124219  0.374636  0.249827  1
  Li  Li3  1  0.625109  0.874960  0.249816  1
  Li  Li4  1  0.125365  0.750174  0.375782  1
  Li  Li5  1  0.749827  0.624219  0.374636  1
  Li  Li6  1  0.250174  0.375782  0.625365  1
  Li  Li7  1  0.874636  0.249826  0.624219  1
  Li  Li8  1  0.374892  0.125041  0.750185  1
  Li  Li9  1  0.875782  0.625365  0.750174  1
  Li  Li10  1  0.625040  0.750185  0.874892  1
  Li  Li11  1  0.749814  0.125108  0.874959  1
  Pr  Pr12  1  0.751210  0.375101  0.127351  1
  Pr  Pr13  1  0.874762  0.750300  0.125114  1
  Pr  Pr14  1  0.374886  0.625238  0.249700  1
  Pr  Pr15  1  0.875102  0.127352  0.251210  1
  Pr  Pr16  1  0.250300  0.125114  0.374762  1
  Pr  Pr17  1  0.627352  0.251210  0.375102  1
  Pr  Pr18  1  0.749700  0.874886  0.625238  1
  Pr  Pr19  1  0.372649  0.748790  0.624899  1
  Pr  Pr20  1  0.124898  0.872647  0.748790  1
  Pr  Pr21  1  0.625115  0.374762  0.750301  1
  Pr  Pr22  1  0.248790  0.624898  0.872648  1
  Pr  Pr23  1  0.125238  0.249701  0.874887  1
  Ta  Ta24  1  0.000000  0.500001  0.500001  1
  W  W25  1  0.000000  0.000000  0.000000  1
  W  W26  1  0.499999  0.000000  0.000000  1
  W  W27  1  0.499999  0.499999  0.000000  1
  W  W28  1  0.000000  0.500000  0.000000  1
  W  W29  1  0.000000  0.000000  0.500000  1
  W  W30  1  0.499999  0.000000  0.500000  1
  W  W31  1  0.500001  0.500001  0.500001  1
  O  O32  1  0.828394  0.907564  0.022208  1
  O  O33  1  0.693641  0.114259  0.021808  1
  O  O34  1  0.193783  0.671426  0.079533  1
  O  O35  1  0.385258  0.407887  0.079815  1
  O  O36  1  0.477791  0.671604  0.092435  1
  O  O37  1  0.115194  0.420477  0.091987  1
  O  O38  1  0.521808  0.193640  0.114257  1
  O  O39  1  0.092113  0.920185  0.114743  1
  O  O40  1  0.977575  0.592461  0.171691  1
  O  O41  1  0.694389  0.579861  0.171273  1
  O  O42  1  0.079860  0.171272  0.194388  1
  O  O43  1  0.614258  0.021808  0.193640  1
  O  O44  1  0.828575  0.920468  0.306216  1
  O  O45  1  0.973583  0.381151  0.299599  1
  O  O46  1  0.407565  0.022208  0.328395  1
  O  O47  1  0.420467  0.306217  0.328574  1
  O  O48  1  0.079524  0.908014  0.384806  1
  O  O49  1  0.799599  0.473583  0.381152  1
  O  O50  1  0.328307  0.522426  0.407538  1
  O  O51  1  0.579815  0.885258  0.407887  1
  O  O52  1  0.591987  0.615195  0.420477  1
  O  O53  1  0.328728  0.805612  0.420140  1
  O  O54  1  0.092459  0.171691  0.477574  1
  O  O55  1  0.881152  0.299598  0.473583  1
  O  O56  1  0.118848  0.700401  0.526417  1
  O  O57  1  0.907540  0.828309  0.522426  1
  O  O58  1  0.408012  0.384805  0.579523  1
  O  O59  1  0.671272  0.194389  0.579861  1
  O  O60  1  0.671691  0.477575  0.592460  1
  O  O61  1  0.420184  0.114742  0.592112  1
  O  O62  1  0.200401  0.526417  0.618848  1
  O  O63  1  0.920477  0.091988  0.615195  1
  O  O64  1  0.579533  0.693783  0.671425  1
  O  O65  1  0.592436  0.977791  0.671605  1
  O  O66  1  0.171425  0.079532  0.693783  1
  O  O67  1  0.026417  0.618848  0.700402  1
  O  O68  1  0.385741  0.978192  0.806359  1
  O  O69  1  0.920140  0.828728  0.805611  1
  O  O70  1  0.305612  0.420140  0.828728  1
  O  O71  1  0.022427  0.407540  0.828309  1
  O  O72  1  0.478191  0.806358  0.885741  1
  O  O73  1  0.907887  0.079816  0.885258  1
  O  O74  1  0.522208  0.328395  0.907564  1
  O  O75  1  0.884806  0.579524  0.908013  1
  O  O76  1  0.614743  0.592114  0.920184  1
  O  O77  1  0.806216  0.328574  0.920466  1
  O  O78  1  0.306359  0.885742  0.978191  1
  O  O79  1  0.171604  0.092435  0.977791  1
