# generated using pymatgen
data_Si2Se3I2
_symmetry_space_group_name_H-M   'P 1'
_cell_length_a   11.39510200
_cell_length_b   11.39510080
_cell_length_c   10.06385900
_cell_angle_alpha   90.00000000
_cell_angle_beta   90.00000000
_cell_angle_gamma   119.99999768
_symmetry_Int_Tables_number   1
_chemical_formula_structural   Si2Se3I2
_chemical_formula_sum   'Si8 Se12 I8'
_cell_volume   1131.70067119
_cell_formula_units_Z   4
loop_
 _symmetry_equiv_pos_site_id
 _symmetry_equiv_pos_as_xyz
  1  'x, y, z'
loop_
 _atom_site_type_symbol
 _atom_site_label
 _atom_site_symmetry_multiplicity
 _atom_site_fract_x
 _atom_site_fract_y
 _atom_site_fract_z
 _atom_site_occupancy
  Si  Si0  1  0.812294  0.281069  0.769714  1
  Si  Si1  1  0.468776  0.187706  0.769714  1
  Si  Si2  1  0.333333  0.666667  0.945557  1
  Si  Si3  1  0.187706  0.718931  0.230286  1
  Si  Si4  1  0.531224  0.812294  0.230286  1
  Si  Si5  1  0.281069  0.468776  0.230286  1
  Si  Si6  1  0.666667  0.333333  0.054443  1
  Si  Si7  1  0.718931  0.531224  0.769714  1
  Se  Se8  1  0.609147  0.115462  0.682489  1
  Se  Se9  1  0.171955  0.723206  0.002809  1
  Se  Se10  1  0.551251  0.828045  0.002809  1
  Se  Se11  1  0.276794  0.448749  0.002809  1
  Se  Se12  1  0.448749  0.171955  0.997191  1
  Se  Se13  1  0.723206  0.551251  0.997191  1
  Se  Se14  1  0.828045  0.276794  0.997191  1
  Se  Se15  1  0.115462  0.506315  0.317511  1
  Se  Se16  1  0.506315  0.390853  0.682489  1
  Se  Se17  1  0.884538  0.493685  0.682489  1
  Se  Se18  1  0.390853  0.884538  0.317511  1
  Se  Se19  1  0.493685  0.609147  0.317511  1
  I  I20  1  0.978534  0.219428  0.689394  1
  I  I21  1  0.780572  0.759106  0.689394  1
  I  I22  1  0.021466  0.780572  0.310606  1
  I  I23  1  0.759106  0.978534  0.310606  1
  I  I24  1  0.219428  0.240894  0.310606  1
  I  I25  1  0.666667  0.333333  0.298412  1
  I  I26  1  0.333333  0.666667  0.701588  1
  I  I27  1  0.240894  0.021466  0.689394  1
