# generated using pymatgen
data_Li8Tb7HoSi7Bi
_symmetry_space_group_name_H-M   'P 1'
_cell_length_a   8.86192700
_cell_length_b   8.86135323
_cell_length_c   7.13240512
_cell_angle_alpha   90.11802748
_cell_angle_beta   89.99759006
_cell_angle_gamma   119.99981797
_symmetry_Int_Tables_number   1
_chemical_formula_structural   Li8Tb7HoSi7Bi
_chemical_formula_sum   'Li8 Tb7 Ho1 Si7 Bi1'
_cell_volume   485.05886304
_cell_formula_units_Z   1
loop_
 _symmetry_equiv_pos_site_id
 _symmetry_equiv_pos_as_xyz
  1  'x, y, z'
loop_
 _atom_site_type_symbol
 _atom_site_label
 _atom_site_symmetry_multiplicity
 _atom_site_fract_x
 _atom_site_fract_y
 _atom_site_fract_z
 _atom_site_occupancy
  Li  Li0  1  0.166434  0.332914  0.279462  1
  Li  Li1  1  0.170542  0.834660  0.287095  1
  Li  Li2  1  0.664063  0.834654  0.287052  1
  Li  Li3  1  0.833487  0.666859  0.784521  1
  Li  Li4  1  0.821544  0.161000  0.794222  1
  Li  Li5  1  0.339496  0.160996  0.794147  1
  Li  Li6  1  0.339235  0.678488  0.667211  1
  Li  Li7  1  0.664865  0.329780  0.170704  1
  Tb  Tb8  1  0.513972  0.027852  0.494064  1
  Tb  Tb9  1  0.523667  0.492660  0.489973  1
  Tb  Tb10  1  0.969114  0.492654  0.489895  1
  Tb  Tb11  1  0.486012  0.972067  0.996662  1
  Tb  Tb12  1  0.500507  0.519767  0.000700  1
  Tb  Tb13  1  0.019128  0.519691  0.000672  1
  Tb  Tb14  1  0.992676  0.985394  0.496783  1
  Ho  Ho15  1  0.995187  0.990372  0.007148  1
  Si  Si16  1  0.165491  0.832843  0.730268  1
  Si  Si17  1  0.667374  0.832805  0.730124  1
  Si  Si18  1  0.833788  0.667675  0.230604  1
  Si  Si19  1  0.833897  0.166633  0.228086  1
  Si  Si20  1  0.332718  0.166660  0.228052  1
  Si  Si21  1  0.332759  0.665593  0.260651  1
  Si  Si22  1  0.667486  0.334924  0.761097  1
  Bi  Bi23  1  0.166561  0.333060  0.732776  1
