# generated using pymatgen
data_Dy3ErNp2O12
_symmetry_space_group_name_H-M   'P 1'
_cell_length_a   5.52764800
_cell_length_b   7.82962691
_cell_length_c   11.82337976
_cell_angle_alpha   73.81898673
_cell_angle_beta   90.00000000
_cell_angle_gamma   90.00000000
_symmetry_Int_Tables_number   1
_chemical_formula_structural   Dy3ErNp2O12
_chemical_formula_sum   'Dy6 Er2 Np4 O24'
_cell_volume   491.43823855
_cell_formula_units_Z   2
loop_
 _symmetry_equiv_pos_site_id
 _symmetry_equiv_pos_as_xyz
  1  'x, y, z'
loop_
 _atom_site_type_symbol
 _atom_site_label
 _atom_site_symmetry_multiplicity
 _atom_site_fract_x
 _atom_site_fract_y
 _atom_site_fract_z
 _atom_site_occupancy
  Dy  Dy0  1  0.185503  0.205463  0.420716  1
  Dy  Dy1  1  0.185503  0.794537  0.079284  1
  Dy  Dy2  1  0.697808  0.500000  0.250000  1
  Dy  Dy3  1  0.302405  0.500000  0.750000  1
  Dy  Dy4  1  0.745082  0.000000  0.250000  1
  Dy  Dy5  1  0.254812  0.000000  0.750000  1
  Er  Er6  1  0.814262  0.793775  0.579639  1
  Er  Er7  1  0.814262  0.206225  0.920361  1
  Np  Np8  1  0.256583  0.278869  0.113207  1
  Np  Np9  1  0.256583  0.721131  0.386793  1
  Np  Np10  1  0.743612  0.721091  0.886145  1
  Np  Np11  1  0.743612  0.278909  0.613855  1
  O  O12  1  0.450068  0.198729  0.273919  1
  O  O13  1  0.450068  0.801271  0.226081  1
  O  O14  1  0.551002  0.801207  0.725160  1
  O  O15  1  0.551002  0.198793  0.774840  1
  O  O16  1  0.045230  0.055882  0.103507  1
  O  O17  1  0.045230  0.944118  0.396493  1
  O  O18  1  0.953635  0.945728  0.896363  1
  O  O19  1  0.953635  0.054272  0.603637  1
  O  O20  1  0.964241  0.287167  0.232424  1
  O  O21  1  0.964241  0.712833  0.267576  1
  O  O22  1  0.035640  0.713079  0.767144  1
  O  O23  1  0.035640  0.286921  0.732856  1
  O  O24  1  0.872120  0.372156  0.445152  1
  O  O25  1  0.872120  0.627844  0.054848  1
  O  O26  1  0.125873  0.628588  0.555209  1
  O  O27  1  0.125873  0.371412  0.944791  1
  O  O28  1  0.613162  0.519625  0.616698  1
  O  O29  1  0.613162  0.480375  0.883302  1
  O  O30  1  0.387609  0.481401  0.383305  1
  O  O31  1  0.387609  0.518599  0.116695  1
  O  O32  1  0.444951  0.152352  0.569454  1
  O  O33  1  0.444951  0.847648  0.930546  1
  O  O34  1  0.556455  0.847565  0.431809  1
  O  O35  1  0.556455  0.152435  0.068191  1
