# generated using pymatgen
data_ZrTi4Al16GaPt7
_symmetry_space_group_name_H-M   'P 1'
_cell_length_a   8.66633014
_cell_length_b   8.69926726
_cell_length_c   8.69929074
_cell_angle_alpha   59.74957576
_cell_angle_beta   60.12508357
_cell_angle_gamma   60.13023101
_symmetry_Int_Tables_number   1
_chemical_formula_structural   ZrTi4Al16GaPt7
_chemical_formula_sum   'Zr1 Ti4 Al16 Ga1 Pt7'
_cell_volume   463.75672896
_cell_formula_units_Z   1
loop_
 _symmetry_equiv_pos_site_id
 _symmetry_equiv_pos_as_xyz
  1  'x, y, z'
loop_
 _atom_site_type_symbol
 _atom_site_label
 _atom_site_symmetry_multiplicity
 _atom_site_fract_x
 _atom_site_fract_y
 _atom_site_fract_z
 _atom_site_occupancy
  Zr  Zr0  1  0.809686  0.190314  0.190426  1
  Ti  Ti1  1  0.791846  0.208154  0.792997  1
  Ti  Ti2  1  0.791882  0.793067  0.208181  1
  Ti  Ti3  1  0.206791  0.793209  0.207936  1
  Ti  Ti4  1  0.206933  0.208118  0.793130  1
  Al  Al5  1  0.878316  0.842768  0.842647  1
  Al  Al6  1  0.852334  0.826479  0.469047  1
  Al  Al7  1  0.436318  0.842579  0.842772  1
  Al  Al8  1  0.852231  0.468857  0.826500  1
  Al  Al9  1  0.173521  0.147666  0.147860  1
  Al  Al10  1  0.157232  0.121684  0.563731  1
  Al  Al11  1  0.157421  0.563682  0.121669  1
  Al  Al12  1  0.531143  0.147769  0.147588  1
  Al  Al13  1  0.620385  0.616578  0.616857  1
  Al  Al14  1  0.629203  0.620631  0.120995  1
  Al  Al15  1  0.146078  0.616840  0.616816  1
  Al  Al16  1  0.629279  0.121067  0.620663  1
  Al  Al17  1  0.379369  0.370797  0.370826  1
  Al  Al18  1  0.383422  0.379615  0.853820  1
  Al  Al19  1  0.383160  0.853922  0.379734  1
  Al  Al20  1  0.878933  0.370721  0.371007  1
  Ga  Ga21  1  0.040505  0.959495  0.959583  1
  Pt  Pt22  1  0.012622  0.487466  0.487308  1
  Pt  Pt23  1  0.512534  0.987378  0.987397  1
  Pt  Pt24  1  0.508184  0.995357  0.491534  1
  Pt  Pt25  1  0.508205  0.491795  0.995299  1
  Pt  Pt26  1  0.004643  0.491816  0.995075  1
  Pt  Pt27  1  0.004801  0.995199  0.491582  1
  Pt  Pt28  1  0.513027  0.486973  0.487015  1
