# generated using pymatgen
data_Y2Th2Ga12Tc
_symmetry_space_group_name_H-M   'P 1'
_cell_length_a   7.62434579
_cell_length_b   7.54780561
_cell_length_c   7.62434637
_cell_angle_alpha   109.42140917
_cell_angle_beta   109.97735539
_cell_angle_gamma   109.42141839
_symmetry_Int_Tables_number   1
_chemical_formula_structural   Y2Th2Ga12Tc
_chemical_formula_sum   'Y2 Th2 Ga12 Tc1'
_cell_volume   336.04361710
_cell_formula_units_Z   1
loop_
 _symmetry_equiv_pos_site_id
 _symmetry_equiv_pos_as_xyz
  1  'x, y, z'
loop_
 _atom_site_type_symbol
 _atom_site_label
 _atom_site_symmetry_multiplicity
 _atom_site_fract_x
 _atom_site_fract_y
 _atom_site_fract_z
 _atom_site_occupancy
  Y  Y0  1  0.000000  0.000000  0.500000  1
  Y  Y1  1  0.500000  0.000000  0.000000  1
  Th  Th2  1  0.000000  0.500000  0.000000  1
  Th  Th3  1  0.500000  0.500000  0.500000  1
  Ga  Ga4  1  0.750215  0.244263  0.494048  1
  Ga  Ga5  1  0.750000  0.500000  0.250000  1
  Ga  Ga6  1  0.494048  0.244263  0.750215  1
  Ga  Ga7  1  0.250000  0.500000  0.750000  1
  Ga  Ga8  1  0.249785  0.755737  0.505952  1
  Ga  Ga9  1  0.505952  0.755737  0.249785  1
  Ga  Ga10  1  0.708480  0.712430  0.003950  1
  Ga  Ga11  1  0.291976  0.000000  0.291976  1
  Ga  Ga12  1  0.996050  0.287570  0.291520  1
  Ga  Ga13  1  0.291520  0.287570  0.996050  1
  Ga  Ga14  1  0.708024  0.000000  0.708024  1
  Ga  Ga15  1  0.003950  0.712430  0.708480  1
  Tc  Tc16  1  0.000000  0.000000  0.000000  1
