# generated using pymatgen
data_Sr20Cd3Pt8Au
_symmetry_space_group_name_H-M   'P 1'
_cell_length_a   8.30948600
_cell_length_b   8.30948600
_cell_length_c   15.74858600
_cell_angle_alpha   90.00000000
_cell_angle_beta   90.00000000
_cell_angle_gamma   90.00000000
_symmetry_Int_Tables_number   1
_chemical_formula_structural   Sr20Cd3Pt8Au
_chemical_formula_sum   'Sr20 Cd3 Pt8 Au1'
_cell_volume   1087.40139870
_cell_formula_units_Z   1
loop_
 _symmetry_equiv_pos_site_id
 _symmetry_equiv_pos_as_xyz
  1  'x, y, z'
loop_
 _atom_site_type_symbol
 _atom_site_label
 _atom_site_symmetry_multiplicity
 _atom_site_fract_x
 _atom_site_fract_y
 _atom_site_fract_z
 _atom_site_occupancy
  Sr  Sr0  1  0.000000  0.000000  0.756054  1
  Sr  Sr1  1  0.500000  0.500000  0.251298  1
  Sr  Sr2  1  0.000000  0.000000  0.243946  1
  Sr  Sr3  1  0.500000  0.500000  0.748702  1
  Sr  Sr4  1  0.173520  0.660670  0.115777  1
  Sr  Sr5  1  0.667468  0.165146  0.620179  1
  Sr  Sr6  1  0.826480  0.339330  0.115777  1
  Sr  Sr7  1  0.332532  0.834854  0.620179  1
  Sr  Sr8  1  0.339330  0.173520  0.115777  1
  Sr  Sr9  1  0.834854  0.667468  0.620179  1
  Sr  Sr10  1  0.660670  0.826480  0.115777  1
  Sr  Sr11  1  0.165146  0.332532  0.620179  1
  Sr  Sr12  1  0.339330  0.826480  0.884223  1
  Sr  Sr13  1  0.834854  0.332532  0.379821  1
  Sr  Sr14  1  0.660670  0.173520  0.884223  1
  Sr  Sr15  1  0.165146  0.667468  0.379821  1
  Sr  Sr16  1  0.173520  0.339330  0.884223  1
  Sr  Sr17  1  0.667468  0.834854  0.379821  1
  Sr  Sr18  1  0.826480  0.660670  0.884223  1
  Sr  Sr19  1  0.332532  0.165146  0.379821  1
  Cd  Cd20  1  0.000000  0.000000  0.500000  1
  Cd  Cd21  1  0.000000  0.000000  0.000000  1
  Cd  Cd22  1  0.500000  0.500000  0.500000  1
  Pt  Pt23  1  0.627617  0.127335  0.247892  1
  Pt  Pt24  1  0.127335  0.627617  0.752108  1
  Pt  Pt25  1  0.872665  0.372383  0.752108  1
  Pt  Pt26  1  0.372383  0.872665  0.247892  1
  Pt  Pt27  1  0.372383  0.127335  0.752108  1
  Pt  Pt28  1  0.872665  0.627617  0.247892  1
  Pt  Pt29  1  0.127335  0.372383  0.247892  1
  Pt  Pt30  1  0.627617  0.872665  0.752108  1
  Au  Au31  1  0.500000  0.500000  0.000000  1
