# generated using pymatgen
data_Yb5Cd(SbN)2
_symmetry_space_group_name_H-M   'P 1'
_cell_length_a   6.90017600
_cell_length_b   6.88726000
_cell_length_c   9.22635600
_cell_angle_alpha   90.00000000
_cell_angle_beta   90.00000000
_cell_angle_gamma   90.00000000
_symmetry_Int_Tables_number   1
_chemical_formula_structural   Yb5Cd(SbN)2
_chemical_formula_sum   'Yb10 Cd2 Sb4 N4'
_cell_volume   438.46694091
_cell_formula_units_Z   2
loop_
 _symmetry_equiv_pos_site_id
 _symmetry_equiv_pos_as_xyz
  1  'x, y, z'
loop_
 _atom_site_type_symbol
 _atom_site_label
 _atom_site_symmetry_multiplicity
 _atom_site_fract_x
 _atom_site_fract_y
 _atom_site_fract_z
 _atom_site_occupancy
  Yb  Yb0  1  0.750470  0.750315  0.991219  1
  Yb  Yb1  1  0.749530  0.250315  0.508781  1
  Yb  Yb2  1  0.249304  0.249744  0.518351  1
  Yb  Yb3  1  0.250696  0.749744  0.981649  1
  Yb  Yb4  1  0.249304  0.249744  0.981649  1
  Yb  Yb5  1  0.250696  0.749744  0.518351  1
  Yb  Yb6  1  0.750470  0.750315  0.508781  1
  Yb  Yb7  1  0.749530  0.250315  0.991219  1
  Yb  Yb8  1  0.490384  0.000516  0.250000  1
  Yb  Yb9  1  0.009616  0.500516  0.250000  1
  Cd  Cd10  1  0.513672  0.000494  0.750000  1
  Cd  Cd11  1  0.986328  0.500494  0.750000  1
  Sb  Sb12  1  0.499607  0.499142  0.250000  1
  Sb  Sb13  1  0.000393  0.999142  0.250000  1
  Sb  Sb14  1  0.506355  0.499306  0.750000  1
  Sb  Sb15  1  0.993645  0.999306  0.750000  1
  N  N16  1  0.001019  0.500212  0.996216  1
  N  N17  1  0.498981  0.000212  0.503784  1
  N  N18  1  0.001019  0.500212  0.503784  1
  N  N19  1  0.498981  0.000212  0.996216  1
