# generated using pymatgen
data_Tb8LuSc11Si15Ir
_symmetry_space_group_name_H-M   'P 1'
_cell_length_a   7.11024950
_cell_length_b   7.47776267
_cell_length_c   14.02551504
_cell_angle_alpha   89.95076977
_cell_angle_beta   90.03747730
_cell_angle_gamma   90.21302084
_symmetry_Int_Tables_number   1
_chemical_formula_structural   Tb8LuSc11Si15Ir
_chemical_formula_sum   'Tb8 Lu1 Sc11 Si15 Ir1'
_cell_volume   745.71363244
_cell_formula_units_Z   1
loop_
 _symmetry_equiv_pos_site_id
 _symmetry_equiv_pos_as_xyz
  1  'x, y, z'
loop_
 _atom_site_type_symbol
 _atom_site_label
 _atom_site_symmetry_multiplicity
 _atom_site_fract_x
 _atom_site_fract_y
 _atom_site_fract_z
 _atom_site_occupancy
  Tb  Tb0  1  0.011830  0.179018  0.096449  1
  Tb  Tb1  1  0.990433  0.825257  0.905267  1
  Tb  Tb2  1  0.488955  0.676321  0.905763  1
  Tb  Tb3  1  0.989185  0.824099  0.596451  1
  Tb  Tb4  1  0.511559  0.323452  0.096473  1
  Tb  Tb5  1  0.011890  0.178677  0.402983  1
  Tb  Tb6  1  0.512274  0.323407  0.401902  1
  Tb  Tb7  1  0.488936  0.676938  0.595657  1
  Lu  Lu8  1  0.318628  0.172283  0.626214  1
  Sc  Sc9  1  0.156626  0.502087  0.751459  1
  Sc  Sc10  1  0.838929  0.496741  0.249752  1
  Sc  Sc11  1  0.339802  0.004701  0.249277  1
  Sc  Sc12  1  0.668479  0.997041  0.751029  1
  Sc  Sc13  1  0.672747  0.825525  0.372250  1
  Sc  Sc14  1  0.171583  0.677412  0.372784  1
  Sc  Sc15  1  0.672429  0.826133  0.126450  1
  Sc  Sc16  1  0.834529  0.320192  0.627774  1
  Sc  Sc17  1  0.318730  0.172118  0.873435  1
  Sc  Sc18  1  0.835011  0.320076  0.873452  1
  Sc  Sc19  1  0.171650  0.677657  0.125930  1
  Si  Si20  1  0.970198  0.884517  0.249496  1
  Si  Si21  1  0.469596  0.615077  0.249302  1
  Si  Si22  1  0.530430  0.390617  0.751809  1
  Si  Si23  1  0.285556  0.865861  0.751782  1
  Si  Si24  1  0.713890  0.129495  0.249546  1
  Si  Si25  1  0.213158  0.372639  0.249484  1
  Si  Si26  1  0.779382  0.625083  0.750937  1
  Si  Si27  1  0.154691  0.472143  0.536553  1
  Si  Si28  1  0.843055  0.536716  0.460902  1
  Si  Si29  1  0.348068  0.963408  0.457065  1
  Si  Si30  1  0.844159  0.535992  0.039021  1
  Si  Si31  1  0.660418  0.033780  0.536437  1
  Si  Si32  1  0.158511  0.467583  0.962916  1
  Si  Si33  1  0.655162  0.034584  0.961887  1
  Si  Si34  1  0.345872  0.966129  0.039954  1
  Ir  Ir35  1  0.023645  0.107240  0.752155  1
