# generated using pymatgen
data_Pr7NdCd2IrOs
_symmetry_space_group_name_H-M   'P 1'
_cell_length_a   10.01674495
_cell_length_b   10.01674562
_cell_length_c   10.06509200
_cell_angle_alpha   59.84020997
_cell_angle_beta   59.84020773
_cell_angle_gamma   59.68671646
_symmetry_Int_Tables_number   1
_chemical_formula_structural   Pr7NdCd2IrOs
_chemical_formula_sum   'Pr14 Nd2 Cd4 Ir2 Os2'
_cell_volume   710.67167534
_cell_formula_units_Z   2
loop_
 _symmetry_equiv_pos_site_id
 _symmetry_equiv_pos_as_xyz
  1  'x, y, z'
loop_
 _atom_site_type_symbol
 _atom_site_label
 _atom_site_symmetry_multiplicity
 _atom_site_fract_x
 _atom_site_fract_y
 _atom_site_fract_z
 _atom_site_occupancy
  Pr  Pr0  1  0.345596  0.960102  0.347151  1
  Pr  Pr1  1  0.960102  0.345596  0.347151  1
  Pr  Pr2  1  0.810234  0.190923  0.191082  1
  Pr  Pr3  1  0.190923  0.810234  0.807760  1
  Pr  Pr4  1  0.190923  0.810234  0.191082  1
  Pr  Pr5  1  0.810234  0.190923  0.807760  1
  Pr  Pr6  1  0.191039  0.191039  0.808961  1
  Pr  Pr7  1  0.808801  0.808801  0.191199  1
  Pr  Pr8  1  0.939582  0.558485  0.561864  1
  Pr  Pr9  1  0.558485  0.939582  0.940069  1
  Pr  Pr10  1  0.558485  0.939582  0.561864  1
  Pr  Pr11  1  0.939582  0.558485  0.940069  1
  Pr  Pr12  1  0.561109  0.561109  0.938891  1
  Pr  Pr13  1  0.940708  0.940708  0.559292  1
  Nd  Nd14  1  0.346260  0.346260  0.347996  1
  Nd  Nd15  1  0.346260  0.346260  0.959481  1
  Cd  Cd16  1  0.579138  0.579138  0.580014  1
  Cd  Cd17  1  0.579138  0.579138  0.261710  1
  Cd  Cd18  1  0.578909  0.261031  0.580030  1
  Cd  Cd19  1  0.261031  0.578909  0.580030  1
  Ir  Ir20  1  0.142920  0.578622  0.139230  1
  Ir  Ir21  1  0.578622  0.142920  0.139230  1
  Os  Os22  1  0.140959  0.140959  0.136883  1
  Os  Os23  1  0.140959  0.140959  0.581199  1
