# generated using pymatgen
data_MnOsCl6
_symmetry_space_group_name_H-M   'P 1'
_cell_length_a   6.24650347
_cell_length_b   6.24652584
_cell_length_c   6.58892224
_cell_angle_alpha   99.06541922
_cell_angle_beta   99.05951197
_cell_angle_gamma   119.89516938
_symmetry_Int_Tables_number   1
_chemical_formula_structural   MnOsCl6
_chemical_formula_sum   'Mn1 Os1 Cl6'
_cell_volume   211.57224916
_cell_formula_units_Z   1
loop_
 _symmetry_equiv_pos_site_id
 _symmetry_equiv_pos_as_xyz
  1  'x, y, z'
loop_
 _atom_site_type_symbol
 _atom_site_label
 _atom_site_symmetry_multiplicity
 _atom_site_fract_x
 _atom_site_fract_y
 _atom_site_fract_z
 _atom_site_occupancy
  Mn  Mn0  1  0.832428  0.167287  0.999727  1
  Os  Os1  1  0.166489  0.833596  0.000098  1
  Cl  Cl2  1  0.554151  0.918676  0.214372  1
  Cl  Cl3  1  0.934624  0.587655  0.213438  1
  Cl  Cl4  1  0.221894  0.206666  0.214710  1
  Cl  Cl5  1  0.793395  0.778010  0.785343  1
  Cl  Cl6  1  0.412261  0.065414  0.786608  1
  Cl  Cl7  1  0.081482  0.445977  0.785709  1
