# generated using pymatgen
data_HfMg2(AsPd)3
_symmetry_space_group_name_H-M   'P 1'
_cell_length_a   6.92966129
_cell_length_b   6.92966126
_cell_length_c   3.78547500
_cell_angle_alpha   90.00000000
_cell_angle_beta   90.00000000
_cell_angle_gamma   119.90692019
_symmetry_Int_Tables_number   1
_chemical_formula_structural   HfMg2(AsPd)3
_chemical_formula_sum   'Hf1 Mg2 As3 Pd3'
_cell_volume   157.57292726
_cell_formula_units_Z   1
loop_
 _symmetry_equiv_pos_site_id
 _symmetry_equiv_pos_as_xyz
  1  'x, y, z'
loop_
 _atom_site_type_symbol
 _atom_site_label
 _atom_site_symmetry_multiplicity
 _atom_site_fract_x
 _atom_site_fract_y
 _atom_site_fract_z
 _atom_site_occupancy
  Hf  Hf0  1  0.405106  0.405106  0.000000  1
  Mg  Mg1  1  0.593835  0.990682  0.000000  1
  Mg  Mg2  1  0.990682  0.593835  0.000000  1
  As  As3  1  0.336178  0.649105  0.500000  1
  As  As4  1  0.649105  0.336178  0.500000  1
  As  As5  1  0.018633  0.018633  0.000000  1
  Pd  Pd6  1  0.263950  0.976778  0.500000  1
  Pd  Pd7  1  0.976778  0.263950  0.500000  1
  Pd  Pd8  1  0.765733  0.765733  0.500000  1
