# generated using pymatgen
data_ScCdIO6
_symmetry_space_group_name_H-M   'P 1'
_cell_length_a   5.36197900
_cell_length_b   5.36197736
_cell_length_c   4.85723200
_cell_angle_alpha   90.00000000
_cell_angle_beta   90.00000000
_cell_angle_gamma   119.99999161
_symmetry_Int_Tables_number   1
_chemical_formula_structural   ScCdIO6
_chemical_formula_sum   'Sc1 Cd1 I1 O6'
_cell_volume   120.93989871
_cell_formula_units_Z   1
loop_
 _symmetry_equiv_pos_site_id
 _symmetry_equiv_pos_as_xyz
  1  'x, y, z'
loop_
 _atom_site_type_symbol
 _atom_site_label
 _atom_site_symmetry_multiplicity
 _atom_site_fract_x
 _atom_site_fract_y
 _atom_site_fract_z
 _atom_site_occupancy
  Sc  Sc0  1  0.333333  0.666666  0.500000  1
  Cd  Cd1  1  0.666667  0.333333  0.000000  1
  I  I2  1  0.000000  0.000000  0.500000  1
  O  O3  1  0.017101  0.304535  0.281298  1
  O  O4  1  0.695464  0.712566  0.281298  1
  O  O5  1  0.287434  0.982898  0.281298  1
  O  O6  1  0.287433  0.304535  0.718702  1
  O  O7  1  0.017101  0.712566  0.718702  1
  O  O8  1  0.695465  0.982898  0.718702  1
