# generated using pymatgen
data_Nd2TmIn5
_symmetry_space_group_name_H-M   'P 1'
_cell_length_a   6.53684431
_cell_length_b   6.53684550
_cell_length_c   10.47787500
_cell_angle_alpha   90.00000000
_cell_angle_beta   90.00000000
_cell_angle_gamma   102.99227956
_symmetry_Int_Tables_number   1
_chemical_formula_structural   Nd2TmIn5
_chemical_formula_sum   'Nd4 Tm2 In10'
_cell_volume   436.26162666
_cell_formula_units_Z   2
loop_
 _symmetry_equiv_pos_site_id
 _symmetry_equiv_pos_as_xyz
  1  'x, y, z'
loop_
 _atom_site_type_symbol
 _atom_site_label
 _atom_site_symmetry_multiplicity
 _atom_site_fract_x
 _atom_site_fract_y
 _atom_site_fract_z
 _atom_site_occupancy
  Nd  Nd0  1  0.703275  0.296725  0.000000  1
  Nd  Nd1  1  0.703275  0.296725  0.500000  1
  Nd  Nd2  1  0.296725  0.703275  0.000000  1
  Nd  Nd3  1  0.296725  0.703275  0.500000  1
  Tm  Tm4  1  0.124507  0.124507  0.750000  1
  Tm  Tm5  1  0.875493  0.875493  0.250000  1
  In  In6  1  0.506779  0.506779  0.750000  1
  In  In7  1  0.493221  0.493221  0.250000  1
  In  In8  1  0.812781  0.812781  0.546345  1
  In  In9  1  0.187219  0.187219  0.453655  1
  In  In10  1  0.812781  0.812781  0.953655  1
  In  In11  1  0.187219  0.187219  0.046345  1
  In  In12  1  0.998377  0.564511  0.750000  1
  In  In13  1  0.435489  0.001623  0.250000  1
  In  In14  1  0.001623  0.435489  0.250000  1
  In  In15  1  0.564511  0.998377  0.750000  1
