# generated using pymatgen
data_TbEr7(WC2)4
_symmetry_space_group_name_H-M   'P 1'
_cell_length_a   5.71857132
_cell_length_b   5.71857155
_cell_length_c   9.79590798
_cell_angle_alpha   89.83576058
_cell_angle_beta   89.83575687
_cell_angle_gamma   89.94879571
_symmetry_Int_Tables_number   1
_chemical_formula_structural   TbEr7(WC2)4
_chemical_formula_sum   'Tb1 Er7 W4 C8'
_cell_volume   320.34360539
_cell_formula_units_Z   1
loop_
 _symmetry_equiv_pos_site_id
 _symmetry_equiv_pos_as_xyz
  1  'x, y, z'
loop_
 _atom_site_type_symbol
 _atom_site_label
 _atom_site_symmetry_multiplicity
 _atom_site_fract_x
 _atom_site_fract_y
 _atom_site_fract_z
 _atom_site_occupancy
  Tb  Tb0  1  0.799403  0.799403  0.658053  1
  Er  Er1  1  0.200107  0.200107  0.341577  1
  Er  Er2  1  0.301121  0.701298  0.842992  1
  Er  Er3  1  0.701298  0.301121  0.842992  1
  Er  Er4  1  0.701708  0.300534  0.158107  1
  Er  Er5  1  0.300534  0.701708  0.158107  1
  Er  Er6  1  0.199544  0.199544  0.657195  1
  Er  Er7  1  0.798608  0.798608  0.342099  1
  W  W8  1  0.320106  0.676217  0.498742  1
  W  W9  1  0.823301  0.823301  0.001334  1
  W  W10  1  0.180058  0.180058  0.001184  1
  W  W11  1  0.676217  0.320106  0.498742  1
  C  C12  1  0.000720  0.000720  0.156691  1
  C  C13  1  0.496757  0.496757  0.655200  1
  C  C14  1  0.496027  0.998913  0.497494  1
  C  C15  1  0.499242  0.499242  0.343267  1
  C  C16  1  0.002770  0.002770  0.846268  1
  C  C17  1  0.501641  0.001924  0.001233  1
  C  C18  1  0.001924  0.501641  0.001233  1
  C  C19  1  0.998913  0.496027  0.497494  1
