# generated using pymatgen
data_Tb9Dy3(TmRh3)2
_symmetry_space_group_name_H-M   'P 1'
_cell_length_a   9.81458600
_cell_length_b   9.81458580
_cell_length_c   6.18401200
_cell_angle_alpha   90.00000000
_cell_angle_beta   90.00000000
_cell_angle_gamma   120.00000740
_symmetry_Int_Tables_number   1
_chemical_formula_structural   Tb9Dy3(TmRh3)2
_chemical_formula_sum   'Tb9 Dy3 Tm2 Rh6'
_cell_volume   515.87547767
_cell_formula_units_Z   1
loop_
 _symmetry_equiv_pos_site_id
 _symmetry_equiv_pos_as_xyz
  1  'x, y, z'
loop_
 _atom_site_type_symbol
 _atom_site_label
 _atom_site_symmetry_multiplicity
 _atom_site_fract_x
 _atom_site_fract_y
 _atom_site_fract_z
 _atom_site_occupancy
  Tb  Tb0  1  0.875794  0.751587  0.741228  1
  Tb  Tb1  1  0.248413  0.124206  0.741228  1
  Tb  Tb2  1  0.875794  0.124206  0.741228  1
  Tb  Tb3  1  0.124180  0.248361  0.241139  1
  Tb  Tb4  1  0.751639  0.875820  0.241139  1
  Tb  Tb5  1  0.124180  0.875820  0.241139  1
  Tb  Tb6  1  0.459146  0.918293  0.547794  1
  Tb  Tb7  1  0.081707  0.540854  0.547794  1
  Tb  Tb8  1  0.459146  0.540854  0.547794  1
  Dy  Dy9  1  0.541104  0.082208  0.047998  1
  Dy  Dy10  1  0.917792  0.458896  0.047998  1
  Dy  Dy11  1  0.541104  0.458896  0.047998  1
  Tm  Tm12  1  0.666667  0.333333  0.532930  1
  Tm  Tm13  1  0.333333  0.666667  0.033215  1
  Rh  Rh14  1  0.190450  0.380899  0.813643  1
  Rh  Rh15  1  0.619101  0.809550  0.813643  1
  Rh  Rh16  1  0.190450  0.809550  0.813643  1
  Rh  Rh17  1  0.809432  0.618865  0.313298  1
  Rh  Rh18  1  0.381135  0.190568  0.313298  1
  Rh  Rh19  1  0.809432  0.190568  0.313298  1
