# generated using pymatgen
data_Ac2PdI2
_symmetry_space_group_name_H-M   'P 1'
_cell_length_a   12.39918333
_cell_length_b   12.39918282
_cell_length_c   12.39918218
_cell_angle_alpha   20.72621515
_cell_angle_beta   20.72620702
_cell_angle_gamma   20.72621521
_symmetry_Int_Tables_number   1
_chemical_formula_structural   Ac2PdI2
_chemical_formula_sum   'Ac2 Pd1 I2'
_cell_volume   209.01932697
_cell_formula_units_Z   1
loop_
 _symmetry_equiv_pos_site_id
 _symmetry_equiv_pos_as_xyz
  1  'x, y, z'
loop_
 _atom_site_type_symbol
 _atom_site_label
 _atom_site_symmetry_multiplicity
 _atom_site_fract_x
 _atom_site_fract_y
 _atom_site_fract_z
 _atom_site_occupancy
  Ac  Ac0  1  0.381823  0.381823  0.381823  1
  Ac  Ac1  1  0.618177  0.618177  0.618177  1
  Pd  Pd2  1  0.000000  0.000000  0.000000  1
  I  I3  1  0.221443  0.221443  0.221443  1
  I  I4  1  0.778557  0.778557  0.778557  1
