# generated using pymatgen
data_Zr5InGaSb2
_symmetry_space_group_name_H-M   'P 1'
_cell_length_a   8.75657400
_cell_length_b   8.71417706
_cell_length_c   5.87426100
_cell_angle_alpha   90.00000000
_cell_angle_beta   90.00000000
_cell_angle_gamma   120.16107321
_symmetry_Int_Tables_number   1
_chemical_formula_structural   Zr5InGaSb2
_chemical_formula_sum   'Zr10 In2 Ga2 Sb4'
_cell_volume   387.55851833
_cell_formula_units_Z   2
loop_
 _symmetry_equiv_pos_site_id
 _symmetry_equiv_pos_as_xyz
  1  'x, y, z'
loop_
 _atom_site_type_symbol
 _atom_site_label
 _atom_site_symmetry_multiplicity
 _atom_site_fract_x
 _atom_site_fract_y
 _atom_site_fract_z
 _atom_site_occupancy
  Zr  Zr0  1  0.999857  0.264831  0.250000  1
  Zr  Zr1  1  0.728389  0.000000  0.750000  1
  Zr  Zr2  1  0.735026  0.735169  0.250000  1
  Zr  Zr3  1  0.665021  0.331439  0.501117  1
  Zr  Zr4  1  0.001960  0.731856  0.750000  1
  Zr  Zr5  1  0.270104  0.268144  0.750000  1
  Zr  Zr6  1  0.333582  0.668561  0.998883  1
  Zr  Zr7  1  0.665021  0.331439  0.998883  1
  Zr  Zr8  1  0.333582  0.668561  0.501117  1
  Zr  Zr9  1  0.266677  0.000000  0.250000  1
  In  In10  1  0.000128  0.385179  0.750000  1
  In  In11  1  0.614949  0.614821  0.750000  1
  Ga  Ga12  1  0.998601  0.000000  0.993738  1
  Ga  Ga13  1  0.998601  0.000000  0.506262  1
  Sb  Sb14  1  0.611328  0.000000  0.250000  1
  Sb  Sb15  1  0.387806  0.000000  0.750000  1
  Sb  Sb16  1  0.391018  0.392665  0.250000  1
  Sb  Sb17  1  0.998354  0.607335  0.250000  1
