# generated using pymatgen
data_Y3TmTh6(Ge5Rh2)4
_symmetry_space_group_name_H-M   'P 1'
_cell_length_a   13.12176228
_cell_length_b   13.12176228
_cell_length_c   4.38333700
_cell_angle_alpha   90.00000000
_cell_angle_beta   90.00000000
_cell_angle_gamma   89.97629007
_symmetry_Int_Tables_number   1
_chemical_formula_structural   Y3TmTh6(Ge5Rh2)4
_chemical_formula_sum   'Y3 Tm1 Th6 Ge20 Rh8'
_cell_volume   754.72572885
_cell_formula_units_Z   1
loop_
 _symmetry_equiv_pos_site_id
 _symmetry_equiv_pos_as_xyz
  1  'x, y, z'
loop_
 _atom_site_type_symbol
 _atom_site_label
 _atom_site_symmetry_multiplicity
 _atom_site_fract_x
 _atom_site_fract_y
 _atom_site_fract_z
 _atom_site_occupancy
  Y  Y0  1  0.324809  0.824809  0.500000  1
  Y  Y1  1  0.824711  0.675285  0.500000  1
  Y  Y2  1  0.175285  0.324711  0.500000  1
  Tm  Tm3  1  0.674718  0.174718  0.500000  1
  Th  Th4  1  0.112275  0.612275  0.500000  1
  Th  Th5  1  0.612398  0.888078  0.500000  1
  Th  Th6  1  0.388078  0.112398  0.500000  1
  Th  Th7  1  0.887273  0.387273  0.500000  1
  Th  Th8  1  0.500042  0.499878  0.000000  1
  Th  Th9  1  0.999878  0.000042  0.000000  1
  Ge  Ge10  1  0.337867  0.496470  0.500000  1
  Ge  Ge11  1  0.662152  0.503659  0.500000  1
  Ge  Ge12  1  0.504268  0.337539  0.500000  1
  Ge  Ge13  1  0.496570  0.662171  0.500000  1
  Ge  Ge14  1  0.996470  0.837867  0.500000  1
  Ge  Ge15  1  0.837539  0.004268  0.500000  1
  Ge  Ge16  1  0.162171  0.996570  0.500000  1
  Ge  Ge17  1  0.003659  0.162152  0.500000  1
  Ge  Ge18  1  0.338019  0.300431  0.000000  1
  Ge  Ge19  1  0.662260  0.699511  0.000000  1
  Ge  Ge20  1  0.699316  0.337061  0.000000  1
  Ge  Ge21  1  0.300549  0.662214  0.000000  1
  Ge  Ge22  1  0.800431  0.838019  0.000000  1
  Ge  Ge23  1  0.837061  0.199316  0.000000  1
  Ge  Ge24  1  0.162214  0.800549  0.000000  1
  Ge  Ge25  1  0.199511  0.162260  0.000000  1
  Ge  Ge26  1  0.433368  0.933368  0.000000  1
  Ge  Ge27  1  0.933170  0.566726  0.000000  1
  Ge  Ge28  1  0.567245  0.067245  0.000000  1
  Ge  Ge29  1  0.066726  0.433170  0.000000  1
  Rh  Rh30  1  0.244189  0.977562  0.000000  1
  Rh  Rh31  1  0.755391  0.023211  0.000000  1
  Rh  Rh32  1  0.022147  0.244084  0.000000  1
  Rh  Rh33  1  0.977522  0.755862  0.000000  1
  Rh  Rh34  1  0.477562  0.744189  0.000000  1
  Rh  Rh35  1  0.744084  0.522147  0.000000  1
  Rh  Rh36  1  0.255862  0.477522  0.000000  1
  Rh  Rh37  1  0.523211  0.255391  0.000000  1
