# generated using pymatgen
data_Tb10HgBi4Sb
_symmetry_space_group_name_H-M   'P 1'
_cell_length_a   9.11523100
_cell_length_b   9.11522941
_cell_length_c   6.43351600
_cell_angle_alpha   90.00000000
_cell_angle_beta   90.00000000
_cell_angle_gamma   119.76594894
_symmetry_Int_Tables_number   1
_chemical_formula_structural   Tb10HgBi4Sb
_chemical_formula_sum   'Tb10 Hg1 Bi4 Sb1'
_cell_volume   464.01683701
_cell_formula_units_Z   1
loop_
 _symmetry_equiv_pos_site_id
 _symmetry_equiv_pos_as_xyz
  1  'x, y, z'
loop_
 _atom_site_type_symbol
 _atom_site_label
 _atom_site_symmetry_multiplicity
 _atom_site_fract_x
 _atom_site_fract_y
 _atom_site_fract_z
 _atom_site_occupancy
  Tb  Tb0  1  0.658930  0.338369  0.000234  1
  Tb  Tb1  1  0.338369  0.658930  0.000234  1
  Tb  Tb2  1  0.338369  0.658930  0.499766  1
  Tb  Tb3  1  0.658930  0.338369  0.499766  1
  Tb  Tb4  1  0.753446  0.753446  0.750000  1
  Tb  Tb5  1  0.242909  0.009250  0.750000  1
  Tb  Tb6  1  0.009250  0.242909  0.750000  1
  Tb  Tb7  1  0.245418  0.245418  0.250000  1
  Tb  Tb8  1  0.757608  0.995718  0.250000  1
  Tb  Tb9  1  0.995718  0.757608  0.250000  1
  Hg  Hg10  1  0.391507  0.391507  0.750000  1
  Bi  Bi11  1  0.610696  0.003802  0.750000  1
  Bi  Bi12  1  0.003802  0.610696  0.750000  1
  Bi  Bi13  1  0.389356  0.994628  0.250000  1
  Bi  Bi14  1  0.994628  0.389356  0.250000  1
  Sb  Sb15  1  0.611066  0.611066  0.250000  1
