# generated using pymatgen
data_LiDy3Co7NiP6
_symmetry_space_group_name_H-M   'P 1'
_cell_length_a   3.72872800
_cell_length_b   10.55132400
_cell_length_c   12.21567600
_cell_angle_alpha   90.00000000
_cell_angle_beta   90.00000000
_cell_angle_gamma   90.00000000
_symmetry_Int_Tables_number   1
_chemical_formula_structural   LiDy3Co7NiP6
_chemical_formula_sum   'Li2 Dy6 Co14 Ni2 P12'
_cell_volume   480.60155142
_cell_formula_units_Z   2
loop_
 _symmetry_equiv_pos_site_id
 _symmetry_equiv_pos_as_xyz
  1  'x, y, z'
loop_
 _atom_site_type_symbol
 _atom_site_label
 _atom_site_symmetry_multiplicity
 _atom_site_fract_x
 _atom_site_fract_y
 _atom_site_fract_z
 _atom_site_occupancy
  Li  Li0  1  0.500000  0.500000  0.153044  1
  Li  Li1  1  0.000000  0.000000  0.846956  1
  Dy  Dy2  1  0.000000  0.500000  0.520664  1
  Dy  Dy3  1  0.500000  0.000000  0.479336  1
  Dy  Dy4  1  0.500000  0.817106  0.205158  1
  Dy  Dy5  1  0.500000  0.182894  0.205158  1
  Dy  Dy6  1  0.000000  0.682894  0.794842  1
  Dy  Dy7  1  0.000000  0.317106  0.794842  1
  Co  Co8  1  0.000000  0.500000  0.987071  1
  Co  Co9  1  0.500000  0.000000  0.012929  1
  Co  Co10  1  0.500000  0.332753  0.996669  1
  Co  Co11  1  0.500000  0.667247  0.996669  1
  Co  Co12  1  0.000000  0.167247  0.003331  1
  Co  Co13  1  0.000000  0.832753  0.003331  1
  Co  Co14  1  0.500000  0.297314  0.431293  1
  Co  Co15  1  0.500000  0.702686  0.431293  1
  Co  Co16  1  0.000000  0.202686  0.568707  1
  Co  Co17  1  0.000000  0.797314  0.568707  1
  Co  Co18  1  0.500000  0.877862  0.707464  1
  Co  Co19  1  0.500000  0.122138  0.707464  1
  Co  Co20  1  0.000000  0.622138  0.292536  1
  Co  Co21  1  0.000000  0.377862  0.292536  1
  Ni  Ni22  1  0.500000  0.500000  0.703872  1
  Ni  Ni23  1  0.000000  0.000000  0.296128  1
  P  P24  1  0.500000  0.500000  0.885773  1
  P  P25  1  0.000000  0.000000  0.114227  1
  P  P26  1  0.500000  0.500000  0.345457  1
  P  P27  1  0.000000  0.000000  0.654543  1
  P  P28  1  0.500000  0.308706  0.614922  1
  P  P29  1  0.500000  0.691294  0.614922  1
  P  P30  1  0.000000  0.191294  0.385078  1
  P  P31  1  0.000000  0.808706  0.385078  1
  P  P32  1  0.500000  0.843966  0.893667  1
  P  P33  1  0.500000  0.156034  0.893667  1
  P  P34  1  0.000000  0.656034  0.106333  1
  P  P35  1  0.000000  0.343966  0.106333  1
