# generated using pymatgen
data_Sc10TiSi16Mo9
_symmetry_space_group_name_H-M   'P 1'
_cell_length_a   6.80817833
_cell_length_b   6.80103080
_cell_length_c   12.52542735
_cell_angle_alpha   89.94700882
_cell_angle_beta   89.98485854
_cell_angle_gamma   89.70431758
_symmetry_Int_Tables_number   1
_chemical_formula_structural   Sc10TiSi16Mo9
_chemical_formula_sum   'Sc10 Ti1 Si16 Mo9'
_cell_volume   579.95224388
_cell_formula_units_Z   1
loop_
 _symmetry_equiv_pos_site_id
 _symmetry_equiv_pos_as_xyz
  1  'x, y, z'
loop_
 _atom_site_type_symbol
 _atom_site_label
 _atom_site_symmetry_multiplicity
 _atom_site_fract_x
 _atom_site_fract_y
 _atom_site_fract_z
 _atom_site_occupancy
  Sc  Sc0  1  0.002365  0.337200  0.216628  1
  Sc  Sc1  1  0.161243  0.498104  0.470130  1
  Sc  Sc2  1  0.842248  0.496720  0.968617  1
  Sc  Sc3  1  0.499317  0.161928  0.531661  1
  Sc  Sc4  1  0.498104  0.843354  0.029985  1
  Sc  Sc5  1  0.001022  0.659157  0.720384  1
  Sc  Sc6  1  0.338358  0.003883  0.783181  1
  Sc  Sc7  1  0.661418  0.002705  0.279473  1
  Sc  Sc8  1  0.331440  0.668123  0.248167  1
  Sc  Sc9  1  0.832586  0.831658  0.501002  1
  Ti  Ti10  1  0.667219  0.330904  0.752270  1
  Si  Si11  1  0.041031  0.294440  0.814977  1
  Si  Si12  1  0.205850  0.534499  0.058988  1
  Si  Si13  1  0.796435  0.454813  0.564699  1
  Si  Si14  1  0.536701  0.207127  0.938379  1
  Si  Si15  1  0.457055  0.797499  0.438784  1
  Si  Si16  1  0.957512  0.701886  0.310954  1
  Si  Si17  1  0.294099  0.046243  0.183661  1
  Si  Si18  1  0.700686  0.963070  0.689605  1
  Si  Si19  1  0.295960  0.366565  0.679432  1
  Si  Si20  1  0.130469  0.799102  0.928612  1
  Si  Si21  1  0.867451  0.207466  0.428234  1
  Si  Si22  1  0.798883  0.130883  0.070402  1
  Si  Si23  1  0.207901  0.867485  0.572718  1
  Si  Si24  1  0.708113  0.632192  0.177989  1
  Si  Si25  1  0.367378  0.292532  0.321693  1
  Si  Si26  1  0.632841  0.704487  0.820590  1
  Mo  Mo27  1  0.996782  0.157603  0.625737  1
  Mo  Mo28  1  0.345806  0.498606  0.871174  1
  Mo  Mo29  1  0.655703  0.502696  0.374328  1
  Mo  Mo30  1  0.501250  0.344746  0.126284  1
  Mo  Mo31  1  0.505389  0.654046  0.628063  1
  Mo  Mo32  1  0.002970  0.837026  0.121054  1
  Mo  Mo33  1  0.156308  0.998274  0.376013  1
  Mo  Mo34  1  0.834443  0.004261  0.877283  1
  Mo  Mo35  1  0.167659  0.168716  0.998853  1
