# generated using pymatgen
data_Dy6Al24Ir3Ru3Pt2
_symmetry_space_group_name_H-M   'P 1'
_cell_length_a   8.82994865
_cell_length_b   8.83117546
_cell_length_c   9.53395597
_cell_angle_alpha   89.94862178
_cell_angle_beta   90.12557056
_cell_angle_gamma   119.85406847
_symmetry_Int_Tables_number   1
_chemical_formula_structural   Dy6Al24Ir3Ru3Pt2
_chemical_formula_sum   'Dy6 Al24 Ir3 Ru3 Pt2'
_cell_volume   644.78684131
_cell_formula_units_Z   1
loop_
 _symmetry_equiv_pos_site_id
 _symmetry_equiv_pos_as_xyz
  1  'x, y, z'
loop_
 _atom_site_type_symbol
 _atom_site_label
 _atom_site_symmetry_multiplicity
 _atom_site_fract_x
 _atom_site_fract_y
 _atom_site_fract_z
 _atom_site_occupancy
  Dy  Dy0  1  0.192830  0.807625  0.251221  1
  Dy  Dy1  1  0.191626  0.384176  0.250051  1
  Dy  Dy2  1  0.614964  0.808271  0.248244  1
  Dy  Dy3  1  0.807170  0.192375  0.748779  1
  Dy  Dy4  1  0.808374  0.615824  0.749949  1
  Dy  Dy5  1  0.385036  0.191729  0.751756  1
  Al  Al6  1  0.563173  0.436551  0.252345  1
  Al  Al7  1  0.562331  0.125038  0.250028  1
  Al  Al8  1  0.874933  0.437471  0.246319  1
  Al  Al9  1  0.436827  0.563449  0.747655  1
  Al  Al10  1  0.437669  0.874962  0.749972  1
  Al  Al11  1  0.125067  0.562529  0.753681  1
  Al  Al12  1  0.326257  0.163393  0.424295  1
  Al  Al13  1  0.833581  0.159095  0.421402  1
  Al  Al14  1  0.833236  0.674755  0.423416  1
  Al  Al15  1  0.673743  0.836607  0.575705  1
  Al  Al16  1  0.166419  0.840905  0.578598  1
  Al  Al17  1  0.166764  0.325245  0.576584  1
  Al  Al18  1  0.674177  0.840342  0.923839  1
  Al  Al19  1  0.161363  0.834595  0.922705  1
  Al  Al20  1  0.157127  0.325588  0.924103  1
  Al  Al21  1  0.325823  0.159658  0.076161  1
  Al  Al22  1  0.838637  0.165405  0.077295  1
  Al  Al23  1  0.842873  0.674412  0.075897  1
  Al  Al24  1  0.663330  0.331888  0.532850  1
  Al  Al25  1  0.336670  0.668112  0.467150  1
  Al  Al26  1  0.328808  0.666706  0.031605  1
  Al  Al27  1  0.671192  0.333294  0.968395  1
  Al  Al28  1  0.998835  0.000251  0.249979  1
  Al  Al29  1  0.001165  0.999749  0.750021  1
  Ir  Ir30  1  0.500000  0.500000  0.500000  1
  Ir  Ir31  1  0.500000  0.000000  0.500000  1
  Ir  Ir32  1  0.500000  0.000000  0.000000  1
  Ru  Ru33  1  0.000000  0.000000  0.500000  1
  Ru  Ru34  1  0.000000  0.000000  0.000000  1
  Ru  Ru35  1  0.000000  0.500000  0.000000  1
  Pt  Pt36  1  0.000000  0.500000  0.500000  1
  Pt  Pt37  1  0.500000  0.500000  0.000000  1
