# generated using pymatgen
data_Rb6Na4ErNbAs6
_symmetry_space_group_name_H-M   'P 1'
_cell_length_a   11.12347565
_cell_length_b   11.12347422
_cell_length_c   16.05494200
_cell_angle_alpha   90.00000000
_cell_angle_beta   90.00000000
_cell_angle_gamma   143.12246138
_symmetry_Int_Tables_number   1
_chemical_formula_structural   Rb6Na4ErNbAs6
_chemical_formula_sum   'Rb12 Na8 Er2 Nb2 As12'
_cell_volume   1192.11503479
_cell_formula_units_Z   2
loop_
 _symmetry_equiv_pos_site_id
 _symmetry_equiv_pos_as_xyz
  1  'x, y, z'
loop_
 _atom_site_type_symbol
 _atom_site_label
 _atom_site_symmetry_multiplicity
 _atom_site_fract_x
 _atom_site_fract_y
 _atom_site_fract_z
 _atom_site_occupancy
  Rb  Rb0  1  0.944903  0.603368  0.825478  1
  Rb  Rb1  1  0.555097  0.896632  0.325478  1
  Rb  Rb2  1  0.396632  0.055097  0.174522  1
  Rb  Rb3  1  0.053092  0.391863  0.177143  1
  Rb  Rb4  1  0.891863  0.553092  0.322857  1
  Rb  Rb5  1  0.446908  0.108137  0.677143  1
  Rb  Rb6  1  0.608137  0.946908  0.822857  1
  Rb  Rb7  1  0.279755  0.276314  0.317495  1
  Rb  Rb8  1  0.776314  0.779755  0.182505  1
  Rb  Rb9  1  0.220245  0.223686  0.817495  1
  Rb  Rb10  1  0.723686  0.720245  0.682505  1
  Rb  Rb11  1  0.103368  0.444903  0.674522  1
  Na  Na12  1  0.918504  0.081496  0.000000  1
  Na  Na13  1  0.581496  0.418504  0.500000  1
  Na  Na14  1  0.080640  0.919360  0.000000  1
  Na  Na15  1  0.419360  0.580640  0.500000  1
  Na  Na16  1  0.755480  0.244520  0.000000  1
  Na  Na17  1  0.744520  0.255480  0.500000  1
  Na  Na18  1  0.246390  0.753610  0.000000  1
  Na  Na19  1  0.253610  0.746390  0.500000  1
  Er  Er20  1  0.413019  0.586981  0.000000  1
  Er  Er21  1  0.086981  0.913019  0.500000  1
  Nb  Nb22  1  0.584969  0.415031  0.000000  1
  Nb  Nb23  1  0.915031  0.084969  0.500000  1
  As  As24  1  0.859016  0.553801  0.091934  1
  As  As25  1  0.446199  0.140984  0.908066  1
  As  As26  1  0.640984  0.946199  0.591934  1
  As  As27  1  0.931589  0.610522  0.601957  1
  As  As28  1  0.110522  0.431589  0.898043  1
  As  As29  1  0.568411  0.889478  0.101957  1
  As  As30  1  0.389478  0.068411  0.398043  1
  As  As31  1  0.190235  0.207960  0.588648  1
  As  As32  1  0.707960  0.690235  0.911352  1
  As  As33  1  0.309765  0.292040  0.088648  1
  As  As34  1  0.053801  0.359016  0.408066  1
  As  As35  1  0.792040  0.809765  0.411352  1
