# generated using pymatgen
data_Th3Si2Ag3Hg
_symmetry_space_group_name_H-M   'P 1'
_cell_length_a   7.27371300
_cell_length_b   7.27371391
_cell_length_c   4.49637700
_cell_angle_alpha   90.00000000
_cell_angle_beta   90.00000000
_cell_angle_gamma   120.00000041
_symmetry_Int_Tables_number   1
_chemical_formula_structural   Th3Si2Ag3Hg
_chemical_formula_sum   'Th3 Si2 Ag3 Hg1'
_cell_volume   206.01826431
_cell_formula_units_Z   1
loop_
 _symmetry_equiv_pos_site_id
 _symmetry_equiv_pos_as_xyz
  1  'x, y, z'
loop_
 _atom_site_type_symbol
 _atom_site_label
 _atom_site_symmetry_multiplicity
 _atom_site_fract_x
 _atom_site_fract_y
 _atom_site_fract_z
 _atom_site_occupancy
  Th  Th0  1  0.427903  0.000000  0.500000  1
  Th  Th1  1  0.000000  0.427903  0.500000  1
  Th  Th2  1  0.572097  0.572097  0.500000  1
  Si  Si3  1  0.333333  0.666667  0.000000  1
  Si  Si4  1  0.666667  0.333333  0.000000  1
  Ag  Ag5  1  0.742378  0.000000  0.000000  1
  Ag  Ag6  1  0.000000  0.742378  0.000000  1
  Ag  Ag7  1  0.257622  0.257622  0.000000  1
  Hg  Hg8  1  0.000000  0.000000  0.500000  1
