# generated using pymatgen
data_V2CdHgO7
_symmetry_space_group_name_H-M   'P 1'
_cell_length_a   5.89287707
_cell_length_b   5.89287779
_cell_length_c   5.12035040
_cell_angle_alpha   81.26896354
_cell_angle_beta   81.26895770
_cell_angle_gamma   103.38439771
_symmetry_Int_Tables_number   1
_chemical_formula_structural   V2CdHgO7
_chemical_formula_sum   'V2 Cd1 Hg1 O7'
_cell_volume   167.71326979
_cell_formula_units_Z   1
loop_
 _symmetry_equiv_pos_site_id
 _symmetry_equiv_pos_as_xyz
  1  'x, y, z'
loop_
 _atom_site_type_symbol
 _atom_site_label
 _atom_site_symmetry_multiplicity
 _atom_site_fract_x
 _atom_site_fract_y
 _atom_site_fract_z
 _atom_site_occupancy
  V  V0  1  0.780897  0.777581  0.908552  1
  V  V1  1  0.222419  0.219103  0.091448  1
  Cd  Cd2  1  0.687845  0.312155  0.500000  1
  Hg  Hg3  1  0.300758  0.699242  0.500000  1
  O  O4  1  0.395149  0.088523  0.285088  1
  O  O5  1  0.911477  0.604851  0.714912  1
  O  O6  1  0.626255  0.935491  0.727689  1
  O  O7  1  0.064509  0.373745  0.272311  1
  O  O8  1  0.015667  0.984333  0.000000  1
  O  O9  1  0.391265  0.396242  0.789965  1
  O  O10  1  0.603758  0.608735  0.210035  1
