# generated using pymatgen
data_Yb5U5O19
_symmetry_space_group_name_H-M   'P 1'
_cell_length_a   6.74695765
_cell_length_b   7.40046462
_cell_length_c   8.36379826
_cell_angle_alpha   97.95243720
_cell_angle_beta   97.66992510
_cell_angle_gamma   107.88477209
_symmetry_Int_Tables_number   1
_chemical_formula_structural   Yb5U5O19
_chemical_formula_sum   'Yb5 U5 O19'
_cell_volume   386.68752447
_cell_formula_units_Z   1
loop_
 _symmetry_equiv_pos_site_id
 _symmetry_equiv_pos_as_xyz
  1  'x, y, z'
loop_
 _atom_site_type_symbol
 _atom_site_label
 _atom_site_symmetry_multiplicity
 _atom_site_fract_x
 _atom_site_fract_y
 _atom_site_fract_z
 _atom_site_occupancy
  Yb  Yb0  1  0.804208  0.105363  0.603011  1
  Yb  Yb1  1  0.383741  0.298535  0.797786  1
  Yb  Yb2  1  0.608233  0.704155  0.204878  1
  Yb  Yb3  1  0.998398  0.499627  0.994550  1
  Yb  Yb4  1  0.205915  0.908791  0.388866  1
  U  U5  1  0.778175  0.597122  0.601113  1
  U  U6  1  0.605055  0.204904  0.197441  1
  U  U7  1  0.001047  0.003766  0.996844  1
  U  U8  1  0.411278  0.807310  0.815126  1
  U  U9  1  0.201434  0.387013  0.390542  1
  O  O10  1  0.341585  0.054416  0.957387  1
  O  O11  1  0.427962  0.981106  0.653167  1
  O  O12  1  0.039239  0.211398  0.860958  1
  O  O13  1  0.720687  0.389338  0.734427  1
  O  O14  1  0.154459  0.183493  0.529321  1
  O  O15  1  0.363641  0.601370  0.951463  1
  O  O16  1  0.948851  0.262585  0.163538  1
  O  O17  1  0.901962  0.392882  0.462486  1
  O  O18  1  0.747847  0.854948  0.767054  1
  O  O19  1  0.545347  0.450019  0.365256  1
  O  O20  1  0.405058  0.558771  0.629050  1
  O  O21  1  0.255437  0.138156  0.230689  1
  O  O22  1  0.064942  0.719750  0.794271  1
  O  O23  1  0.642805  0.406064  0.062406  1
  O  O24  1  0.862924  0.798863  0.464712  1
  O  O25  1  0.248516  0.615188  0.280239  1
  O  O26  1  0.959480  0.789756  0.122377  1
  O  O27  1  0.574688  0.013033  0.344529  1
  O  O28  1  0.661003  0.949918  0.044750  1
