# generated using pymatgen
data_La4Nd3AlI12
_symmetry_space_group_name_H-M   'P 1'
_cell_length_a   10.08995373
_cell_length_b   10.09074601
_cell_length_c   10.09750800
_cell_angle_alpha   107.81832282
_cell_angle_beta   107.82833432
_cell_angle_gamma   107.80508765
_symmetry_Int_Tables_number   1
_chemical_formula_structural   La4Nd3AlI12
_chemical_formula_sum   'La4 Nd3 Al1 I12'
_cell_volume   836.37281064
_cell_formula_units_Z   1
loop_
 _symmetry_equiv_pos_site_id
 _symmetry_equiv_pos_as_xyz
  1  'x, y, z'
loop_
 _atom_site_type_symbol
 _atom_site_label
 _atom_site_symmetry_multiplicity
 _atom_site_fract_x
 _atom_site_fract_y
 _atom_site_fract_z
 _atom_site_occupancy
  La  La0  1  0.540499  0.613552  0.825962  1
  La  La1  1  0.825633  0.540537  0.613674  1
  La  La2  1  0.612370  0.825629  0.541130  1
  La  La3  1  0.464347  0.389415  0.173553  1
  Nd  Nd4  1  0.179270  0.464436  0.392171  1
  Nd  Nd5  1  0.390755  0.178538  0.463763  1
  Nd  Nd6  1  0.980174  0.980335  0.980731  1
  Al  Al7  1  0.496253  0.496063  0.496578  1
  I  I8  1  0.268720  0.811360  0.421722  1
  I  I9  1  0.421116  0.267421  0.808550  1
  I  I10  1  0.815105  0.422071  0.270388  1
  I  I11  1  0.727831  0.186831  0.574158  1
  I  I12  1  0.575711  0.732724  0.187614  1
  I  I13  1  0.186849  0.574226  0.728280  1
  I  I14  1  0.029106  0.107554  0.334919  1
  I  I15  1  0.333177  0.024994  0.107628  1
  I  I16  1  0.103993  0.334610  0.028721  1
  I  I17  1  0.978532  0.894949  0.652150  1
  I  I18  1  0.651421  0.978777  0.894964  1
  I  I19  1  0.894507  0.651350  0.978714  1
