# generated using pymatgen
data_Nd4U(BN3)2
_symmetry_space_group_name_H-M   'P 1'
_cell_length_a   6.38288267
_cell_length_b   6.38288245
_cell_length_c   8.73775647
_cell_angle_alpha   74.30285508
_cell_angle_beta   74.30285400
_cell_angle_gamma   32.38885155
_symmetry_Int_Tables_number   1
_chemical_formula_structural   Nd4U(BN3)2
_chemical_formula_sum   'Nd4 U1 B2 N6'
_cell_volume   182.96450511
_cell_formula_units_Z   1
loop_
 _symmetry_equiv_pos_site_id
 _symmetry_equiv_pos_as_xyz
  1  'x, y, z'
loop_
 _atom_site_type_symbol
 _atom_site_label
 _atom_site_symmetry_multiplicity
 _atom_site_fract_x
 _atom_site_fract_y
 _atom_site_fract_z
 _atom_site_occupancy
  Nd  Nd0  1  0.622488  0.622488  0.623530  1
  Nd  Nd1  1  0.309443  0.309443  0.815034  1
  Nd  Nd2  1  0.690557  0.690557  0.184966  1
  Nd  Nd3  1  0.377512  0.377512  0.376470  1
  U  U4  1  0.000000  0.000000  0.000000  1
  B  B5  1  0.054686  0.054686  0.408259  1
  B  B6  1  0.945314  0.945314  0.591741  1
  N  N7  1  0.026889  0.026889  0.249869  1
  N  N8  1  0.368471  0.368471  0.073736  1
  N  N9  1  0.824075  0.824075  0.595552  1
  N  N10  1  0.973111  0.973111  0.750131  1
  N  N11  1  0.631529  0.631529  0.926264  1
  N  N12  1  0.175925  0.175925  0.404448  1
