# generated using pymatgen
data_Ho2Mn3Co6Ni3P7
_symmetry_space_group_name_H-M   'P 1'
_cell_length_a   9.05068500
_cell_length_b   9.05068477
_cell_length_c   3.63422400
_cell_angle_alpha   90.00000000
_cell_angle_beta   90.00000000
_cell_angle_gamma   120.00001181
_symmetry_Int_Tables_number   1
_chemical_formula_structural   Ho2Mn3Co6Ni3P7
_chemical_formula_sum   'Ho2 Mn3 Co6 Ni3 P7'
_cell_volume   257.81320690
_cell_formula_units_Z   1
loop_
 _symmetry_equiv_pos_site_id
 _symmetry_equiv_pos_as_xyz
  1  'x, y, z'
loop_
 _atom_site_type_symbol
 _atom_site_label
 _atom_site_symmetry_multiplicity
 _atom_site_fract_x
 _atom_site_fract_y
 _atom_site_fract_z
 _atom_site_occupancy
  Ho  Ho0  1  0.666667  0.333333  0.000000  1
  Ho  Ho1  1  0.333333  0.666667  0.500000  1
  Mn  Mn2  1  0.095790  0.218000  0.500000  1
  Mn  Mn3  1  0.782000  0.877791  0.500000  1
  Mn  Mn4  1  0.122209  0.904210  0.500000  1
  Co  Co5  1  0.277214  0.157617  0.000000  1
  Co  Co6  1  0.842383  0.119597  0.000000  1
  Co  Co7  1  0.880403  0.722786  0.000000  1
  Co  Co8  1  0.436941  0.387605  0.500000  1
  Co  Co9  1  0.612395  0.049335  0.500000  1
  Co  Co10  1  0.950665  0.563059  0.500000  1
  Ni  Ni11  1  0.063289  0.432237  0.000000  1
  Ni  Ni12  1  0.567763  0.631052  0.000000  1
  Ni  Ni13  1  0.368948  0.936711  0.000000  1
  P  P14  1  0.300287  0.408805  0.000000  1
  P  P15  1  0.591195  0.891482  0.000000  1
  P  P16  1  0.108518  0.699713  0.000000  1
  P  P17  1  0.404788  0.118804  0.500000  1
  P  P18  1  0.881196  0.285984  0.500000  1
  P  P19  1  0.714016  0.595212  0.500000  1
  P  P20  1  0.000000  0.000000  0.000000  1
