# generated using pymatgen
data_HoEr7Ga3Fe
_symmetry_space_group_name_H-M   'P 1'
_cell_length_a   9.89398900
_cell_length_b   9.89399077
_cell_length_c   6.92844900
_cell_angle_alpha   90.00000000
_cell_angle_beta   90.00000000
_cell_angle_gamma   120.00000410
_symmetry_Int_Tables_number   1
_chemical_formula_structural   HoEr7Ga3Fe
_chemical_formula_sum   'Ho2 Er14 Ga6 Fe2'
_cell_volume   587.36702637
_cell_formula_units_Z   2
loop_
 _symmetry_equiv_pos_site_id
 _symmetry_equiv_pos_as_xyz
  1  'x, y, z'
loop_
 _atom_site_type_symbol
 _atom_site_label
 _atom_site_symmetry_multiplicity
 _atom_site_fract_x
 _atom_site_fract_y
 _atom_site_fract_z
 _atom_site_occupancy
  Ho  Ho0  1  0.000000  0.000000  0.268798  1
  Ho  Ho1  1  0.000000  0.000000  0.768798  1
  Er  Er2  1  0.173516  0.826484  0.989839  1
  Er  Er3  1  0.826484  0.173516  0.489839  1
  Er  Er4  1  0.173516  0.347032  0.989839  1
  Er  Er5  1  0.652968  0.826484  0.989839  1
  Er  Er6  1  0.347032  0.173516  0.489839  1
  Er  Er7  1  0.826484  0.652968  0.489839  1
  Er  Er8  1  0.333333  0.666667  0.671328  1
  Er  Er9  1  0.666667  0.333333  0.171328  1
  Er  Er10  1  0.463154  0.536846  0.293648  1
  Er  Er11  1  0.536846  0.463154  0.793648  1
  Er  Er12  1  0.463154  0.926308  0.293648  1
  Er  Er13  1  0.073692  0.536846  0.293648  1
  Er  Er14  1  0.926308  0.463154  0.793648  1
  Er  Er15  1  0.536846  0.073692  0.793648  1
  Ga  Ga16  1  0.164156  0.835844  0.542529  1
  Ga  Ga17  1  0.835844  0.164156  0.042529  1
  Ga  Ga18  1  0.164156  0.328311  0.542529  1
  Ga  Ga19  1  0.671689  0.835844  0.542529  1
  Ga  Ga20  1  0.328311  0.164156  0.042529  1
  Ga  Ga21  1  0.835844  0.671689  0.042529  1
  Fe  Fe22  1  0.333333  0.666667  0.054884  1
  Fe  Fe23  1  0.666667  0.333333  0.554884  1
