# generated using pymatgen
data_Tb13Y3Cd4Os3Pd
_symmetry_space_group_name_H-M   'P 1'
_cell_length_a   9.67731346
_cell_length_b   9.77785392
_cell_length_c   9.77811094
_cell_angle_alpha   59.73599685
_cell_angle_beta   59.35106329
_cell_angle_gamma   59.32577504
_symmetry_Int_Tables_number   1
_chemical_formula_structural   Tb13Y3Cd4Os3Pd
_chemical_formula_sum   'Tb13 Y3 Cd4 Os3 Pd1'
_cell_volume   646.34732749
_cell_formula_units_Z   1
loop_
 _symmetry_equiv_pos_site_id
 _symmetry_equiv_pos_as_xyz
  1  'x, y, z'
loop_
 _atom_site_type_symbol
 _atom_site_label
 _atom_site_symmetry_multiplicity
 _atom_site_fract_x
 _atom_site_fract_y
 _atom_site_fract_z
 _atom_site_occupancy
  Tb  Tb0  1  0.347461  0.351209  0.351213  1
  Tb  Tb1  1  0.345997  0.351984  0.953128  1
  Tb  Tb2  1  0.345855  0.953557  0.351730  1
  Tb  Tb3  1  0.967621  0.343954  0.344132  1
  Tb  Tb4  1  0.814524  0.189908  0.190424  1
  Tb  Tb5  1  0.184423  0.810458  0.810653  1
  Tb  Tb6  1  0.186887  0.810569  0.191226  1
  Tb  Tb7  1  0.814845  0.189622  0.802916  1
  Tb  Tb8  1  0.186689  0.191065  0.810865  1
  Tb  Tb9  1  0.814795  0.803206  0.189761  1
  Tb  Tb10  1  0.937251  0.560668  0.560122  1
  Tb  Tb11  1  0.553280  0.939992  0.940341  1
  Tb  Tb12  1  0.552993  0.939380  0.567701  1
  Y  Y13  1  0.935411  0.561681  0.939312  1
  Y  Y14  1  0.553706  0.567651  0.939121  1
  Y  Y15  1  0.935358  0.939049  0.561719  1
  Cd  Cd16  1  0.580452  0.579375  0.579549  1
  Cd  Cd17  1  0.581011  0.579535  0.258943  1
  Cd  Cd18  1  0.581200  0.258941  0.579503  1
  Cd  Cd19  1  0.255878  0.581456  0.581346  1
  Os  Os20  1  0.148647  0.136920  0.136684  1
  Os  Os21  1  0.149787  0.138563  0.578747  1
  Os  Os22  1  0.149541  0.578566  0.138815  1
  Pd  Pd23  1  0.576391  0.142693  0.142048  1
