# generated using pymatgen
data_Lu6CoNi
_symmetry_space_group_name_H-M   'P 1'
_cell_length_a   6.16549700
_cell_length_b   6.74067200
_cell_length_c   9.16204900
_cell_angle_alpha   90.00000000
_cell_angle_beta   90.00000000
_cell_angle_gamma   90.00000000
_symmetry_Int_Tables_number   1
_chemical_formula_structural   Lu6CoNi
_chemical_formula_sum   'Lu12 Co2 Ni2'
_cell_volume   380.77102743
_cell_formula_units_Z   2
loop_
 _symmetry_equiv_pos_site_id
 _symmetry_equiv_pos_as_xyz
  1  'x, y, z'
loop_
 _atom_site_type_symbol
 _atom_site_label
 _atom_site_symmetry_multiplicity
 _atom_site_fract_x
 _atom_site_fract_y
 _atom_site_fract_z
 _atom_site_occupancy
  Lu  Lu0  1  0.322647  0.680679  0.062898  1
  Lu  Lu1  1  0.177353  0.180679  0.437102  1
  Lu  Lu2  1  0.680814  0.321939  0.568104  1
  Lu  Lu3  1  0.819186  0.821939  0.931896  1
  Lu  Lu4  1  0.680814  0.321939  0.931896  1
  Lu  Lu5  1  0.819186  0.821939  0.568104  1
  Lu  Lu6  1  0.322647  0.680679  0.437102  1
  Lu  Lu7  1  0.177353  0.180679  0.062898  1
  Lu  Lu8  1  0.865277  0.534437  0.250000  1
  Lu  Lu9  1  0.634723  0.034437  0.250000  1
  Lu  Lu10  1  0.134615  0.459631  0.750000  1
  Lu  Lu11  1  0.365385  0.959631  0.750000  1
  Co  Co12  1  0.960922  0.108439  0.750000  1
  Co  Co13  1  0.539078  0.608439  0.750000  1
  Ni  Ni14  1  0.053124  0.892256  0.250000  1
  Ni  Ni15  1  0.446876  0.392256  0.250000  1
