# generated using pymatgen
data_Cs2Rb2PaBiTe6
_symmetry_space_group_name_H-M   'P 1'
_cell_length_a   15.17730700
_cell_length_b   7.67480298
_cell_length_c   10.05227532
_cell_angle_alpha   70.53718880
_cell_angle_beta   90.00000000
_cell_angle_gamma   90.00000000
_symmetry_Int_Tables_number   1
_chemical_formula_structural   Cs2Rb2PaBiTe6
_chemical_formula_sum   'Cs4 Rb4 Pa2 Bi2 Te12'
_cell_volume   1104.00896238
_cell_formula_units_Z   2
loop_
 _symmetry_equiv_pos_site_id
 _symmetry_equiv_pos_as_xyz
  1  'x, y, z'
loop_
 _atom_site_type_symbol
 _atom_site_label
 _atom_site_symmetry_multiplicity
 _atom_site_fract_x
 _atom_site_fract_y
 _atom_site_fract_z
 _atom_site_occupancy
  Cs  Cs0  1  0.952331  0.667769  0.669024  1
  Cs  Cs1  1  0.452331  0.832231  0.330976  1
  Cs  Cs2  1  0.045888  0.331618  0.335245  1
  Cs  Cs3  1  0.545888  0.168382  0.664755  1
  Rb  Rb4  1  0.868703  0.084171  0.898983  1
  Rb  Rb5  1  0.368703  0.415829  0.101017  1
  Rb  Rb6  1  0.132205  0.929546  0.099787  1
  Rb  Rb7  1  0.632205  0.570454  0.900213  1
  Pa  Pa8  1  0.750221  0.653507  0.286542  1
  Pa  Pa9  1  0.250221  0.846493  0.713458  1
  Bi  Bi10  1  0.250454  0.351438  0.706090  1
  Bi  Bi11  1  0.750454  0.148562  0.293910  1
  Te  Te12  1  0.911838  0.895317  0.275563  1
  Te  Te13  1  0.411838  0.604683  0.724437  1
  Te  Te14  1  0.088457  0.075270  0.725413  1
  Te  Te15  1  0.588457  0.424730  0.274587  1
  Te  Te16  1  0.816719  0.318414  0.521448  1
  Te  Te17  1  0.316719  0.181586  0.478552  1
  Te  Te18  1  0.182050  0.712011  0.480419  1
  Te  Te19  1  0.682050  0.787989  0.519581  1
  Te  Te20  1  0.843458  0.519129  0.072122  1
  Te  Te21  1  0.343458  0.980871  0.927878  1
  Te  Te22  1  0.157677  0.518008  0.926637  1
  Te  Te23  1  0.657677  0.981992  0.073363  1
