# generated using pymatgen
data_Tb13Ho3(In3Ru)2
_symmetry_space_group_name_H-M   'P 1'
_cell_length_a   10.45601000
_cell_length_b   10.45601062
_cell_length_c   7.05850700
_cell_angle_alpha   90.00000000
_cell_angle_beta   90.00000000
_cell_angle_gamma   119.99999803
_symmetry_Int_Tables_number   1
_chemical_formula_structural   Tb13Ho3(In3Ru)2
_chemical_formula_sum   'Tb13 Ho3 In6 Ru2'
_cell_volume   668.30620853
_cell_formula_units_Z   1
loop_
 _symmetry_equiv_pos_site_id
 _symmetry_equiv_pos_as_xyz
  1  'x, y, z'
loop_
 _atom_site_type_symbol
 _atom_site_label
 _atom_site_symmetry_multiplicity
 _atom_site_fract_x
 _atom_site_fract_y
 _atom_site_fract_z
 _atom_site_occupancy
  Tb  Tb0  1  0.533117  0.066233  0.507947  1
  Tb  Tb1  1  0.933767  0.466883  0.507947  1
  Tb  Tb2  1  0.533117  0.466883  0.507947  1
  Tb  Tb3  1  0.466761  0.933523  0.008145  1
  Tb  Tb4  1  0.066477  0.533239  0.008145  1
  Tb  Tb5  1  0.466761  0.533239  0.008145  1
  Tb  Tb6  1  0.177045  0.354090  0.712185  1
  Tb  Tb7  1  0.645910  0.822955  0.712185  1
  Tb  Tb8  1  0.177045  0.822955  0.712185  1
  Tb  Tb9  1  0.823073  0.646146  0.212388  1
  Tb  Tb10  1  0.353854  0.176927  0.212388  1
  Tb  Tb11  1  0.823073  0.176927  0.212388  1
  Tb  Tb12  1  0.666667  0.333333  0.884397  1
  Ho  Ho13  1  0.333333  0.666667  0.384920  1
  Ho  Ho14  1  0.000000  0.000000  0.493111  1
  Ho  Ho15  1  0.000000  0.000000  0.992979  1
  In  In16  1  0.837566  0.675133  0.752382  1
  In  In17  1  0.324867  0.162434  0.752382  1
  In  In18  1  0.837566  0.162434  0.752382  1
  In  In19  1  0.162617  0.325235  0.252406  1
  In  In20  1  0.674765  0.837383  0.252406  1
  In  In21  1  0.162617  0.837383  0.252406  1
  Ru  Ru22  1  0.666667  0.333333  0.283245  1
  Ru  Ru23  1  0.333333  0.666667  0.783033  1
