# generated using pymatgen
data_Y20Cd6CoTc
_symmetry_space_group_name_H-M   'P 1'
_cell_length_a   9.62972500
_cell_length_b   9.62972570
_cell_length_c   9.90355300
_cell_angle_alpha   90.00000000
_cell_angle_beta   90.00000000
_cell_angle_gamma   120.00000103
_symmetry_Int_Tables_number   1
_chemical_formula_structural   Y20Cd6CoTc
_chemical_formula_sum   'Y20 Cd6 Co1 Tc1'
_cell_volume   795.33383537
_cell_formula_units_Z   1
loop_
 _symmetry_equiv_pos_site_id
 _symmetry_equiv_pos_as_xyz
  1  'x, y, z'
loop_
 _atom_site_type_symbol
 _atom_site_label
 _atom_site_symmetry_multiplicity
 _atom_site_fract_x
 _atom_site_fract_y
 _atom_site_fract_z
 _atom_site_occupancy
  Y  Y0  1  0.000000  0.000000  0.499238  1
  Y  Y1  1  0.000000  0.000000  0.000762  1
  Y  Y2  1  0.212234  0.787766  0.436199  1
  Y  Y3  1  0.212234  0.424470  0.436199  1
  Y  Y4  1  0.575530  0.787766  0.436199  1
  Y  Y5  1  0.790582  0.209418  0.559478  1
  Y  Y6  1  0.790582  0.581163  0.559478  1
  Y  Y7  1  0.418837  0.209418  0.559478  1
  Y  Y8  1  0.790582  0.209418  0.940522  1
  Y  Y9  1  0.790582  0.581163  0.940522  1
  Y  Y10  1  0.418837  0.209418  0.940522  1
  Y  Y11  1  0.212234  0.787766  0.063801  1
  Y  Y12  1  0.212234  0.424470  0.063801  1
  Y  Y13  1  0.575530  0.787766  0.063801  1
  Y  Y14  1  0.541871  0.458129  0.250000  1
  Y  Y15  1  0.541871  0.083742  0.250000  1
  Y  Y16  1  0.916258  0.458129  0.250000  1
  Y  Y17  1  0.459031  0.540969  0.750000  1
  Y  Y18  1  0.459031  0.918063  0.750000  1
  Y  Y19  1  0.081937  0.540969  0.750000  1
  Cd  Cd20  1  0.885111  0.114889  0.250000  1
  Cd  Cd21  1  0.885111  0.770222  0.250000  1
  Cd  Cd22  1  0.229778  0.114889  0.250000  1
  Cd  Cd23  1  0.115131  0.884869  0.750000  1
  Cd  Cd24  1  0.115131  0.230263  0.750000  1
  Cd  Cd25  1  0.769737  0.884869  0.750000  1
  Co  Co26  1  0.333333  0.666667  0.250000  1
  Tc  Tc27  1  0.666667  0.333333  0.750000  1
