# generated using pymatgen
data_Nd(Ga3Ni)3
_symmetry_space_group_name_H-M   'P 1'
_cell_length_a   10.17354653
_cell_length_b   10.17354607
_cell_length_c   10.17354463
_cell_angle_alpha   42.34821481
_cell_angle_beta   42.34821944
_cell_angle_gamma   42.34822132
_symmetry_Int_Tables_number   1
_chemical_formula_structural   Nd(Ga3Ni)3
_chemical_formula_sum   'Nd2 Ga18 Ni6'
_cell_volume   432.52601294
_cell_formula_units_Z   2
loop_
 _symmetry_equiv_pos_site_id
 _symmetry_equiv_pos_as_xyz
  1  'x, y, z'
loop_
 _atom_site_type_symbol
 _atom_site_label
 _atom_site_symmetry_multiplicity
 _atom_site_fract_x
 _atom_site_fract_y
 _atom_site_fract_z
 _atom_site_occupancy
  Nd  Nd0  1  0.166931  0.166931  0.166931  1
  Nd  Nd1  1  0.833069  0.833069  0.833069  1
  Ga  Ga2  1  0.050636  0.050636  0.050636  1
  Ga  Ga3  1  0.705833  0.500000  0.294167  1
  Ga  Ga4  1  0.666098  0.333902  0.000000  1
  Ga  Ga5  1  0.103773  0.432000  0.760174  1
  Ga  Ga6  1  0.432000  0.760174  0.103773  1
  Ga  Ga7  1  0.385799  0.385799  0.385799  1
  Ga  Ga8  1  0.333902  0.000000  0.666098  1
  Ga  Ga9  1  0.614201  0.614201  0.614201  1
  Ga  Ga10  1  0.239826  0.568000  0.896227  1
  Ga  Ga11  1  0.568000  0.896227  0.239826  1
  Ga  Ga12  1  0.500000  0.294167  0.705833  1
  Ga  Ga13  1  0.760174  0.103773  0.432000  1
  Ga  Ga14  1  0.949364  0.949364  0.949364  1
  Ga  Ga15  1  0.294167  0.705833  0.500000  1
  Ga  Ga16  1  0.000000  0.666098  0.333902  1
  Ga  Ga17  1  0.716630  0.716630  0.716630  1
  Ga  Ga18  1  0.283370  0.283370  0.283370  1
  Ga  Ga19  1  0.896227  0.239826  0.568000  1
  Ni  Ni20  1  0.243315  0.921662  0.582368  1
  Ni  Ni21  1  0.921662  0.582368  0.243315  1
  Ni  Ni22  1  0.756685  0.417632  0.078338  1
  Ni  Ni23  1  0.078338  0.756685  0.417632  1
  Ni  Ni24  1  0.417632  0.078338  0.756685  1
  Ni  Ni25  1  0.582368  0.243315  0.921662  1
