# generated using pymatgen
data_SmHo5Co16(ReP6)2
_symmetry_space_group_name_H-M   'P 1'
_cell_length_a   3.72126800
_cell_length_b   10.52110600
_cell_length_c   12.23160400
_cell_angle_alpha   90.00000000
_cell_angle_beta   90.00000000
_cell_angle_gamma   90.00000000
_symmetry_Int_Tables_number   1
_chemical_formula_structural   SmHo5Co16(ReP6)2
_chemical_formula_sum   'Sm1 Ho5 Co16 Re2 P12'
_cell_volume   478.88998723
_cell_formula_units_Z   1
loop_
 _symmetry_equiv_pos_site_id
 _symmetry_equiv_pos_as_xyz
  1  'x, y, z'
loop_
 _atom_site_type_symbol
 _atom_site_label
 _atom_site_symmetry_multiplicity
 _atom_site_fract_x
 _atom_site_fract_y
 _atom_site_fract_z
 _atom_site_occupancy
  Sm  Sm0  1  0.500000  0.000000  0.475444  1
  Ho  Ho1  1  0.000000  0.500000  0.524150  1
  Ho  Ho2  1  0.500000  0.817916  0.205205  1
  Ho  Ho3  1  0.500000  0.182084  0.205205  1
  Ho  Ho4  1  0.000000  0.681590  0.794376  1
  Ho  Ho5  1  0.000000  0.318410  0.794376  1
  Co  Co6  1  0.500000  0.500000  0.702455  1
  Co  Co7  1  0.000000  0.000000  0.295916  1
  Co  Co8  1  0.000000  0.500000  0.987798  1
  Co  Co9  1  0.500000  0.000000  0.012123  1
  Co  Co10  1  0.500000  0.332540  0.989847  1
  Co  Co11  1  0.500000  0.667460  0.989847  1
  Co  Co12  1  0.000000  0.167774  0.010177  1
  Co  Co13  1  0.000000  0.832226  0.010177  1
  Co  Co14  1  0.500000  0.297812  0.430642  1
  Co  Co15  1  0.500000  0.702188  0.430642  1
  Co  Co16  1  0.000000  0.205238  0.569593  1
  Co  Co17  1  0.000000  0.794762  0.569593  1
  Co  Co18  1  0.500000  0.878772  0.709922  1
  Co  Co19  1  0.500000  0.121228  0.709922  1
  Co  Co20  1  0.000000  0.620550  0.290692  1
  Co  Co21  1  0.000000  0.379450  0.290692  1
  Re  Re22  1  0.500000  0.500000  0.156073  1
  Re  Re23  1  0.000000  0.000000  0.844957  1
  P  P24  1  0.500000  0.500000  0.880178  1
  P  P25  1  0.000000  0.000000  0.119325  1
  P  P26  1  0.500000  0.500000  0.349056  1
  P  P27  1  0.000000  0.000000  0.653042  1
  P  P28  1  0.500000  0.312008  0.616303  1
  P  P29  1  0.500000  0.687992  0.616303  1
  P  P30  1  0.000000  0.190231  0.382833  1
  P  P31  1  0.000000  0.809769  0.382833  1
  P  P32  1  0.500000  0.845277  0.892794  1
  P  P33  1  0.500000  0.154723  0.892794  1
  P  P34  1  0.000000  0.654356  0.107357  1
  P  P35  1  0.000000  0.345644  0.107357  1
