# generated using pymatgen
data_Eu2H6Pt
_symmetry_space_group_name_H-M   'P 1'
_cell_length_a   7.25169279
_cell_length_b   7.25169327
_cell_length_c   5.51837700
_cell_angle_alpha   90.00000000
_cell_angle_beta   90.00000000
_cell_angle_gamma   135.25342532
_symmetry_Int_Tables_number   1
_chemical_formula_structural   Eu2H6Pt
_chemical_formula_sum   'Eu4 H12 Pt2'
_cell_volume   204.28935638
_cell_formula_units_Z   2
loop_
 _symmetry_equiv_pos_site_id
 _symmetry_equiv_pos_as_xyz
  1  'x, y, z'
loop_
 _atom_site_type_symbol
 _atom_site_label
 _atom_site_symmetry_multiplicity
 _atom_site_fract_x
 _atom_site_fract_y
 _atom_site_fract_z
 _atom_site_occupancy
  Eu  Eu0  1  0.646378  0.353622  0.000000  1
  Eu  Eu1  1  0.353622  0.646378  0.000000  1
  Eu  Eu2  1  0.853622  0.146378  0.500000  1
  Eu  Eu3  1  0.146378  0.853622  0.500000  1
  H  H4  1  0.874377  0.125623  0.000000  1
  H  H5  1  0.125623  0.874377  0.000000  1
  H  H6  1  0.625623  0.374377  0.500000  1
  H  H7  1  0.374377  0.625623  0.500000  1
  H  H8  1  0.001069  0.501069  0.250000  1
  H  H9  1  0.998931  0.498931  0.750000  1
  H  H10  1  0.498931  0.998931  0.750000  1
  H  H11  1  0.501069  0.001069  0.250000  1
  H  H12  1  0.216791  0.216791  0.228312  1
  H  H13  1  0.783209  0.783209  0.771688  1
  H  H14  1  0.283209  0.283209  0.728312  1
  H  H15  1  0.716791  0.716791  0.271688  1
  Pt  Pt16  1  0.000000  0.000000  0.000000  1
  Pt  Pt17  1  0.500000  0.500000  0.500000  1
