# generated using pymatgen
data_HgTe3Pd2
_symmetry_space_group_name_H-M   'P 1'
_cell_length_a   8.07553400
_cell_length_b   8.07553349
_cell_length_c   5.46050100
_cell_angle_alpha   90.00000000
_cell_angle_beta   90.00000000
_cell_angle_gamma   120.00000210
_symmetry_Int_Tables_number   1
_chemical_formula_structural   HgTe3Pd2
_chemical_formula_sum   'Hg2 Te6 Pd4'
_cell_volume   308.39376266
_cell_formula_units_Z   2
loop_
 _symmetry_equiv_pos_site_id
 _symmetry_equiv_pos_as_xyz
  1  'x, y, z'
loop_
 _atom_site_type_symbol
 _atom_site_label
 _atom_site_symmetry_multiplicity
 _atom_site_fract_x
 _atom_site_fract_y
 _atom_site_fract_z
 _atom_site_occupancy
  Hg  Hg0  1  0.666666  0.333334  0.325209  1
  Hg  Hg1  1  0.333333  0.666666  0.674791  1
  Te  Te2  1  0.171410  0.342819  0.243156  1
  Te  Te3  1  0.171410  0.828590  0.243156  1
  Te  Te4  1  0.657182  0.828590  0.243156  1
  Te  Te5  1  0.342819  0.171409  0.756845  1
  Te  Te6  1  0.828590  0.171409  0.756845  1
  Te  Te7  1  0.828590  0.657182  0.756845  1
  Pd  Pd8  1  0.000000  0.000000  0.000000  1
  Pd  Pd9  1  0.499999  0.000000  0.000000  1
  Pd  Pd10  1  0.000000  0.500000  0.000000  1
  Pd  Pd11  1  0.500000  0.500000  0.000000  1
