# generated using pymatgen
data_Ce2MnCoSi2
_symmetry_space_group_name_H-M   'P 1'
_cell_length_a   4.05294100
_cell_length_b   4.05294100
_cell_length_c   6.68579100
_cell_angle_alpha   90.00000000
_cell_angle_beta   90.00000000
_cell_angle_gamma   90.00000000
_symmetry_Int_Tables_number   1
_chemical_formula_structural   Ce2MnCoSi2
_chemical_formula_sum   'Ce2 Mn1 Co1 Si2'
_cell_volume   109.82301429
_cell_formula_units_Z   1
loop_
 _symmetry_equiv_pos_site_id
 _symmetry_equiv_pos_as_xyz
  1  'x, y, z'
loop_
 _atom_site_type_symbol
 _atom_site_label
 _atom_site_symmetry_multiplicity
 _atom_site_fract_x
 _atom_site_fract_y
 _atom_site_fract_z
 _atom_site_occupancy
  Ce  Ce0  1  0.000000  0.500000  0.314995  1
  Ce  Ce1  1  0.500000  0.000000  0.685005  1
  Mn  Mn2  1  0.000000  0.000000  0.000000  1
  Co  Co3  1  0.500000  0.500000  0.000000  1
  Si  Si4  1  0.000000  0.500000  0.821296  1
  Si  Si5  1  0.500000  0.000000  0.178704  1
