# generated using pymatgen
data_Er5Fe3P12(IrRu)8
_symmetry_space_group_name_H-M   'P 1'
_cell_length_a   12.52775428
_cell_length_b   12.50132882
_cell_length_c   3.89261200
_cell_angle_alpha   90.00000000
_cell_angle_beta   90.00000000
_cell_angle_gamma   119.93025254
_symmetry_Int_Tables_number   1
_chemical_formula_structural   Er5Fe3P12(IrRu)8
_chemical_formula_sum   'Er5 Fe3 P12 Ir8 Ru8'
_cell_volume   528.33083324
_cell_formula_units_Z   1
loop_
 _symmetry_equiv_pos_site_id
 _symmetry_equiv_pos_as_xyz
  1  'x, y, z'
loop_
 _atom_site_type_symbol
 _atom_site_label
 _atom_site_symmetry_multiplicity
 _atom_site_fract_x
 _atom_site_fract_y
 _atom_site_fract_z
 _atom_site_occupancy
  Er  Er0  1  0.664016  0.331844  0.000000  1
  Er  Er1  1  0.335984  0.667830  0.000000  1
  Er  Er2  1  0.815350  0.814949  0.500000  1
  Er  Er3  1  0.184650  0.999598  0.500000  1
  Er  Er4  1  0.000000  0.183968  0.500000  1
  Fe  Fe5  1  0.283501  0.284806  0.500000  1
  Fe  Fe6  1  0.716499  0.001305  0.500000  1
  Fe  Fe7  1  0.000000  0.711473  0.500000  1
  P  P8  1  0.689646  0.162759  0.500000  1
  P  P9  1  0.832736  0.525867  0.500000  1
  P  P10  1  0.470796  0.309544  0.500000  1
  P  P11  1  0.167264  0.693131  0.500000  1
  P  P12  1  0.529204  0.838749  0.500000  1
  P  P13  1  0.310354  0.473113  0.500000  1
  P  P14  1  0.635360  0.635435  0.000000  1
  P  P15  1  0.364640  0.000075  0.000000  1
  P  P16  1  0.000000  0.360928  0.000000  1
  P  P17  1  0.184696  0.186001  0.000000  1
  P  P18  1  0.815304  0.001306  0.000000  1
  P  P19  1  0.000000  0.813218  0.000000  1
  Ir  Ir20  1  0.000000  0.548345  0.000000  1
  Ir  Ir21  1  0.868011  0.362991  0.500000  1
  Ir  Ir22  1  0.635974  0.507447  0.500000  1
  Ir  Ir23  1  0.492609  0.131316  0.500000  1
  Ir  Ir24  1  0.364026  0.871472  0.500000  1
  Ir  Ir25  1  0.507391  0.638706  0.500000  1
  Ir  Ir26  1  0.131989  0.494979  0.500000  1
  Ir  Ir27  1  0.000000  0.998685  0.000000  1
  Ru  Ru28  1  0.805100  0.181273  0.000000  1
  Ru  Ru29  1  0.819862  0.623570  0.000000  1
  Ru  Ru30  1  0.373616  0.194244  0.000000  1
  Ru  Ru31  1  0.180138  0.803707  0.000000  1
  Ru  Ru32  1  0.626384  0.820628  0.000000  1
  Ru  Ru33  1  0.194900  0.376173  0.000000  1
  Ru  Ru34  1  0.447993  0.449279  0.000000  1
  Ru  Ru35  1  0.552007  0.001286  0.000000  1
