# generated using pymatgen
data_Dy11YIrPt3
_symmetry_space_group_name_H-M   'P 1'
_cell_length_a   6.46895822
_cell_length_b   7.08791026
_cell_length_c   9.54781500
_cell_angle_alpha   90.00000000
_cell_angle_beta   90.00000000
_cell_angle_gamma   89.83362310
_symmetry_Int_Tables_number   1
_chemical_formula_structural   Dy11YIrPt3
_chemical_formula_sum   'Dy11 Y1 Ir1 Pt3'
_cell_volume   437.77879450
_cell_formula_units_Z   1
loop_
 _symmetry_equiv_pos_site_id
 _symmetry_equiv_pos_as_xyz
  1  'x, y, z'
loop_
 _atom_site_type_symbol
 _atom_site_label
 _atom_site_symmetry_multiplicity
 _atom_site_fract_x
 _atom_site_fract_y
 _atom_site_fract_z
 _atom_site_occupancy
  Dy  Dy0  1  0.325636  0.680938  0.059077  1
  Dy  Dy1  1  0.174500  0.179571  0.439328  1
  Dy  Dy2  1  0.674109  0.322644  0.563526  1
  Dy  Dy3  1  0.822072  0.817805  0.936986  1
  Dy  Dy4  1  0.674109  0.322644  0.936474  1
  Dy  Dy5  1  0.822072  0.817805  0.563014  1
  Dy  Dy6  1  0.325636  0.680938  0.440923  1
  Dy  Dy7  1  0.174500  0.179571  0.060672  1
  Dy  Dy8  1  0.633386  0.029443  0.250000  1
  Dy  Dy9  1  0.136927  0.471949  0.750000  1
  Dy  Dy10  1  0.369738  0.965501  0.750000  1
  Y  Y11  1  0.867204  0.527564  0.250000  1
  Ir  Ir12  1  0.551166  0.614559  0.750000  1
  Pt  Pt13  1  0.054336  0.887781  0.250000  1
  Pt  Pt14  1  0.444563  0.387665  0.250000  1
  Pt  Pt15  1  0.950047  0.113620  0.750000  1
