# generated using pymatgen
data_ThMnGa6Fe5
_symmetry_space_group_name_H-M   'P 1'
_cell_length_a   6.65604601
_cell_length_b   6.65604611
_cell_length_c   6.65604537
_cell_angle_alpha   135.28290562
_cell_angle_beta   99.41723584
_cell_angle_gamma   97.22624392
_symmetry_Int_Tables_number   1
_chemical_formula_structural   ThMnGa6Fe5
_chemical_formula_sum   'Th1 Mn1 Ga6 Fe5'
_cell_volume   191.83620130
_cell_formula_units_Z   1
loop_
 _symmetry_equiv_pos_site_id
 _symmetry_equiv_pos_as_xyz
  1  'x, y, z'
loop_
 _atom_site_type_symbol
 _atom_site_label
 _atom_site_symmetry_multiplicity
 _atom_site_fract_x
 _atom_site_fract_y
 _atom_site_fract_z
 _atom_site_occupancy
  Th  Th0  1  0.000593  0.000000  0.000593  1
  Mn  Mn1  1  0.760807  0.500000  0.260807  1
  Ga  Ga2  1  0.804251  0.304543  0.499707  1
  Ga  Ga3  1  0.651342  0.651384  0.999958  1
  Ga  Ga4  1  0.348574  0.348616  0.999958  1
  Ga  Ga5  1  0.342472  0.000000  0.342472  1
  Ga  Ga6  1  0.195164  0.695457  0.499707  1
  Ga  Ga7  1  0.658544  0.000000  0.658544  1
  Fe  Fe8  1  0.239512  0.500000  0.739512  1
  Fe  Fe9  1  0.001496  0.001754  0.499628  1
  Fe  Fe10  1  0.497874  0.998246  0.999744  1
  Fe  Fe11  1  0.001496  0.501869  0.999744  1
  Fe  Fe12  1  0.497874  0.498131  0.499628  1
