# generated using pymatgen
data_Y7Er3InPb5
_symmetry_space_group_name_H-M   'P 1'
_cell_length_a   9.04440403
_cell_length_b   9.04476160
_cell_length_c   6.66108101
_cell_angle_alpha   90.00147738
_cell_angle_beta   89.99353719
_cell_angle_gamma   120.03830830
_symmetry_Int_Tables_number   1
_chemical_formula_structural   Y7Er3InPb5
_chemical_formula_sum   'Y7 Er3 In1 Pb5'
_cell_volume   471.72038905
_cell_formula_units_Z   1
loop_
 _symmetry_equiv_pos_site_id
 _symmetry_equiv_pos_as_xyz
  1  'x, y, z'
loop_
 _atom_site_type_symbol
 _atom_site_label
 _atom_site_symmetry_multiplicity
 _atom_site_fract_x
 _atom_site_fract_y
 _atom_site_fract_z
 _atom_site_occupancy
  Y  Y0  1  0.663970  0.333655  0.998307  1
  Y  Y1  1  0.760015  0.760111  0.749850  1
  Y  Y2  1  0.239584  0.004527  0.749835  1
  Y  Y3  1  0.004742  0.239746  0.749894  1
  Y  Y4  1  0.238330  0.238428  0.250155  1
  Y  Y5  1  0.761667  0.999540  0.250137  1
  Y  Y6  1  0.999677  0.761747  0.250140  1
  Er  Er7  1  0.333673  0.663757  0.998164  1
  Er  Er8  1  0.333610  0.663803  0.501843  1
  Er  Er9  1  0.663773  0.333631  0.501779  1
  In  In10  1  0.396711  0.397235  0.749407  1
  Pb  Pb11  1  0.605723  0.000004  0.749442  1
  Pb  Pb12  1  0.000961  0.606235  0.749453  1
  Pb  Pb13  1  0.603985  0.604512  0.250545  1
  Pb  Pb14  1  0.394498  0.998058  0.250534  1
  Pb  Pb15  1  0.999079  0.395009  0.250514  1
