# generated using pymatgen
data_Tb5Be4P8Ir19
_symmetry_space_group_name_H-M   'P 1'
_cell_length_a   12.64606519
_cell_length_b   12.54661254
_cell_length_c   3.95141900
_cell_angle_alpha   90.00000000
_cell_angle_beta   90.00000000
_cell_angle_gamma   120.03615857
_symmetry_Int_Tables_number   1
_chemical_formula_structural   Tb5Be4P8Ir19
_chemical_formula_sum   'Tb5 Be4 P8 Ir19'
_cell_volume   542.75928830
_cell_formula_units_Z   1
loop_
 _symmetry_equiv_pos_site_id
 _symmetry_equiv_pos_as_xyz
  1  'x, y, z'
loop_
 _atom_site_type_symbol
 _atom_site_label
 _atom_site_symmetry_multiplicity
 _atom_site_fract_x
 _atom_site_fract_y
 _atom_site_fract_z
 _atom_site_occupancy
  Tb  Tb0  1  0.333828  0.666639  0.500000  1
  Tb  Tb1  1  0.676663  0.331776  0.500000  1
  Tb  Tb2  1  0.183696  0.191292  0.000000  1
  Tb  Tb3  1  0.808775  0.999775  0.000000  1
  Tb  Tb4  1  0.004683  0.814903  0.000000  1
  Be  Be5  1  0.314444  0.836160  0.000000  1
  Be  Be6  1  0.163713  0.477220  0.000000  1
  Be  Be7  1  0.521735  0.684685  0.000000  1
  Be  Be8  1  0.831066  0.307700  0.000000  1
  P  P9  1  0.485035  0.176563  0.000000  1
  P  P10  1  0.697709  0.518012  0.000000  1
  P  P11  1  0.362010  0.374641  0.500000  1
  P  P12  1  0.625747  0.993285  0.500000  1
  P  P13  1  0.007746  0.631205  0.500000  1
  P  P14  1  0.817618  0.819626  0.500000  1
  P  P15  1  0.182256  0.002412  0.500000  1
  P  P16  1  0.995676  0.181474  0.500000  1
  Ir  Ir17  1  0.195090  0.820574  0.500000  1
  Ir  Ir18  1  0.177454  0.376252  0.500000  1
  Ir  Ir19  1  0.624267  0.804462  0.500000  1
  Ir  Ir20  1  0.810874  0.187454  0.500000  1
  Ir  Ir21  1  0.378415  0.190606  0.500000  1
  Ir  Ir22  1  0.807687  0.622281  0.500000  1
  Ir  Ir23  1  0.127214  0.641168  0.000000  1
  Ir  Ir24  1  0.357093  0.483260  0.000000  1
  Ir  Ir25  1  0.512967  0.869202  0.000000  1
  Ir  Ir26  1  0.633042  0.126802  0.000000  1
  Ir  Ir27  1  0.500283  0.368880  0.000000  1
  Ir  Ir28  1  0.876167  0.510958  0.000000  1
  Ir  Ir29  1  0.546935  0.554301  0.500000  1
  Ir  Ir30  1  0.443125  0.991144  0.500000  1
  Ir  Ir31  1  0.995734  0.443243  0.500000  1
  Ir  Ir32  1  0.718255  0.713991  0.000000  1
  Ir  Ir33  1  0.287263  0.006964  0.000000  1
  Ir  Ir34  1  0.995849  0.280987  0.000000  1
  Ir  Ir35  1  0.999885  0.000100  0.500000  1
