# generated using pymatgen
data_Ho2Co2Tc
_symmetry_space_group_name_H-M   'P 1'
_cell_length_a   5.51283024
_cell_length_b   5.51282998
_cell_length_c   7.00760600
_cell_angle_alpha   90.00000000
_cell_angle_beta   90.00000000
_cell_angle_gamma   121.28717717
_symmetry_Int_Tables_number   1
_chemical_formula_structural   Ho2Co2Tc
_chemical_formula_sum   'Ho4 Co4 Tc2'
_cell_volume   181.99904826
_cell_formula_units_Z   2
loop_
 _symmetry_equiv_pos_site_id
 _symmetry_equiv_pos_as_xyz
  1  'x, y, z'
loop_
 _atom_site_type_symbol
 _atom_site_label
 _atom_site_symmetry_multiplicity
 _atom_site_fract_x
 _atom_site_fract_y
 _atom_site_fract_z
 _atom_site_occupancy
  Ho  Ho0  1  0.834286  0.165713  0.099694  1
  Ho  Ho1  1  0.334286  0.665713  0.400306  1
  Ho  Ho2  1  0.665713  0.334286  0.599693  1
  Ho  Ho3  1  0.165713  0.834286  0.900306  1
  Co  Co4  1  0.336159  0.163841  0.250000  1
  Co  Co5  1  0.836158  0.663840  0.250000  1
  Co  Co6  1  0.163841  0.336159  0.750000  1
  Co  Co7  1  0.663840  0.836158  0.750000  1
  Tc  Tc8  1  0.499999  0.499999  0.000000  1
  Tc  Tc9  1  0.000000  0.000000  0.499999  1
