# generated using pymatgen
data_SmGdBC
_symmetry_space_group_name_H-M   'P 1'
_cell_length_a   6.66224607
_cell_length_b   6.66224723
_cell_length_c   9.36554738
_cell_angle_alpha   51.01246394
_cell_angle_beta   51.01245433
_cell_angle_gamma   31.14573677
_symmetry_Int_Tables_number   1
_chemical_formula_structural   SmGdBC
_chemical_formula_sum   'Sm2 Gd2 B2 C2'
_cell_volume   162.81149006
_cell_formula_units_Z   2
loop_
 _symmetry_equiv_pos_site_id
 _symmetry_equiv_pos_as_xyz
  1  'x, y, z'
loop_
 _atom_site_type_symbol
 _atom_site_label
 _atom_site_symmetry_multiplicity
 _atom_site_fract_x
 _atom_site_fract_y
 _atom_site_fract_z
 _atom_site_occupancy
  Sm  Sm0  1  0.561407  0.561407  0.639931  1
  Sm  Sm1  1  0.438593  0.438593  0.360069  1
  Gd  Gd2  1  0.206180  0.206180  0.883806  1
  Gd  Gd3  1  0.793820  0.793820  0.116194  1
  B  B4  1  0.921525  0.921525  0.608889  1
  B  B5  1  0.078475  0.078475  0.391111  1
  C  C6  1  0.128661  0.128661  0.194241  1
  C  C7  1  0.871339  0.871339  0.805759  1
