# generated using pymatgen
data_LiCa20Zn8Cd3
_symmetry_space_group_name_H-M   'P 1'
_cell_length_a   8.06961200
_cell_length_b   8.06961200
_cell_length_c   15.18990400
_cell_angle_alpha   90.00000000
_cell_angle_beta   90.00000000
_cell_angle_gamma   90.00000000
_symmetry_Int_Tables_number   1
_chemical_formula_structural   LiCa20Zn8Cd3
_chemical_formula_sum   'Li1 Ca20 Zn8 Cd3'
_cell_volume   989.14585726
_cell_formula_units_Z   1
loop_
 _symmetry_equiv_pos_site_id
 _symmetry_equiv_pos_as_xyz
  1  'x, y, z'
loop_
 _atom_site_type_symbol
 _atom_site_label
 _atom_site_symmetry_multiplicity
 _atom_site_fract_x
 _atom_site_fract_y
 _atom_site_fract_z
 _atom_site_occupancy
  Li  Li0  1  0.000000  0.000000  0.000000  1
  Ca  Ca1  1  0.666848  0.168911  0.105252  1
  Ca  Ca2  1  0.170508  0.668109  0.605948  1
  Ca  Ca3  1  0.333152  0.831089  0.105252  1
  Ca  Ca4  1  0.829492  0.331891  0.605948  1
  Ca  Ca5  1  0.831089  0.666848  0.105252  1
  Ca  Ca6  1  0.331891  0.170508  0.605948  1
  Ca  Ca7  1  0.168911  0.333152  0.105252  1
  Ca  Ca8  1  0.668109  0.829492  0.605948  1
  Ca  Ca9  1  0.831089  0.333152  0.894748  1
  Ca  Ca10  1  0.331891  0.829492  0.394052  1
  Ca  Ca11  1  0.168911  0.666848  0.894748  1
  Ca  Ca12  1  0.668109  0.170508  0.394052  1
  Ca  Ca13  1  0.666848  0.831089  0.894748  1
  Ca  Ca14  1  0.170508  0.331891  0.394052  1
  Ca  Ca15  1  0.333152  0.168911  0.894748  1
  Ca  Ca16  1  0.829492  0.668109  0.394052  1
  Ca  Ca17  1  0.500000  0.500000  0.752771  1
  Ca  Ca18  1  0.000000  0.000000  0.252064  1
  Ca  Ca19  1  0.000000  0.000000  0.747936  1
  Ca  Ca20  1  0.500000  0.500000  0.247229  1
  Zn  Zn21  1  0.619216  0.119073  0.751603  1
  Zn  Zn22  1  0.119073  0.619216  0.248397  1
  Zn  Zn23  1  0.880927  0.380784  0.248397  1
  Zn  Zn24  1  0.380784  0.880927  0.751603  1
  Zn  Zn25  1  0.880927  0.619216  0.751603  1
  Zn  Zn26  1  0.380784  0.119073  0.248397  1
  Zn  Zn27  1  0.119073  0.380784  0.751603  1
  Zn  Zn28  1  0.619216  0.880927  0.248397  1
  Cd  Cd29  1  0.500000  0.500000  0.500000  1
  Cd  Cd30  1  0.500000  0.500000  0.000000  1
  Cd  Cd31  1  0.000000  0.000000  0.500000  1
