# generated using pymatgen
data_Ce2CoNi3P4
_symmetry_space_group_name_H-M   'P 1'
_cell_length_a   4.03607400
_cell_length_b   4.03607400
_cell_length_c   8.97514200
_cell_angle_alpha   90.00000000
_cell_angle_beta   90.00000000
_cell_angle_gamma   90.00000000
_symmetry_Int_Tables_number   1
_chemical_formula_structural   Ce2CoNi3P4
_chemical_formula_sum   'Ce2 Co1 Ni3 P4'
_cell_volume   146.20410583
_cell_formula_units_Z   1
loop_
 _symmetry_equiv_pos_site_id
 _symmetry_equiv_pos_as_xyz
  1  'x, y, z'
loop_
 _atom_site_type_symbol
 _atom_site_label
 _atom_site_symmetry_multiplicity
 _atom_site_fract_x
 _atom_site_fract_y
 _atom_site_fract_z
 _atom_site_occupancy
  Ce  Ce0  1  0.000000  0.500000  0.753228  1
  Ce  Ce1  1  0.500000  0.000000  0.250241  1
  Co  Co2  1  0.000000  0.500000  0.110467  1
  Ni  Ni3  1  0.000000  0.000000  0.500012  1
  Ni  Ni4  1  0.500000  0.000000  0.886555  1
  Ni  Ni5  1  0.500000  0.500000  0.500012  1
  P  P6  1  0.000000  0.500000  0.365864  1
  P  P7  1  0.000000  0.000000  0.001944  1
  P  P8  1  0.500000  0.000000  0.629732  1
  P  P9  1  0.500000  0.500000  0.001944  1
