# generated using pymatgen
data_Ho2ThAl10(SiOs2)2
_symmetry_space_group_name_H-M   'P 1'
_cell_length_a   8.75156600
_cell_length_b   8.75235231
_cell_length_c   9.60929700
_cell_angle_alpha   90.00000000
_cell_angle_beta   90.00000000
_cell_angle_gamma   119.99702059
_symmetry_Int_Tables_number   1
_chemical_formula_structural   Ho2ThAl10(SiOs2)2
_chemical_formula_sum   'Ho4 Th2 Al20 Si4 Os8'
_cell_volume   637.44959532
_cell_formula_units_Z   2
loop_
 _symmetry_equiv_pos_site_id
 _symmetry_equiv_pos_as_xyz
  1  'x, y, z'
loop_
 _atom_site_type_symbol
 _atom_site_label
 _atom_site_symmetry_multiplicity
 _atom_site_fract_x
 _atom_site_fract_y
 _atom_site_fract_z
 _atom_site_occupancy
  Ho  Ho0  1  0.608505  0.804703  0.250000  1
  Ho  Ho1  1  0.391495  0.195297  0.750000  1
  Ho  Ho2  1  0.196198  0.804703  0.250000  1
  Ho  Ho3  1  0.803802  0.195297  0.750000  1
  Th  Th4  1  0.192584  0.385168  0.250000  1
  Th  Th5  1  0.807416  0.614832  0.750000  1
  Al  Al6  1  0.163777  0.327553  0.578804  1
  Al  Al7  1  0.836223  0.672447  0.421196  1
  Al  Al8  1  0.670886  0.837328  0.575545  1
  Al  Al9  1  0.836223  0.672447  0.078804  1
  Al  Al10  1  0.329114  0.162672  0.424455  1
  Al  Al11  1  0.163777  0.327553  0.921196  1
  Al  Al12  1  0.166441  0.837328  0.575545  1
  Al  Al13  1  0.329114  0.162672  0.075545  1
  Al  Al14  1  0.833559  0.162672  0.424455  1
  Al  Al15  1  0.670886  0.837328  0.924455  1
  Al  Al16  1  0.833559  0.162672  0.075545  1
  Al  Al17  1  0.166441  0.837328  0.924455  1
  Al  Al18  1  0.562794  0.125588  0.250000  1
  Al  Al19  1  0.437206  0.874412  0.750000  1
  Al  Al20  1  0.869442  0.435907  0.250000  1
  Al  Al21  1  0.130558  0.564093  0.750000  1
  Al  Al22  1  0.566464  0.435907  0.250000  1
  Al  Al23  1  0.433536  0.564093  0.750000  1
  Al  Al24  1  0.995484  0.990968  0.250000  1
  Al  Al25  1  0.004516  0.009032  0.750000  1
  Si  Si26  1  0.335423  0.670847  0.033726  1
  Si  Si27  1  0.664577  0.329153  0.966274  1
  Si  Si28  1  0.664577  0.329153  0.533726  1
  Si  Si29  1  0.335423  0.670847  0.466274  1
  Os  Os30  1  0.500000  0.000000  0.000000  1
  Os  Os31  1  0.000000  0.500000  0.000000  1
  Os  Os32  1  0.500000  0.000000  0.500000  1
  Os  Os33  1  0.500000  0.500000  0.000000  1
  Os  Os34  1  0.000000  0.500000  0.500000  1
  Os  Os35  1  0.500000  0.500000  0.500000  1
  Os  Os36  1  0.000000  0.000000  0.000000  1
  Os  Os37  1  0.000000  0.000000  0.500000  1
