# generated using pymatgen
data_Gd4Ge3O11F2
_symmetry_space_group_name_H-M   'P 1'
_cell_length_a   6.75141627
_cell_length_b   6.87543563
_cell_length_c   13.77507900
_cell_angle_alpha   87.46030536
_cell_angle_beta   85.76340522
_cell_angle_gamma   60.91242984
_symmetry_Int_Tables_number   1
_chemical_formula_structural   Gd4Ge3O11F2
_chemical_formula_sum   'Gd8 Ge6 O22 F4'
_cell_volume   557.22599417
_cell_formula_units_Z   2
loop_
 _symmetry_equiv_pos_site_id
 _symmetry_equiv_pos_as_xyz
  1  'x, y, z'
loop_
 _atom_site_type_symbol
 _atom_site_label
 _atom_site_symmetry_multiplicity
 _atom_site_fract_x
 _atom_site_fract_y
 _atom_site_fract_z
 _atom_site_occupancy
  Gd  Gd0  1  0.937896  0.276563  0.027622  1
  Gd  Gd1  1  0.329054  0.369334  0.201452  1
  Gd  Gd2  1  0.823315  0.308652  0.329221  1
  Gd  Gd3  1  0.781498  0.785167  0.473777  1
  Gd  Gd4  1  0.218501  0.214834  0.526223  1
  Gd  Gd5  1  0.176686  0.691347  0.670779  1
  Gd  Gd6  1  0.670947  0.630667  0.798548  1
  Gd  Gd7  1  0.062104  0.723438  0.972379  1
  Ge  Ge8  1  0.502284  0.753435  0.064612  1
  Ge  Ge9  1  0.774752  0.845493  0.218338  1
  Ge  Ge10  1  0.270334  0.730782  0.418431  1
  Ge  Ge11  1  0.729665  0.269219  0.581569  1
  Ge  Ge12  1  0.225250  0.154505  0.781661  1
  Ge  Ge13  1  0.497716  0.246565  0.935388  1
  O  O14  1  0.237690  0.914646  0.014331  1
  O  O15  1  0.257649  0.339447  0.022363  1
  O  O16  1  0.559643  0.489101  0.111982  1
  O  O17  1  0.023379  0.704175  0.142918  1
  O  O18  1  0.518149  0.923402  0.155174  1
  O  O19  1  0.688494  0.123377  0.245868  1
  O  O20  1  0.800463  0.668942  0.318521  1
  O  O21  1  0.429195  0.538042  0.326575  1
  O  O22  1  0.000717  0.944761  0.387577  1
  O  O23  1  0.411428  0.846034  0.480566  1
  O  O24  1  0.829302  0.409418  0.490224  1
  O  O25  1  0.170698  0.590582  0.509775  1
  O  O26  1  0.588573  0.153964  0.519434  1
  O  O27  1  0.999282  0.055239  0.612423  1
  O  O28  1  0.570805  0.461958  0.673425  1
  O  O29  1  0.199538  0.331058  0.681478  1
  O  O30  1  0.311507  0.876621  0.754132  1
  O  O31  1  0.481851  0.076598  0.844827  1
  O  O32  1  0.976621  0.295826  0.857082  1
  O  O33  1  0.440356  0.510899  0.888018  1
  O  O34  1  0.742352  0.660552  0.977637  1
  O  O35  1  0.762311  0.085355  0.985669  1
  F  F36  1  0.033384  0.272774  0.185475  1
  F  F37  1  0.205393  0.256460  0.353222  1
  F  F38  1  0.794609  0.743538  0.646778  1
  F  F39  1  0.966615  0.727226  0.814526  1
