# generated using pymatgen
data_Zr8Si3Ge3(MoN)2
_symmetry_space_group_name_H-M   'P 1'
_cell_length_a   7.86308911
_cell_length_b   7.86467759
_cell_length_c   5.53548908
_cell_angle_alpha   89.98959222
_cell_angle_beta   89.90103411
_cell_angle_gamma   120.01870821
_symmetry_Int_Tables_number   1
_chemical_formula_structural   Zr8Si3Ge3(MoN)2
_chemical_formula_sum   'Zr8 Si3 Ge3 Mo2 N2'
_cell_volume   296.39978517
_cell_formula_units_Z   1
loop_
 _symmetry_equiv_pos_site_id
 _symmetry_equiv_pos_as_xyz
  1  'x, y, z'
loop_
 _atom_site_type_symbol
 _atom_site_label
 _atom_site_symmetry_multiplicity
 _atom_site_fract_x
 _atom_site_fract_y
 _atom_site_fract_z
 _atom_site_occupancy
  Zr  Zr0  1  0.234734  0.002967  0.747160  1
  Zr  Zr1  1  0.766875  0.999906  0.252652  1
  Zr  Zr2  1  0.002678  0.235280  0.747635  1
  Zr  Zr3  1  0.997208  0.764418  0.251987  1
  Zr  Zr4  1  0.765045  0.765137  0.748472  1
  Zr  Zr5  1  0.233350  0.235859  0.251297  1
  Zr  Zr6  1  0.666256  0.338010  0.000386  1
  Zr  Zr7  1  0.333722  0.660960  0.000398  1
  Si  Si8  1  0.998729  0.409022  0.276028  1
  Si  Si9  1  0.411547  0.410569  0.717941  1
  Si  Si10  1  0.589575  0.589691  0.281817  1
  Ge  Ge11  1  0.591315  0.000500  0.732906  1
  Ge  Ge12  1  0.407561  0.998884  0.267038  1
  Ge  Ge13  1  0.001457  0.591676  0.729062  1
  Mo  Mo14  1  0.333428  0.661164  0.497837  1
  Mo  Mo15  1  0.666591  0.336373  0.497825  1
  N  N16  1  0.000022  0.999694  0.499906  1
  N  N17  1  0.999909  0.999889  0.999651  1
