# generated using pymatgen
data_Pr8Sm9Lu3Sn16
_symmetry_space_group_name_H-M   'P 1'
_cell_length_a   8.22581100
_cell_length_b   8.36271600
_cell_length_c   15.86951600
_cell_angle_alpha   90.00000000
_cell_angle_beta   90.00000000
_cell_angle_gamma   90.00092493
_symmetry_Int_Tables_number   1
_chemical_formula_structural   Pr8Sm9Lu3Sn16
_chemical_formula_sum   'Pr8 Sm9 Lu3 Sn16'
_cell_volume   1091.66593002
_cell_formula_units_Z   1
loop_
 _symmetry_equiv_pos_site_id
 _symmetry_equiv_pos_as_xyz
  1  'x, y, z'
loop_
 _atom_site_type_symbol
 _atom_site_label
 _atom_site_symmetry_multiplicity
 _atom_site_fract_x
 _atom_site_fract_y
 _atom_site_fract_z
 _atom_site_occupancy
  Pr  Pr0  1  0.517461  0.319605  0.901983  1
  Pr  Pr1  1  0.017349  0.180454  0.598861  1
  Pr  Pr2  1  0.482853  0.680137  0.402436  1
  Pr  Pr3  1  0.982690  0.819179  0.097592  1
  Pr  Pr4  1  0.482853  0.680137  0.097564  1
  Pr  Pr5  1  0.982690  0.819179  0.402408  1
  Pr  Pr6  1  0.517461  0.319605  0.598017  1
  Pr  Pr7  1  0.017349  0.180454  0.901139  1
  Sm  Sm8  1  0.365404  0.837092  0.877330  1
  Sm  Sm9  1  0.865558  0.662592  0.621288  1
  Sm  Sm10  1  0.635134  0.163552  0.378844  1
  Sm  Sm11  1  0.133723  0.337339  0.120678  1
  Sm  Sm12  1  0.635134  0.163552  0.121156  1
  Sm  Sm13  1  0.133723  0.337339  0.379322  1
  Sm  Sm14  1  0.365404  0.837092  0.622670  1
  Sm  Sm15  1  0.865558  0.662592  0.878712  1
  Sm  Sm16  1  0.302821  0.002720  0.250000  1
  Lu  Lu17  1  0.198278  0.502968  0.750000  1
  Lu  Lu18  1  0.698133  0.996764  0.750000  1
  Lu  Lu19  1  0.801829  0.496012  0.250000  1
  Sn  Sn20  1  0.296131  0.037956  0.041609  1
  Sn  Sn21  1  0.795681  0.463449  0.455790  1
  Sn  Sn22  1  0.703680  0.963416  0.544571  1
  Sn  Sn23  1  0.204680  0.537057  0.955221  1
  Sn  Sn24  1  0.703680  0.963416  0.955429  1
  Sn  Sn25  1  0.204680  0.537057  0.544779  1
  Sn  Sn26  1  0.296131  0.037956  0.458391  1
  Sn  Sn27  1  0.795681  0.463449  0.044210  1
  Sn  Sn28  1  0.562847  0.619319  0.750000  1
  Sn  Sn29  1  0.061090  0.879991  0.750000  1
  Sn  Sn30  1  0.438126  0.382280  0.250000  1
  Sn  Sn31  1  0.934023  0.120790  0.250000  1
  Sn  Sn32  1  0.324561  0.146736  0.750000  1
  Sn  Sn33  1  0.823715  0.354948  0.750000  1
  Sn  Sn34  1  0.678406  0.853044  0.250000  1
  Sn  Sn35  1  0.175485  0.640773  0.250000  1
