# generated using pymatgen
data_Dy5Y3Hg4
_symmetry_space_group_name_H-M   'P 1'
_cell_length_a   5.09265800
_cell_length_b   7.13029467
_cell_length_c   9.24526443
_cell_angle_alpha   90.01253200
_cell_angle_beta   90.00000000
_cell_angle_gamma   90.00000000
_symmetry_Int_Tables_number   1
_chemical_formula_structural   Dy5Y3Hg4
_chemical_formula_sum   'Dy5 Y3 Hg4'
_cell_volume   335.71544099
_cell_formula_units_Z   1
loop_
 _symmetry_equiv_pos_site_id
 _symmetry_equiv_pos_as_xyz
  1  'x, y, z'
loop_
 _atom_site_type_symbol
 _atom_site_label
 _atom_site_symmetry_multiplicity
 _atom_site_fract_x
 _atom_site_fract_y
 _atom_site_fract_z
 _atom_site_occupancy
  Dy  Dy0  1  0.250000  0.832767  0.923945  1
  Dy  Dy1  1  0.250000  0.332673  0.576045  1
  Dy  Dy2  1  0.750000  0.166696  0.076694  1
  Dy  Dy3  1  0.750000  0.668138  0.423126  1
  Dy  Dy4  1  0.250000  0.984221  0.308999  1
  Y  Y5  1  0.250000  0.483431  0.191581  1
  Y  Y6  1  0.750000  0.016312  0.691952  1
  Y  Y7  1  0.750000  0.516200  0.808288  1
  Hg  Hg8  1  0.250000  0.259329  0.898530  1
  Hg  Hg9  1  0.250000  0.759666  0.601104  1
  Hg  Hg10  1  0.750000  0.740125  0.100854  1
  Hg  Hg11  1  0.750000  0.240441  0.398883  1
