# generated using pymatgen
data_Cs3Na(SiP)12
_symmetry_space_group_name_H-M   'P 1'
_cell_length_a   3.57147100
_cell_length_b   9.90772436
_cell_length_c   20.14590812
_cell_angle_alpha   87.47156479
_cell_angle_beta   90.00000000
_cell_angle_gamma   90.00000000
_symmetry_Int_Tables_number   1
_chemical_formula_structural   Cs3Na(SiP)12
_chemical_formula_sum   'Cs3 Na1 Si12 P12'
_cell_volume   712.17197507
_cell_formula_units_Z   1
loop_
 _symmetry_equiv_pos_site_id
 _symmetry_equiv_pos_as_xyz
  1  'x, y, z'
loop_
 _atom_site_type_symbol
 _atom_site_label
 _atom_site_symmetry_multiplicity
 _atom_site_fract_x
 _atom_site_fract_y
 _atom_site_fract_z
 _atom_site_occupancy
  Cs  Cs0  1  0.000000  0.303712  0.299974  1
  Cs  Cs1  1  0.000000  0.713287  0.691318  1
  Cs  Cs2  1  0.000000  0.212008  0.810977  1
  Na  Na3  1  0.000000  0.816455  0.200083  1
  Si  Si4  1  0.500000  0.392500  0.042208  1
  Si  Si5  1  0.500000  0.591823  0.974402  1
  Si  Si6  1  0.500000  0.095265  0.532136  1
  Si  Si7  1  0.500000  0.910590  0.462127  1
  Si  Si8  1  0.000000  0.105140  0.017692  1
  Si  Si9  1  0.000000  0.878126  0.990441  1
  Si  Si10  1  0.000000  0.387342  0.508151  1
  Si  Si11  1  0.000000  0.617983  0.475194  1
  Si  Si12  1  0.000000  0.152854  0.130335  1
  Si  Si13  1  0.000000  0.818777  0.878564  1
  Si  Si14  1  0.000000  0.320759  0.621764  1
  Si  Si15  1  0.000000  0.703051  0.363172  1
  P  P16  1  0.500000  0.078407  0.188921  1
  P  P17  1  0.500000  0.888604  0.819481  1
  P  P18  1  0.500000  0.387758  0.678443  1
  P  P19  1  0.500000  0.645241  0.302777  1
  P  P20  1  0.500000  0.283878  0.460658  1
  P  P21  1  0.500000  0.713498  0.527204  1
  P  P22  1  0.500000  0.217023  0.970235  1
  P  P23  1  0.500000  0.773845  0.042968  1
  P  P24  1  0.000000  0.387168  0.112929  1
  P  P25  1  0.000000  0.587570  0.903365  1
  P  P26  1  0.000000  0.089333  0.603155  1
  P  P27  1  0.000000  0.927998  0.391328  1
