# generated using pymatgen
data_Cs7TaAs4
_symmetry_space_group_name_H-M   'P 1'
_cell_length_a   11.30906400
_cell_length_b   10.16505200
_cell_length_c   9.03284200
_cell_angle_alpha   90.00000000
_cell_angle_beta   90.00000000
_cell_angle_gamma   90.00000000
_symmetry_Int_Tables_number   1
_chemical_formula_structural   Cs7TaAs4
_chemical_formula_sum   'Cs14 Ta2 As8'
_cell_volume   1038.39043782
_cell_formula_units_Z   2
loop_
 _symmetry_equiv_pos_site_id
 _symmetry_equiv_pos_as_xyz
  1  'x, y, z'
loop_
 _atom_site_type_symbol
 _atom_site_label
 _atom_site_symmetry_multiplicity
 _atom_site_fract_x
 _atom_site_fract_y
 _atom_site_fract_z
 _atom_site_occupancy
  Cs  Cs0  1  0.500000  0.889776  0.110339  1
  Cs  Cs1  1  0.291808  0.534759  0.122778  1
  Cs  Cs2  1  0.708192  0.534759  0.122778  1
  Cs  Cs3  1  0.000000  0.975225  0.119836  1
  Cs  Cs4  1  0.285553  0.173385  0.292016  1
  Cs  Cs5  1  0.714447  0.173385  0.292016  1
  Cs  Cs6  1  0.000000  0.655214  0.332813  1
  Cs  Cs7  1  0.000000  0.110224  0.610339  1
  Cs  Cs8  1  0.208191  0.465241  0.622777  1
  Cs  Cs9  1  0.791809  0.465241  0.622777  1
  Cs  Cs10  1  0.500000  0.024776  0.619836  1
  Cs  Cs11  1  0.214448  0.826615  0.792016  1
  Cs  Cs12  1  0.785552  0.826615  0.792016  1
  Cs  Cs13  1  0.500000  0.344786  0.832813  1
  Ta  Ta14  1  0.000000  0.327519  0.004134  1
  Ta  Ta15  1  0.500000  0.672482  0.504134  1
  As  As16  1  0.000000  0.315860  0.283250  1
  As  As17  1  0.315778  0.793362  0.414290  1
  As  As18  1  0.684222  0.793362  0.414290  1
  As  As19  1  0.500000  0.433044  0.430359  1
  As  As20  1  0.500000  0.684140  0.783250  1
  As  As21  1  0.184223  0.206639  0.914291  1
  As  As22  1  0.815777  0.206639  0.914291  1
  As  As23  1  0.000000  0.566957  0.930359  1
