# generated using pymatgen
data_DyY7Re(TcB8)3
_symmetry_space_group_name_H-M   'P 1'
_cell_length_a   3.69126400
_cell_length_b   9.18710312
_cell_length_c   11.57428105
_cell_angle_alpha   90.03337804
_cell_angle_beta   90.00000000
_cell_angle_gamma   90.00000000
_symmetry_Int_Tables_number   1
_chemical_formula_structural   DyY7Re(TcB8)3
_chemical_formula_sum   'Dy1 Y7 Re1 Tc3 B24'
_cell_volume   392.50721862
_cell_formula_units_Z   1
loop_
 _symmetry_equiv_pos_site_id
 _symmetry_equiv_pos_as_xyz
  1  'x, y, z'
loop_
 _atom_site_type_symbol
 _atom_site_label
 _atom_site_symmetry_multiplicity
 _atom_site_fract_x
 _atom_site_fract_y
 _atom_site_fract_z
 _atom_site_occupancy
  Dy  Dy0  1  0.000000  0.556496  0.869548  1
  Y  Y1  1  0.000000  0.324139  0.414294  1
  Y  Y2  1  0.000000  0.676160  0.585674  1
  Y  Y3  1  0.000000  0.823813  0.085854  1
  Y  Y4  1  0.000000  0.176444  0.914495  1
  Y  Y5  1  0.000000  0.942545  0.369128  1
  Y  Y6  1  0.000000  0.058003  0.629894  1
  Y  Y7  1  0.000000  0.442557  0.130845  1
  Re  Re8  1  0.000000  0.861391  0.820741  1
  Tc  Tc9  1  0.000000  0.638630  0.320734  1
  Tc  Tc10  1  0.000000  0.361489  0.679382  1
  Tc  Tc11  1  0.000000  0.138648  0.179392  1
  B  B12  1  0.500000  0.553562  0.432811  1
  B  B13  1  0.500000  0.446687  0.567276  1
  B  B14  1  0.500000  0.053481  0.067318  1
  B  B15  1  0.500000  0.946665  0.932940  1
  B  B16  1  0.500000  0.748753  0.418264  1
  B  B17  1  0.500000  0.251599  0.581600  1
  B  B18  1  0.500000  0.248631  0.081737  1
  B  B19  1  0.500000  0.750841  0.918335  1
  B  B20  1  0.500000  0.791425  0.265093  1
  B  B21  1  0.500000  0.208541  0.734677  1
  B  B22  1  0.500000  0.291449  0.234980  1
  B  B23  1  0.500000  0.708151  0.765380  1
  B  B24  1  0.500000  0.630774  0.185794  1
  B  B25  1  0.500000  0.369069  0.814177  1
  B  B26  1  0.500000  0.130864  0.314278  1
  B  B27  1  0.500000  0.869327  0.685597  1
  B  B28  1  0.500000  0.982443  0.211514  1
  B  B29  1  0.500000  0.017837  0.788233  1
  B  B30  1  0.500000  0.482472  0.288506  1
  B  B31  1  0.500000  0.517424  0.711814  1
  B  B32  1  0.500000  0.599886  0.028051  1
  B  B33  1  0.500000  0.399498  0.972125  1
  B  B34  1  0.500000  0.100332  0.471670  1
  B  B35  1  0.500000  0.899972  0.527846  1
