# generated using pymatgen
data_Ho4Al24CuPd7Pt
_symmetry_space_group_name_H-M   'P 1'
_cell_length_a   7.52921761
_cell_length_b   7.54612897
_cell_length_c   13.10476310
_cell_angle_alpha   84.59212201
_cell_angle_beta   79.02638607
_cell_angle_gamma   59.94207500
_symmetry_Int_Tables_number   1
_chemical_formula_structural   Ho4Al24CuPd7Pt
_chemical_formula_sum   'Ho4 Al24 Cu1 Pd7 Pt1'
_cell_volume   632.65235686
_cell_formula_units_Z   1
loop_
 _symmetry_equiv_pos_site_id
 _symmetry_equiv_pos_as_xyz
  1  'x, y, z'
loop_
 _atom_site_type_symbol
 _atom_site_label
 _atom_site_symmetry_multiplicity
 _atom_site_fract_x
 _atom_site_fract_y
 _atom_site_fract_z
 _atom_site_occupancy
  Ho  Ho0  1  0.392458  0.169266  0.807767  1
  Ho  Ho1  1  0.606387  0.831890  0.191973  1
  Ho  Ho2  1  0.734621  0.498408  0.807433  1
  Ho  Ho3  1  0.266846  0.501572  0.192055  1
  Al  Al4  1  0.684142  0.833442  0.944468  1
  Al  Al5  1  0.315878  0.166168  0.055487  1
  Al  Al6  1  0.145381  0.834848  0.562084  1
  Al  Al7  1  0.854981  0.166706  0.436549  1
  Al  Al8  1  0.479323  0.167741  0.560015  1
  Al  Al9  1  0.520601  0.833475  0.439792  1
  Al  Al10  1  0.218384  0.164884  0.329256  1
  Al  Al11  1  0.785085  0.831812  0.671094  1
  Al  Al12  1  0.433305  0.506897  0.671412  1
  Al  Al13  1  0.563061  0.493575  0.328598  1
  Al  Al14  1  0.109198  0.162822  0.669739  1
  Al  Al15  1  0.890654  0.840426  0.330168  1
  Al  Al16  1  0.353180  0.498964  0.944238  1
  Al  Al17  1  0.647244  0.500606  0.055633  1
  Al  Al18  1  0.015124  0.167422  0.954597  1
  Al  Al19  1  0.984576  0.832050  0.046052  1
  Al  Al20  1  0.186336  0.500624  0.442019  1
  Al  Al21  1  0.813476  0.500229  0.560016  1
  Al  Al22  1  0.733231  0.163781  0.184205  1
  Al  Al23  1  0.266089  0.835716  0.816030  1
  Al  Al24  1  0.062207  0.628459  0.813018  1
  Al  Al25  1  0.938831  0.369179  0.184855  1
  Al  Al26  1  0.855060  0.041413  0.815717  1
  Al  Al27  1  0.144924  0.957378  0.184194  1
  Cu  Cu28  1  0.119393  0.491708  0.639388  1
  Pd  Pd29  1  0.657045  0.171405  0.999638  1
  Pd  Pd30  1  0.343308  0.828004  0.999694  1
  Pd  Pd31  1  0.536747  0.167787  0.362721  1
  Pd  Pd32  1  0.462230  0.833316  0.637878  1
  Pd  Pd33  1  0.778614  0.175451  0.637113  1
  Pd  Pd34  1  0.221600  0.824265  0.362809  1
  Pd  Pd35  1  0.000329  0.499879  0.999558  1
  Pt  Pt36  1  0.880147  0.508428  0.362734  1
