# generated using pymatgen
data_Dy3Y3In2F20
_symmetry_space_group_name_H-M   'P 1'
_cell_length_a   8.31068637
_cell_length_b   8.31032516
_cell_length_c   8.30995201
_cell_angle_alpha   60.00436995
_cell_angle_beta   60.00004124
_cell_angle_gamma   59.99559082
_symmetry_Int_Tables_number   1
_chemical_formula_structural   Dy3Y3In2F20
_chemical_formula_sum   'Dy3 Y3 In2 F20'
_cell_volume   405.82465576
_cell_formula_units_Z   1
loop_
 _symmetry_equiv_pos_site_id
 _symmetry_equiv_pos_as_xyz
  1  'x, y, z'
loop_
 _atom_site_type_symbol
 _atom_site_label
 _atom_site_symmetry_multiplicity
 _atom_site_fract_x
 _atom_site_fract_y
 _atom_site_fract_z
 _atom_site_occupancy
  Dy  Dy0  1  0.759226  0.240774  0.759226  1
  Dy  Dy1  1  0.240766  0.240801  0.759199  1
  Dy  Dy2  1  0.759199  0.759234  0.240766  1
  Y  Y3  1  0.759255  0.240745  0.240719  1
  Y  Y4  1  0.240719  0.759281  0.759255  1
  Y  Y5  1  0.240737  0.759263  0.240737  1
  In  In6  1  0.250000  0.250000  0.250000  1
  In  In7  1  0.750000  0.750000  0.750000  1
  F  F8  1  0.828461  0.500005  0.499995  1
  F  F9  1  0.171429  0.499638  0.500362  1
  F  F10  1  0.500362  0.828571  0.171429  1
  F  F11  1  0.499995  0.171539  0.828461  1
  F  F12  1  0.500365  0.828569  0.499635  1
  F  F13  1  0.171431  0.499635  0.828569  1
  F  F14  1  0.499635  0.171431  0.500365  1
  F  F15  1  0.828569  0.500365  0.171431  1
  F  F16  1  0.500361  0.499639  0.828565  1
  F  F17  1  0.499995  0.500005  0.171325  1
  F  F18  1  0.171325  0.828675  0.499995  1
  F  F19  1  0.828565  0.171435  0.500361  1
  F  F20  1  0.110415  0.110414  0.110050  1
  F  F21  1  0.889487  0.889846  0.889851  1
  F  F22  1  0.110154  0.110513  0.669184  1
  F  F23  1  0.110050  0.669122  0.110415  1
  F  F24  1  0.889586  0.889585  0.330878  1
  F  F25  1  0.889851  0.330816  0.889487  1
  F  F26  1  0.669184  0.110149  0.110154  1
  F  F27  1  0.330878  0.889950  0.889586  1
