# generated using pymatgen
data_YbY19(Cd3Os)2
_symmetry_space_group_name_H-M   'P 1'
_cell_length_a   9.65591200
_cell_length_b   9.65590549
_cell_length_c   9.88319500
_cell_angle_alpha   89.99998247
_cell_angle_beta   90.00004692
_cell_angle_gamma   120.00004100
_symmetry_Int_Tables_number   1
_chemical_formula_structural   YbY19(Cd3Os)2
_chemical_formula_sum   'Yb1 Y19 Cd6 Os2'
_cell_volume   798.02063655
_cell_formula_units_Z   1
loop_
 _symmetry_equiv_pos_site_id
 _symmetry_equiv_pos_as_xyz
  1  'x, y, z'
loop_
 _atom_site_type_symbol
 _atom_site_label
 _atom_site_symmetry_multiplicity
 _atom_site_fract_x
 _atom_site_fract_y
 _atom_site_fract_z
 _atom_site_occupancy
  Yb  Yb0  1  0.000000  0.000000  0.500000  1
  Y  Y1  1  0.000000  0.000000  0.000000  1
  Y  Y2  1  0.210410  0.789590  0.439798  1
  Y  Y3  1  0.210410  0.420821  0.439797  1
  Y  Y4  1  0.579179  0.789590  0.439798  1
  Y  Y5  1  0.789590  0.210410  0.560202  1
  Y  Y6  1  0.789590  0.579179  0.560203  1
  Y  Y7  1  0.420821  0.210410  0.560202  1
  Y  Y8  1  0.789902  0.210098  0.940500  1
  Y  Y9  1  0.789902  0.579803  0.940500  1
  Y  Y10  1  0.420197  0.210098  0.940500  1
  Y  Y11  1  0.210098  0.789902  0.059500  1
  Y  Y12  1  0.210098  0.420197  0.059500  1
  Y  Y13  1  0.579803  0.789902  0.059500  1
  Y  Y14  1  0.540881  0.459119  0.250985  1
  Y  Y15  1  0.540881  0.081762  0.250985  1
  Y  Y16  1  0.918238  0.459119  0.250985  1
  Y  Y17  1  0.459119  0.540881  0.749015  1
  Y  Y18  1  0.459119  0.918238  0.749015  1
  Y  Y19  1  0.081762  0.540881  0.749015  1
  Cd  Cd20  1  0.885061  0.114939  0.250209  1
  Cd  Cd21  1  0.885061  0.770124  0.250209  1
  Cd  Cd22  1  0.229876  0.114939  0.250209  1
  Cd  Cd23  1  0.114939  0.885061  0.749791  1
  Cd  Cd24  1  0.114939  0.229876  0.749791  1
  Cd  Cd25  1  0.770124  0.885061  0.749791  1
  Os  Os26  1  0.333333  0.666667  0.250044  1
  Os  Os27  1  0.666667  0.333333  0.749956  1
