# generated using pymatgen
data_Rb2NaScAs2
_symmetry_space_group_name_H-M   'P 1'
_cell_length_a   9.32523438
_cell_length_b   9.32523526
_cell_length_c   9.32523334
_cell_angle_alpha   136.29539729
_cell_angle_beta   135.49662744
_cell_angle_gamma   64.14336565
_symmetry_Int_Tables_number   1
_chemical_formula_structural   Rb2NaScAs2
_chemical_formula_sum   'Rb4 Na2 Sc2 As4'
_cell_volume   387.41952087
_cell_formula_units_Z   2
loop_
 _symmetry_equiv_pos_site_id
 _symmetry_equiv_pos_as_xyz
  1  'x, y, z'
loop_
 _atom_site_type_symbol
 _atom_site_label
 _atom_site_symmetry_multiplicity
 _atom_site_fract_x
 _atom_site_fract_y
 _atom_site_fract_z
 _atom_site_occupancy
  Rb  Rb0  1  0.097007  0.321201  0.775806  1
  Rb  Rb1  1  0.454604  0.178799  0.275806  1
  Rb  Rb2  1  0.902993  0.678799  0.224194  1
  Rb  Rb3  1  0.545396  0.821201  0.724194  1
  Na  Na4  1  0.500000  0.750000  0.250000  1
  Na  Na5  1  0.500000  0.250000  0.750000  1
  Sc  Sc6  1  0.000000  0.750000  0.750000  1
  Sc  Sc7  1  0.000000  0.250000  0.250000  1
  As  As8  1  0.119156  0.908611  0.210545  1
  As  As9  1  0.880844  0.091389  0.789455  1
  As  As10  1  0.301933  0.591389  0.710545  1
  As  As11  1  0.698067  0.408611  0.289455  1
