# generated using pymatgen
data_Zr3Ga2POs3
_symmetry_space_group_name_H-M   'P 1'
_cell_length_a   6.75872100
_cell_length_b   6.75872031
_cell_length_c   3.75145300
_cell_angle_alpha   90.00000000
_cell_angle_beta   90.00000000
_cell_angle_gamma   120.00000826
_symmetry_Int_Tables_number   1
_chemical_formula_structural   Zr3Ga2POs3
_chemical_formula_sum   'Zr3 Ga2 P1 Os3'
_cell_volume   148.40861065
_cell_formula_units_Z   1
loop_
 _symmetry_equiv_pos_site_id
 _symmetry_equiv_pos_as_xyz
  1  'x, y, z'
loop_
 _atom_site_type_symbol
 _atom_site_label
 _atom_site_symmetry_multiplicity
 _atom_site_fract_x
 _atom_site_fract_y
 _atom_site_fract_z
 _atom_site_occupancy
  Zr  Zr0  1  0.413441  0.422721  0.500000  1
  Zr  Zr1  1  0.577279  0.990719  0.500000  1
  Zr  Zr2  1  0.009281  0.586559  0.500000  1
  Ga  Ga3  1  0.666667  0.333333  0.000000  1
  Ga  Ga4  1  0.000000  0.000000  0.500000  1
  P  P5  1  0.333333  0.666667  0.000000  1
  Os  Os6  1  0.741964  0.756388  0.000000  1
  Os  Os7  1  0.243612  0.985576  0.000000  1
  Os  Os8  1  0.014424  0.258036  0.000000  1
