# generated using pymatgen
data_PrP12Ru3Rh
_symmetry_space_group_name_H-M   'P 1'
_cell_length_a   7.02600143
_cell_length_b   7.02600160
_cell_length_c   7.03861100
_cell_angle_alpha   109.50758256
_cell_angle_beta   109.50758307
_cell_angle_gamma   109.43483322
_symmetry_Int_Tables_number   1
_chemical_formula_structural   PrP12Ru3Rh
_chemical_formula_sum   'Pr1 P12 Ru3 Rh1'
_cell_volume   267.35386423
_cell_formula_units_Z   1
loop_
 _symmetry_equiv_pos_site_id
 _symmetry_equiv_pos_as_xyz
  1  'x, y, z'
loop_
 _atom_site_type_symbol
 _atom_site_label
 _atom_site_symmetry_multiplicity
 _atom_site_fract_x
 _atom_site_fract_y
 _atom_site_fract_z
 _atom_site_occupancy
  Pr  Pr0  1  0.000000  0.000000  0.000000  1
  P  P1  1  0.786014  0.145068  0.645271  1
  P  P2  1  0.213986  0.854932  0.354729  1
  P  P3  1  0.499987  0.856315  0.643850  1
  P  P4  1  0.856315  0.356328  0.212465  1
  P  P5  1  0.643672  0.499987  0.856137  1
  P  P6  1  0.359054  0.213986  0.859258  1
  P  P7  1  0.143685  0.643672  0.787535  1
  P  P8  1  0.640946  0.786014  0.140742  1
  P  P9  1  0.854932  0.640946  0.500203  1
  P  P10  1  0.145068  0.359054  0.499797  1
  P  P11  1  0.500013  0.143685  0.356150  1
  P  P12  1  0.356328  0.500013  0.143863  1
  Ru  Ru13  1  0.000000  0.500000  0.000000  1
  Ru  Ru14  1  0.500000  0.000000  0.000000  1
  Ru  Ru15  1  0.500000  0.500000  0.500000  1
  Rh  Rh16  1  0.000000  0.000000  0.500000  1
