# generated using pymatgen
data_TbDy3RuRh3O14
_symmetry_space_group_name_H-M   'P 1'
_cell_length_a   7.24883909
_cell_length_b   7.24883824
_cell_length_c   7.24883900
_cell_angle_alpha   59.77352338
_cell_angle_beta   59.77351871
_cell_angle_gamma   59.77352039
_symmetry_Int_Tables_number   1
_chemical_formula_structural   TbDy3RuRh3O14
_chemical_formula_sum   'Tb1 Dy3 Ru1 Rh3 O14'
_cell_volume   267.94852463
_cell_formula_units_Z   1
loop_
 _symmetry_equiv_pos_site_id
 _symmetry_equiv_pos_as_xyz
  1  'x, y, z'
loop_
 _atom_site_type_symbol
 _atom_site_label
 _atom_site_symmetry_multiplicity
 _atom_site_fract_x
 _atom_site_fract_y
 _atom_site_fract_z
 _atom_site_occupancy
  Tb  Tb0  1  0.125000  0.125000  0.125000  1
  Dy  Dy1  1  0.125000  0.125000  0.625000  1
  Dy  Dy2  1  0.125000  0.625000  0.125000  1
  Dy  Dy3  1  0.625000  0.125000  0.125000  1
  Ru  Ru4  1  0.625000  0.625000  0.625000  1
  Rh  Rh5  1  0.625000  0.625000  0.125000  1
  Rh  Rh6  1  0.625000  0.125000  0.625000  1
  Rh  Rh7  1  0.125000  0.625000  0.625000  1
  O  O8  1  0.250721  0.250721  0.250721  1
  O  O9  1  0.999279  0.999279  0.999279  1
  O  O10  1  0.286351  0.709815  0.286351  1
  O  O11  1  0.540794  0.956595  0.540794  1
  O  O12  1  0.286351  0.286351  0.709815  1
  O  O13  1  0.709815  0.286351  0.286351  1
  O  O14  1  0.293405  0.709206  0.709206  1
  O  O15  1  0.709206  0.709206  0.293405  1
  O  O16  1  0.709206  0.293405  0.709206  1
  O  O17  1  0.956595  0.540794  0.540794  1
  O  O18  1  0.540185  0.963649  0.963649  1
  O  O19  1  0.963649  0.540185  0.963649  1
  O  O20  1  0.540794  0.540794  0.956595  1
  O  O21  1  0.963649  0.963649  0.540185  1
