# generated using pymatgen
data_TmTa2Nb7N12
_symmetry_space_group_name_H-M   'P 1'
_cell_length_a   5.29875700
_cell_length_b   5.29875660
_cell_length_c   10.52529000
_cell_angle_alpha   90.00000000
_cell_angle_beta   90.00000000
_cell_angle_gamma   119.99999624
_symmetry_Int_Tables_number   1
_chemical_formula_structural   TmTa2Nb7N12
_chemical_formula_sum   'Tm1 Ta2 Nb7 N12'
_cell_volume   255.92498873
_cell_formula_units_Z   1
loop_
 _symmetry_equiv_pos_site_id
 _symmetry_equiv_pos_as_xyz
  1  'x, y, z'
loop_
 _atom_site_type_symbol
 _atom_site_label
 _atom_site_symmetry_multiplicity
 _atom_site_fract_x
 _atom_site_fract_y
 _atom_site_fract_z
 _atom_site_occupancy
  Tm  Tm0  1  0.333333  0.666667  0.000000  1
  Ta  Ta1  1  0.333333  0.666667  0.500000  1
  Ta  Ta2  1  0.666667  0.333333  0.500000  1
  Nb  Nb3  1  0.675807  0.676672  0.746303  1
  Nb  Nb4  1  0.323328  0.999135  0.746303  1
  Nb  Nb5  1  0.000865  0.324193  0.746303  1
  Nb  Nb6  1  0.323328  0.324193  0.253697  1
  Nb  Nb7  1  0.675807  0.999135  0.253697  1
  Nb  Nb8  1  0.000865  0.676672  0.253697  1
  Nb  Nb9  1  0.666667  0.333333  0.000000  1
  N  N10  1  0.656877  0.656967  0.383375  1
  N  N11  1  0.343033  0.999911  0.383375  1
  N  N12  1  0.000089  0.343123  0.383375  1
  N  N13  1  0.343033  0.343123  0.616625  1
  N  N14  1  0.656877  0.999911  0.616625  1
  N  N15  1  0.000089  0.656967  0.616625  1
  N  N16  1  0.348850  0.335798  0.870496  1
  N  N17  1  0.664202  0.013052  0.870496  1
  N  N18  1  0.986948  0.651150  0.870496  1
  N  N19  1  0.664202  0.651150  0.129504  1
  N  N20  1  0.348850  0.013052  0.129504  1
  N  N21  1  0.986948  0.335798  0.129504  1
