# generated using pymatgen
data_Tb2Co8NiP7W3
_symmetry_space_group_name_H-M   'P 1'
_cell_length_a   3.73335600
_cell_length_b   9.10307693
_cell_length_c   9.09172294
_cell_angle_alpha   120.01001910
_cell_angle_beta   90.00000000
_cell_angle_gamma   90.00000000
_symmetry_Int_Tables_number   1
_chemical_formula_structural   Tb2Co8NiP7W3
_chemical_formula_sum   'Tb2 Co8 Ni1 P7 W3'
_cell_volume   267.55963033
_cell_formula_units_Z   1
loop_
 _symmetry_equiv_pos_site_id
 _symmetry_equiv_pos_as_xyz
  1  'x, y, z'
loop_
 _atom_site_type_symbol
 _atom_site_label
 _atom_site_symmetry_multiplicity
 _atom_site_fract_x
 _atom_site_fract_y
 _atom_site_fract_z
 _atom_site_occupancy
  Tb  Tb0  1  0.000000  0.667568  0.334654  1
  Tb  Tb1  1  0.500000  0.333502  0.665941  1
  Co  Co2  1  0.000000  0.063541  0.431246  1
  Co  Co3  1  0.000000  0.568581  0.630695  1
  Co  Co4  1  0.000000  0.878678  0.721078  1
  Co  Co5  1  0.000000  0.280348  0.159104  1
  Co  Co6  1  0.000000  0.844796  0.122037  1
  Co  Co7  1  0.500000  0.947597  0.563009  1
  Co  Co8  1  0.500000  0.435450  0.385504  1
  Co  Co9  1  0.500000  0.615252  0.052263  1
  Ni  Ni10  1  0.000000  0.366895  0.935349  1
  P  P11  1  0.000000  0.105646  0.692720  1
  P  P12  1  0.000000  0.303902  0.413888  1
  P  P13  1  0.000000  0.589650  0.890291  1
  P  P14  1  0.500000  0.707411  0.589902  1
  P  P15  1  0.500000  0.410608  0.121192  1
  P  P16  1  0.500000  0.880032  0.290216  1
  P  P17  1  0.000000  0.001593  0.000375  1
  W  W18  1  0.500000  0.121111  0.900886  1
  W  W19  1  0.500000  0.097935  0.221040  1
  W  W20  1  0.500000  0.779905  0.878608  1
