# generated using pymatgen
data_DyEr2(CuSi)4
_symmetry_space_group_name_H-M   'P 1'
_cell_length_a   7.79558050
_cell_length_b   7.79558067
_cell_length_c   7.79558055
_cell_angle_alpha   149.30557697
_cell_angle_beta   130.37780913
_cell_angle_gamma   59.48745898
_symmetry_Int_Tables_number   1
_chemical_formula_structural   DyEr2(CuSi)4
_chemical_formula_sum   'Dy1 Er2 Cu4 Si4'
_cell_volume   182.73304323
_cell_formula_units_Z   1
loop_
 _symmetry_equiv_pos_site_id
 _symmetry_equiv_pos_as_xyz
  1  'x, y, z'
loop_
 _atom_site_type_symbol
 _atom_site_label
 _atom_site_symmetry_multiplicity
 _atom_site_fract_x
 _atom_site_fract_y
 _atom_site_fract_z
 _atom_site_occupancy
  Dy  Dy0  1  0.500000  0.500000  0.000000  1
  Er  Er1  1  0.871394  0.371394  0.500000  1
  Er  Er2  1  0.128606  0.628606  0.500000  1
  Cu  Cu3  1  0.521440  0.830581  0.690860  1
  Cu  Cu4  1  0.860280  0.169419  0.690860  1
  Cu  Cu5  1  0.139720  0.830581  0.309140  1
  Cu  Cu6  1  0.478560  0.169419  0.309140  1
  Si  Si7  1  0.815642  0.000000  0.815642  1
  Si  Si8  1  0.184358  0.000000  0.184358  1
  Si  Si9  1  0.283635  0.283635  0.000000  1
  Si  Si10  1  0.716365  0.716365  0.000000  1
