# generated using pymatgen
data_Tb12Co6Pb
_symmetry_space_group_name_H-M   'P 1'
_cell_length_a   8.43497911
_cell_length_b   8.43497899
_cell_length_c   8.43497917
_cell_angle_alpha   109.47213062
_cell_angle_beta   109.46169201
_cell_angle_gamma   109.47983468
_symmetry_Int_Tables_number   1
_chemical_formula_structural   Tb12Co6Pb
_chemical_formula_sum   'Tb12 Co6 Pb1'
_cell_volume   461.98742713
_cell_formula_units_Z   1
loop_
 _symmetry_equiv_pos_site_id
 _symmetry_equiv_pos_as_xyz
  1  'x, y, z'
loop_
 _atom_site_type_symbol
 _atom_site_label
 _atom_site_symmetry_multiplicity
 _atom_site_fract_x
 _atom_site_fract_y
 _atom_site_fract_z
 _atom_site_occupancy
  Tb  Tb0  1  0.805593  0.694243  0.499836  1
  Tb  Tb1  1  0.194537  0.305027  0.499564  1
  Tb  Tb2  1  0.194407  0.694243  0.888649  1
  Tb  Tb3  1  0.805463  0.305027  0.110490  1
  Tb  Tb4  1  0.695384  0.501053  0.805670  1
  Tb  Tb5  1  0.305325  0.499476  0.194151  1
  Tb  Tb6  1  0.694675  0.888825  0.194151  1
  Tb  Tb7  1  0.304616  0.110286  0.805670  1
  Tb  Tb8  1  0.500378  0.806028  0.694609  1
  Tb  Tb9  1  0.499622  0.194231  0.305650  1
  Tb  Tb10  1  0.111420  0.806028  0.305650  1
  Tb  Tb11  1  0.888580  0.194231  0.694609  1
  Co  Co12  1  0.887544  0.387359  0.499815  1
  Co  Co13  1  0.112456  0.612272  0.499815  1
  Co  Co14  1  0.387634  0.499701  0.887335  1
  Co  Co15  1  0.612366  0.499701  0.112067  1
  Co  Co16  1  0.500000  0.888525  0.388525  1
  Co  Co17  1  0.500000  0.113688  0.613688  1
  Pb  Pb18  1  0.000000  0.000056  0.000056  1
