# generated using pymatgen
data_HoTmLu3CoSb2
_symmetry_space_group_name_H-M   'P 1'
_cell_length_a   7.70040900
_cell_length_b   8.71172300
_cell_length_c   11.96706300
_cell_angle_alpha   90.00000000
_cell_angle_beta   90.00000000
_cell_angle_gamma   90.00000000
_symmetry_Int_Tables_number   1
_chemical_formula_structural   HoTmLu3CoSb2
_chemical_formula_sum   'Ho4 Tm4 Lu12 Co4 Sb8'
_cell_volume   802.79642222
_cell_formula_units_Z   4
loop_
 _symmetry_equiv_pos_site_id
 _symmetry_equiv_pos_as_xyz
  1  'x, y, z'
loop_
 _atom_site_type_symbol
 _atom_site_label
 _atom_site_symmetry_multiplicity
 _atom_site_fract_x
 _atom_site_fract_y
 _atom_site_fract_z
 _atom_site_occupancy
  Ho  Ho0  1  0.622774  0.750000  0.307944  1
  Ho  Ho1  1  0.122774  0.250000  0.192056  1
  Ho  Ho2  1  0.377226  0.250000  0.692056  1
  Ho  Ho3  1  0.877226  0.750000  0.807944  1
  Tm  Tm4  1  0.156418  0.750000  0.203997  1
  Tm  Tm5  1  0.656418  0.250000  0.296003  1
  Tm  Tm6  1  0.843582  0.250000  0.796003  1
  Tm  Tm7  1  0.343582  0.750000  0.703997  1
  Lu  Lu8  1  0.448358  0.750000  0.997691  1
  Lu  Lu9  1  0.948358  0.250000  0.502309  1
  Lu  Lu10  1  0.551642  0.250000  0.002309  1
  Lu  Lu11  1  0.051642  0.750000  0.497691  1
  Lu  Lu12  1  0.824266  0.962262  0.065311  1
  Lu  Lu13  1  0.324266  0.037738  0.434689  1
  Lu  Lu14  1  0.175734  0.462262  0.934689  1
  Lu  Lu15  1  0.675734  0.537738  0.565311  1
  Lu  Lu16  1  0.175734  0.037738  0.934689  1
  Lu  Lu17  1  0.675734  0.962262  0.565311  1
  Lu  Lu18  1  0.824266  0.537738  0.065311  1
  Lu  Lu19  1  0.324266  0.462262  0.434689  1
  Co  Co20  1  0.430544  0.750000  0.490893  1
  Co  Co21  1  0.930544  0.250000  0.009107  1
  Co  Co22  1  0.569456  0.250000  0.509107  1
  Co  Co23  1  0.069456  0.750000  0.990893  1
  Sb  Sb24  1  0.931933  0.991612  0.328580  1
  Sb  Sb25  1  0.431933  0.008388  0.171420  1
  Sb  Sb26  1  0.068067  0.491612  0.671420  1
  Sb  Sb27  1  0.568067  0.508388  0.828580  1
  Sb  Sb28  1  0.068067  0.008388  0.671420  1
  Sb  Sb29  1  0.568067  0.991612  0.828580  1
  Sb  Sb30  1  0.931933  0.508388  0.328580  1
  Sb  Sb31  1  0.431933  0.491612  0.171420  1
