# generated using pymatgen
data_Cu3SiSe4
_symmetry_space_group_name_H-M   'P 1'
_cell_length_a   6.78314378
_cell_length_b   6.78314338
_cell_length_c   6.78314407
_cell_angle_alpha   132.05167759
_cell_angle_beta   132.05168163
_cell_angle_gamma   70.14741708
_symmetry_Int_Tables_number   1
_chemical_formula_structural   Cu3SiSe4
_chemical_formula_sum   'Cu3 Si1 Se4'
_cell_volume   168.68329164
_cell_formula_units_Z   1
loop_
 _symmetry_equiv_pos_site_id
 _symmetry_equiv_pos_as_xyz
  1  'x, y, z'
loop_
 _atom_site_type_symbol
 _atom_site_label
 _atom_site_symmetry_multiplicity
 _atom_site_fract_x
 _atom_site_fract_y
 _atom_site_fract_z
 _atom_site_occupancy
  Cu  Cu0  1  0.000000  0.000000  0.000000  1
  Cu  Cu1  1  0.250000  0.750000  0.500000  1
  Cu  Cu2  1  0.750000  0.250000  0.500000  1
  Si  Si3  1  0.500000  0.500000  0.000000  1
  Se  Se4  1  0.620383  0.133803  0.000000  1
  Se  Se5  1  0.133803  0.620383  0.000000  1
  Se  Se6  1  0.866197  0.866197  0.486579  1
  Se  Se7  1  0.379617  0.379617  0.513421  1
