# generated using pymatgen
data_TbHo2Ag(Pt2O7)2
_symmetry_space_group_name_H-M   'P 1'
_cell_length_a   7.19379872
_cell_length_b   7.19549723
_cell_length_c   7.19549665
_cell_angle_alpha   61.21262983
_cell_angle_beta   61.23524599
_cell_angle_gamma   61.23526191
_symmetry_Int_Tables_number   1
_chemical_formula_structural   TbHo2Ag(Pt2O7)2
_chemical_formula_sum   'Tb1 Ho2 Ag1 Pt4 O14'
_cell_volume   270.64102595
_cell_formula_units_Z   1
loop_
 _symmetry_equiv_pos_site_id
 _symmetry_equiv_pos_as_xyz
  1  'x, y, z'
loop_
 _atom_site_type_symbol
 _atom_site_label
 _atom_site_symmetry_multiplicity
 _atom_site_fract_x
 _atom_site_fract_y
 _atom_site_fract_z
 _atom_site_occupancy
  Tb  Tb0  1  0.125000  0.625000  0.625000  1
  Ho  Ho1  1  0.625000  0.625000  0.125000  1
  Ho  Ho2  1  0.625000  0.125000  0.625000  1
  Ag  Ag3  1  0.625000  0.625000  0.625000  1
  Pt  Pt4  1  0.125000  0.125000  0.125000  1
  Pt  Pt5  1  0.625000  0.125000  0.125000  1
  Pt  Pt6  1  0.125000  0.625000  0.125000  1
  Pt  Pt7  1  0.125000  0.125000  0.625000  1
  O  O8  1  0.054761  0.456555  0.456555  1
  O  O9  1  0.792766  0.792986  0.194752  1
  O  O10  1  0.784606  0.218129  0.218129  1
  O  O11  1  0.457234  0.055248  0.457014  1
  O  O12  1  0.031159  0.464976  0.033156  1
  O  O13  1  0.742843  0.746609  0.746609  1
  O  O14  1  0.031159  0.033156  0.464976  1
  O  O15  1  0.218841  0.785024  0.216844  1
  O  O16  1  0.218841  0.216844  0.785024  1
  O  O17  1  0.507157  0.503391  0.503391  1
  O  O18  1  0.792766  0.194752  0.792986  1
  O  O19  1  0.465394  0.031871  0.031871  1
  O  O20  1  0.457234  0.457014  0.055248  1
  O  O21  1  0.195239  0.793445  0.793445  1
