# generated using pymatgen
data_Y4Er4Re3B24Ir
_symmetry_space_group_name_H-M   'P 1'
_cell_length_a   3.66431500
_cell_length_b   9.15101967
_cell_length_c   11.54075504
_cell_angle_alpha   90.12268769
_cell_angle_beta   90.00000000
_cell_angle_gamma   90.00000000
_symmetry_Int_Tables_number   1
_chemical_formula_structural   Y4Er4Re3B24Ir
_chemical_formula_sum   'Y4 Er4 Re3 B24 Ir1'
_cell_volume   386.98623411
_cell_formula_units_Z   1
loop_
 _symmetry_equiv_pos_site_id
 _symmetry_equiv_pos_as_xyz
  1  'x, y, z'
loop_
 _atom_site_type_symbol
 _atom_site_label
 _atom_site_symmetry_multiplicity
 _atom_site_fract_x
 _atom_site_fract_y
 _atom_site_fract_z
 _atom_site_occupancy
  Y  Y0  1  0.000000  0.317961  0.415552  1
  Y  Y1  1  0.000000  0.678837  0.591167  1
  Y  Y2  1  0.000000  0.826649  0.081522  1
  Y  Y3  1  0.000000  0.177506  0.912594  1
  Er  Er4  1  0.000000  0.944345  0.370561  1
  Er  Er5  1  0.000000  0.055808  0.628910  1
  Er  Er6  1  0.000000  0.441084  0.128236  1
  Er  Er7  1  0.000000  0.556627  0.871574  1
  Re  Re8  1  0.000000  0.362488  0.677763  1
  Re  Re9  1  0.000000  0.138424  0.180164  1
  Re  Re10  1  0.000000  0.861610  0.820806  1
  B  B11  1  0.500000  0.554027  0.433517  1
  B  B12  1  0.500000  0.446592  0.566865  1
  B  B13  1  0.500000  0.053527  0.066882  1
  B  B14  1  0.500000  0.946816  0.932504  1
  B  B15  1  0.500000  0.749621  0.419866  1
  B  B16  1  0.500000  0.250123  0.581252  1
  B  B17  1  0.500000  0.249474  0.081427  1
  B  B18  1  0.500000  0.751134  0.918703  1
  B  B19  1  0.500000  0.791394  0.265408  1
  B  B20  1  0.500000  0.208241  0.733934  1
  B  B21  1  0.500000  0.291895  0.234822  1
  B  B22  1  0.500000  0.707948  0.766106  1
  B  B23  1  0.500000  0.631349  0.184326  1
  B  B24  1  0.500000  0.369685  0.814152  1
  B  B25  1  0.500000  0.130595  0.314876  1
  B  B26  1  0.500000  0.868792  0.685467  1
  B  B27  1  0.500000  0.982939  0.212395  1
  B  B28  1  0.500000  0.017343  0.786719  1
  B  B29  1  0.500000  0.482935  0.287562  1
  B  B30  1  0.500000  0.518115  0.712709  1
  B  B31  1  0.500000  0.602922  0.029157  1
  B  B32  1  0.500000  0.397998  0.972102  1
  B  B33  1  0.500000  0.101381  0.471331  1
  B  B34  1  0.500000  0.895911  0.528095  1
  Ir  Ir35  1  0.000000  0.637908  0.320973  1
