# generated using pymatgen
data_Mn7Nb7FeSi14Mo
_symmetry_space_group_name_H-M   'P 1'
_cell_length_a   9.35180624
_cell_length_b   9.35118943
_cell_length_c   9.35542588
_cell_angle_alpha   94.09405520
_cell_angle_beta   94.09755822
_cell_angle_gamma   148.99152018
_symmetry_Int_Tables_number   1
_chemical_formula_structural   Mn7Nb7FeSi14Mo
_chemical_formula_sum   'Mn7 Nb7 Fe1 Si14 Mo1'
_cell_volume   406.15130132
_cell_formula_units_Z   1
loop_
 _symmetry_equiv_pos_site_id
 _symmetry_equiv_pos_as_xyz
  1  'x, y, z'
loop_
 _atom_site_type_symbol
 _atom_site_label
 _atom_site_symmetry_multiplicity
 _atom_site_fract_x
 _atom_site_fract_y
 _atom_site_fract_z
 _atom_site_occupancy
  Mn  Mn0  1  0.396564  0.896564  0.793128  1
  Mn  Mn1  1  0.103442  0.603442  0.206884  1
  Mn  Mn2  1  0.103375  0.898155  0.498703  1
  Mn  Mn3  1  0.395327  0.600548  0.498703  1
  Mn  Mn4  1  0.597571  0.401338  0.499010  1
  Mn  Mn5  1  0.901440  0.097672  0.499010  1
  Mn  Mn6  1  0.902152  0.402152  0.804303  1
  Nb  Nb7  1  0.864919  0.864919  0.729839  1
  Nb  Nb8  1  0.864887  0.135586  0.998042  1
  Nb  Nb9  1  0.133155  0.862456  0.998042  1
  Nb  Nb10  1  0.497840  0.688939  0.191785  1
  Nb  Nb11  1  0.499297  0.308895  0.810402  1
  Nb  Nb12  1  0.311105  0.501508  0.810402  1
  Nb  Nb13  1  0.693945  0.502846  0.191785  1
  Fe  Fe14  1  0.599566  0.099566  0.199134  1
  Si  Si15  1  0.293670  0.293670  0.587341  1
  Si  Si16  1  0.705830  0.705830  0.411660  1
  Si  Si17  1  0.702440  0.289016  0.001272  1
  Si  Si18  1  0.298832  0.712256  0.001272  1
  Si  Si19  1  0.989827  0.277463  0.290241  1
  Si  Si20  1  0.989619  0.697269  0.706570  1
  Si  Si21  1  0.716951  0.009302  0.706570  1
  Si  Si22  1  0.300415  0.012780  0.290241  1
  Si  Si23  1  0.523680  0.930289  0.407428  1
  Si  Si24  1  0.522946  0.117075  0.593124  1
  Si  Si25  1  0.070178  0.476049  0.593124  1
  Si  Si26  1  0.883749  0.477139  0.407428  1
  Si  Si27  1  0.752731  0.752806  0.002687  1
  Si  Si28  1  0.249957  0.249881  0.002687  1
  Mo  Mo29  1  0.134590  0.134590  0.269179  1
