# generated using pymatgen
data_Zr4TiSi3GeMo3
_symmetry_space_group_name_H-M   'P 1'
_cell_length_a   3.56504600
_cell_length_b   7.01678117
_cell_length_c   8.31980257
_cell_angle_alpha   89.83148399
_cell_angle_beta   90.00000000
_cell_angle_gamma   90.00000000
_symmetry_Int_Tables_number   1
_chemical_formula_structural   Zr4TiSi3GeMo3
_chemical_formula_sum   'Zr4 Ti1 Si3 Ge1 Mo3'
_cell_volume   208.12018950
_cell_formula_units_Z   1
loop_
 _symmetry_equiv_pos_site_id
 _symmetry_equiv_pos_as_xyz
  1  'x, y, z'
loop_
 _atom_site_type_symbol
 _atom_site_label
 _atom_site_symmetry_multiplicity
 _atom_site_fract_x
 _atom_site_fract_y
 _atom_site_fract_z
 _atom_site_occupancy
  Zr  Zr0  1  0.250000  0.045399  0.330658  1
  Zr  Zr1  1  0.250000  0.544891  0.165309  1
  Zr  Zr2  1  0.750000  0.949385  0.666213  1
  Zr  Zr3  1  0.750000  0.463328  0.831975  1
  Ti  Ti4  1  0.250000  0.123857  0.942796  1
  Si  Si5  1  0.250000  0.756141  0.864355  1
  Si  Si6  1  0.750000  0.743800  0.361597  1
  Si  Si7  1  0.750000  0.244515  0.138988  1
  Ge  Ge8  1  0.250000  0.253026  0.640209  1
  Mo  Mo9  1  0.250000  0.631991  0.559687  1
  Mo  Mo10  1  0.750000  0.869013  0.061022  1
  Mo  Mo11  1  0.750000  0.374651  0.437192  1
