# generated using pymatgen
data_Ba4CeCr2S9
_symmetry_space_group_name_H-M   'P 1'
_cell_length_a   12.04832100
_cell_length_b   12.04831983
_cell_length_c   9.66928200
_cell_angle_alpha   90.00000000
_cell_angle_beta   90.00000000
_cell_angle_gamma   120.00000046
_symmetry_Int_Tables_number   1
_chemical_formula_structural   Ba4CeCr2S9
_chemical_formula_sum   'Ba12 Ce3 Cr6 S27'
_cell_volume   1215.56412325
_cell_formula_units_Z   3
loop_
 _symmetry_equiv_pos_site_id
 _symmetry_equiv_pos_as_xyz
  1  'x, y, z'
loop_
 _atom_site_type_symbol
 _atom_site_label
 _atom_site_symmetry_multiplicity
 _atom_site_fract_x
 _atom_site_fract_y
 _atom_site_fract_z
 _atom_site_occupancy
  Ba  Ba0  1  0.000000  0.626234  0.500000  1
  Ba  Ba1  1  0.626234  0.000000  0.500000  1
  Ba  Ba2  1  0.000000  0.682057  0.000000  1
  Ba  Ba3  1  0.317943  0.317943  0.000000  1
  Ba  Ba4  1  0.703486  0.660408  0.751430  1
  Ba  Ba5  1  0.682057  0.000000  0.000000  1
  Ba  Ba6  1  0.339592  0.043078  0.751430  1
  Ba  Ba7  1  0.956922  0.296514  0.751430  1
  Ba  Ba8  1  0.043078  0.339592  0.248570  1
  Ba  Ba9  1  0.296514  0.956922  0.248570  1
  Ba  Ba10  1  0.660408  0.703486  0.248570  1
  Ba  Ba11  1  0.373766  0.373766  0.500000  1
  Ce  Ce12  1  0.666667  0.333333  0.255808  1
  Ce  Ce13  1  0.000000  0.000000  0.500000  1
  Ce  Ce14  1  0.333333  0.666667  0.744192  1
  Cr  Cr15  1  0.000000  0.000000  0.840851  1
  Cr  Cr16  1  0.000000  0.000000  0.159149  1
  Cr  Cr17  1  0.666667  0.333333  0.920010  1
  Cr  Cr18  1  0.333333  0.666667  0.079990  1
  Cr  Cr19  1  0.666667  0.333333  0.600752  1
  Cr  Cr20  1  0.333333  0.666667  0.399248  1
  S  S21  1  0.178650  0.496732  0.937040  1
  S  S22  1  0.503268  0.681918  0.937040  1
  S  S23  1  0.318082  0.821350  0.937040  1
  S  S24  1  0.681918  0.503268  0.062960  1
  S  S25  1  0.821350  0.318082  0.062960  1
  S  S26  1  0.496732  0.178650  0.062960  1
  S  S27  1  0.847564  0.847564  0.000000  1
  S  S28  1  0.000000  0.152436  0.000000  1
  S  S29  1  0.152436  0.000000  0.000000  1
  S  S30  1  0.520086  0.352996  0.760715  1
  S  S31  1  0.647004  0.167091  0.760715  1
  S  S32  1  0.832909  0.479914  0.760715  1
  S  S33  1  0.167091  0.647004  0.239286  1
  S  S34  1  0.479914  0.832909  0.239286  1
  S  S35  1  0.352996  0.520086  0.239286  1
  S  S36  1  0.178928  0.491631  0.545800  1
  S  S37  1  0.508369  0.687297  0.545800  1
  S  S38  1  0.312703  0.821072  0.545800  1
  S  S39  1  0.687297  0.508369  0.454200  1
  S  S40  1  0.821072  0.312703  0.454200  1
  S  S41  1  0.491631  0.178928  0.454200  1
  S  S42  1  0.172620  0.158766  0.304607  1
  S  S43  1  0.841234  0.013853  0.304607  1
  S  S44  1  0.986147  0.827380  0.304607  1
  S  S45  1  0.013853  0.841234  0.695393  1
  S  S46  1  0.827380  0.986147  0.695393  1
  S  S47  1  0.158766  0.172620  0.695393  1
