# generated using pymatgen
data_YHo(Tm4Bi3)2
_symmetry_space_group_name_H-M   'P 1'
_cell_length_a   8.19480700
_cell_length_b   9.45269900
_cell_length_c   11.93648100
_cell_angle_alpha   90.00000000
_cell_angle_beta   90.00000000
_cell_angle_gamma   90.00000000
_symmetry_Int_Tables_number   1
_chemical_formula_structural   YHo(Tm4Bi3)2
_chemical_formula_sum   'Y2 Ho2 Tm16 Bi12'
_cell_volume   924.63615212
_cell_formula_units_Z   2
loop_
 _symmetry_equiv_pos_site_id
 _symmetry_equiv_pos_as_xyz
  1  'x, y, z'
loop_
 _atom_site_type_symbol
 _atom_site_label
 _atom_site_symmetry_multiplicity
 _atom_site_fract_x
 _atom_site_fract_y
 _atom_site_fract_z
 _atom_site_occupancy
  Y  Y0  1  0.313930  0.250000  0.218168  1
  Y  Y1  1  0.813930  0.250000  0.281832  1
  Ho  Ho2  1  0.686245  0.750000  0.782038  1
  Ho  Ho3  1  0.186245  0.750000  0.717962  1
  Tm  Tm4  1  0.353563  0.750000  0.217468  1
  Tm  Tm5  1  0.853563  0.750000  0.282532  1
  Tm  Tm6  1  0.646427  0.250000  0.782508  1
  Tm  Tm7  1  0.146427  0.250000  0.717492  1
  Tm  Tm8  1  0.692168  0.565784  0.059519  1
  Tm  Tm9  1  0.192168  0.934216  0.440481  1
  Tm  Tm10  1  0.307809  0.065728  0.940326  1
  Tm  Tm11  1  0.807809  0.434272  0.559674  1
  Tm  Tm12  1  0.307809  0.434272  0.940326  1
  Tm  Tm13  1  0.807809  0.065728  0.559674  1
  Tm  Tm14  1  0.692168  0.934216  0.059519  1
  Tm  Tm15  1  0.192168  0.565784  0.440481  1
  Tm  Tm16  1  0.476791  0.250000  0.489654  1
  Tm  Tm17  1  0.976791  0.250000  0.010346  1
  Tm  Tm18  1  0.523156  0.750000  0.510707  1
  Tm  Tm19  1  0.023156  0.750000  0.989293  1
  Bi  Bi20  1  0.404264  0.750000  0.958237  1
  Bi  Bi21  1  0.904264  0.750000  0.541763  1
  Bi  Bi22  1  0.595856  0.250000  0.041393  1
  Bi  Bi23  1  0.095856  0.250000  0.458607  1
  Bi  Bi24  1  0.566034  0.995197  0.326075  1
  Bi  Bi25  1  0.066034  0.504803  0.173925  1
  Bi  Bi26  1  0.433874  0.495554  0.674077  1
  Bi  Bi27  1  0.933874  0.004446  0.825923  1
  Bi  Bi28  1  0.433874  0.004446  0.674077  1
  Bi  Bi29  1  0.933874  0.495554  0.825923  1
  Bi  Bi30  1  0.566034  0.504803  0.326075  1
  Bi  Bi31  1  0.066034  0.995197  0.173925  1
