# generated using pymatgen
data_YbPrErGa9Pd2
_symmetry_space_group_name_H-M   'P 1'
_cell_length_a   8.20614731
_cell_length_b   8.20614697
_cell_length_c   8.20614636
_cell_angle_alpha   149.21426651
_cell_angle_beta   109.66815371
_cell_angle_gamma   78.71676412
_symmetry_Int_Tables_number   1
_chemical_formula_structural   YbPrErGa9Pd2
_chemical_formula_sum   'Yb1 Pr1 Er1 Ga9 Pd2'
_cell_volume   261.28137593
_cell_formula_units_Z   1
loop_
 _symmetry_equiv_pos_site_id
 _symmetry_equiv_pos_as_xyz
  1  'x, y, z'
loop_
 _atom_site_type_symbol
 _atom_site_label
 _atom_site_symmetry_multiplicity
 _atom_site_fract_x
 _atom_site_fract_y
 _atom_site_fract_z
 _atom_site_occupancy
  Yb  Yb0  1  0.800407  0.800407  0.000000  1
  Pr  Pr1  1  0.500263  0.500263  0.000000  1
  Er  Er2  1  0.200192  0.200192  0.000000  1
  Ga  Ga3  1  0.074396  0.358650  0.715746  1
  Ga  Ga4  1  0.923546  0.639369  0.284176  1
  Ga  Ga5  1  0.642906  0.358650  0.284254  1
  Ga  Ga6  1  0.355193  0.639369  0.715824  1
  Ga  Ga7  1  0.796864  0.159835  0.637030  1
  Ga  Ga8  1  0.207216  0.842231  0.364985  1
  Ga  Ga9  1  0.522804  0.159835  0.362970  1
  Ga  Ga10  1  0.477246  0.842231  0.635015  1
  Ga  Ga11  1  0.999716  0.499716  0.500000  1
  Pd  Pd12  1  0.819565  0.999625  0.819939  1
  Pd  Pd13  1  0.179687  0.999625  0.180061  1
