# generated using pymatgen
data_Hg2RuPtO7
_symmetry_space_group_name_H-M   'P 1'
_cell_length_a   7.31878792
_cell_length_b   7.31878803
_cell_length_c   7.37432400
_cell_angle_alpha   59.74866739
_cell_angle_beta   59.74866686
_cell_angle_gamma   59.81790384
_symmetry_Int_Tables_number   1
_chemical_formula_structural   Hg2RuPtO7
_chemical_formula_sum   'Hg4 Ru2 Pt2 O14'
_cell_volume   277.86161361
_cell_formula_units_Z   2
loop_
 _symmetry_equiv_pos_site_id
 _symmetry_equiv_pos_as_xyz
  1  'x, y, z'
loop_
 _atom_site_type_symbol
 _atom_site_label
 _atom_site_symmetry_multiplicity
 _atom_site_fract_x
 _atom_site_fract_y
 _atom_site_fract_z
 _atom_site_occupancy
  Hg  Hg0  1  0.125000  0.125000  0.125000  1
  Hg  Hg1  1  0.625000  0.125000  0.125000  1
  Hg  Hg2  1  0.125000  0.625000  0.125000  1
  Hg  Hg3  1  0.125000  0.125000  0.625000  1
  Ru  Ru4  1  0.625000  0.625000  0.125000  1
  Ru  Ru5  1  0.625000  0.625000  0.625000  1
  Pt  Pt6  1  0.625000  0.125000  0.625000  1
  Pt  Pt7  1  0.125000  0.625000  0.625000  1
  O  O8  1  0.688851  0.307414  0.298632  1
  O  O9  1  0.688851  0.307414  0.705103  1
  O  O10  1  0.992543  0.992543  0.007457  1
  O  O11  1  0.307414  0.688851  0.298632  1
  O  O12  1  0.679565  0.679565  0.320435  1
  O  O13  1  0.942586  0.561149  0.544897  1
  O  O14  1  0.307414  0.688851  0.705103  1
  O  O15  1  0.257457  0.257457  0.242543  1
  O  O16  1  0.942586  0.561149  0.951368  1
  O  O17  1  0.561149  0.942586  0.544897  1
  O  O18  1  0.570435  0.570435  0.929565  1
  O  O19  1  0.961304  0.961304  0.538696  1
  O  O20  1  0.561149  0.942586  0.951368  1
  O  O21  1  0.288696  0.288696  0.711304  1
