# generated using pymatgen
data_Pr6In4HgPb5
_symmetry_space_group_name_H-M   'P 1'
_cell_length_a   6.74046495
_cell_length_b   6.74046583
_cell_length_c   10.65775800
_cell_angle_alpha   90.00000000
_cell_angle_beta   90.00000000
_cell_angle_gamma   102.76560247
_symmetry_Int_Tables_number   1
_chemical_formula_structural   Pr6In4HgPb5
_chemical_formula_sum   'Pr6 In4 Hg1 Pb5'
_cell_volume   472.25429016
_cell_formula_units_Z   1
loop_
 _symmetry_equiv_pos_site_id
 _symmetry_equiv_pos_as_xyz
  1  'x, y, z'
loop_
 _atom_site_type_symbol
 _atom_site_label
 _atom_site_symmetry_multiplicity
 _atom_site_fract_x
 _atom_site_fract_y
 _atom_site_fract_z
 _atom_site_occupancy
  Pr  Pr0  1  0.633368  0.633368  0.250000  1
  Pr  Pr1  1  0.372882  0.372882  0.750000  1
  Pr  Pr2  1  0.204291  0.797091  0.497443  1
  Pr  Pr3  1  0.204291  0.797091  0.002557  1
  Pr  Pr4  1  0.797091  0.204291  0.497443  1
  Pr  Pr5  1  0.797091  0.204291  0.002557  1
  In  In6  1  0.308431  0.308431  0.048657  1
  In  In7  1  0.689997  0.689997  0.959079  1
  In  In8  1  0.308431  0.308431  0.451343  1
  In  In9  1  0.689997  0.689997  0.540921  1
  Hg  Hg10  1  0.009112  0.009112  0.250000  1
  Pb  Pb11  1  0.984057  0.984057  0.750000  1
  Pb  Pb12  1  0.502628  0.078960  0.250000  1
  Pb  Pb13  1  0.922581  0.496793  0.750000  1
  Pb  Pb14  1  0.496793  0.922581  0.750000  1
  Pb  Pb15  1  0.078960  0.502628  0.250000  1
