# generated using pymatgen
data_Yb4Dy3Ho3Ir4
_symmetry_space_group_name_H-M   'P 1'
_cell_length_a   6.51926304
_cell_length_b   7.27255507
_cell_length_c   8.48142615
_cell_angle_alpha   97.00215333
_cell_angle_beta   112.62140900
_cell_angle_gamma   90.02878230
_symmetry_Int_Tables_number   1
_chemical_formula_structural   Yb4Dy3Ho3Ir4
_chemical_formula_sum   'Yb4 Dy3 Ho3 Ir4'
_cell_volume   367.92076930
_cell_formula_units_Z   1
loop_
 _symmetry_equiv_pos_site_id
 _symmetry_equiv_pos_as_xyz
  1  'x, y, z'
loop_
 _atom_site_type_symbol
 _atom_site_label
 _atom_site_symmetry_multiplicity
 _atom_site_fract_x
 _atom_site_fract_y
 _atom_site_fract_z
 _atom_site_occupancy
  Yb  Yb0  1  0.973632  0.920951  0.182750  1
  Yb  Yb1  1  0.791012  0.579034  0.817227  1
  Yb  Yb2  1  0.026267  0.079168  0.817228  1
  Yb  Yb3  1  0.209078  0.420864  0.182723  1
  Dy  Dy4  1  0.650837  0.817911  0.439798  1
  Dy  Dy5  1  0.210771  0.682052  0.560147  1
  Dy  Dy6  1  0.349275  0.182156  0.560146  1
  Ho  Ho7  1  0.789100  0.317943  0.439666  1
  Ho  Ho8  1  0.431414  0.749990  0.999995  1
  Ho  Ho9  1  0.568728  0.250023  0.000193  1
  Ir  Ir10  1  0.815047  0.571949  0.226170  1
  Ir  Ir11  1  0.589099  0.927785  0.774025  1
  Ir  Ir12  1  0.184578  0.427736  0.773762  1
  Ir  Ir13  1  0.411162  0.072436  0.226170  1
