# generated using pymatgen
data_Tb2GdAuO6
_symmetry_space_group_name_H-M   'P 1'
_cell_length_a   3.66103742
_cell_length_b   5.60966593
_cell_length_c   7.08845342
_cell_angle_alpha   90.32128454
_cell_angle_beta   102.81867199
_cell_angle_gamma   91.18504387
_symmetry_Int_Tables_number   1
_chemical_formula_structural   Tb2GdAuO6
_chemical_formula_sum   'Tb2 Gd1 Au1 O6'
_cell_volume   141.91064108
_cell_formula_units_Z   1
loop_
 _symmetry_equiv_pos_site_id
 _symmetry_equiv_pos_as_xyz
  1  'x, y, z'
loop_
 _atom_site_type_symbol
 _atom_site_label
 _atom_site_symmetry_multiplicity
 _atom_site_fract_x
 _atom_site_fract_y
 _atom_site_fract_z
 _atom_site_occupancy
  Tb  Tb0  1  0.388143  0.470852  0.235727  1
  Tb  Tb1  1  0.611856  0.529148  0.764273  1
  Gd  Gd2  1  0.000000  0.999999  0.500000  1
  Au  Au3  1  0.000000  0.000000  0.000000  1
  O  O4  1  0.839825  0.687814  0.111504  1
  O  O5  1  0.872477  0.208029  0.210448  1
  O  O6  1  0.480731  0.742438  0.475662  1
  O  O7  1  0.519269  0.257562  0.524339  1
  O  O8  1  0.127526  0.791971  0.789552  1
  O  O9  1  0.160174  0.312186  0.888494  1
