# generated using pymatgen
data_Y3Zr7Co5Si20Ir3
_symmetry_space_group_name_H-M   'P 1'
_cell_length_a   12.27457420
_cell_length_b   12.27979064
_cell_length_c   4.04709800
_cell_angle_alpha   90.00000000
_cell_angle_beta   90.00000000
_cell_angle_gamma   89.85595694
_symmetry_Int_Tables_number   1
_chemical_formula_structural   Y3Zr7Co5Si20Ir3
_chemical_formula_sum   'Y3 Zr7 Co5 Si20 Ir3'
_cell_volume   610.01392154
_cell_formula_units_Z   1
loop_
 _symmetry_equiv_pos_site_id
 _symmetry_equiv_pos_as_xyz
  1  'x, y, z'
loop_
 _atom_site_type_symbol
 _atom_site_label
 _atom_site_symmetry_multiplicity
 _atom_site_fract_x
 _atom_site_fract_y
 _atom_site_fract_z
 _atom_site_occupancy
  Y  Y0  1  0.115550  0.613943  0.500000  1
  Y  Y1  1  0.386500  0.113091  0.500000  1
  Y  Y2  1  0.613676  0.885272  0.500000  1
  Zr  Zr3  1  0.500264  0.505974  0.000000  1
  Zr  Zr4  1  0.000928  0.999856  0.000000  1
  Zr  Zr5  1  0.680148  0.176868  0.500000  1
  Zr  Zr6  1  0.325799  0.823676  0.500000  1
  Zr  Zr7  1  0.176291  0.324350  0.500000  1
  Zr  Zr8  1  0.817390  0.672808  0.500000  1
  Zr  Zr9  1  0.882663  0.385337  0.500000  1
  Co  Co10  1  0.740221  0.525128  0.000000  1
  Co  Co11  1  0.257806  0.478758  0.000000  1
  Co  Co12  1  0.242917  0.976426  0.000000  1
  Co  Co13  1  0.760247  0.024816  0.000000  1
  Co  Co14  1  0.474815  0.742033  0.000000  1
  Si  Si15  1  0.573573  0.064377  0.000000  1
  Si  Si16  1  0.431190  0.929894  0.000000  1
  Si  Si17  1  0.070729  0.436372  0.000000  1
  Si  Si18  1  0.924887  0.561314  0.000000  1
  Si  Si19  1  0.654222  0.695591  0.000000  1
  Si  Si20  1  0.336640  0.306229  0.000000  1
  Si  Si21  1  0.165305  0.803750  0.000000  1
  Si  Si22  1  0.837710  0.197309  0.000000  1
  Si  Si23  1  0.306116  0.657287  0.000000  1
  Si  Si24  1  0.704205  0.346163  0.000000  1
  Si  Si25  1  0.201558  0.156150  0.000000  1
  Si  Si26  1  0.796660  0.843117  0.000000  1
  Si  Si27  1  0.664174  0.497786  0.500000  1
  Si  Si28  1  0.338548  0.487778  0.500000  1
  Si  Si29  1  0.162718  0.990282  0.500000  1
  Si  Si30  1  0.838698  0.004854  0.500000  1
  Si  Si31  1  0.495008  0.665395  0.500000  1
  Si  Si32  1  0.505259  0.349385  0.500000  1
  Si  Si33  1  0.001852  0.154951  0.500000  1
  Si  Si34  1  0.991675  0.846128  0.500000  1
  Ir  Ir35  1  0.525210  0.257588  0.000000  1
  Ir  Ir36  1  0.022876  0.246453  0.000000  1
  Ir  Ir37  1  0.975972  0.753509  0.000000  1
