# generated using pymatgen
data_Th2Si4RuRh5
_symmetry_space_group_name_H-M   'P 1'
_cell_length_a   6.70551381
_cell_length_b   6.67249042
_cell_length_c   6.70551199
_cell_angle_alpha   130.05894016
_cell_angle_beta   114.91378065
_cell_angle_gamma   86.44739338
_symmetry_Int_Tables_number   1
_chemical_formula_structural   Th2Si4RuRh5
_chemical_formula_sum   'Th2 Si4 Ru1 Rh5'
_cell_volume   198.58475307
_cell_formula_units_Z   1
loop_
 _symmetry_equiv_pos_site_id
 _symmetry_equiv_pos_as_xyz
  1  'x, y, z'
loop_
 _atom_site_type_symbol
 _atom_site_label
 _atom_site_symmetry_multiplicity
 _atom_site_fract_x
 _atom_site_fract_y
 _atom_site_fract_z
 _atom_site_occupancy
  Th  Th0  1  0.751554  0.040736  0.290393  1
  Th  Th1  1  0.249656  0.959264  0.710818  1
  Si  Si2  1  0.576495  0.385540  0.807444  1
  Si  Si3  1  0.421904  0.614460  0.190955  1
  Si  Si4  1  0.078812  0.275125  0.198175  1
  Si  Si5  1  0.923050  0.724875  0.803687  1
  Ru  Ru6  1  0.216215  0.500000  0.716215  1
  Rh  Rh7  1  0.714299  0.000000  0.714299  1
  Rh  Rh8  1  0.787159  0.500000  0.287159  1
  Rh  Rh9  1  0.285546  0.000000  0.285546  1
  Rh  Rh10  1  0.498648  0.498136  0.494797  1
  Rh  Rh11  1  0.996661  0.501864  0.000511  1
