# generated using pymatgen
data_Sm6Cd23Sn
_symmetry_space_group_name_H-M   'P 1'
_cell_length_a   10.08731025
_cell_length_b   10.08731002
_cell_length_c   10.08731000
_cell_angle_alpha   60.00000007
_cell_angle_beta   60.00000081
_cell_angle_gamma   59.99999791
_symmetry_Int_Tables_number   1
_chemical_formula_structural   Sm6Cd23Sn
_chemical_formula_sum   'Sm6 Cd23 Sn1'
_cell_volume   725.79022127
_cell_formula_units_Z   1
loop_
 _symmetry_equiv_pos_site_id
 _symmetry_equiv_pos_as_xyz
  1  'x, y, z'
loop_
 _atom_site_type_symbol
 _atom_site_label
 _atom_site_symmetry_multiplicity
 _atom_site_fract_x
 _atom_site_fract_y
 _atom_site_fract_z
 _atom_site_occupancy
  Sm  Sm0  1  0.780311  0.780311  0.219689  1
  Sm  Sm1  1  0.219689  0.780311  0.219689  1
  Sm  Sm2  1  0.780311  0.219689  0.219689  1
  Sm  Sm3  1  0.219689  0.219689  0.780311  1
  Sm  Sm4  1  0.780311  0.219689  0.780311  1
  Sm  Sm5  1  0.219689  0.780311  0.780311  1
  Cd  Cd6  1  0.840473  0.840473  0.478581  1
  Cd  Cd7  1  0.840473  0.478581  0.840473  1
  Cd  Cd8  1  0.478581  0.840473  0.840473  1
  Cd  Cd9  1  0.840473  0.840473  0.840473  1
  Cd  Cd10  1  0.159527  0.159527  0.521419  1
  Cd  Cd11  1  0.159527  0.521419  0.159527  1
  Cd  Cd12  1  0.521419  0.159527  0.159527  1
  Cd  Cd13  1  0.159527  0.159527  0.159527  1
  Cd  Cd14  1  0.624241  0.624241  0.127277  1
  Cd  Cd15  1  0.624241  0.127277  0.624241  1
  Cd  Cd16  1  0.127277  0.624241  0.624241  1
  Cd  Cd17  1  0.624241  0.624241  0.624241  1
  Cd  Cd18  1  0.375759  0.375759  0.872723  1
  Cd  Cd19  1  0.375759  0.872723  0.375759  1
  Cd  Cd20  1  0.872723  0.375759  0.375759  1
  Cd  Cd21  1  0.375759  0.375759  0.375759  1
  Cd  Cd22  1  0.000000  0.000000  0.500000  1
  Cd  Cd23  1  0.500000  0.000000  0.500000  1
  Cd  Cd24  1  0.000000  0.500000  0.500000  1
  Cd  Cd25  1  0.500000  0.500000  0.000000  1
  Cd  Cd26  1  0.000000  0.500000  0.000000  1
  Cd  Cd27  1  0.500000  0.000000  0.000000  1
  Cd  Cd28  1  0.500000  0.500000  0.500000  1
  Sn  Sn29  1  0.000000  0.000000  0.000000  1
