# generated using pymatgen
data_MgCoSb4(Br2O3)2
_symmetry_space_group_name_H-M   'P 1'
_cell_length_a   5.34192346
_cell_length_b   8.50870975
_cell_length_c   8.18593113
_cell_angle_alpha   87.68141771
_cell_angle_beta   81.47072671
_cell_angle_gamma   82.36087719
_symmetry_Int_Tables_number   1
_chemical_formula_structural   MgCoSb4(Br2O3)2
_chemical_formula_sum   'Mg1 Co1 Sb4 Br4 O6'
_cell_volume   364.61176760
_cell_formula_units_Z   1
loop_
 _symmetry_equiv_pos_site_id
 _symmetry_equiv_pos_as_xyz
  1  'x, y, z'
loop_
 _atom_site_type_symbol
 _atom_site_label
 _atom_site_symmetry_multiplicity
 _atom_site_fract_x
 _atom_site_fract_y
 _atom_site_fract_z
 _atom_site_occupancy
  Mg  Mg0  1  0.516343  0.490044  0.295178  1
  Co  Co1  1  0.477297  0.511301  0.709526  1
  Sb  Sb2  1  0.094256  0.316296  0.034289  1
  Sb  Sb3  1  0.056651  0.304034  0.473967  1
  Sb  Sb4  1  0.943746  0.693829  0.526225  1
  Sb  Sb5  1  0.901219  0.684425  0.967526  1
  Br  Br6  1  0.350935  0.781706  0.208786  1
  Br  Br7  1  0.757431  0.140126  0.307411  1
  Br  Br8  1  0.248455  0.853680  0.697108  1
  Br  Br9  1  0.637829  0.227219  0.782650  1
  O  O10  1  0.785092  0.484930  0.092317  1
  O  O11  1  0.232018  0.366331  0.242925  1
  O  O12  1  0.768722  0.487853  0.467690  1
  O  O13  1  0.242351  0.513641  0.526067  1
  O  O14  1  0.773657  0.628147  0.756249  1
  O  O15  1  0.213998  0.516434  0.912089  1
