# generated using pymatgen
data_Pr6ScNb(Co4P3)4
_symmetry_space_group_name_H-M   'P 1'
_cell_length_a   3.79736500
_cell_length_b   10.83256900
_cell_length_c   12.63574900
_cell_angle_alpha   90.00000000
_cell_angle_beta   90.00000000
_cell_angle_gamma   90.00000000
_symmetry_Int_Tables_number   1
_chemical_formula_structural   Pr6ScNb(Co4P3)4
_chemical_formula_sum   'Pr6 Sc1 Nb1 Co16 P12'
_cell_volume   519.77429452
_cell_formula_units_Z   1
loop_
 _symmetry_equiv_pos_site_id
 _symmetry_equiv_pos_as_xyz
  1  'x, y, z'
loop_
 _atom_site_type_symbol
 _atom_site_label
 _atom_site_symmetry_multiplicity
 _atom_site_fract_x
 _atom_site_fract_y
 _atom_site_fract_z
 _atom_site_occupancy
  Pr  Pr0  1  0.000000  0.500000  0.526540  1
  Pr  Pr1  1  0.500000  0.000000  0.473165  1
  Pr  Pr2  1  0.500000  0.820346  0.205731  1
  Pr  Pr3  1  0.500000  0.179654  0.205731  1
  Pr  Pr4  1  0.000000  0.680042  0.794610  1
  Pr  Pr5  1  0.000000  0.319958  0.794610  1
  Sc  Sc6  1  0.500000  0.500000  0.152796  1
  Nb  Nb7  1  0.000000  0.000000  0.844946  1
  Co  Co8  1  0.500000  0.500000  0.705428  1
  Co  Co9  1  0.000000  0.000000  0.295769  1
  Co  Co10  1  0.000000  0.500000  0.986286  1
  Co  Co11  1  0.500000  0.000000  0.011785  1
  Co  Co12  1  0.500000  0.329769  0.993650  1
  Co  Co13  1  0.500000  0.670231  0.993650  1
  Co  Co14  1  0.000000  0.165571  0.005339  1
  Co  Co15  1  0.000000  0.834429  0.005339  1
  Co  Co16  1  0.500000  0.294730  0.433440  1
  Co  Co17  1  0.500000  0.705270  0.433440  1
  Co  Co18  1  0.000000  0.203231  0.568694  1
  Co  Co19  1  0.000000  0.796769  0.568694  1
  Co  Co20  1  0.500000  0.881172  0.704309  1
  Co  Co21  1  0.500000  0.118828  0.704309  1
  Co  Co22  1  0.000000  0.619615  0.296992  1
  Co  Co23  1  0.000000  0.380385  0.296992  1
  P  P24  1  0.500000  0.500000  0.888106  1
  P  P25  1  0.000000  0.000000  0.112828  1
  P  P26  1  0.500000  0.500000  0.354018  1
  P  P27  1  0.000000  0.000000  0.648815  1
  P  P28  1  0.500000  0.303914  0.613269  1
  P  P29  1  0.500000  0.696086  0.613269  1
  P  P30  1  0.000000  0.196497  0.387350  1
  P  P31  1  0.000000  0.803503  0.387350  1
  P  P32  1  0.500000  0.844031  0.895723  1
  P  P33  1  0.500000  0.155969  0.895723  1
  P  P34  1  0.000000  0.658532  0.100650  1
  P  P35  1  0.000000  0.341468  0.100650  1
