# generated using pymatgen
data_Ac2La(HgPd)3
_symmetry_space_group_name_H-M   'P 1'
_cell_length_a   8.01896874
_cell_length_b   8.01301924
_cell_length_c   4.11470100
_cell_angle_alpha   90.00000000
_cell_angle_beta   90.00000000
_cell_angle_gamma   119.97545997
_symmetry_Int_Tables_number   1
_chemical_formula_structural   Ac2La(HgPd)3
_chemical_formula_sum   'Ac2 La1 Hg3 Pd3'
_cell_volume   229.02925447
_cell_formula_units_Z   1
loop_
 _symmetry_equiv_pos_site_id
 _symmetry_equiv_pos_as_xyz
  1  'x, y, z'
loop_
 _atom_site_type_symbol
 _atom_site_label
 _atom_site_symmetry_multiplicity
 _atom_site_fract_x
 _atom_site_fract_y
 _atom_site_fract_z
 _atom_site_occupancy
  Ac  Ac0  1  0.402096  0.402029  0.500000  1
  Ac  Ac1  1  0.597904  0.999932  0.500000  1
  La  La2  1  0.000000  0.598909  0.500000  1
  Hg  Hg3  1  0.747952  0.743205  0.000000  1
  Hg  Hg4  1  0.252048  0.995253  0.000000  1
  Hg  Hg5  1  0.000000  0.260035  0.000000  1
  Pd  Pd6  1  0.670836  0.336487  0.000000  1
  Pd  Pd7  1  0.329164  0.665652  0.000000  1
  Pd  Pd8  1  0.000000  0.998498  0.500000  1
