# generated using pymatgen
data_Dy20Ir2Pd7Ru3
_symmetry_space_group_name_H-M   'P 1'
_cell_length_a   10.95348914
_cell_length_b   10.95863975
_cell_length_c   6.31895600
_cell_angle_alpha   89.88710382
_cell_angle_beta   89.87482104
_cell_angle_gamma   90.32675726
_symmetry_Int_Tables_number   1
_chemical_formula_structural   Dy20Ir2Pd7Ru3
_chemical_formula_sum   'Dy20 Ir2 Pd7 Ru3'
_cell_volume   758.48240562
_cell_formula_units_Z   1
loop_
 _symmetry_equiv_pos_site_id
 _symmetry_equiv_pos_as_xyz
  1  'x, y, z'
loop_
 _atom_site_type_symbol
 _atom_site_label
 _atom_site_symmetry_multiplicity
 _atom_site_fract_x
 _atom_site_fract_y
 _atom_site_fract_z
 _atom_site_occupancy
  Dy  Dy0  1  0.296695  0.082704  0.363272  1
  Dy  Dy1  1  0.296531  0.909281  0.864475  1
  Dy  Dy2  1  0.702291  0.083742  0.862441  1
  Dy  Dy3  1  0.702673  0.914554  0.361495  1
  Dy  Dy4  1  0.579769  0.793631  0.862043  1
  Dy  Dy5  1  0.584515  0.203621  0.364110  1
  Dy  Dy6  1  0.412742  0.792617  0.370679  1
  Dy  Dy7  1  0.414348  0.201246  0.863602  1
  Dy  Dy8  1  0.208137  0.419685  0.640236  1
  Dy  Dy9  1  0.208191  0.588948  0.129432  1
  Dy  Dy10  1  0.795441  0.413844  0.135165  1
  Dy  Dy11  1  0.797051  0.586595  0.638179  1
  Dy  Dy12  1  0.915543  0.704184  0.135858  1
  Dy  Dy13  1  0.914997  0.296175  0.639450  1
  Dy  Dy14  1  0.091926  0.704980  0.636978  1
  Dy  Dy15  1  0.087051  0.296482  0.137959  1
  Dy  Dy16  1  0.998947  0.000988  0.500095  1
  Dy  Dy17  1  0.999253  0.001128  0.998347  1
  Dy  Dy18  1  0.497056  0.500835  0.998630  1
  Dy  Dy19  1  0.499221  0.502727  0.498720  1
  Ir  Ir20  1  0.346798  0.652659  0.749573  1
  Ir  Ir21  1  0.000250  0.500067  0.386026  1
  Pd  Pd22  1  0.844800  0.154847  0.249559  1
  Pd  Pd23  1  0.843732  0.845416  0.750890  1
  Pd  Pd24  1  0.154751  0.156376  0.748398  1
  Pd  Pd25  1  0.153073  0.847140  0.249487  1
  Pd  Pd26  1  0.654093  0.346166  0.749402  1
  Pd  Pd27  1  0.656393  0.655517  0.248454  1
  Pd  Pd28  1  0.344334  0.343632  0.249890  1
  Ru  Ru29  1  0.499953  0.999815  0.116869  1
  Ru  Ru30  1  0.499886  0.000178  0.615349  1
  Ru  Ru31  1  0.999563  0.500223  0.884936  1
