# generated using pymatgen
data_Tb4Zr4IrPt3
_symmetry_space_group_name_H-M   'P 1'
_cell_length_a   4.69687400
_cell_length_b   7.18826840
_cell_length_c   8.20565848
_cell_angle_alpha   90.28476687
_cell_angle_beta   90.00000000
_cell_angle_gamma   90.00000000
_symmetry_Int_Tables_number   1
_chemical_formula_structural   Tb4Zr4IrPt3
_chemical_formula_sum   'Tb4 Zr4 Ir1 Pt3'
_cell_volume   277.03922804
_cell_formula_units_Z   1
loop_
 _symmetry_equiv_pos_site_id
 _symmetry_equiv_pos_as_xyz
  1  'x, y, z'
loop_
 _atom_site_type_symbol
 _atom_site_label
 _atom_site_symmetry_multiplicity
 _atom_site_fract_x
 _atom_site_fract_y
 _atom_site_fract_z
 _atom_site_occupancy
  Tb  Tb0  1  0.250000  0.018807  0.676851  1
  Tb  Tb1  1  0.250000  0.515338  0.819424  1
  Tb  Tb2  1  0.750000  0.986959  0.324430  1
  Tb  Tb3  1  0.750000  0.481867  0.177929  1
  Zr  Zr4  1  0.250000  0.146548  0.081858  1
  Zr  Zr5  1  0.250000  0.641691  0.417865  1
  Zr  Zr6  1  0.750000  0.852688  0.920055  1
  Zr  Zr7  1  0.750000  0.354406  0.577597  1
  Ir  Ir8  1  0.250000  0.273587  0.411259  1
  Pt  Pt9  1  0.250000  0.772742  0.091929  1
  Pt  Pt10  1  0.750000  0.729214  0.593057  1
  Pt  Pt11  1  0.750000  0.226154  0.907747  1
