# generated using pymatgen
data_TbYb2Dy(Ru2O7)2
_symmetry_space_group_name_H-M   'P 1'
_cell_length_a   7.23569161
_cell_length_b   7.23100343
_cell_length_c   7.23100223
_cell_angle_alpha   60.02540835
_cell_angle_beta   60.00771918
_cell_angle_gamma   60.00772075
_symmetry_Int_Tables_number   1
_chemical_formula_structural   TbYb2Dy(Ru2O7)2
_chemical_formula_sum   'Tb1 Yb2 Dy1 Ru4 O14'
_cell_volume   267.60617164
_cell_formula_units_Z   1
loop_
 _symmetry_equiv_pos_site_id
 _symmetry_equiv_pos_as_xyz
  1  'x, y, z'
loop_
 _atom_site_type_symbol
 _atom_site_label
 _atom_site_symmetry_multiplicity
 _atom_site_fract_x
 _atom_site_fract_y
 _atom_site_fract_z
 _atom_site_occupancy
  Tb  Tb0  1  0.125000  0.125000  0.125000  1
  Yb  Yb1  1  0.125000  0.125000  0.625000  1
  Yb  Yb2  1  0.125000  0.625000  0.125000  1
  Dy  Dy3  1  0.625000  0.125000  0.125000  1
  Ru  Ru4  1  0.625000  0.625000  0.125000  1
  Ru  Ru5  1  0.625000  0.125000  0.625000  1
  Ru  Ru6  1  0.125000  0.625000  0.625000  1
  Ru  Ru7  1  0.625000  0.625000  0.625000  1
  O  O8  1  0.254749  0.246646  0.246646  1
  O  O9  1  0.995251  0.003354  0.003354  1
  O  O10  1  0.297128  0.703783  0.296173  1
  O  O11  1  0.548177  0.953539  0.545697  1
  O  O12  1  0.297128  0.296173  0.703783  1
  O  O13  1  0.707771  0.291366  0.291366  1
  O  O14  1  0.304079  0.695914  0.695914  1
  O  O15  1  0.701823  0.704303  0.296461  1
  O  O16  1  0.701823  0.296461  0.704303  1
  O  O17  1  0.945921  0.554086  0.554086  1
  O  O18  1  0.542229  0.958634  0.958634  1
  O  O19  1  0.952872  0.546217  0.953827  1
  O  O20  1  0.548177  0.545697  0.953539  1
  O  O21  1  0.952872  0.953827  0.546217  1
