# generated using pymatgen
data_Cs3Al2Sb2As
_symmetry_space_group_name_H-M   'P 1'
_cell_length_a   6.46297900
_cell_length_b   8.52916392
_cell_length_c   11.76496991
_cell_angle_alpha   70.15696751
_cell_angle_beta   90.00003776
_cell_angle_gamma   89.99971509
_symmetry_Int_Tables_number   1
_chemical_formula_structural   Cs3Al2Sb2As
_chemical_formula_sum   'Cs6 Al4 Sb4 As2'
_cell_volume   610.02417705
_cell_formula_units_Z   2
loop_
 _symmetry_equiv_pos_site_id
 _symmetry_equiv_pos_as_xyz
  1  'x, y, z'
loop_
 _atom_site_type_symbol
 _atom_site_label
 _atom_site_symmetry_multiplicity
 _atom_site_fract_x
 _atom_site_fract_y
 _atom_site_fract_z
 _atom_site_occupancy
  Cs  Cs0  1  0.250003  0.457931  0.416149  1
  Cs  Cs1  1  0.749998  0.141639  0.919826  1
  Cs  Cs2  1  0.750000  0.459653  0.156251  1
  Cs  Cs3  1  0.250000  0.540347  0.843749  1
  Cs  Cs4  1  0.749997  0.542069  0.583851  1
  Cs  Cs5  1  0.250002  0.858361  0.080174  1
  Al  Al6  1  0.999619  0.017121  0.361680  1
  Al  Al7  1  0.499619  0.982878  0.638321  1
  Al  Al8  1  0.500381  0.017122  0.361679  1
  Al  Al9  1  0.000381  0.982879  0.638320  1
  Sb  Sb10  1  0.250001  0.229340  0.193174  1
  Sb  Sb11  1  0.749999  0.770660  0.806826  1
  Sb  Sb12  1  0.249999  0.161154  0.732496  1
  Sb  Sb13  1  0.750001  0.838846  0.267504  1
  As  As14  1  0.250001  0.835904  0.529373  1
  As  As15  1  0.749999  0.164096  0.470627  1
