# generated using pymatgen
data_SmHoAl20(RuRh)2
_symmetry_space_group_name_H-M   'P 1'
_cell_length_a   6.86326337
_cell_length_b   6.85416482
_cell_length_c   9.16764200
_cell_angle_alpha   90.00000000
_cell_angle_beta   90.00000000
_cell_angle_gamma   97.16499857
_symmetry_Int_Tables_number   1
_chemical_formula_structural   SmHoAl20(RuRh)2
_chemical_formula_sum   'Sm1 Ho1 Al20 Ru2 Rh2'
_cell_volume   427.89594671
_cell_formula_units_Z   1
loop_
 _symmetry_equiv_pos_site_id
 _symmetry_equiv_pos_as_xyz
  1  'x, y, z'
loop_
 _atom_site_type_symbol
 _atom_site_label
 _atom_site_symmetry_multiplicity
 _atom_site_fract_x
 _atom_site_fract_y
 _atom_site_fract_z
 _atom_site_occupancy
  Sm  Sm0  1  0.870559  0.124654  0.750000  1
  Ho  Ho1  1  0.131368  0.874554  0.250000  1
  Al  Al2  1  0.620636  0.376013  0.549234  1
  Al  Al3  1  0.378669  0.624458  0.450004  1
  Al  Al4  1  0.378669  0.624458  0.049996  1
  Al  Al5  1  0.620636  0.376013  0.950766  1
  Al  Al6  1  0.225504  0.223571  0.498298  1
  Al  Al7  1  0.774691  0.776146  0.500229  1
  Al  Al8  1  0.774691  0.776146  0.999771  1
  Al  Al9  1  0.225504  0.223571  0.001702  1
  Al  Al10  1  0.844178  0.154626  0.102250  1
  Al  Al11  1  0.156604  0.844513  0.898753  1
  Al  Al12  1  0.156604  0.844513  0.601247  1
  Al  Al13  1  0.844178  0.154626  0.397750  1
  Al  Al14  1  0.857011  0.589656  0.750000  1
  Al  Al15  1  0.143513  0.412310  0.250000  1
  Al  Al16  1  0.410966  0.140974  0.750000  1
  Al  Al17  1  0.587261  0.858537  0.250000  1
  Al  Al18  1  0.224656  0.481408  0.750000  1
  Al  Al19  1  0.776254  0.519598  0.250000  1
  Al  Al20  1  0.517817  0.777336  0.750000  1
  Al  Al21  1  0.481145  0.221915  0.250000  1
  Ru  Ru22  1  0.499563  0.999929  0.000819  1
  Ru  Ru23  1  0.499563  0.999929  0.499181  1
  Rh  Rh24  1  0.999880  0.500272  0.499429  1
  Rh  Rh25  1  0.999880  0.500272  0.000571  1
