# generated using pymatgen
data_Hf16Pt3Rh5O4
_symmetry_space_group_name_H-M   'P 1'
_cell_length_a   8.75573097
_cell_length_b   8.75573008
_cell_length_c   8.75573102
_cell_angle_alpha   60.00621484
_cell_angle_beta   60.00621743
_cell_angle_gamma   60.00621019
_symmetry_Int_Tables_number   1
_chemical_formula_structural   Hf16Pt3Rh5O4
_chemical_formula_sum   'Hf16 Pt3 Rh5 O4'
_cell_volume   474.70452179
_cell_formula_units_Z   1
loop_
 _symmetry_equiv_pos_site_id
 _symmetry_equiv_pos_as_xyz
  1  'x, y, z'
loop_
 _atom_site_type_symbol
 _atom_site_label
 _atom_site_symmetry_multiplicity
 _atom_site_fract_x
 _atom_site_fract_y
 _atom_site_fract_z
 _atom_site_occupancy
  Hf  Hf0  1  0.117793  0.626379  0.626379  1
  Hf  Hf1  1  0.626379  0.117793  0.626379  1
  Hf  Hf2  1  0.626379  0.626379  0.117793  1
  Hf  Hf3  1  0.628418  0.628418  0.628418  1
  Hf  Hf4  1  0.815721  0.815721  0.183839  1
  Hf  Hf5  1  0.183769  0.183769  0.815873  1
  Hf  Hf6  1  0.815721  0.183839  0.815721  1
  Hf  Hf7  1  0.183769  0.815873  0.183769  1
  Hf  Hf8  1  0.183839  0.815721  0.815721  1
  Hf  Hf9  1  0.815873  0.183769  0.183769  1
  Hf  Hf10  1  0.434804  0.434804  0.068559  1
  Hf  Hf11  1  0.064742  0.064742  0.435496  1
  Hf  Hf12  1  0.434804  0.068559  0.434804  1
  Hf  Hf13  1  0.064742  0.435496  0.064742  1
  Hf  Hf14  1  0.068559  0.434804  0.434804  1
  Hf  Hf15  1  0.435496  0.064742  0.064742  1
  Pt  Pt16  1  0.785551  0.404920  0.404920  1
  Pt  Pt17  1  0.404920  0.785551  0.404920  1
  Pt  Pt18  1  0.404920  0.404920  0.785551  1
  Rh  Rh19  1  0.404335  0.404335  0.404335  1
  Rh  Rh20  1  0.461065  0.846452  0.846452  1
  Rh  Rh21  1  0.846452  0.461065  0.846452  1
  Rh  Rh22  1  0.846452  0.846452  0.461065  1
  Rh  Rh23  1  0.845614  0.845614  0.845614  1
  O  O24  1  0.624651  0.124866  0.124866  1
  O  O25  1  0.124866  0.624651  0.124866  1
  O  O26  1  0.124866  0.124866  0.624651  1
  O  O27  1  0.125496  0.125496  0.125496  1
