# generated using pymatgen
data_Pr6Zn22AgS
_symmetry_space_group_name_H-M   'P 1'
_cell_length_a   9.26571475
_cell_length_b   9.26571488
_cell_length_c   9.26571500
_cell_angle_alpha   59.99999601
_cell_angle_beta   59.99999555
_cell_angle_gamma   59.99999337
_symmetry_Int_Tables_number   1
_chemical_formula_structural   Pr6Zn22AgS
_chemical_formula_sum   'Pr6 Zn22 Ag1 S1'
_cell_volume   562.49899269
_cell_formula_units_Z   1
loop_
 _symmetry_equiv_pos_site_id
 _symmetry_equiv_pos_as_xyz
  1  'x, y, z'
loop_
 _atom_site_type_symbol
 _atom_site_label
 _atom_site_symmetry_multiplicity
 _atom_site_fract_x
 _atom_site_fract_y
 _atom_site_fract_z
 _atom_site_occupancy
  Pr  Pr0  1  0.716201  0.283799  0.283799  1
  Pr  Pr1  1  0.716201  0.283799  0.716201  1
  Pr  Pr2  1  0.716201  0.716201  0.283799  1
  Pr  Pr3  1  0.283799  0.716201  0.716201  1
  Pr  Pr4  1  0.283799  0.716201  0.283799  1
  Pr  Pr5  1  0.283799  0.283799  0.716201  1
  Zn  Zn6  1  0.619152  0.126950  0.126950  1
  Zn  Zn7  1  0.126950  0.619152  0.126950  1
  Zn  Zn8  1  0.126950  0.126950  0.619152  1
  Zn  Zn9  1  0.126950  0.126950  0.126950  1
  Zn  Zn10  1  0.380848  0.873050  0.873050  1
  Zn  Zn11  1  0.873050  0.380848  0.873050  1
  Zn  Zn12  1  0.873050  0.873050  0.380848  1
  Zn  Zn13  1  0.873050  0.873050  0.873050  1
  Zn  Zn14  1  0.500000  0.000000  0.000000  1
  Zn  Zn15  1  0.500000  0.000000  0.500000  1
  Zn  Zn16  1  0.500000  0.500000  0.000000  1
  Zn  Zn17  1  0.000000  0.500000  0.500000  1
  Zn  Zn18  1  0.000000  0.500000  0.000000  1
  Zn  Zn19  1  0.000000  0.000000  0.500000  1
  Zn  Zn20  1  0.019553  0.326815  0.326815  1
  Zn  Zn21  1  0.326815  0.019553  0.326815  1
  Zn  Zn22  1  0.326815  0.326815  0.019553  1
  Zn  Zn23  1  0.326815  0.326815  0.326815  1
  Zn  Zn24  1  0.980447  0.673185  0.673185  1
  Zn  Zn25  1  0.673185  0.980447  0.673185  1
  Zn  Zn26  1  0.673185  0.673185  0.980447  1
  Zn  Zn27  1  0.673185  0.673185  0.673185  1
  Ag  Ag28  1  0.000000  0.000000  0.000000  1
  S  S29  1  0.500000  0.500000  0.500000  1
