# generated using pymatgen
data_Tb7YTi3Si16W9
_symmetry_space_group_name_H-M   'P 1'
_cell_length_a   6.91982838
_cell_length_b   6.91950464
_cell_length_c   12.86167223
_cell_angle_alpha   89.97647683
_cell_angle_beta   90.02302002
_cell_angle_gamma   89.91112365
_symmetry_Int_Tables_number   1
_chemical_formula_structural   Tb7YTi3Si16W9
_chemical_formula_sum   'Tb7 Y1 Ti3 Si16 W9'
_cell_volume   615.83897636
_cell_formula_units_Z   1
loop_
 _symmetry_equiv_pos_site_id
 _symmetry_equiv_pos_as_xyz
  1  'x, y, z'
loop_
 _atom_site_type_symbol
 _atom_site_label
 _atom_site_symmetry_multiplicity
 _atom_site_fract_x
 _atom_site_fract_y
 _atom_site_fract_z
 _atom_site_occupancy
  Tb  Tb0  1  0.497108  0.837270  0.719006  1
  Tb  Tb1  1  0.499476  0.162721  0.217614  1
  Tb  Tb2  1  0.837301  0.497144  0.280938  1
  Tb  Tb3  1  0.162818  0.499547  0.782387  1
  Tb  Tb4  1  0.661006  0.999009  0.968676  1
  Tb  Tb5  1  0.001881  0.338559  0.531585  1
  Tb  Tb6  1  0.999048  0.661056  0.031333  1
  Y  Y7  1  0.338619  0.001657  0.468403  1
  Ti  Ti8  1  0.170389  0.831746  0.248627  1
  Ti  Ti9  1  0.831758  0.170395  0.751396  1
  Ti  Ti10  1  0.668817  0.668590  0.500019  1
  Si  Si11  1  0.200556  0.127672  0.683508  1
  Si  Si12  1  0.374701  0.698273  0.933916  1
  Si  Si13  1  0.627464  0.298952  0.433977  1
  Si  Si14  1  0.698291  0.374707  0.066059  1
  Si  Si15  1  0.299036  0.627814  0.565991  1
  Si  Si16  1  0.797306  0.873308  0.184405  1
  Si  Si17  1  0.127829  0.200314  0.316503  1
  Si  Si18  1  0.873303  0.797228  0.815587  1
  Si  Si19  1  0.288700  0.963192  0.062368  1
  Si  Si20  1  0.539087  0.791097  0.313900  1
  Si  Si21  1  0.459573  0.209734  0.814011  1
  Si  Si22  1  0.791028  0.539177  0.686170  1
  Si  Si23  1  0.209723  0.459585  0.185987  1
  Si  Si24  1  0.709530  0.040328  0.563777  1
  Si  Si25  1  0.963238  0.288727  0.937661  1
  Si  Si26  1  0.040474  0.709946  0.436139  1
  W  W27  1  0.331976  0.331941  0.000021  1
  W  W28  1  0.159338  0.003462  0.873781  1
  W  W29  1  0.493863  0.665833  0.125142  1
  W  W30  1  0.505784  0.339296  0.624871  1
  W  W31  1  0.665772  0.493960  0.874923  1
  W  W32  1  0.339349  0.505980  0.375097  1
  W  W33  1  0.839035  0.993466  0.374666  1
  W  W34  1  0.003463  0.159300  0.126247  1
  W  W35  1  0.993363  0.839014  0.625309  1
