# generated using pymatgen
data_La12Nd8Ir7Rh5
_symmetry_space_group_name_H-M   'P 1'
_cell_length_a   11.33762690
_cell_length_b   11.33896917
_cell_length_c   6.67733712
_cell_angle_alpha   89.94969078
_cell_angle_beta   89.95642254
_cell_angle_gamma   90.01333112
_symmetry_Int_Tables_number   1
_chemical_formula_structural   La12Nd8Ir7Rh5
_chemical_formula_sum   'La12 Nd8 Ir7 Rh5'
_cell_volume   858.41783869
_cell_formula_units_Z   1
loop_
 _symmetry_equiv_pos_site_id
 _symmetry_equiv_pos_as_xyz
  1  'x, y, z'
loop_
 _atom_site_type_symbol
 _atom_site_label
 _atom_site_symmetry_multiplicity
 _atom_site_fract_x
 _atom_site_fract_y
 _atom_site_fract_z
 _atom_site_occupancy
  La  La0  1  0.091314  0.290343  0.111195  1
  La  La1  1  0.790652  0.408312  0.111028  1
  La  La2  1  0.209748  0.589785  0.111056  1
  La  La3  1  0.906981  0.708810  0.110921  1
  La  La4  1  0.409084  0.789595  0.389254  1
  La  La5  1  0.592722  0.210112  0.389582  1
  La  La6  1  0.290512  0.094156  0.389896  1
  La  La7  1  0.710318  0.907724  0.389348  1
  La  La8  1  0.407583  0.210966  0.887985  1
  La  La9  1  0.710614  0.092382  0.887512  1
  La  La10  1  0.290097  0.908133  0.886333  1
  La  La11  1  0.592586  0.789281  0.887610  1
  Nd  Nd12  1  0.088560  0.707063  0.612980  1
  Nd  Nd13  1  0.910817  0.292222  0.611540  1
  Nd  Nd14  1  0.207842  0.410677  0.611330  1
  Nd  Nd15  1  0.791847  0.589072  0.611033  1
  Nd  Nd16  1  0.999667  0.999984  0.000014  1
  Nd  Nd17  1  0.500219  0.500128  0.999461  1
  Nd  Nd18  1  0.499801  0.499888  0.501701  1
  Nd  Nd19  1  0.999835  0.000451  0.501296  1
  Ir  Ir20  1  0.346497  0.346000  0.249875  1
  Ir  Ir21  1  0.653219  0.654255  0.249999  1
  Ir  Ir22  1  0.845756  0.153441  0.249925  1
  Ir  Ir23  1  0.344799  0.653922  0.749251  1
  Ir  Ir24  1  0.153232  0.154252  0.749105  1
  Ir  Ir25  1  0.847091  0.845457  0.749404  1
  Ir  Ir26  1  0.654787  0.346634  0.749271  1
  Rh  Rh27  1  0.154258  0.846556  0.249392  1
  Rh  Rh28  1  0.000291  0.500653  0.379325  1
  Rh  Rh29  1  0.499286  0.999657  0.120548  1
  Rh  Rh30  1  0.499776  0.999828  0.620291  1
  Rh  Rh31  1  0.000207  0.500263  0.882541  1
