# generated using pymatgen
data_Ca4ZnSi2Pd27
_symmetry_space_group_name_H-M   'P 1'
_cell_length_a   8.91303393
_cell_length_b   8.91303393
_cell_length_c   7.11442884
_cell_angle_alpha   90.32117137
_cell_angle_beta   90.32117137
_cell_angle_gamma   89.26784859
_symmetry_Int_Tables_number   1
_chemical_formula_structural   Ca4ZnSi2Pd27
_chemical_formula_sum   'Ca4 Zn1 Si2 Pd27'
_cell_volume   565.12201502
_cell_formula_units_Z   1
loop_
 _symmetry_equiv_pos_site_id
 _symmetry_equiv_pos_as_xyz
  1  'x, y, z'
loop_
 _atom_site_type_symbol
 _atom_site_label
 _atom_site_symmetry_multiplicity
 _atom_site_fract_x
 _atom_site_fract_y
 _atom_site_fract_z
 _atom_site_occupancy
  Ca  Ca0  1  0.505228  0.005228  0.937552  1
  Ca  Ca1  1  0.994772  0.494772  0.062448  1
  Ca  Ca2  1  0.000246  0.999754  0.500000  1
  Ca  Ca3  1  0.499754  0.500246  0.500000  1
  Zn  Zn4  1  0.250000  0.750000  0.000000  1
  Si  Si5  1  0.502114  0.002114  0.446565  1
  Si  Si6  1  0.997886  0.497886  0.553435  1
  Pd  Pd7  1  0.336213  0.836213  0.611329  1
  Pd  Pd8  1  0.332454  0.166367  0.619548  1
  Pd  Pd9  1  0.666367  0.832454  0.619548  1
  Pd  Pd10  1  0.666665  0.166665  0.616688  1
  Pd  Pd11  1  0.163787  0.663787  0.388671  1
  Pd  Pd12  1  0.167546  0.333633  0.380452  1
  Pd  Pd13  1  0.833633  0.667546  0.380452  1
  Pd  Pd14  1  0.833335  0.333335  0.383312  1
  Pd  Pd15  1  0.500521  0.770436  0.255312  1
  Pd  Pd16  1  0.497389  0.230924  0.256969  1
  Pd  Pd17  1  0.270436  0.000521  0.255312  1
  Pd  Pd18  1  0.730924  0.997389  0.256969  1
  Pd  Pd19  1  0.999479  0.729564  0.744688  1
  Pd  Pd20  1  0.002611  0.269076  0.743031  1
  Pd  Pd21  1  0.229564  0.499479  0.744688  1
  Pd  Pd22  1  0.769076  0.502611  0.743031  1
  Pd  Pd23  1  0.498515  0.352409  0.856606  1
  Pd  Pd24  1  0.491996  0.658737  0.860654  1
  Pd  Pd25  1  0.852409  0.998515  0.856606  1
  Pd  Pd26  1  0.158737  0.991996  0.860654  1
  Pd  Pd27  1  0.001485  0.147591  0.143394  1
  Pd  Pd28  1  0.008004  0.841263  0.139346  1
  Pd  Pd29  1  0.647591  0.501485  0.143394  1
  Pd  Pd30  1  0.341263  0.508004  0.139346  1
  Pd  Pd31  1  0.250000  0.250000  0.000000  1
  Pd  Pd32  1  0.750000  0.750000  0.000000  1
  Pd  Pd33  1  0.750000  0.250000  0.000000  1
