# generated using pymatgen
data_NdTmGa2(Co3B)2
_symmetry_space_group_name_H-M   'P 1'
_cell_length_a   5.18412600
_cell_length_b   5.18412666
_cell_length_c   6.66891100
_cell_angle_alpha   90.00000000
_cell_angle_beta   90.00000000
_cell_angle_gamma   120.00000853
_symmetry_Int_Tables_number   1
_chemical_formula_structural   NdTmGa2(Co3B)2
_chemical_formula_sum   'Nd1 Tm1 Ga2 Co6 B2'
_cell_volume   155.21606475
_cell_formula_units_Z   1
loop_
 _symmetry_equiv_pos_site_id
 _symmetry_equiv_pos_as_xyz
  1  'x, y, z'
loop_
 _atom_site_type_symbol
 _atom_site_label
 _atom_site_symmetry_multiplicity
 _atom_site_fract_x
 _atom_site_fract_y
 _atom_site_fract_z
 _atom_site_occupancy
  Nd  Nd0  1  0.000000  0.000000  0.000000  1
  Tm  Tm1  1  0.000000  0.000000  0.500000  1
  Ga  Ga2  1  0.666667  0.333333  0.000000  1
  Ga  Ga3  1  0.333333  0.666667  0.000000  1
  Co  Co4  1  0.500000  0.500000  0.702490  1
  Co  Co5  1  0.500000  0.000000  0.702490  1
  Co  Co6  1  0.000000  0.500000  0.702490  1
  Co  Co7  1  0.500000  0.500000  0.297510  1
  Co  Co8  1  0.500000  0.000000  0.297510  1
  Co  Co9  1  0.000000  0.500000  0.297510  1
  B  B10  1  0.666667  0.333333  0.500000  1
  B  B11  1  0.333333  0.666667  0.500000  1
