# generated using pymatgen
data_Zr6Ta3TiAl12Os7
_symmetry_space_group_name_H-M   'P 1'
_cell_length_a   8.84631623
_cell_length_b   8.84570543
_cell_length_c   8.84555113
_cell_angle_alpha   60.05000593
_cell_angle_beta   60.04458993
_cell_angle_gamma   60.04355851
_symmetry_Int_Tables_number   1
_chemical_formula_structural   Zr6Ta3TiAl12Os7
_chemical_formula_sum   'Zr6 Ta3 Ti1 Al12 Os7'
_cell_volume   489.95693450
_cell_formula_units_Z   1
loop_
 _symmetry_equiv_pos_site_id
 _symmetry_equiv_pos_as_xyz
  1  'x, y, z'
loop_
 _atom_site_type_symbol
 _atom_site_label
 _atom_site_symmetry_multiplicity
 _atom_site_fract_x
 _atom_site_fract_y
 _atom_site_fract_z
 _atom_site_occupancy
  Zr  Zr0  1  0.703472  0.703460  0.294345  1
  Zr  Zr1  1  0.297970  0.701484  0.297985  1
  Zr  Zr2  1  0.701403  0.298069  0.298073  1
  Zr  Zr3  1  0.297952  0.297964  0.701498  1
  Zr  Zr4  1  0.703454  0.294365  0.703431  1
  Zr  Zr5  1  0.294442  0.703356  0.703346  1
  Ta  Ta6  1  0.878765  0.878767  0.362744  1
  Ta  Ta7  1  0.878761  0.362742  0.878768  1
  Ta  Ta8  1  0.362742  0.878757  0.878764  1
  Ti  Ti9  1  0.879858  0.879848  0.879842  1
  Al  Al10  1  0.119543  0.119555  0.638070  1
  Al  Al11  1  0.119540  0.638073  0.119554  1
  Al  Al12  1  0.638088  0.119534  0.119537  1
  Al  Al13  1  0.120770  0.120761  0.120759  1
  Al  Al14  1  0.663902  0.663925  0.013456  1
  Al  Al15  1  0.663888  0.013469  0.663923  1
  Al  Al16  1  0.013504  0.663878  0.663885  1
  Al  Al17  1  0.660164  0.660145  0.660138  1
  Al  Al18  1  0.334789  0.334778  0.996501  1
  Al  Al19  1  0.334795  0.996491  0.334781  1
  Al  Al20  1  0.996454  0.334804  0.334801  1
  Al  Al21  1  0.334274  0.334278  0.334281  1
  Os  Os22  1  0.000127  0.000126  0.000128  1
  Os  Os23  1  0.998687  0.998690  0.500450  1
  Os  Os24  1  0.502507  0.998522  0.502520  1
  Os  Os25  1  0.998520  0.502512  0.502516  1
  Os  Os26  1  0.502509  0.502517  0.998524  1
  Os  Os27  1  0.998687  0.500445  0.998691  1
  Os  Os28  1  0.500437  0.998689  0.998692  1
