# generated using pymatgen
data_CaYb(Re2Si)4
_symmetry_space_group_name_H-M   'P 1'
_cell_length_a   7.35835601
_cell_length_b   7.35835597
_cell_length_c   4.17858300
_cell_angle_alpha   90.00000000
_cell_angle_beta   90.00000000
_cell_angle_gamma   90.22307615
_symmetry_Int_Tables_number   1
_chemical_formula_structural   CaYb(Re2Si)4
_chemical_formula_sum   'Ca1 Yb1 Re8 Si4'
_cell_volume   226.24934528
_cell_formula_units_Z   1
loop_
 _symmetry_equiv_pos_site_id
 _symmetry_equiv_pos_as_xyz
  1  'x, y, z'
loop_
 _atom_site_type_symbol
 _atom_site_label
 _atom_site_symmetry_multiplicity
 _atom_site_fract_x
 _atom_site_fract_y
 _atom_site_fract_z
 _atom_site_occupancy
  Ca  Ca0  1  0.000000  0.000000  0.500000  1
  Yb  Yb1  1  0.500000  0.500000  0.000000  1
  Re  Re2  1  0.656269  0.902337  0.000000  1
  Re  Re3  1  0.157959  0.595559  0.500000  1
  Re  Re4  1  0.097663  0.343731  0.000000  1
  Re  Re5  1  0.902337  0.656269  0.000000  1
  Re  Re6  1  0.404441  0.842041  0.500000  1
  Re  Re7  1  0.595559  0.157959  0.500000  1
  Re  Re8  1  0.343731  0.097663  0.000000  1
  Re  Re9  1  0.842041  0.404441  0.500000  1
  Si  Si10  1  0.206799  0.793201  0.000000  1
  Si  Si11  1  0.793201  0.206799  0.000000  1
  Si  Si12  1  0.705333  0.705333  0.500000  1
  Si  Si13  1  0.294667  0.294667  0.500000  1
