# generated using pymatgen
data_RbNa(NbBr3)3
_symmetry_space_group_name_H-M   'P 1'
_cell_length_a   10.19579585
_cell_length_b   10.35302207
_cell_length_c   10.37146569
_cell_angle_alpha   118.85148481
_cell_angle_beta   98.34047061
_cell_angle_gamma   104.91383203
_symmetry_Int_Tables_number   1
_chemical_formula_structural   RbNa(NbBr3)3
_chemical_formula_sum   'Rb2 Na2 Nb6 Br18'
_cell_volume   878.45565439
_cell_formula_units_Z   2
loop_
 _symmetry_equiv_pos_site_id
 _symmetry_equiv_pos_as_xyz
  1  'x, y, z'
loop_
 _atom_site_type_symbol
 _atom_site_label
 _atom_site_symmetry_multiplicity
 _atom_site_fract_x
 _atom_site_fract_y
 _atom_site_fract_z
 _atom_site_occupancy
  Rb  Rb0  1  0.329169  0.478349  0.267360  1
  Rb  Rb1  1  0.670831  0.521651  0.732640  1
  Na  Na2  1  0.643405  0.204118  0.055643  1
  Na  Na3  1  0.356595  0.795882  0.944357  1
  Nb  Nb4  1  0.121334  0.896251  0.360710  1
  Nb  Nb5  1  0.866764  0.772515  0.438954  1
  Nb  Nb6  1  0.863081  0.973224  0.308058  1
  Nb  Nb7  1  0.878666  0.103749  0.639290  1
  Nb  Nb8  1  0.133236  0.227485  0.561046  1
  Nb  Nb9  1  0.136919  0.026776  0.691942  1
  Br  Br10  1  0.678692  0.464601  0.358576  1
  Br  Br11  1  0.672885  0.928562  0.041185  1
  Br  Br12  1  0.329370  0.313516  0.812711  1
  Br  Br13  1  0.670630  0.686484  0.187289  1
  Br  Br14  1  0.284186  0.753328  0.177183  1
  Br  Br15  1  0.684220  0.090569  0.433579  1
  Br  Br16  1  0.321308  0.535399  0.641424  1
  Br  Br17  1  0.984339  0.595008  0.255327  1
  Br  Br18  1  0.688863  0.847827  0.595774  1
  Br  Br19  1  0.715814  0.246672  0.822817  1
  Br  Br20  1  0.005589  0.753499  0.659413  1
  Br  Br21  1  0.017284  0.155533  0.904700  1
  Br  Br22  1  0.994411  0.246501  0.340587  1
  Br  Br23  1  0.311137  0.152173  0.404226  1
  Br  Br24  1  0.327115  0.071438  0.958815  1
  Br  Br25  1  0.015661  0.404992  0.744673  1
  Br  Br26  1  0.982716  0.844467  0.095300  1
  Br  Br27  1  0.315780  0.909431  0.566421  1
