# generated using pymatgen
data_BaCd2GaSn
_symmetry_space_group_name_H-M   'P 1'
_cell_length_a   6.93866558
_cell_length_b   6.93866566
_cell_length_c   6.93866537
_cell_angle_alpha   139.52205509
_cell_angle_beta   139.52205213
_cell_angle_gamma   58.57971643
_symmetry_Int_Tables_number   1
_chemical_formula_structural   BaCd2GaSn
_chemical_formula_sum   'Ba1 Cd2 Ga1 Sn1'
_cell_volume   139.46804770
_cell_formula_units_Z   1
loop_
 _symmetry_equiv_pos_site_id
 _symmetry_equiv_pos_as_xyz
  1  'x, y, z'
loop_
 _atom_site_type_symbol
 _atom_site_label
 _atom_site_symmetry_multiplicity
 _atom_site_fract_x
 _atom_site_fract_y
 _atom_site_fract_z
 _atom_site_occupancy
  Ba  Ba0  1  0.001453  0.001453  0.000000  1
  Cd  Cd1  1  0.743507  0.243507  0.500000  1
  Cd  Cd2  1  0.243507  0.743507  0.500000  1
  Ga  Ga3  1  0.619958  0.619958  0.000000  1
  Sn  Sn4  1  0.391574  0.391574  0.000000  1
