# generated using pymatgen
data_RbMn3V3Te7
_symmetry_space_group_name_H-M   'P 1'
_cell_length_a   9.88662128
_cell_length_b   9.88662159
_cell_length_c   9.88662148
_cell_angle_alpha   62.63368540
_cell_angle_beta   62.63369191
_cell_angle_gamma   62.63369269
_symmetry_Int_Tables_number   1
_chemical_formula_structural   RbMn3V3Te7
_chemical_formula_sum   'Rb2 Mn6 V6 Te14'
_cell_volume   723.39304097
_cell_formula_units_Z   2
loop_
 _symmetry_equiv_pos_site_id
 _symmetry_equiv_pos_as_xyz
  1  'x, y, z'
loop_
 _atom_site_type_symbol
 _atom_site_label
 _atom_site_symmetry_multiplicity
 _atom_site_fract_x
 _atom_site_fract_y
 _atom_site_fract_z
 _atom_site_occupancy
  Rb  Rb0  1  0.610524  0.610524  0.610524  1
  Rb  Rb1  1  0.389477  0.389477  0.389477  1
  Mn  Mn2  1  0.943574  0.821945  0.096841  1
  Mn  Mn3  1  0.096841  0.943574  0.821945  1
  Mn  Mn4  1  0.821945  0.096841  0.943574  1
  Mn  Mn5  1  0.056426  0.178055  0.903159  1
  Mn  Mn6  1  0.903159  0.056426  0.178055  1
  Mn  Mn7  1  0.178055  0.903159  0.056426  1
  V  V8  1  0.713244  0.881297  0.989523  1
  V  V9  1  0.989523  0.713244  0.881297  1
  V  V10  1  0.881297  0.989523  0.713244  1
  V  V11  1  0.286756  0.118703  0.010477  1
  V  V12  1  0.010477  0.286756  0.118703  1
  V  V13  1  0.118703  0.010477  0.286756  1
  Te  Te14  1  0.419955  0.804128  0.164067  1
  Te  Te15  1  0.164067  0.419955  0.804128  1
  Te  Te16  1  0.804128  0.164067  0.419955  1
  Te  Te17  1  0.580045  0.195872  0.835933  1
  Te  Te18  1  0.835933  0.580045  0.195872  1
  Te  Te19  1  0.195872  0.835933  0.580045  1
  Te  Te20  1  0.654205  0.983110  0.237826  1
  Te  Te21  1  0.237826  0.654205  0.983110  1
  Te  Te22  1  0.983110  0.237826  0.654205  1
  Te  Te23  1  0.345795  0.016890  0.762174  1
  Te  Te24  1  0.762174  0.345795  0.016890  1
  Te  Te25  1  0.016890  0.762174  0.345795  1
  Te  Te26  1  0.766350  0.766350  0.766350  1
  Te  Te27  1  0.233650  0.233650  0.233650  1
