# generated using pymatgen
data_Tb7ZnNi2
_symmetry_space_group_name_H-M   'P 1'
_cell_length_a   3.63761300
_cell_length_b   11.74703200
_cell_length_c   11.74703200
_cell_angle_alpha   90.00000000
_cell_angle_beta   90.00000000
_cell_angle_gamma   90.00000000
_symmetry_Int_Tables_number   1
_chemical_formula_structural   Tb7ZnNi2
_chemical_formula_sum   'Tb14 Zn2 Ni4'
_cell_volume   501.96426062
_cell_formula_units_Z   2
loop_
 _symmetry_equiv_pos_site_id
 _symmetry_equiv_pos_as_xyz
  1  'x, y, z'
loop_
 _atom_site_type_symbol
 _atom_site_label
 _atom_site_symmetry_multiplicity
 _atom_site_fract_x
 _atom_site_fract_y
 _atom_site_fract_z
 _atom_site_occupancy
  Tb  Tb0  1  0.500000  0.000000  0.500000  1
  Tb  Tb1  1  0.500000  0.500000  0.000000  1
  Tb  Tb2  1  0.000000  0.317704  0.817704  1
  Tb  Tb3  1  0.000000  0.682296  0.182296  1
  Tb  Tb4  1  0.000000  0.182296  0.317704  1
  Tb  Tb5  1  0.000000  0.817704  0.682296  1
  Tb  Tb6  1  0.500000  0.559036  0.705556  1
  Tb  Tb7  1  0.500000  0.440964  0.294444  1
  Tb  Tb8  1  0.500000  0.940964  0.205556  1
  Tb  Tb9  1  0.500000  0.059036  0.794444  1
  Tb  Tb10  1  0.500000  0.705556  0.440964  1
  Tb  Tb11  1  0.500000  0.294444  0.559036  1
  Tb  Tb12  1  0.500000  0.205556  0.059036  1
  Tb  Tb13  1  0.500000  0.794444  0.940964  1
  Zn  Zn14  1  0.000000  0.500000  0.500000  1
  Zn  Zn15  1  0.000000  0.000000  0.000000  1
  Ni  Ni16  1  0.000000  0.131468  0.631468  1
  Ni  Ni17  1  0.000000  0.868532  0.368532  1
  Ni  Ni18  1  0.000000  0.368532  0.131468  1
  Ni  Ni19  1  0.000000  0.631468  0.868532  1
