# generated using pymatgen
data_Tb6Tm10Cd4NiRu3
_symmetry_space_group_name_H-M   'P 1'
_cell_length_a   9.46699382
_cell_length_b   9.59246257
_cell_length_c   9.59246300
_cell_angle_alpha   59.99999505
_cell_angle_beta   59.56060287
_cell_angle_gamma   59.56060180
_symmetry_Int_Tables_number   1
_chemical_formula_structural   Tb6Tm10Cd4NiRu3
_chemical_formula_sum   'Tb6 Tm10 Cd4 Ni1 Ru3'
_cell_volume   611.84414060
_cell_formula_units_Z   1
loop_
 _symmetry_equiv_pos_site_id
 _symmetry_equiv_pos_as_xyz
  1  'x, y, z'
loop_
 _atom_site_type_symbol
 _atom_site_label
 _atom_site_symmetry_multiplicity
 _atom_site_fract_x
 _atom_site_fract_y
 _atom_site_fract_z
 _atom_site_occupancy
  Tb  Tb0  1  0.938766  0.560485  0.560485  1
  Tb  Tb1  1  0.558145  0.938778  0.938778  1
  Tb  Tb2  1  0.558145  0.938778  0.564298  1
  Tb  Tb3  1  0.938766  0.560485  0.940265  1
  Tb  Tb4  1  0.558145  0.564298  0.938778  1
  Tb  Tb5  1  0.938766  0.940265  0.560485  1
  Tm  Tm6  1  0.350597  0.345122  0.345122  1
  Tm  Tm7  1  0.350597  0.345122  0.959159  1
  Tm  Tm8  1  0.350597  0.959159  0.345122  1
  Tm  Tm9  1  0.963324  0.345559  0.345559  1
  Tm  Tm10  1  0.811661  0.187389  0.187389  1
  Tm  Tm11  1  0.185399  0.813449  0.813449  1
  Tm  Tm12  1  0.185399  0.813449  0.187702  1
  Tm  Tm13  1  0.811661  0.187389  0.813561  1
  Tm  Tm14  1  0.185399  0.187702  0.813449  1
  Tm  Tm15  1  0.811661  0.813561  0.187389  1
  Cd  Cd16  1  0.578789  0.579875  0.579875  1
  Cd  Cd17  1  0.578789  0.579875  0.261461  1
  Cd  Cd18  1  0.578789  0.261461  0.579875  1
  Cd  Cd19  1  0.257959  0.580680  0.580680  1
  Ni  Ni20  1  0.576024  0.141326  0.141326  1
  Ru  Ru21  1  0.144208  0.139373  0.139373  1
  Ru  Ru22  1  0.144208  0.139373  0.577045  1
  Ru  Ru23  1  0.144208  0.577045  0.139373  1
