# generated using pymatgen
data_NdMg2PaIr2
_symmetry_space_group_name_H-M   'P 1'
_cell_length_a   3.99844800
_cell_length_b   7.30299060
_cell_length_c   8.87360080
_cell_angle_alpha   92.10720612
_cell_angle_beta   90.00000000
_cell_angle_gamma   90.00000000
_symmetry_Int_Tables_number   1
_chemical_formula_structural   NdMg2PaIr2
_chemical_formula_sum   'Nd2 Mg4 Pa2 Ir4'
_cell_volume   258.93949783
_cell_formula_units_Z   2
loop_
 _symmetry_equiv_pos_site_id
 _symmetry_equiv_pos_as_xyz
  1  'x, y, z'
loop_
 _atom_site_type_symbol
 _atom_site_label
 _atom_site_symmetry_multiplicity
 _atom_site_fract_x
 _atom_site_fract_y
 _atom_site_fract_z
 _atom_site_occupancy
  Nd  Nd0  1  0.250000  0.536712  0.818864  1
  Nd  Nd1  1  0.750000  0.463288  0.181136  1
  Mg  Mg2  1  0.750000  0.862784  0.947214  1
  Mg  Mg3  1  0.250000  0.137216  0.052786  1
  Mg  Mg4  1  0.250000  0.635786  0.443265  1
  Mg  Mg5  1  0.750000  0.364214  0.556735  1
  Pa  Pa6  1  0.750000  0.965302  0.315195  1
  Pa  Pa7  1  0.250000  0.034698  0.684805  1
  Ir  Ir8  1  0.750000  0.780886  0.624532  1
  Ir  Ir9  1  0.250000  0.219114  0.375468  1
  Ir  Ir10  1  0.250000  0.769399  0.155754  1
  Ir  Ir11  1  0.750000  0.230601  0.844246  1
