# generated using pymatgen
data_Nd3AlIn2Pt3
_symmetry_space_group_name_H-M   'P 1'
_cell_length_a   7.65302090
_cell_length_b   7.55117442
_cell_length_c   4.08238900
_cell_angle_alpha   90.00000000
_cell_angle_beta   90.00000000
_cell_angle_gamma   119.56074238
_symmetry_Int_Tables_number   1
_chemical_formula_structural   Nd3AlIn2Pt3
_chemical_formula_sum   'Nd3 Al1 In2 Pt3'
_cell_volume   205.20963476
_cell_formula_units_Z   1
loop_
 _symmetry_equiv_pos_site_id
 _symmetry_equiv_pos_as_xyz
  1  'x, y, z'
loop_
 _atom_site_type_symbol
 _atom_site_label
 _atom_site_symmetry_multiplicity
 _atom_site_fract_x
 _atom_site_fract_y
 _atom_site_fract_z
 _atom_site_occupancy
  Nd  Nd0  1  0.000000  0.583788  0.500000  1
  Nd  Nd1  1  0.592100  0.001732  0.500000  1
  Nd  Nd2  1  0.407900  0.409632  0.500000  1
  Al  Al3  1  0.000000  0.243962  0.000000  1
  In  In4  1  0.247517  0.999394  0.000000  1
  In  In5  1  0.752483  0.751877  0.000000  1
  Pt  Pt6  1  0.000000  0.032018  0.500000  1
  Pt  Pt7  1  0.679982  0.328789  0.000000  1
  Pt  Pt8  1  0.320018  0.648808  0.000000  1
