# generated using pymatgen
data_HoTaSb2Pb4O13
_symmetry_space_group_name_H-M   'P 1'
_cell_length_a   7.68537799
_cell_length_b   7.66431553
_cell_length_c   7.66431489
_cell_angle_alpha   59.69825621
_cell_angle_beta   59.72783872
_cell_angle_gamma   59.72783319
_symmetry_Int_Tables_number   1
_chemical_formula_structural   HoTaSb2Pb4O13
_chemical_formula_sum   'Ho1 Ta1 Sb2 Pb4 O13'
_cell_volume   317.18020779
_cell_formula_units_Z   1
loop_
 _symmetry_equiv_pos_site_id
 _symmetry_equiv_pos_as_xyz
  1  'x, y, z'
loop_
 _atom_site_type_symbol
 _atom_site_label
 _atom_site_symmetry_multiplicity
 _atom_site_fract_x
 _atom_site_fract_y
 _atom_site_fract_z
 _atom_site_occupancy
  Ho  Ho0  1  0.501443  0.500012  0.500012  1
  Ta  Ta1  1  0.002251  0.501076  0.501076  1
  Sb  Sb2  1  0.499782  0.500006  0.001257  1
  Sb  Sb3  1  0.499782  0.001257  0.500006  1
  Pb  Pb4  1  0.999992  0.998645  0.998645  1
  Pb  Pb5  1  0.499029  0.001819  0.001819  1
  Pb  Pb6  1  0.001882  0.007198  0.497048  1
  Pb  Pb7  1  0.001882  0.497048  0.007198  1
  O  O8  1  0.857104  0.412947  0.412947  1
  O  O9  1  0.416987  0.816388  0.816388  1
  O  O10  1  0.415602  0.415576  0.856116  1
  O  O11  1  0.809641  0.808858  0.424204  1
  O  O12  1  0.809641  0.424204  0.808858  1
  O  O13  1  0.415602  0.856116  0.415576  1
  O  O14  1  0.152354  0.579408  0.579408  1
  O  O15  1  0.582565  0.185040  0.185040  1
  O  O16  1  0.580028  0.581520  0.149974  1
  O  O17  1  0.189301  0.191075  0.576145  1
  O  O18  1  0.189301  0.576145  0.191075  1
  O  O19  1  0.580028  0.149974  0.581520  1
  O  O20  1  0.120797  0.120685  0.120685  1
