# generated using pymatgen
data_Hf11Zr5(TaSi4)4
_symmetry_space_group_name_H-M   'P 1'
_cell_length_a   7.01252342
_cell_length_b   7.01323001
_cell_length_c   12.83360077
_cell_angle_alpha   90.00225318
_cell_angle_beta   89.96045926
_cell_angle_gamma   90.00408543
_symmetry_Int_Tables_number   1
_chemical_formula_structural   Hf11Zr5(TaSi4)4
_chemical_formula_sum   'Hf11 Zr5 Ta4 Si16'
_cell_volume   631.16197597
_cell_formula_units_Z   1
loop_
 _symmetry_equiv_pos_site_id
 _symmetry_equiv_pos_as_xyz
  1  'x, y, z'
loop_
 _atom_site_type_symbol
 _atom_site_label
 _atom_site_symmetry_multiplicity
 _atom_site_fract_x
 _atom_site_fract_y
 _atom_site_fract_z
 _atom_site_occupancy
  Hf  Hf0  1  0.152680  0.498182  0.467960  1
  Hf  Hf1  1  0.001844  0.652688  0.717771  1
  Hf  Hf2  1  0.998535  0.346953  0.218181  1
  Hf  Hf3  1  0.496960  0.353852  0.126142  1
  Hf  Hf4  1  0.502905  0.645780  0.625709  1
  Hf  Hf5  1  0.854153  0.003343  0.875777  1
  Hf  Hf6  1  0.145833  0.996944  0.375934  1
  Hf  Hf7  1  0.646063  0.502761  0.374029  1
  Hf  Hf8  1  0.353529  0.497097  0.873889  1
  Hf  Hf9  1  0.003273  0.854163  0.124263  1
  Hf  Hf10  1  0.997049  0.146107  0.623731  1
  Zr  Zr11  1  0.497533  0.153195  0.531815  1
  Zr  Zr12  1  0.502079  0.846859  0.031950  1
  Zr  Zr13  1  0.653224  0.002533  0.281882  1
  Zr  Zr14  1  0.346500  0.997872  0.781746  1
  Zr  Zr15  1  0.847352  0.502472  0.968032  1
  Ta  Ta16  1  0.675456  0.325283  0.749788  1
  Ta  Ta17  1  0.324181  0.674423  0.250315  1
  Ta  Ta18  1  0.825574  0.824131  0.500143  1
  Ta  Ta19  1  0.174810  0.175400  0.000200  1
  Si  Si20  1  0.798405  0.146768  0.072095  1
  Si  Si21  1  0.201148  0.852119  0.571734  1
  Si  Si22  1  0.646839  0.702072  0.821200  1
  Si  Si23  1  0.352180  0.298765  0.321847  1
  Si  Si24  1  0.854803  0.203412  0.428197  1
  Si  Si25  1  0.145555  0.797204  0.928293  1
  Si  Si26  1  0.703104  0.645368  0.178440  1
  Si  Si27  1  0.296656  0.354833  0.678215  1
  Si  Si28  1  0.548251  0.199666  0.935193  1
  Si  Si29  1  0.451444  0.800077  0.435194  1
  Si  Si30  1  0.699890  0.951316  0.685228  1
  Si  Si31  1  0.300073  0.048814  0.185328  1
  Si  Si32  1  0.802407  0.453031  0.565023  1
  Si  Si33  1  0.198814  0.547272  0.065333  1
  Si  Si34  1  0.953001  0.697672  0.315038  1
  Si  Si35  1  0.047897  0.301574  0.814385  1
