# generated using pymatgen
data_Ce(Nd2Os)2
_symmetry_space_group_name_H-M   'P 1'
_cell_length_a   6.61487398
_cell_length_b   7.31565591
_cell_length_c   8.84358656
_cell_angle_alpha   97.60921920
_cell_angle_beta   111.96207631
_cell_angle_gamma   90.00000124
_symmetry_Int_Tables_number   1
_chemical_formula_structural   Ce(Nd2Os)2
_chemical_formula_sum   'Ce2 Nd8 Os4'
_cell_volume   392.83739294
_cell_formula_units_Z   2
loop_
 _symmetry_equiv_pos_site_id
 _symmetry_equiv_pos_as_xyz
  1  'x, y, z'
loop_
 _atom_site_type_symbol
 _atom_site_label
 _atom_site_symmetry_multiplicity
 _atom_site_fract_x
 _atom_site_fract_y
 _atom_site_fract_z
 _atom_site_occupancy
  Ce  Ce0  1  0.421724  0.750000  0.000000  1
  Ce  Ce1  1  0.578276  0.250000  0.000000  1
  Nd  Nd2  1  0.970712  0.917350  0.181680  1
  Nd  Nd3  1  0.789033  0.582650  0.818320  1
  Nd  Nd4  1  0.029288  0.082650  0.818320  1
  Nd  Nd5  1  0.210967  0.417350  0.181680  1
  Nd  Nd6  1  0.646986  0.813377  0.437563  1
  Nd  Nd7  1  0.209423  0.686623  0.562437  1
  Nd  Nd8  1  0.353014  0.186623  0.562437  1
  Nd  Nd9  1  0.790577  0.313377  0.437563  1
  Os  Os10  1  0.796391  0.560400  0.201707  1
  Os  Os11  1  0.594684  0.939600  0.798293  1
  Os  Os12  1  0.203609  0.439600  0.798293  1
  Os  Os13  1  0.405316  0.060400  0.201707  1
