# generated using pymatgen
data_TbEr3(CO5)2
_symmetry_space_group_name_H-M   'P 1'
_cell_length_a   3.91274780
_cell_length_b   3.91274868
_cell_length_c   15.08453916
_cell_angle_alpha   90.03762659
_cell_angle_beta   89.96237535
_cell_angle_gamma   122.35943621
_symmetry_Int_Tables_number   1
_chemical_formula_structural   TbEr3(CO5)2
_chemical_formula_sum   'Tb1 Er3 C2 O10'
_cell_volume   195.07511007
_cell_formula_units_Z   1
loop_
 _symmetry_equiv_pos_site_id
 _symmetry_equiv_pos_as_xyz
  1  'x, y, z'
loop_
 _atom_site_type_symbol
 _atom_site_label
 _atom_site_symmetry_multiplicity
 _atom_site_fract_x
 _atom_site_fract_y
 _atom_site_fract_z
 _atom_site_occupancy
  Tb  Tb0  1  0.334276  0.665724  0.592594  1
  Er  Er1  1  0.335525  0.664475  0.908581  1
  Er  Er2  1  0.664758  0.335242  0.092557  1
  Er  Er3  1  0.664889  0.335111  0.405433  1
  C  C4  1  0.072595  0.927405  0.752217  1
  C  C5  1  0.927977  0.072023  0.248986  1
  O  O6  1  0.982602  0.017398  0.828222  1
  O  O7  1  0.016317  0.983683  0.172579  1
  O  O8  1  0.016466  0.983534  0.325261  1
  O  O9  1  0.985364  0.014636  0.675417  1
  O  O10  1  0.336092  0.663908  0.440077  1
  O  O11  1  0.663092  0.336908  0.555240  1
  O  O12  1  0.663552  0.336448  0.943346  1
  O  O13  1  0.336263  0.663737  0.057695  1
  O  O14  1  0.258923  0.741077  0.752730  1
  O  O15  1  0.741309  0.258691  0.249067  1
