# generated using pymatgen
data_Gd3(GaCo)4
_symmetry_space_group_name_H-M   'P 1'
_cell_length_a   6.34250658
_cell_length_b   6.34295239
_cell_length_c   6.34286029
_cell_angle_alpha   109.43626857
_cell_angle_beta   109.54534650
_cell_angle_gamma   109.43314058
_symmetry_Int_Tables_number   1
_chemical_formula_structural   Gd3(GaCo)4
_chemical_formula_sum   'Gd3 Ga4 Co4'
_cell_volume   196.43070053
_cell_formula_units_Z   1
loop_
 _symmetry_equiv_pos_site_id
 _symmetry_equiv_pos_as_xyz
  1  'x, y, z'
loop_
 _atom_site_type_symbol
 _atom_site_label
 _atom_site_symmetry_multiplicity
 _atom_site_fract_x
 _atom_site_fract_y
 _atom_site_fract_z
 _atom_site_occupancy
  Gd  Gd0  1  0.499813  0.499767  0.999928  1
  Gd  Gd1  1  0.499777  0.000003  0.499730  1
  Gd  Gd2  1  0.999896  0.499966  0.499992  1
  Ga  Ga3  1  0.396342  0.000076  0.000196  1
  Ga  Ga4  1  0.000074  0.396161  0.000021  1
  Ga  Ga5  1  0.000190  0.000066  0.396283  1
  Ga  Ga6  1  0.603835  0.603877  0.603846  1
  Co  Co7  1  0.761896  0.000027  0.999868  1
  Co  Co8  1  0.000134  0.761961  0.000128  1
  Co  Co9  1  0.238147  0.238092  0.238142  1
  Co  Co10  1  0.999896  0.000004  0.761865  1
