# generated using pymatgen
data_Gd2Zn14Ru3
_symmetry_space_group_name_H-M   'P 1'
_cell_length_a   6.75267249
_cell_length_b   6.75267289
_cell_length_c   6.75267300
_cell_angle_alpha   83.31659347
_cell_angle_beta   83.31659307
_cell_angle_gamma   83.31660398
_symmetry_Int_Tables_number   1
_chemical_formula_structural   Gd2Zn14Ru3
_chemical_formula_sum   'Gd2 Zn14 Ru3'
_cell_volume   302.08662658
_cell_formula_units_Z   1
loop_
 _symmetry_equiv_pos_site_id
 _symmetry_equiv_pos_as_xyz
  1  'x, y, z'
loop_
 _atom_site_type_symbol
 _atom_site_label
 _atom_site_symmetry_multiplicity
 _atom_site_fract_x
 _atom_site_fract_y
 _atom_site_fract_z
 _atom_site_occupancy
  Gd  Gd0  1  0.329413  0.329660  0.329690  1
  Gd  Gd1  1  0.670139  0.670252  0.670232  1
  Zn  Zn2  1  0.291277  0.708782  0.999945  1
  Zn  Zn3  1  0.999997  0.291265  0.709017  1
  Zn  Zn4  1  0.709080  0.000107  0.291014  1
  Zn  Zn5  1  0.708853  0.291312  0.999962  1
  Zn  Zn6  1  0.000043  0.709085  0.291160  1
  Zn  Zn7  1  0.291050  0.000068  0.708980  1
  Zn  Zn8  1  0.102880  0.102709  0.102745  1
  Zn  Zn9  1  0.897237  0.897038  0.897254  1
  Zn  Zn10  1  0.649593  0.649426  0.157016  1
  Zn  Zn11  1  0.157002  0.649445  0.649497  1
  Zn  Zn12  1  0.649504  0.157254  0.649365  1
  Zn  Zn13  1  0.350652  0.350615  0.842744  1
  Zn  Zn14  1  0.350603  0.842762  0.350503  1
  Zn  Zn15  1  0.842711  0.350674  0.350702  1
  Ru  Ru16  1  0.999818  0.999916  0.499987  1
  Ru  Ru17  1  0.499896  0.999986  0.999887  1
  Ru  Ru18  1  0.000249  0.499640  0.000304  1
