# generated using pymatgen
data_CaDy(RhO3)2
_symmetry_space_group_name_H-M   'P 1'
_cell_length_a   5.30718804
_cell_length_b   5.75055767
_cell_length_c   7.68230100
_cell_angle_alpha   90.00000000
_cell_angle_beta   90.00000000
_cell_angle_gamma   90.05797143
_symmetry_Int_Tables_number   1
_chemical_formula_structural   CaDy(RhO3)2
_chemical_formula_sum   'Ca2 Dy2 Rh4 O12'
_cell_volume   234.45825899
_cell_formula_units_Z   2
loop_
 _symmetry_equiv_pos_site_id
 _symmetry_equiv_pos_as_xyz
  1  'x, y, z'
loop_
 _atom_site_type_symbol
 _atom_site_label
 _atom_site_symmetry_multiplicity
 _atom_site_fract_x
 _atom_site_fract_y
 _atom_site_fract_z
 _atom_site_occupancy
  Ca  Ca0  1  0.023350  0.425244  0.250000  1
  Ca  Ca1  1  0.976650  0.574756  0.750000  1
  Dy  Dy2  1  0.528188  0.077850  0.750000  1
  Dy  Dy3  1  0.471812  0.922150  0.250000  1
  Rh  Rh4  1  0.000000  0.000000  0.000000  1
  Rh  Rh5  1  0.500000  0.500000  0.000000  1
  Rh  Rh6  1  0.000000  0.000000  0.500000  1
  Rh  Rh7  1  0.500000  0.500000  0.500000  1
  O  O8  1  0.323808  0.187519  0.054247  1
  O  O9  1  0.676192  0.812481  0.945753  1
  O  O10  1  0.807954  0.299297  0.936353  1
  O  O11  1  0.676192  0.812481  0.554247  1
  O  O12  1  0.192046  0.700703  0.063647  1
  O  O13  1  0.323808  0.187519  0.445753  1
  O  O14  1  0.192046  0.700703  0.436353  1
  O  O15  1  0.807954  0.299297  0.563647  1
  O  O16  1  0.617664  0.551856  0.250000  1
  O  O17  1  0.382336  0.448144  0.750000  1
  O  O18  1  0.126017  0.956693  0.750000  1
  O  O19  1  0.873983  0.043307  0.250000  1
