# generated using pymatgen
data_Ta12Al11Cu11Ni2
_symmetry_space_group_name_H-M   'P 1'
_cell_length_a   8.71881500
_cell_length_b   8.70911282
_cell_length_c   7.98873000
_cell_angle_alpha   90.00000000
_cell_angle_beta   90.00000000
_cell_angle_gamma   120.24157418
_symmetry_Int_Tables_number   1
_chemical_formula_structural   Ta12Al11Cu11Ni2
_chemical_formula_sum   'Ta12 Al11 Cu11 Ni2'
_cell_volume   524.05565602
_cell_formula_units_Z   1
loop_
 _symmetry_equiv_pos_site_id
 _symmetry_equiv_pos_as_xyz
  1  'x, y, z'
loop_
 _atom_site_type_symbol
 _atom_site_label
 _atom_site_symmetry_multiplicity
 _atom_site_fract_x
 _atom_site_fract_y
 _atom_site_fract_z
 _atom_site_occupancy
  Ta  Ta0  1  0.329769  0.997317  0.067352  1
  Ta  Ta1  1  0.668800  0.001254  0.932517  1
  Ta  Ta2  1  0.999307  0.332315  0.065590  1
  Ta  Ta3  1  0.668800  0.001254  0.567483  1
  Ta  Ta4  1  0.999307  0.332315  0.434410  1
  Ta  Ta5  1  0.002648  0.668812  0.932695  1
  Ta  Ta6  1  0.329769  0.997317  0.432648  1
  Ta  Ta7  1  0.002648  0.668812  0.567305  1
  Ta  Ta8  1  0.666996  0.666406  0.067151  1
  Ta  Ta9  1  0.332818  0.331920  0.932889  1
  Ta  Ta10  1  0.332818  0.331920  0.567111  1
  Ta  Ta11  1  0.666996  0.666406  0.432849  1
  Al  Al12  1  0.156718  0.658474  0.250000  1
  Al  Al13  1  0.339730  0.665979  0.507110  1
  Al  Al14  1  0.666376  0.332551  0.499843  1
  Al  Al15  1  0.666376  0.332551  0.000157  1
  Al  Al16  1  0.339730  0.665979  0.992890  1
  Al  Al17  1  0.177294  0.001083  0.750000  1
  Al  Al18  1  0.820942  0.001317  0.250000  1
  Al  Al19  1  0.000669  0.177458  0.750000  1
  Al  Al20  1  0.993919  0.827894  0.250000  1
  Al  Al21  1  0.825260  0.823516  0.750000  1
  Al  Al22  1  0.176387  0.178160  0.250000  1
  Cu  Cu23  1  0.162077  0.496332  0.750000  1
  Cu  Cu24  1  0.835819  0.505104  0.250000  1
  Cu  Cu25  1  0.507216  0.665653  0.750000  1
  Cu  Cu26  1  0.496877  0.162204  0.750000  1
  Cu  Cu27  1  0.494910  0.332951  0.250000  1
  Cu  Cu28  1  0.499841  0.835813  0.250000  1
  Cu  Cu29  1  0.335236  0.839097  0.750000  1
  Cu  Cu30  1  0.667064  0.503220  0.750000  1
  Cu  Cu31  1  0.664380  0.161694  0.250000  1
  Cu  Cu32  1  0.334901  0.498223  0.250000  1
  Cu  Cu33  1  0.838191  0.334529  0.750000  1
  Ni  Ni34  1  0.999704  0.002087  0.500548  1
  Ni  Ni35  1  0.999704  0.002087  0.999452  1
