# generated using pymatgen
data_LaPr16(TmGa4)3
_symmetry_space_group_name_H-M   'P 1'
_cell_length_a   7.83911000
_cell_length_b   7.83911000
_cell_length_c   14.88700700
_cell_angle_alpha   90.00000000
_cell_angle_beta   90.00000000
_cell_angle_gamma   90.00000000
_symmetry_Int_Tables_number   1
_chemical_formula_structural   LaPr16(TmGa4)3
_chemical_formula_sum   'La1 Pr16 Tm3 Ga12'
_cell_volume   914.83107809
_cell_formula_units_Z   1
loop_
 _symmetry_equiv_pos_site_id
 _symmetry_equiv_pos_as_xyz
  1  'x, y, z'
loop_
 _atom_site_type_symbol
 _atom_site_label
 _atom_site_symmetry_multiplicity
 _atom_site_fract_x
 _atom_site_fract_y
 _atom_site_fract_z
 _atom_site_occupancy
  La  La0  1  0.000000  0.500000  0.714083  1
  Pr  Pr1  1  0.813795  0.841370  0.603905  1
  Pr  Pr2  1  0.184607  0.839126  0.104784  1
  Pr  Pr3  1  0.161071  0.816439  0.395596  1
  Pr  Pr4  1  0.838929  0.183561  0.395596  1
  Pr  Pr5  1  0.683561  0.661071  0.395596  1
  Pr  Pr6  1  0.658630  0.313795  0.603905  1
  Pr  Pr7  1  0.341370  0.686205  0.603905  1
  Pr  Pr8  1  0.660874  0.684607  0.104784  1
  Pr  Pr9  1  0.686152  0.338778  0.896618  1
  Pr  Pr10  1  0.838778  0.813848  0.896618  1
  Pr  Pr11  1  0.316439  0.338929  0.395596  1
  Pr  Pr12  1  0.186205  0.158630  0.603905  1
  Pr  Pr13  1  0.815393  0.160874  0.104784  1
  Pr  Pr14  1  0.313848  0.661222  0.896618  1
  Pr  Pr15  1  0.339126  0.315393  0.104784  1
  Pr  Pr16  1  0.161222  0.186152  0.896618  1
  Tm  Tm17  1  0.000000  0.500000  0.225433  1
  Tm  Tm18  1  0.500000  0.000000  0.275459  1
  Tm  Tm19  1  0.500000  0.000000  0.776536  1
  Ga  Ga20  1  0.621987  0.378351  0.250354  1
  Ga  Ga21  1  0.125490  0.885433  0.751969  1
  Ga  Ga22  1  0.385433  0.374510  0.751969  1
  Ga  Ga23  1  0.378013  0.621649  0.250354  1
  Ga  Ga24  1  0.878351  0.878013  0.250354  1
  Ga  Ga25  1  0.614567  0.625490  0.751969  1
  Ga  Ga26  1  0.000000  0.500000  0.504857  1
  Ga  Ga27  1  0.874510  0.114567  0.751969  1
  Ga  Ga28  1  0.500000  0.000000  0.485985  1
  Ga  Ga29  1  0.500000  0.000000  0.987156  1
  Ga  Ga30  1  0.121649  0.121987  0.250354  1
  Ga  Ga31  1  0.000000  0.500000  0.017589  1
