# generated using pymatgen
data_Y3MgCo7P6Rh
_symmetry_space_group_name_H-M   'P 1'
_cell_length_a   3.73400300
_cell_length_b   10.75419500
_cell_length_c   12.41539600
_cell_angle_alpha   90.00000000
_cell_angle_beta   90.00000000
_cell_angle_gamma   90.00000000
_symmetry_Int_Tables_number   1
_chemical_formula_structural   Y3MgCo7P6Rh
_chemical_formula_sum   'Y6 Mg2 Co14 P12 Rh2'
_cell_volume   498.55508007
_cell_formula_units_Z   2
loop_
 _symmetry_equiv_pos_site_id
 _symmetry_equiv_pos_as_xyz
  1  'x, y, z'
loop_
 _atom_site_type_symbol
 _atom_site_label
 _atom_site_symmetry_multiplicity
 _atom_site_fract_x
 _atom_site_fract_y
 _atom_site_fract_z
 _atom_site_occupancy
  Y  Y0  1  0.000000  0.500000  0.521245  1
  Y  Y1  1  0.500000  0.000000  0.478755  1
  Y  Y2  1  0.500000  0.818880  0.204290  1
  Y  Y3  1  0.500000  0.181120  0.204290  1
  Y  Y4  1  0.000000  0.681120  0.795710  1
  Y  Y5  1  0.000000  0.318880  0.795710  1
  Mg  Mg6  1  0.500000  0.500000  0.155362  1
  Mg  Mg7  1  0.000000  0.000000  0.844638  1
  Co  Co8  1  0.000000  0.500000  0.990290  1
  Co  Co9  1  0.500000  0.000000  0.009710  1
  Co  Co10  1  0.500000  0.331833  0.997120  1
  Co  Co11  1  0.500000  0.668167  0.997120  1
  Co  Co12  1  0.000000  0.168167  0.002880  1
  Co  Co13  1  0.000000  0.831833  0.002880  1
  Co  Co14  1  0.500000  0.297574  0.432005  1
  Co  Co15  1  0.500000  0.702426  0.432005  1
  Co  Co16  1  0.000000  0.202426  0.567995  1
  Co  Co17  1  0.000000  0.797574  0.567995  1
  Co  Co18  1  0.500000  0.879326  0.706330  1
  Co  Co19  1  0.500000  0.120674  0.706330  1
  Co  Co20  1  0.000000  0.620674  0.293670  1
  Co  Co21  1  0.000000  0.379326  0.293670  1
  P  P22  1  0.500000  0.500000  0.891586  1
  P  P23  1  0.000000  0.000000  0.108414  1
  P  P24  1  0.500000  0.500000  0.353136  1
  P  P25  1  0.000000  0.000000  0.646864  1
  P  P26  1  0.500000  0.301901  0.613430  1
  P  P27  1  0.500000  0.698099  0.613430  1
  P  P28  1  0.000000  0.198099  0.386570  1
  P  P29  1  0.000000  0.801901  0.386570  1
  P  P30  1  0.500000  0.839357  0.893712  1
  P  P31  1  0.500000  0.160643  0.893712  1
  P  P32  1  0.000000  0.660643  0.106288  1
  P  P33  1  0.000000  0.339357  0.106288  1
  Rh  Rh34  1  0.500000  0.500000  0.703382  1
  Rh  Rh35  1  0.000000  0.000000  0.296618  1
