# generated using pymatgen
data_Er4Re2MoOs5
_symmetry_space_group_name_H-M   'P 1'
_cell_length_a   5.29200326
_cell_length_b   5.20697412
_cell_length_c   8.95179000
_cell_angle_alpha   90.00000000
_cell_angle_beta   90.00000000
_cell_angle_gamma   117.43769641
_symmetry_Int_Tables_number   1
_chemical_formula_structural   Er4Re2MoOs5
_chemical_formula_sum   'Er4 Re2 Mo1 Os5'
_cell_volume   218.92222075
_cell_formula_units_Z   1
loop_
 _symmetry_equiv_pos_site_id
 _symmetry_equiv_pos_as_xyz
  1  'x, y, z'
loop_
 _atom_site_type_symbol
 _atom_site_label
 _atom_site_symmetry_multiplicity
 _atom_site_fract_x
 _atom_site_fract_y
 _atom_site_fract_z
 _atom_site_occupancy
  Er  Er0  1  0.329400  0.668741  0.436633  1
  Er  Er1  1  0.671371  0.334325  0.564172  1
  Er  Er2  1  0.671371  0.334325  0.935828  1
  Er  Er3  1  0.329400  0.668741  0.063367  1
  Re  Re4  1  0.167446  0.828154  0.750000  1
  Re  Re5  1  0.169279  0.338829  0.750000  1
  Mo  Mo6  1  0.830796  0.165058  0.250000  1
  Os  Os7  1  0.005522  0.007320  0.500126  1
  Os  Os8  1  0.005522  0.007320  0.999874  1
  Os  Os9  1  0.825253  0.651843  0.250000  1
  Os  Os10  1  0.344964  0.173042  0.250000  1
  Os  Os11  1  0.649678  0.822297  0.750000  1
