# generated using pymatgen
data_YbSi2TcRh
_symmetry_space_group_name_H-M   'P 1'
_cell_length_a   5.62312354
_cell_length_b   5.62312356
_cell_length_c   5.62312373
_cell_angle_alpha   135.72243467
_cell_angle_beta   135.72243349
_cell_angle_gamma   64.40974671
_symmetry_Int_Tables_number   1
_chemical_formula_structural   YbSi2TcRh
_chemical_formula_sum   'Yb1 Si2 Tc1 Rh1'
_cell_volume   85.46321939
_cell_formula_units_Z   1
loop_
 _symmetry_equiv_pos_site_id
 _symmetry_equiv_pos_as_xyz
  1  'x, y, z'
loop_
 _atom_site_type_symbol
 _atom_site_label
 _atom_site_symmetry_multiplicity
 _atom_site_fract_x
 _atom_site_fract_y
 _atom_site_fract_z
 _atom_site_occupancy
  Yb  Yb0  1  0.000000  0.000000  0.000000  1
  Si  Si1  1  0.632454  0.632454  0.000000  1
  Si  Si2  1  0.367546  0.367546  0.000000  1
  Tc  Tc3  1  0.250000  0.750000  0.500000  1
  Rh  Rh4  1  0.750000  0.250000  0.500000  1
