# generated using pymatgen
data_DyHo8ThRu4
_symmetry_space_group_name_H-M   'P 1'
_cell_length_a   6.35628770
_cell_length_b   7.25843145
_cell_length_c   8.53518763
_cell_angle_alpha   96.35057944
_cell_angle_beta   112.23077038
_cell_angle_gamma   90.63859553
_symmetry_Int_Tables_number   1
_chemical_formula_structural   DyHo8ThRu4
_chemical_formula_sum   'Dy1 Ho8 Th1 Ru4'
_cell_volume   361.67587794
_cell_formula_units_Z   1
loop_
 _symmetry_equiv_pos_site_id
 _symmetry_equiv_pos_as_xyz
  1  'x, y, z'
loop_
 _atom_site_type_symbol
 _atom_site_label
 _atom_site_symmetry_multiplicity
 _atom_site_fract_x
 _atom_site_fract_y
 _atom_site_fract_z
 _atom_site_occupancy
  Dy  Dy0  1  0.790122  0.582787  0.809750  1
  Ho  Ho1  1  0.022225  0.085359  0.812157  1
  Ho  Ho2  1  0.209066  0.415797  0.185111  1
  Ho  Ho3  1  0.640015  0.815675  0.436616  1
  Ho  Ho4  1  0.208714  0.684474  0.567904  1
  Ho  Ho5  1  0.358210  0.186978  0.568256  1
  Ho  Ho6  1  0.792971  0.314129  0.435525  1
  Ho  Ho7  1  0.419783  0.747702  0.997565  1
  Ho  Ho8  1  0.578688  0.250445  0.999823  1
  Th  Th9  1  0.986406  0.908301  0.187880  1
  Ru  Ru10  1  0.829010  0.587484  0.220494  1
  Ru  Ru11  1  0.607343  0.925516  0.782491  1
  Ru  Ru12  1  0.176434  0.423886  0.777360  1
  Ru  Ru13  1  0.381014  0.071463  0.219067  1
