# generated using pymatgen
data_Tb6Er4SnSb5
_symmetry_space_group_name_H-M   'P 1'
_cell_length_a   6.33467800
_cell_length_b   8.95085056
_cell_length_c   8.94602500
_cell_angle_alpha   120.01740623
_cell_angle_beta   89.99979197
_cell_angle_gamma   90.00035371
_symmetry_Int_Tables_number   1
_chemical_formula_structural   Tb6Er4SnSb5
_chemical_formula_sum   'Tb6 Er4 Sn1 Sb5'
_cell_volume   439.21118284
_cell_formula_units_Z   1
loop_
 _symmetry_equiv_pos_site_id
 _symmetry_equiv_pos_as_xyz
  1  'x, y, z'
loop_
 _atom_site_type_symbol
 _atom_site_label
 _atom_site_symmetry_multiplicity
 _atom_site_fract_x
 _atom_site_fract_y
 _atom_site_fract_z
 _atom_site_occupancy
  Tb  Tb0  1  0.750013  0.244660  0.000023  1
  Tb  Tb1  1  0.750025  0.754434  0.755865  1
  Tb  Tb2  1  0.750025  0.998579  0.244100  1
  Tb  Tb3  1  0.250026  0.754957  0.999987  1
  Tb  Tb4  1  0.250019  0.246525  0.245742  1
  Tb  Tb5  1  0.250011  0.000757  0.754272  1
  Er  Er6  1  0.499629  0.333992  0.667509  1
  Er  Er7  1  0.499682  0.666482  0.332517  1
  Er  Er8  1  0.000309  0.666456  0.332481  1
  Er  Er9  1  0.000359  0.333984  0.667518  1
  Sn  Sn10  1  0.749903  0.606029  0.999982  1
  Sb  Sb11  1  0.750004  0.391449  0.391806  1
  Sb  Sb12  1  0.750001  0.999626  0.608207  1
  Sb  Sb13  1  0.249997  0.391894  0.999993  1
  Sb  Sb14  1  0.249998  0.609583  0.608994  1
  Sb  Sb15  1  0.250006  0.000592  0.391003  1
