# generated using pymatgen
data_Hf3Be2GeIr3
_symmetry_space_group_name_H-M   'P 1'
_cell_length_a   6.64741800
_cell_length_b   6.64741726
_cell_length_c   3.53730600
_cell_angle_alpha   90.00000000
_cell_angle_beta   90.00000000
_cell_angle_gamma   120.00000370
_symmetry_Int_Tables_number   1
_chemical_formula_structural   Hf3Be2GeIr3
_chemical_formula_sum   'Hf3 Be2 Ge1 Ir3'
_cell_volume   135.36586888
_cell_formula_units_Z   1
loop_
 _symmetry_equiv_pos_site_id
 _symmetry_equiv_pos_as_xyz
  1  'x, y, z'
loop_
 _atom_site_type_symbol
 _atom_site_label
 _atom_site_symmetry_multiplicity
 _atom_site_fract_x
 _atom_site_fract_y
 _atom_site_fract_z
 _atom_site_occupancy
  Hf  Hf0  1  0.416499  0.394376  0.500000  1
  Hf  Hf1  1  0.605624  0.022122  0.500000  1
  Hf  Hf2  1  0.977878  0.583501  0.500000  1
  Be  Be3  1  0.666667  0.333333  0.000000  1
  Be  Be4  1  0.000000  0.000000  0.500000  1
  Ge  Ge5  1  0.333333  0.666667  0.000000  1
  Ir  Ir6  1  0.759986  0.752797  0.000000  1
  Ir  Ir7  1  0.247203  0.007189  0.000000  1
  Ir  Ir8  1  0.992811  0.240014  0.000000  1
