# generated using pymatgen
data_Tb4CdPt4Pb
_symmetry_space_group_name_H-M   'P 1'
_cell_length_a   7.93439700
_cell_length_b   7.93439700
_cell_length_c   3.61720300
_cell_angle_alpha   90.00000000
_cell_angle_beta   90.00000000
_cell_angle_gamma   90.00000000
_symmetry_Int_Tables_number   1
_chemical_formula_structural   Tb4CdPt4Pb
_chemical_formula_sum   'Tb4 Cd1 Pt4 Pb1'
_cell_volume   227.71976966
_cell_formula_units_Z   1
loop_
 _symmetry_equiv_pos_site_id
 _symmetry_equiv_pos_as_xyz
  1  'x, y, z'
loop_
 _atom_site_type_symbol
 _atom_site_label
 _atom_site_symmetry_multiplicity
 _atom_site_fract_x
 _atom_site_fract_y
 _atom_site_fract_z
 _atom_site_occupancy
  Tb  Tb0  1  0.664551  0.170729  0.500000  1
  Tb  Tb1  1  0.170729  0.335449  0.500000  1
  Tb  Tb2  1  0.829271  0.664551  0.500000  1
  Tb  Tb3  1  0.335449  0.829271  0.500000  1
  Cd  Cd4  1  0.000000  0.000000  0.000000  1
  Pt  Pt5  1  0.362677  0.121011  0.000000  1
  Pt  Pt6  1  0.121011  0.637323  0.000000  1
  Pt  Pt7  1  0.637323  0.878989  0.000000  1
  Pt  Pt8  1  0.878989  0.362677  0.000000  1
  Pb  Pb9  1  0.500000  0.500000  0.000000  1
