# generated using pymatgen
data_Tm2Sc2Al15(GaIr2)3
_symmetry_space_group_name_H-M   'P 1'
_cell_length_a   7.48758233
_cell_length_b   7.48910680
_cell_length_c   9.42682500
_cell_angle_alpha   90.00000000
_cell_angle_beta   90.00000000
_cell_angle_gamma   119.49927464
_symmetry_Int_Tables_number   1
_chemical_formula_structural   Tm2Sc2Al15(GaIr2)3
_chemical_formula_sum   'Tm2 Sc2 Al15 Ga3 Ir6'
_cell_volume   460.08382592
_cell_formula_units_Z   1
loop_
 _symmetry_equiv_pos_site_id
 _symmetry_equiv_pos_as_xyz
  1  'x, y, z'
loop_
 _atom_site_type_symbol
 _atom_site_label
 _atom_site_symmetry_multiplicity
 _atom_site_fract_x
 _atom_site_fract_y
 _atom_site_fract_z
 _atom_site_occupancy
  Tm  Tm0  1  0.997902  0.675979  0.250000  1
  Tm  Tm1  1  0.671029  0.990881  0.250000  1
  Sc  Sc2  1  0.004115  0.325257  0.750000  1
  Sc  Sc3  1  0.324580  0.002226  0.750000  1
  Al  Al4  1  0.002453  0.335727  0.068815  1
  Al  Al5  1  0.002162  0.664377  0.919529  1
  Al  Al6  1  0.002162  0.664377  0.580471  1
  Al  Al7  1  0.336130  0.003980  0.430896  1
  Al  Al8  1  0.002453  0.335727  0.431185  1
  Al  Al9  1  0.664321  0.002656  0.580474  1
  Al  Al10  1  0.664321  0.002656  0.919526  1
  Al  Al11  1  0.336130  0.003980  0.069104  1
  Al  Al12  1  0.330835  0.331045  0.566467  1
  Al  Al13  1  0.665479  0.665162  0.451123  1
  Al  Al14  1  0.665479  0.665162  0.048877  1
  Al  Al15  1  0.330835  0.331045  0.933533  1
  Al  Al16  1  0.661785  0.443065  0.750000  1
  Al  Al17  1  0.550195  0.338680  0.250000  1
  Al  Al18  1  0.443852  0.661709  0.750000  1
  Ga  Ga19  1  0.132949  0.133482  0.250000  1
  Ga  Ga20  1  0.870051  0.869921  0.750000  1
  Ga  Ga21  1  0.339000  0.545919  0.250000  1
  Ir  Ir22  1  0.672223  0.329271  0.999906  1
  Ir  Ir23  1  0.328611  0.673623  0.997547  1
  Ir  Ir24  1  0.328611  0.673623  0.502453  1
  Ir  Ir25  1  0.672223  0.329271  0.500094  1
  Ir  Ir26  1  0.000059  0.000601  0.999453  1
  Ir  Ir27  1  0.000059  0.000601  0.500547  1
