# generated using pymatgen
data_Tm12Co4SnOs
_symmetry_space_group_name_H-M   'P 1'
_cell_length_a   8.16861948
_cell_length_b   8.16861855
_cell_length_c   8.16861872
_cell_angle_alpha   111.61157038
_cell_angle_beta   110.67853094
_cell_angle_gamma   106.17447590
_symmetry_Int_Tables_number   1
_chemical_formula_structural   Tm12Co4SnOs
_chemical_formula_sum   'Tm12 Co4 Sn1 Os1'
_cell_volume   418.52523634
_cell_formula_units_Z   1
loop_
 _symmetry_equiv_pos_site_id
 _symmetry_equiv_pos_as_xyz
  1  'x, y, z'
loop_
 _atom_site_type_symbol
 _atom_site_label
 _atom_site_symmetry_multiplicity
 _atom_site_fract_x
 _atom_site_fract_y
 _atom_site_fract_z
 _atom_site_occupancy
  Tm  Tm0  1  0.416894  0.221913  0.194980  1
  Tm  Tm1  1  0.583106  0.778087  0.805020  1
  Tm  Tm2  1  0.026933  0.221913  0.805020  1
  Tm  Tm3  1  0.973067  0.778087  0.194980  1
  Tm  Tm4  1  0.181398  0.277921  0.459318  1
  Tm  Tm5  1  0.818602  0.722079  0.540682  1
  Tm  Tm6  1  0.181398  0.722079  0.903477  1
  Tm  Tm7  1  0.818602  0.277921  0.096523  1
  Tm  Tm8  1  0.314309  0.621244  0.306935  1
  Tm  Tm9  1  0.685691  0.378756  0.693065  1
  Tm  Tm10  1  0.314309  0.007372  0.693065  1
  Tm  Tm11  1  0.685691  0.992628  0.306935  1
  Co  Co12  1  0.374649  0.000000  0.374649  1
  Co  Co13  1  0.625351  0.000000  0.625351  1
  Co  Co14  1  0.112065  0.612065  0.500000  1
  Co  Co15  1  0.887935  0.387935  0.500000  1
  Sn  Sn16  1  0.500000  0.500000  0.000000  1
  Os  Os17  1  0.000000  0.000000  0.000000  1
