# generated using pymatgen
data_Y2Ho6B24IrRu3
_symmetry_space_group_name_H-M   'P 1'
_cell_length_a   3.65379100
_cell_length_b   9.14374296
_cell_length_c   11.49053200
_cell_angle_alpha   90.04471977
_cell_angle_beta   90.00000000
_cell_angle_gamma   90.00000000
_symmetry_Int_Tables_number   1
_chemical_formula_structural   Y2Ho6B24IrRu3
_chemical_formula_sum   'Y2 Ho6 B24 Ir1 Ru3'
_cell_volume   383.89080950
_cell_formula_units_Z   1
loop_
 _symmetry_equiv_pos_site_id
 _symmetry_equiv_pos_as_xyz
  1  'x, y, z'
loop_
 _atom_site_type_symbol
 _atom_site_label
 _atom_site_symmetry_multiplicity
 _atom_site_fract_x
 _atom_site_fract_y
 _atom_site_fract_z
 _atom_site_occupancy
  Y  Y0  1  0.000000  0.319657  0.414412  1
  Y  Y1  1  0.000000  0.678489  0.588903  1
  Ho  Ho2  1  0.000000  0.823831  0.084179  1
  Ho  Ho3  1  0.000000  0.178010  0.913219  1
  Ho  Ho4  1  0.000000  0.945847  0.372905  1
  Ho  Ho5  1  0.000000  0.055857  0.627161  1
  Ho  Ho6  1  0.000000  0.442150  0.125673  1
  Ho  Ho7  1  0.000000  0.555725  0.873243  1
  B  B8  1  0.500000  0.553713  0.433379  1
  B  B9  1  0.500000  0.445795  0.567280  1
  B  B10  1  0.500000  0.054139  0.066930  1
  B  B11  1  0.500000  0.946097  0.932882  1
  B  B12  1  0.500000  0.749556  0.420782  1
  B  B13  1  0.500000  0.251505  0.580346  1
  B  B14  1  0.500000  0.247901  0.079740  1
  B  B15  1  0.500000  0.752113  0.920131  1
  B  B16  1  0.500000  0.792333  0.265581  1
  B  B17  1  0.500000  0.208712  0.733766  1
  B  B18  1  0.500000  0.291404  0.233704  1
  B  B19  1  0.500000  0.708613  0.766661  1
  B  B20  1  0.500000  0.632485  0.183734  1
  B  B21  1  0.500000  0.367973  0.814753  1
  B  B22  1  0.500000  0.131974  0.314753  1
  B  B23  1  0.500000  0.867922  0.685586  1
  B  B24  1  0.500000  0.983641  0.212849  1
  B  B25  1  0.500000  0.016425  0.786970  1
  B  B26  1  0.500000  0.482651  0.286669  1
  B  B27  1  0.500000  0.516157  0.713370  1
  B  B28  1  0.500000  0.610173  0.030636  1
  B  B29  1  0.500000  0.389871  0.969731  1
  B  B30  1  0.500000  0.109374  0.469901  1
  B  B31  1  0.500000  0.890022  0.529812  1
  Ir  Ir32  1  0.000000  0.637835  0.321366  1
  Ru  Ru33  1  0.000000  0.361966  0.678768  1
  Ru  Ru34  1  0.000000  0.137982  0.178848  1
  Ru  Ru35  1  0.000000  0.862098  0.821372  1
