# generated using pymatgen
data_Pr7Er3(In3Br)2
_symmetry_space_group_name_H-M   'P 1'
_cell_length_a   9.56356900
_cell_length_b   9.56356727
_cell_length_c   6.80919800
_cell_angle_alpha   90.00000000
_cell_angle_beta   90.00000000
_cell_angle_gamma   120.00000251
_symmetry_Int_Tables_number   1
_chemical_formula_structural   Pr7Er3(In3Br)2
_chemical_formula_sum   'Pr7 Er3 In6 Br2'
_cell_volume   539.34480061
_cell_formula_units_Z   1
loop_
 _symmetry_equiv_pos_site_id
 _symmetry_equiv_pos_as_xyz
  1  'x, y, z'
loop_
 _atom_site_type_symbol
 _atom_site_label
 _atom_site_symmetry_multiplicity
 _atom_site_fract_x
 _atom_site_fract_y
 _atom_site_fract_z
 _atom_site_occupancy
  Pr  Pr0  1  0.733333  0.732049  0.249062  1
  Pr  Pr1  1  0.998717  0.732049  0.750938  1
  Pr  Pr2  1  0.733333  0.001283  0.750938  1
  Pr  Pr3  1  0.333333  0.666667  0.500000  1
  Pr  Pr4  1  0.267951  0.266667  0.750938  1
  Pr  Pr5  1  0.998717  0.266667  0.249062  1
  Pr  Pr6  1  0.267951  0.001283  0.249062  1
  Er  Er7  1  0.666667  0.333333  0.500000  1
  Er  Er8  1  0.333333  0.666667  0.000000  1
  Er  Er9  1  0.666667  0.333333  0.000000  1
  In  In10  1  0.396843  0.003785  0.751782  1
  In  In11  1  0.996215  0.603157  0.248218  1
  In  In12  1  0.606941  0.003785  0.248218  1
  In  In13  1  0.996215  0.393059  0.751782  1
  In  In14  1  0.396843  0.393059  0.248218  1
  In  In15  1  0.606941  0.603157  0.751782  1
  Br  Br16  1  0.000000  0.000000  0.500000  1
  Br  Br17  1  0.000000  0.000000  0.000000  1
