# generated using pymatgen
data_ErTm9(PPb3)2
_symmetry_space_group_name_H-M   'P 1'
_cell_length_a   9.03461216
_cell_length_b   9.03461104
_cell_length_c   6.72062300
_cell_angle_alpha   90.00000000
_cell_angle_beta   90.00000000
_cell_angle_gamma   119.97827341
_symmetry_Int_Tables_number   1
_chemical_formula_structural   ErTm9(PPb3)2
_chemical_formula_sum   'Er1 Tm9 P2 Pb6'
_cell_volume   475.17565136
_cell_formula_units_Z   1
loop_
 _symmetry_equiv_pos_site_id
 _symmetry_equiv_pos_as_xyz
  1  'x, y, z'
loop_
 _atom_site_type_symbol
 _atom_site_label
 _atom_site_symmetry_multiplicity
 _atom_site_fract_x
 _atom_site_fract_y
 _atom_site_fract_z
 _atom_site_occupancy
  Er  Er0  1  0.761761  0.761761  0.250000  1
  Tm  Tm1  1  0.237773  0.000064  0.250000  1
  Tm  Tm2  1  0.000064  0.237773  0.250000  1
  Tm  Tm3  1  0.237738  0.237738  0.750000  1
  Tm  Tm4  1  0.762294  0.000019  0.750000  1
  Tm  Tm5  1  0.000019  0.762294  0.750000  1
  Tm  Tm6  1  0.666631  0.333290  0.500012  1
  Tm  Tm7  1  0.333290  0.666631  0.500012  1
  Tm  Tm8  1  0.333290  0.666631  0.999988  1
  Tm  Tm9  1  0.666631  0.333290  0.999988  1
  P  P10  1  0.000277  0.000277  0.500247  1
  P  P11  1  0.000277  0.000277  0.999753  1
  Pb  Pb12  1  0.399527  0.399527  0.250000  1
  Pb  Pb13  1  0.600230  0.000186  0.250000  1
  Pb  Pb14  1  0.000186  0.600230  0.250000  1
  Pb  Pb15  1  0.600353  0.600353  0.750000  1
  Pb  Pb16  1  0.399681  0.999979  0.750000  1
  Pb  Pb17  1  0.999979  0.399681  0.750000  1
