# generated using pymatgen
data_Zr8Ta7Ti5Ge16
_symmetry_space_group_name_H-M   'P 1'
_cell_length_a   6.82688730
_cell_length_b   6.94803236
_cell_length_c   13.27223006
_cell_angle_alpha   89.98899722
_cell_angle_beta   89.99722325
_cell_angle_gamma   90.07076011
_symmetry_Int_Tables_number   1
_chemical_formula_structural   Zr8Ta7Ti5Ge16
_chemical_formula_sum   'Zr8 Ta7 Ti5 Ge16'
_cell_volume   629.54695479
_cell_formula_units_Z   1
loop_
 _symmetry_equiv_pos_site_id
 _symmetry_equiv_pos_as_xyz
  1  'x, y, z'
loop_
 _atom_site_type_symbol
 _atom_site_label
 _atom_site_symmetry_multiplicity
 _atom_site_fract_x
 _atom_site_fract_y
 _atom_site_fract_z
 _atom_site_occupancy
  Zr  Zr0  1  0.492093  0.674773  0.093205  1
  Zr  Zr1  1  0.992255  0.825896  0.407017  1
  Zr  Zr2  1  0.507664  0.325916  0.593334  1
  Zr  Zr3  1  0.007469  0.173923  0.906828  1
  Zr  Zr4  1  0.509951  0.325508  0.907518  1
  Zr  Zr5  1  0.011493  0.171901  0.593256  1
  Zr  Zr6  1  0.488029  0.672090  0.407722  1
  Zr  Zr7  1  0.988531  0.828582  0.093515  1
  Ta  Ta8  1  0.334455  0.008775  0.249091  1
  Ta  Ta9  1  0.834748  0.490997  0.250170  1
  Ta  Ta10  1  0.665273  0.992749  0.748699  1
  Ta  Ta11  1  0.166732  0.508231  0.750143  1
  Ta  Ta12  1  0.659718  0.167730  0.123857  1
  Ta  Ta13  1  0.159122  0.332508  0.375308  1
  Ta  Ta14  1  0.341580  0.832079  0.625230  1
  Ti  Ti15  1  0.840814  0.666384  0.875050  1
  Ti  Ti16  1  0.337492  0.833436  0.875301  1
  Ti  Ti17  1  0.838459  0.667943  0.624891  1
  Ti  Ti18  1  0.661732  0.168207  0.375278  1
  Ti  Ti19  1  0.161611  0.332919  0.124110  1
  Ge  Ge20  1  0.693998  0.854053  0.251944  1
  Ge  Ge21  1  0.194553  0.645712  0.247991  1
  Ge  Ge22  1  0.305010  0.145620  0.751654  1
  Ge  Ge23  1  0.806261  0.356584  0.749403  1
  Ge  Ge24  1  0.679483  0.955514  0.959024  1
  Ge  Ge25  1  0.176760  0.539600  0.540004  1
  Ge  Ge26  1  0.323450  0.039714  0.460437  1
  Ge  Ge27  1  0.822461  0.462896  0.037598  1
  Ge  Ge28  1  0.317105  0.039676  0.037628  1
  Ge  Ge29  1  0.816366  0.460394  0.462425  1
  Ge  Ge30  1  0.683667  0.960612  0.537691  1
  Ge  Ge31  1  0.181070  0.540550  0.961340  1
  Ge  Ge32  1  0.460836  0.382636  0.250313  1
  Ge  Ge33  1  0.960897  0.117524  0.248876  1
  Ge  Ge34  1  0.541851  0.618445  0.752902  1
  Ge  Ge35  1  0.037008  0.879923  0.751246  1
