# generated using pymatgen
data_YHoMn4Fe8P7
_symmetry_space_group_name_H-M   'P 1'
_cell_length_a   9.08341305
_cell_length_b   9.05100399
_cell_length_c   3.60414800
_cell_angle_alpha   90.00000000
_cell_angle_beta   90.00000000
_cell_angle_gamma   119.26068750
_symmetry_Int_Tables_number   1
_chemical_formula_structural   YHoMn4Fe8P7
_chemical_formula_sum   'Y1 Ho1 Mn4 Fe8 P7'
_cell_volume   258.50354701
_cell_formula_units_Z   1
loop_
 _symmetry_equiv_pos_site_id
 _symmetry_equiv_pos_as_xyz
  1  'x, y, z'
loop_
 _atom_site_type_symbol
 _atom_site_label
 _atom_site_symmetry_multiplicity
 _atom_site_fract_x
 _atom_site_fract_y
 _atom_site_fract_z
 _atom_site_occupancy
  Y  Y0  1  0.338455  0.669963  0.500000  1
  Ho  Ho1  1  0.660205  0.329539  0.000000  1
  Mn  Mn2  1  0.951785  0.562194  0.500000  1
  Mn  Mn3  1  0.107392  0.231089  0.500000  1
  Mn  Mn4  1  0.776458  0.879364  0.500000  1
  Mn  Mn5  1  0.123057  0.895811  0.500000  1
  Fe  Fe6  1  0.052047  0.429061  0.000000  1
  Fe  Fe7  1  0.573689  0.630956  0.000000  1
  Fe  Fe8  1  0.372299  0.946438  0.000000  1
  Fe  Fe9  1  0.271125  0.153034  0.000000  1
  Fe  Fe10  1  0.846829  0.118748  0.000000  1
  Fe  Fe11  1  0.880446  0.721649  0.000000  1
  Fe  Fe12  1  0.433770  0.383852  0.500000  1
  Fe  Fe13  1  0.613175  0.049126  0.500000  1
  P  P14  1  0.303397  0.412800  0.000000  1
  P  P15  1  0.589517  0.890967  0.000000  1
  P  P16  1  0.122919  0.711353  0.000000  1
  P  P17  1  0.405490  0.117708  0.500000  1
  P  P18  1  0.873264  0.277713  0.500000  1
  P  P19  1  0.704783  0.591354  0.500000  1
  P  P20  1  0.999899  0.997282  0.000000  1
