# generated using pymatgen
data_Mn4Si6Tc5Os
_symmetry_space_group_name_H-M   'P 1'
_cell_length_a   6.95335009
_cell_length_b   6.95136999
_cell_length_c   4.82084800
_cell_angle_alpha   90.00000000
_cell_angle_beta   90.00000000
_cell_angle_gamma   119.99058170
_symmetry_Int_Tables_number   1
_chemical_formula_structural   Mn4Si6Tc5Os
_chemical_formula_sum   'Mn4 Si6 Tc5 Os1'
_cell_volume   201.81794516
_cell_formula_units_Z   1
loop_
 _symmetry_equiv_pos_site_id
 _symmetry_equiv_pos_as_xyz
  1  'x, y, z'
loop_
 _atom_site_type_symbol
 _atom_site_label
 _atom_site_symmetry_multiplicity
 _atom_site_fract_x
 _atom_site_fract_y
 _atom_site_fract_z
 _atom_site_occupancy
  Mn  Mn0  1  0.334170  0.667270  0.500843  1
  Mn  Mn1  1  0.665830  0.333098  0.999157  1
  Mn  Mn2  1  0.665830  0.333098  0.500843  1
  Mn  Mn3  1  0.334170  0.667270  0.999157  1
  Si  Si4  1  0.402656  0.000112  0.750000  1
  Si  Si5  1  0.401668  0.402119  0.250000  1
  Si  Si6  1  0.000000  0.597922  0.250000  1
  Si  Si7  1  0.000000  0.401852  0.750000  1
  Si  Si8  1  0.597344  0.597455  0.750000  1
  Si  Si9  1  0.598332  0.000451  0.250000  1
  Tc  Tc10  1  0.000000  0.243796  0.250000  1
  Tc  Tc11  1  0.758639  0.758294  0.250000  1
  Tc  Tc12  1  0.759838  0.000037  0.750000  1
  Tc  Tc13  1  0.240162  0.240199  0.750000  1
  Tc  Tc14  1  0.241361  0.999654  0.250000  1
  Os  Os15  1  0.000000  0.757374  0.750000  1
