# generated using pymatgen
data_BaPa(NiAs)2
_symmetry_space_group_name_H-M   'P 1'
_cell_length_a   4.11937800
_cell_length_b   8.65531266
_cell_length_c   7.12936229
_cell_angle_alpha   89.84176367
_cell_angle_beta   90.00000000
_cell_angle_gamma   90.00000000
_symmetry_Int_Tables_number   1
_chemical_formula_structural   BaPa(NiAs)2
_chemical_formula_sum   'Ba2 Pa2 Ni4 As4'
_cell_volume   254.19291093
_cell_formula_units_Z   2
loop_
 _symmetry_equiv_pos_site_id
 _symmetry_equiv_pos_as_xyz
  1  'x, y, z'
loop_
 _atom_site_type_symbol
 _atom_site_label
 _atom_site_symmetry_multiplicity
 _atom_site_fract_x
 _atom_site_fract_y
 _atom_site_fract_z
 _atom_site_occupancy
  Ba  Ba0  1  0.250000  0.500394  0.248841  1
  Ba  Ba1  1  0.750000  0.499606  0.751159  1
  Pa  Pa2  1  0.750000  0.999474  0.748828  1
  Pa  Pa3  1  0.250000  0.000526  0.251172  1
  Ni  Ni4  1  0.250000  0.813246  0.917014  1
  Ni  Ni5  1  0.750000  0.186754  0.082986  1
  Ni  Ni6  1  0.750000  0.812808  0.418026  1
  Ni  Ni7  1  0.250000  0.187192  0.581974  1
  As  As8  1  0.250000  0.772826  0.583702  1
  As  As9  1  0.750000  0.227174  0.416298  1
  As  As10  1  0.750000  0.775849  0.083941  1
  As  As11  1  0.250000  0.224151  0.916059  1
