# generated using pymatgen
data_Tb8Si12PdAu3
_symmetry_space_group_name_H-M   'P 1'
_cell_length_a   8.20295200
_cell_length_b   8.20295179
_cell_length_c   8.24131900
_cell_angle_alpha   90.00000000
_cell_angle_beta   90.00000000
_cell_angle_gamma   120.00000891
_symmetry_Int_Tables_number   1
_chemical_formula_structural   Tb8Si12PdAu3
_chemical_formula_sum   'Tb8 Si12 Pd1 Au3'
_cell_volume   480.25030250
_cell_formula_units_Z   1
loop_
 _symmetry_equiv_pos_site_id
 _symmetry_equiv_pos_as_xyz
  1  'x, y, z'
loop_
 _atom_site_type_symbol
 _atom_site_label
 _atom_site_symmetry_multiplicity
 _atom_site_fract_x
 _atom_site_fract_y
 _atom_site_fract_z
 _atom_site_occupancy
  Tb  Tb0  1  0.499514  0.999027  0.251922  1
  Tb  Tb1  1  0.498053  0.996108  0.747978  1
  Tb  Tb2  1  0.000973  0.500486  0.251922  1
  Tb  Tb3  1  0.003892  0.501947  0.747978  1
  Tb  Tb4  1  0.499514  0.500486  0.251922  1
  Tb  Tb5  1  0.498053  0.501947  0.747978  1
  Tb  Tb6  1  0.000000  0.000000  0.250590  1
  Tb  Tb7  1  0.000000  0.000000  0.747638  1
  Si  Si8  1  0.163537  0.327075  0.994602  1
  Si  Si9  1  0.836252  0.672504  0.004169  1
  Si  Si10  1  0.672925  0.836463  0.994602  1
  Si  Si11  1  0.837591  0.675182  0.502502  1
  Si  Si12  1  0.327496  0.163748  0.004169  1
  Si  Si13  1  0.167363  0.334725  0.496325  1
  Si  Si14  1  0.163537  0.836463  0.994602  1
  Si  Si15  1  0.324818  0.162409  0.502502  1
  Si  Si16  1  0.836252  0.163748  0.004169  1
  Si  Si17  1  0.665275  0.832637  0.496325  1
  Si  Si18  1  0.837591  0.162409  0.502502  1
  Si  Si19  1  0.167363  0.832637  0.496325  1
  Pd  Pd20  1  0.333333  0.666667  0.502689  1
  Au  Au21  1  0.333333  0.666667  0.007040  1
  Au  Au22  1  0.666667  0.333333  0.996805  1
  Au  Au23  1  0.666667  0.333333  0.502742  1
