# generated using pymatgen
data_TbYPu2(SnPd)4
_symmetry_space_group_name_H-M   'P 1'
_cell_length_a   4.70200400
_cell_length_b   7.25391508
_cell_length_c   7.96963636
_cell_angle_alpha   90.26132483
_cell_angle_beta   90.00000000
_cell_angle_gamma   90.00000000
_symmetry_Int_Tables_number   1
_chemical_formula_structural   TbYPu2(SnPd)4
_chemical_formula_sum   'Tb1 Y1 Pu2 Sn4 Pd4'
_cell_volume   271.82503325
_cell_formula_units_Z   1
loop_
 _symmetry_equiv_pos_site_id
 _symmetry_equiv_pos_as_xyz
  1  'x, y, z'
loop_
 _atom_site_type_symbol
 _atom_site_label
 _atom_site_symmetry_multiplicity
 _atom_site_fract_x
 _atom_site_fract_y
 _atom_site_fract_z
 _atom_site_occupancy
  Tb  Tb0  1  0.750000  0.012835  0.700551  1
  Y  Y1  1  0.750000  0.512474  0.799020  1
  Pu  Pu2  1  0.250000  0.984806  0.298393  1
  Pu  Pu3  1  0.250000  0.486033  0.203079  1
  Sn  Sn4  1  0.250000  0.311430  0.586995  1
  Sn  Sn5  1  0.250000  0.812107  0.912481  1
  Sn  Sn6  1  0.750000  0.686906  0.412504  1
  Sn  Sn7  1  0.750000  0.192071  0.087318  1
  Pd  Pd8  1  0.250000  0.211917  0.914251  1
  Pd  Pd9  1  0.250000  0.707540  0.586471  1
  Pd  Pd10  1  0.750000  0.788742  0.080454  1
  Pd  Pd11  1  0.750000  0.293138  0.418483  1
