# generated using pymatgen
data_Ho16In3HgIrRh3
_symmetry_space_group_name_H-M   'P 1'
_cell_length_a   9.59468922
_cell_length_b   9.60974710
_cell_length_c   9.59468861
_cell_angle_alpha   60.16676078
_cell_angle_beta   60.11615061
_cell_angle_gamma   60.16675906
_symmetry_Int_Tables_number   1
_chemical_formula_structural   Ho16In3HgIrRh3
_chemical_formula_sum   'Ho16 In3 Hg1 Ir1 Rh3'
_cell_volume   627.66878938
_cell_formula_units_Z   1
loop_
 _symmetry_equiv_pos_site_id
 _symmetry_equiv_pos_as_xyz
  1  'x, y, z'
loop_
 _atom_site_type_symbol
 _atom_site_label
 _atom_site_symmetry_multiplicity
 _atom_site_fract_x
 _atom_site_fract_y
 _atom_site_fract_z
 _atom_site_occupancy
  Ho  Ho0  1  0.188564  0.188887  0.811475  1
  Ho  Ho1  1  0.602308  0.602646  0.197820  1
  Ho  Ho2  1  0.439814  0.058932  0.439814  1
  Ho  Ho3  1  0.439381  0.440158  0.059309  1
  Ho  Ho4  1  0.814242  0.184401  0.814242  1
  Ho  Ho5  1  0.189609  0.811810  0.189609  1
  Ho  Ho6  1  0.436775  0.060173  0.060680  1
  Ho  Ho7  1  0.185224  0.814232  0.812368  1
  Ho  Ho8  1  0.060679  0.436912  0.060679  1
  Ho  Ho9  1  0.812368  0.814232  0.185224  1
  Ho  Ho10  1  0.197820  0.602646  0.602308  1
  Ho  Ho11  1  0.059309  0.440158  0.439381  1
  Ho  Ho12  1  0.060680  0.060173  0.436775  1
  Ho  Ho13  1  0.811475  0.188887  0.188564  1
  Ho  Ho14  1  0.602700  0.196932  0.602700  1
  Ho  Ho15  1  0.597217  0.597823  0.597217  1
  In  In16  1  0.831940  0.831666  0.502594  1
  In  In17  1  0.502594  0.831666  0.831940  1
  In  In18  1  0.831531  0.502867  0.831531  1
  Hg  Hg19  1  0.836232  0.836352  0.836232  1
  Ir  Ir20  1  0.390863  0.824130  0.390863  1
  Rh  Rh21  1  0.393604  0.393364  0.393604  1
  Rh  Rh22  1  0.824187  0.390478  0.390885  1
  Rh  Rh23  1  0.390885  0.390478  0.824187  1
