# generated using pymatgen
data_Nd3SmCrTc3B16
_symmetry_space_group_name_H-M   'P 1'
_cell_length_a   3.64038200
_cell_length_b   6.04780133
_cell_length_c   11.70654099
_cell_angle_alpha   89.82073071
_cell_angle_beta   90.00000000
_cell_angle_gamma   90.00000000
_symmetry_Int_Tables_number   1
_chemical_formula_structural   Nd3SmCrTc3B16
_chemical_formula_sum   'Nd3 Sm1 Cr1 Tc3 B16'
_cell_volume   257.73353983
_cell_formula_units_Z   1
loop_
 _symmetry_equiv_pos_site_id
 _symmetry_equiv_pos_as_xyz
  1  'x, y, z'
loop_
 _atom_site_type_symbol
 _atom_site_label
 _atom_site_symmetry_multiplicity
 _atom_site_fract_x
 _atom_site_fract_y
 _atom_site_fract_z
 _atom_site_occupancy
  Nd  Nd0  1  0.000000  0.624362  0.350067  1
  Nd  Nd1  1  0.000000  0.376563  0.650173  1
  Nd  Nd2  1  0.000000  0.125588  0.150812  1
  Sm  Sm3  1  0.000000  0.874148  0.847879  1
  Cr  Cr4  1  0.000000  0.875323  0.583045  1
  Tc  Tc5  1  0.000000  0.631460  0.086136  1
  Tc  Tc6  1  0.000000  0.368459  0.913076  1
  Tc  Tc7  1  0.000000  0.123945  0.418038  1
  B  B8  1  0.500000  0.780737  0.183575  1
  B  B9  1  0.500000  0.217098  0.815937  1
  B  B10  1  0.500000  0.280824  0.317660  1
  B  B11  1  0.500000  0.720602  0.682694  1
  B  B12  1  0.500000  0.861114  0.030828  1
  B  B13  1  0.500000  0.138746  0.967457  1
  B  B14  1  0.500000  0.359696  0.468196  1
  B  B15  1  0.500000  0.641144  0.533537  1
  B  B16  1  0.500000  0.887134  0.455380  1
  B  B17  1  0.500000  0.110863  0.547015  1
  B  B18  1  0.500000  0.388573  0.045173  1
  B  B19  1  0.500000  0.613420  0.953040  1
  B  B20  1  0.500000  0.976178  0.311174  1
  B  B21  1  0.500000  0.022208  0.689923  1
  B  B22  1  0.500000  0.474927  0.189733  1
  B  B23  1  0.500000  0.526891  0.809451  1
