# generated using pymatgen
data_Li8Ac7LuSi7Sn
_symmetry_space_group_name_H-M   'P 1'
_cell_length_a   9.30387400
_cell_length_b   9.30387293
_cell_length_c   7.95890100
_cell_angle_alpha   90.00000000
_cell_angle_beta   90.00000000
_cell_angle_gamma   120.00000381
_symmetry_Int_Tables_number   1
_chemical_formula_structural   Li8Ac7LuSi7Sn
_chemical_formula_sum   'Li8 Ac7 Lu1 Si7 Sn1'
_cell_volume   596.63854651
_cell_formula_units_Z   1
loop_
 _symmetry_equiv_pos_site_id
 _symmetry_equiv_pos_as_xyz
  1  'x, y, z'
loop_
 _atom_site_type_symbol
 _atom_site_label
 _atom_site_symmetry_multiplicity
 _atom_site_fract_x
 _atom_site_fract_y
 _atom_site_fract_z
 _atom_site_occupancy
  Li  Li0  1  0.162707  0.325416  0.273162  1
  Li  Li1  1  0.162707  0.837293  0.273162  1
  Li  Li2  1  0.674584  0.837293  0.273162  1
  Li  Li3  1  0.842196  0.684391  0.801905  1
  Li  Li4  1  0.842196  0.157804  0.801905  1
  Li  Li5  1  0.315609  0.157804  0.801905  1
  Li  Li6  1  0.333333  0.666667  0.676166  1
  Li  Li7  1  0.666667  0.333333  0.166620  1
  Ac  Ac8  1  0.509269  0.018536  0.491963  1
  Ac  Ac9  1  0.509269  0.490731  0.491963  1
  Ac  Ac10  1  0.981464  0.490731  0.491963  1
  Ac  Ac11  1  0.484429  0.968858  0.997167  1
  Ac  Ac12  1  0.484429  0.515571  0.997167  1
  Ac  Ac13  1  0.031142  0.515571  0.997167  1
  Ac  Ac14  1  0.000000  0.000000  0.507668  1
  Lu  Lu15  1  0.000000  0.000000  0.019147  1
  Si  Si16  1  0.165337  0.330673  0.729736  1
  Si  Si17  1  0.165337  0.834663  0.729736  1
  Si  Si18  1  0.669327  0.834663  0.729736  1
  Si  Si19  1  0.839028  0.678057  0.209229  1
  Si  Si20  1  0.839028  0.160972  0.209229  1
  Si  Si21  1  0.321943  0.160972  0.209229  1
  Si  Si22  1  0.333333  0.666667  0.285471  1
  Sn  Sn23  1  0.666667  0.333333  0.777436  1
