# generated using pymatgen
data_NaCo5As3
_symmetry_space_group_name_H-M   'P 1'
_cell_length_a   3.71454500
_cell_length_b   10.62699200
_cell_length_c   12.23340400
_cell_angle_alpha   90.00000000
_cell_angle_beta   90.00000000
_cell_angle_gamma   90.00000000
_symmetry_Int_Tables_number   1
_chemical_formula_structural   NaCo5As3
_chemical_formula_sum   'Na4 Co20 As12'
_cell_volume   482.90677218
_cell_formula_units_Z   4
loop_
 _symmetry_equiv_pos_site_id
 _symmetry_equiv_pos_as_xyz
  1  'x, y, z'
loop_
 _atom_site_type_symbol
 _atom_site_label
 _atom_site_symmetry_multiplicity
 _atom_site_fract_x
 _atom_site_fract_y
 _atom_site_fract_z
 _atom_site_occupancy
  Na  Na0  1  0.250000  0.581007  0.704513  1
  Na  Na1  1  0.250000  0.918993  0.204513  1
  Na  Na2  1  0.750000  0.418993  0.295487  1
  Na  Na3  1  0.750000  0.081007  0.795487  1
  Co  Co4  1  0.250000  0.707703  0.986558  1
  Co  Co5  1  0.250000  0.792297  0.486558  1
  Co  Co6  1  0.750000  0.292297  0.013442  1
  Co  Co7  1  0.750000  0.207703  0.513442  1
  Co  Co8  1  0.250000  0.407323  0.489684  1
  Co  Co9  1  0.250000  0.092677  0.989684  1
  Co  Co10  1  0.750000  0.592677  0.510316  1
  Co  Co11  1  0.750000  0.907323  0.010316  1
  Co  Co12  1  0.250000  0.214562  0.176486  1
  Co  Co13  1  0.250000  0.285438  0.676486  1
  Co  Co14  1  0.750000  0.785438  0.823514  1
  Co  Co15  1  0.750000  0.714562  0.323514  1
  Co  Co16  1  0.250000  0.880618  0.696068  1
  Co  Co17  1  0.250000  0.619382  0.196068  1
  Co  Co18  1  0.750000  0.119382  0.303932  1
  Co  Co19  1  0.750000  0.380618  0.803932  1
  Co  Co20  1  0.250000  0.465109  0.934534  1
  Co  Co21  1  0.250000  0.034891  0.434534  1
  Co  Co22  1  0.750000  0.534891  0.065466  1
  Co  Co23  1  0.750000  0.965109  0.565466  1
  As  As24  1  0.250000  0.416791  0.116742  1
  As  As25  1  0.250000  0.083209  0.616742  1
  As  As26  1  0.750000  0.583209  0.883258  1
  As  As27  1  0.750000  0.916791  0.383258  1
  As  As28  1  0.250000  0.263802  0.868272  1
  As  As29  1  0.250000  0.236198  0.368272  1
  As  As30  1  0.750000  0.736198  0.131728  1
  As  As31  1  0.750000  0.763802  0.631728  1
  As  As32  1  0.250000  0.597894  0.389337  1
  As  As33  1  0.250000  0.902106  0.889337  1
  As  As34  1  0.750000  0.402106  0.610663  1
  As  As35  1  0.750000  0.097894  0.110663  1
