# generated using pymatgen
data_Er3As2P2Rh7
_symmetry_space_group_name_H-M   'P 1'
_cell_length_a   7.84881633
_cell_length_b   7.84881619
_cell_length_c   9.24590720
_cell_angle_alpha   56.83987779
_cell_angle_beta   56.83987729
_cell_angle_gamma   29.38754235
_symmetry_Int_Tables_number   1
_chemical_formula_structural   Er3As2P2Rh7
_chemical_formula_sum   'Er3 As2 P2 Rh7'
_cell_volume   230.52459520
_cell_formula_units_Z   1
loop_
 _symmetry_equiv_pos_site_id
 _symmetry_equiv_pos_as_xyz
  1  'x, y, z'
loop_
 _atom_site_type_symbol
 _atom_site_label
 _atom_site_symmetry_multiplicity
 _atom_site_fract_x
 _atom_site_fract_y
 _atom_site_fract_z
 _atom_site_occupancy
  Er  Er0  1  0.500000  0.500000  0.500000  1
  Er  Er1  1  0.830083  0.830083  0.163881  1
  Er  Er2  1  0.169917  0.169917  0.836119  1
  As  As3  1  0.390027  0.390027  0.328606  1
  As  As4  1  0.609973  0.609973  0.671394  1
  P  P5  1  0.831187  0.831187  0.777275  1
  P  P6  1  0.168813  0.168813  0.222725  1
  Rh  Rh7  1  0.670555  0.670555  0.078297  1
  Rh  Rh8  1  0.013458  0.013458  0.225916  1
  Rh  Rh9  1  0.986542  0.986542  0.774084  1
  Rh  Rh10  1  0.500000  0.500000  0.000000  1
  Rh  Rh11  1  0.193527  0.193527  0.449743  1
  Rh  Rh12  1  0.806473  0.806473  0.550257  1
  Rh  Rh13  1  0.329445  0.329445  0.921703  1
