# generated using pymatgen
data_Eu2Pd2O7
_symmetry_space_group_name_H-M   'P 1'
_cell_length_a   7.38181224
_cell_length_b   7.38149920
_cell_length_c   7.38181300
_cell_angle_alpha   59.99859818
_cell_angle_beta   60.00000109
_cell_angle_gamma   59.99859523
_symmetry_Int_Tables_number   1
_chemical_formula_structural   Eu2Pd2O7
_chemical_formula_sum   'Eu4 Pd4 O14'
_cell_volume   284.41100995
_cell_formula_units_Z   2
loop_
 _symmetry_equiv_pos_site_id
 _symmetry_equiv_pos_as_xyz
  1  'x, y, z'
loop_
 _atom_site_type_symbol
 _atom_site_label
 _atom_site_symmetry_multiplicity
 _atom_site_fract_x
 _atom_site_fract_y
 _atom_site_fract_z
 _atom_site_occupancy
  Eu  Eu0  1  0.125000  0.125000  0.125000  1
  Eu  Eu1  1  0.625000  0.125000  0.125000  1
  Eu  Eu2  1  0.125000  0.625000  0.125000  1
  Eu  Eu3  1  0.125000  0.125000  0.625000  1
  Pd  Pd4  1  0.625000  0.625000  0.625000  1
  Pd  Pd5  1  0.125000  0.625000  0.625000  1
  Pd  Pd6  1  0.625000  0.625000  0.125000  1
  Pd  Pd7  1  0.625000  0.125000  0.625000  1
  O  O8  1  0.960576  0.539839  0.960576  1
  O  O9  1  0.710534  0.289464  0.289468  1
  O  O10  1  0.289424  0.710161  0.710989  1
  O  O11  1  0.710534  0.289464  0.710534  1
  O  O12  1  0.289468  0.289464  0.710534  1
  O  O13  1  0.710989  0.710161  0.289424  1
  O  O14  1  0.960532  0.960536  0.539466  1
  O  O15  1  0.539466  0.960536  0.960532  1
  O  O16  1  0.960576  0.539839  0.539011  1
  O  O17  1  0.539011  0.539839  0.960576  1
  O  O18  1  0.289424  0.710161  0.289424  1
  O  O19  1  0.539466  0.960536  0.539466  1
  O  O20  1  0.999860  0.000420  0.999860  1
  O  O21  1  0.250140  0.249580  0.250140  1
