# generated using pymatgen
data_Ti18NbSi16Pt
_symmetry_space_group_name_H-M   'P 1'
_cell_length_a   6.71188299
_cell_length_b   6.71188243
_cell_length_c   12.16737479
_cell_angle_alpha   89.57549734
_cell_angle_beta   90.42450292
_cell_angle_gamma   89.92888603
_symmetry_Int_Tables_number   1
_chemical_formula_structural   Ti18NbSi16Pt
_chemical_formula_sum   'Ti18 Nb1 Si16 Pt1'
_cell_volume   548.10201419
_cell_formula_units_Z   1
loop_
 _symmetry_equiv_pos_site_id
 _symmetry_equiv_pos_as_xyz
  1  'x, y, z'
loop_
 _atom_site_type_symbol
 _atom_site_label
 _atom_site_symmetry_multiplicity
 _atom_site_fract_x
 _atom_site_fract_y
 _atom_site_fract_z
 _atom_site_occupancy
  Ti  Ti0  1  0.996272  0.146193  0.624299  1
  Ti  Ti1  1  0.355456  0.499426  0.869518  1
  Ti  Ti2  1  0.648615  0.504837  0.370762  1
  Ti  Ti3  1  0.499426  0.355456  0.130482  1
  Ti  Ti4  1  0.504837  0.648615  0.629238  1
  Ti  Ti5  1  0.004171  0.849709  0.119465  1
  Ti  Ti6  1  0.146193  0.996272  0.375701  1
  Ti  Ti7  1  0.849709  0.004171  0.880535  1
  Ti  Ti8  1  0.000025  0.347550  0.218553  1
  Ti  Ti9  1  0.154648  0.501700  0.468701  1
  Ti  Ti10  1  0.838941  0.498235  0.970775  1
  Ti  Ti11  1  0.501700  0.154648  0.531299  1
  Ti  Ti12  1  0.498235  0.838941  0.029225  1
  Ti  Ti13  1  0.997795  0.655643  0.720259  1
  Ti  Ti14  1  0.347550  0.000025  0.781447  1
  Ti  Ti15  1  0.655643  0.997795  0.279741  1
  Ti  Ti16  1  0.327699  0.671886  0.247495  1
  Ti  Ti17  1  0.671886  0.327699  0.752505  1
  Nb  Nb18  1  0.828717  0.828717  0.500000  1
  Si  Si19  1  0.047004  0.300654  0.815210  1
  Si  Si20  1  0.202512  0.546952  0.061652  1
  Si  Si21  1  0.800451  0.451526  0.565118  1
  Si  Si22  1  0.546952  0.202512  0.938348  1
  Si  Si23  1  0.451526  0.800451  0.434882  1
  Si  Si24  1  0.957185  0.697368  0.311498  1
  Si  Si25  1  0.300654  0.047004  0.184790  1
  Si  Si26  1  0.697368  0.957185  0.688502  1
  Si  Si27  1  0.294746  0.356429  0.673257  1
  Si  Si28  1  0.136529  0.785118  0.919695  1
  Si  Si29  1  0.858293  0.208315  0.422413  1
  Si  Si30  1  0.785118  0.136529  0.080305  1
  Si  Si31  1  0.208315  0.858293  0.577587  1
  Si  Si32  1  0.705017  0.645901  0.173097  1
  Si  Si33  1  0.356429  0.294746  0.326743  1
  Si  Si34  1  0.645901  0.705017  0.826903  1
  Pt  Pt35  1  0.178483  0.178483  0.000000  1
