# generated using pymatgen
data_Tm3LuFeTc7
_symmetry_space_group_name_H-M   'P 1'
_cell_length_a   5.36027671
_cell_length_b   5.36027639
_cell_length_c   8.74643205
_cell_angle_alpha   90.01043862
_cell_angle_beta   89.98956410
_cell_angle_gamma   121.40730367
_symmetry_Int_Tables_number   1
_chemical_formula_structural   Tm3LuFeTc7
_chemical_formula_sum   'Tm3 Lu1 Fe1 Tc7'
_cell_volume   214.48695554
_cell_formula_units_Z   1
loop_
 _symmetry_equiv_pos_site_id
 _symmetry_equiv_pos_as_xyz
  1  'x, y, z'
loop_
 _atom_site_type_symbol
 _atom_site_label
 _atom_site_symmetry_multiplicity
 _atom_site_fract_x
 _atom_site_fract_y
 _atom_site_fract_z
 _atom_site_occupancy
  Tm  Tm0  1  0.334654  0.665346  0.436816  1
  Tm  Tm1  1  0.666370  0.333630  0.561450  1
  Tm  Tm2  1  0.666397  0.333603  0.938774  1
  Lu  Lu3  1  0.334752  0.665248  0.062969  1
  Fe  Fe4  1  0.828111  0.171889  0.249643  1
  Tc  Tc5  1  0.002598  0.997402  0.492374  1
  Tc  Tc6  1  0.002523  0.997477  0.007513  1
  Tc  Tc7  1  0.823713  0.656903  0.249569  1
  Tc  Tc8  1  0.343097  0.176287  0.249569  1
  Tc  Tc9  1  0.169411  0.830589  0.750470  1
  Tc  Tc10  1  0.170227  0.341852  0.750426  1
  Tc  Tc11  1  0.658148  0.829773  0.750426  1
