# generated using pymatgen
data_Ho3Er3(Cu3Sb4)2
_symmetry_space_group_name_H-M   'P 1'
_cell_length_a   8.28874609
_cell_length_b   8.28878338
_cell_length_c   8.28878303
_cell_angle_alpha   109.47156214
_cell_angle_beta   109.47899168
_cell_angle_gamma   109.46329158
_symmetry_Int_Tables_number   1
_chemical_formula_structural   Ho3Er3(Cu3Sb4)2
_chemical_formula_sum   'Ho3 Er3 Cu6 Sb8'
_cell_volume   438.37675420
_cell_formula_units_Z   1
loop_
 _symmetry_equiv_pos_site_id
 _symmetry_equiv_pos_as_xyz
  1  'x, y, z'
loop_
 _atom_site_type_symbol
 _atom_site_label
 _atom_site_symmetry_multiplicity
 _atom_site_fract_x
 _atom_site_fract_y
 _atom_site_fract_z
 _atom_site_occupancy
  Ho  Ho0  1  0.875003  0.250001  0.125005  1
  Ho  Ho1  1  0.624997  0.750003  0.374998  1
  Ho  Ho2  1  0.250000  0.124994  0.874994  1
  Er  Er3  1  0.750000  0.375007  0.625007  1
  Er  Er4  1  0.125003  0.874999  0.249997  1
  Er  Er5  1  0.374997  0.624995  0.749996  1
  Cu  Cu6  1  0.375013  0.250016  0.624967  1
  Cu  Cu7  1  0.124987  0.749954  0.875003  1
  Cu  Cu8  1  0.250000  0.625039  0.375039  1
  Cu  Cu9  1  0.750000  0.874964  0.124964  1
  Cu  Cu10  1  0.625013  0.374998  0.250048  1
  Cu  Cu11  1  0.874987  0.125034  0.749985  1
  Sb  Sb12  1  0.659877  0.500027  0.999979  1
  Sb  Sb13  1  0.499977  0.999998  0.659836  1
  Sb  Sb14  1  0.000023  0.659859  0.500021  1
  Sb  Sb15  1  0.840123  0.840101  0.840149  1
  Sb  Sb16  1  0.499976  0.999978  0.159860  1
  Sb  Sb17  1  0.159842  0.500020  0.999972  1
  Sb  Sb18  1  0.000024  0.159883  0.500002  1
  Sb  Sb19  1  0.340158  0.340129  0.340178  1
