# generated using pymatgen
data_KSbMoO6
_symmetry_space_group_name_H-M   'P 1'
_cell_length_a   7.35623339
_cell_length_b   7.35623319
_cell_length_c   7.35623295
_cell_angle_alpha   120.84870983
_cell_angle_beta   115.00434733
_cell_angle_gamma   93.70044225
_symmetry_Int_Tables_number   1
_chemical_formula_structural   KSbMoO6
_chemical_formula_sum   'K2 Sb2 Mo2 O12'
_cell_volume   288.77888397
_cell_formula_units_Z   2
loop_
 _symmetry_equiv_pos_site_id
 _symmetry_equiv_pos_as_xyz
  1  'x, y, z'
loop_
 _atom_site_type_symbol
 _atom_site_label
 _atom_site_symmetry_multiplicity
 _atom_site_fract_x
 _atom_site_fract_y
 _atom_site_fract_z
 _atom_site_occupancy
  K  K0  1  0.050210  0.910288  0.639922  1
  K  K1  1  0.729634  0.089712  0.139922  1
  Sb  Sb2  1  0.511964  0.000000  0.511964  1
  Sb  Sb3  1  0.511964  0.500000  0.011964  1
  Mo  Mo4  1  0.454151  0.482753  0.471398  1
  Mo  Mo5  1  0.988645  0.517247  0.971398  1
  O  O6  1  0.852328  0.585300  0.767028  1
  O  O7  1  0.439176  0.168796  0.770380  1
  O  O8  1  0.460545  0.192759  0.392833  1
  O  O9  1  0.825032  0.567441  0.129100  1
  O  O10  1  0.825032  0.195932  0.757590  1
  O  O11  1  0.460545  0.567711  0.767786  1
  O  O12  1  0.181729  0.414700  0.267028  1
  O  O13  1  0.601584  0.831204  0.270380  1
  O  O14  1  0.561659  0.804068  0.629100  1
  O  O15  1  0.200075  0.432289  0.892833  1
  O  O16  1  0.200075  0.807241  0.267786  1
  O  O17  1  0.561659  0.432559  0.257590  1
