# generated using pymatgen
data_Ho2Tm4Mn3(Co5P4)3
_symmetry_space_group_name_H-M   'P 1'
_cell_length_a   3.68312300
_cell_length_b   10.51799900
_cell_length_c   12.09610000
_cell_angle_alpha   90.00000000
_cell_angle_beta   90.00000000
_cell_angle_gamma   90.00000000
_symmetry_Int_Tables_number   1
_chemical_formula_structural   Ho2Tm4Mn3(Co5P4)3
_chemical_formula_sum   'Ho2 Tm4 Mn3 Co15 P12'
_cell_volume   468.59183435
_cell_formula_units_Z   1
loop_
 _symmetry_equiv_pos_site_id
 _symmetry_equiv_pos_as_xyz
  1  'x, y, z'
loop_
 _atom_site_type_symbol
 _atom_site_label
 _atom_site_symmetry_multiplicity
 _atom_site_fract_x
 _atom_site_fract_y
 _atom_site_fract_z
 _atom_site_occupancy
  Ho  Ho0  1  0.000000  0.500000  0.523629  1
  Ho  Ho1  1  0.500000  0.000000  0.476575  1
  Tm  Tm2  1  0.500000  0.818059  0.204548  1
  Tm  Tm3  1  0.500000  0.181941  0.204548  1
  Tm  Tm4  1  0.000000  0.680435  0.795704  1
  Tm  Tm5  1  0.000000  0.319565  0.795704  1
  Mn  Mn6  1  0.500000  0.500000  0.156676  1
  Mn  Mn7  1  0.000000  0.000000  0.841334  1
  Mn  Mn8  1  0.000000  0.500000  0.988094  1
  Co  Co9  1  0.500000  0.500000  0.699812  1
  Co  Co10  1  0.000000  0.000000  0.297121  1
  Co  Co11  1  0.500000  0.000000  0.013624  1
  Co  Co12  1  0.500000  0.330462  0.994068  1
  Co  Co13  1  0.500000  0.669538  0.994068  1
  Co  Co14  1  0.000000  0.165715  0.006106  1
  Co  Co15  1  0.000000  0.834285  0.006106  1
  Co  Co16  1  0.500000  0.296200  0.430426  1
  Co  Co17  1  0.500000  0.703800  0.430426  1
  Co  Co18  1  0.000000  0.203654  0.570030  1
  Co  Co19  1  0.000000  0.796346  0.570030  1
  Co  Co20  1  0.500000  0.879222  0.709600  1
  Co  Co21  1  0.500000  0.120778  0.709600  1
  Co  Co22  1  0.000000  0.621578  0.291391  1
  Co  Co23  1  0.000000  0.378422  0.291391  1
  P  P24  1  0.500000  0.500000  0.881818  1
  P  P25  1  0.000000  0.000000  0.117930  1
  P  P26  1  0.500000  0.500000  0.345012  1
  P  P27  1  0.000000  0.000000  0.654414  1
  P  P28  1  0.500000  0.311323  0.617063  1
  P  P29  1  0.500000  0.688677  0.617063  1
  P  P30  1  0.000000  0.188348  0.383020  1
  P  P31  1  0.000000  0.811652  0.383020  1
  P  P32  1  0.500000  0.846347  0.892690  1
  P  P33  1  0.500000  0.153653  0.892690  1
  P  P34  1  0.000000  0.653882  0.107337  1
  P  P35  1  0.000000  0.346118  0.107337  1
