# generated using pymatgen
data_LaSmZn5Sn
_symmetry_space_group_name_H-M   'P 1'
_cell_length_a   8.58030703
_cell_length_b   8.58030663
_cell_length_c   9.11858800
_cell_angle_alpha   90.00000000
_cell_angle_beta   90.00000000
_cell_angle_gamma   149.54870056
_symmetry_Int_Tables_number   1
_chemical_formula_structural   LaSmZn5Sn
_chemical_formula_sum   'La2 Sm2 Zn10 Sn2'
_cell_volume   340.23173014
_cell_formula_units_Z   2
loop_
 _symmetry_equiv_pos_site_id
 _symmetry_equiv_pos_as_xyz
  1  'x, y, z'
loop_
 _atom_site_type_symbol
 _atom_site_label
 _atom_site_symmetry_multiplicity
 _atom_site_fract_x
 _atom_site_fract_y
 _atom_site_fract_z
 _atom_site_occupancy
  La  La0  1  0.000000  0.000000  0.500000  1
  La  La1  1  0.000000  0.000000  0.000000  1
  Sm  Sm2  1  0.206768  0.793232  0.250000  1
  Sm  Sm3  1  0.793232  0.206768  0.750000  1
  Zn  Zn4  1  0.812948  0.187052  0.390324  1
  Zn  Zn5  1  0.187052  0.812948  0.609676  1
  Zn  Zn6  1  0.812948  0.187052  0.109676  1
  Zn  Zn7  1  0.187052  0.812948  0.890324  1
  Zn  Zn8  1  0.658339  0.341661  0.484276  1
  Zn  Zn9  1  0.341661  0.658339  0.515724  1
  Zn  Zn10  1  0.658339  0.341661  0.015724  1
  Zn  Zn11  1  0.341661  0.658339  0.984276  1
  Zn  Zn12  1  0.396297  0.603703  0.250000  1
  Zn  Zn13  1  0.603703  0.396297  0.750000  1
  Sn  Sn14  1  0.559087  0.440913  0.250000  1
  Sn  Sn15  1  0.440913  0.559087  0.750000  1
