# generated using pymatgen
data_CsBeVO4
_symmetry_space_group_name_H-M   'P 1'
_cell_length_a   5.52203332
_cell_length_b   5.53071289
_cell_length_c   5.53071310
_cell_angle_alpha   60.38941233
_cell_angle_beta   119.96929411
_cell_angle_gamma   119.96928944
_symmetry_Int_Tables_number   1
_chemical_formula_structural   CsBeVO4
_chemical_formula_sum   'Cs1 Be1 V1 O4'
_cell_volume   119.84246376
_cell_formula_units_Z   1
loop_
 _symmetry_equiv_pos_site_id
 _symmetry_equiv_pos_as_xyz
  1  'x, y, z'
loop_
 _atom_site_type_symbol
 _atom_site_label
 _atom_site_symmetry_multiplicity
 _atom_site_fract_x
 _atom_site_fract_y
 _atom_site_fract_z
 _atom_site_occupancy
  Cs  Cs0  1  0.981867  0.997994  0.997994  1
  Be  Be1  1  0.734758  0.250018  0.250018  1
  V  V2  1  0.485044  0.500761  0.500761  1
  O  O3  1  0.099059  0.368489  0.368489  1
  O  O4  1  0.609720  0.885758  0.371229  1
  O  O5  1  0.619131  0.374750  0.374750  1
  O  O6  1  0.609720  0.371229  0.885758  1
