# generated using pymatgen
data_Al4Pd3Pt5
_symmetry_space_group_name_H-M   'P 1'
_cell_length_a   4.11549800
_cell_length_b   5.47606700
_cell_length_c   7.92869001
_cell_angle_alpha   90.00398470
_cell_angle_beta   90.00000000
_cell_angle_gamma   90.00000000
_symmetry_Int_Tables_number   1
_chemical_formula_structural   Al4Pd3Pt5
_chemical_formula_sum   'Al4 Pd3 Pt5'
_cell_volume   178.68684695
_cell_formula_units_Z   1
loop_
 _symmetry_equiv_pos_site_id
 _symmetry_equiv_pos_as_xyz
  1  'x, y, z'
loop_
 _atom_site_type_symbol
 _atom_site_label
 _atom_site_symmetry_multiplicity
 _atom_site_fract_x
 _atom_site_fract_y
 _atom_site_fract_z
 _atom_site_occupancy
  Al  Al0  1  0.750000  0.808401  0.896704  1
  Al  Al1  1  0.250000  0.189676  0.102258  1
  Al  Al2  1  0.750000  0.308310  0.603520  1
  Al  Al3  1  0.250000  0.691915  0.397523  1
  Pd  Pd4  1  0.250000  0.663428  0.067421  1
  Pd  Pd5  1  0.750000  0.836349  0.568222  1
  Pd  Pd6  1  0.250000  0.163120  0.431036  1
  Pt  Pt7  1  0.750000  0.461501  0.289429  1
  Pt  Pt8  1  0.250000  0.541304  0.711576  1
  Pt  Pt9  1  0.750000  0.958973  0.212225  1
  Pt  Pt10  1  0.250000  0.040434  0.786388  1
  Pt  Pt11  1  0.750000  0.336588  0.933698  1
