# generated using pymatgen
data_Tb4Th2ScCo17P12
_symmetry_space_group_name_H-M   'P 1'
_cell_length_a   3.75366100
_cell_length_b   10.67810900
_cell_length_c   12.36377400
_cell_angle_alpha   90.00000000
_cell_angle_beta   90.00000000
_cell_angle_gamma   90.00000000
_symmetry_Int_Tables_number   1
_chemical_formula_structural   Tb4Th2ScCo17P12
_chemical_formula_sum   'Tb4 Th2 Sc1 Co17 P12'
_cell_volume   495.56480563
_cell_formula_units_Z   1
loop_
 _symmetry_equiv_pos_site_id
 _symmetry_equiv_pos_as_xyz
  1  'x, y, z'
loop_
 _atom_site_type_symbol
 _atom_site_label
 _atom_site_symmetry_multiplicity
 _atom_site_fract_x
 _atom_site_fract_y
 _atom_site_fract_z
 _atom_site_occupancy
  Tb  Tb0  1  0.500000  0.819290  0.205074  1
  Tb  Tb1  1  0.500000  0.180710  0.205074  1
  Tb  Tb2  1  0.000000  0.684444  0.797764  1
  Tb  Tb3  1  0.000000  0.315556  0.797764  1
  Th  Th4  1  0.000000  0.500000  0.530739  1
  Th  Th5  1  0.500000  0.000000  0.475252  1
  Sc  Sc6  1  0.500000  0.500000  0.148858  1
  Co  Co7  1  0.000000  0.000000  0.841213  1
  Co  Co8  1  0.500000  0.500000  0.702339  1
  Co  Co9  1  0.000000  0.000000  0.297368  1
  Co  Co10  1  0.000000  0.500000  0.983988  1
  Co  Co11  1  0.500000  0.000000  0.013659  1
  Co  Co12  1  0.500000  0.327449  0.990280  1
  Co  Co13  1  0.500000  0.672551  0.990280  1
  Co  Co14  1  0.000000  0.162137  0.002138  1
  Co  Co15  1  0.000000  0.837863  0.002138  1
  Co  Co16  1  0.500000  0.296004  0.432959  1
  Co  Co17  1  0.500000  0.703996  0.432959  1
  Co  Co18  1  0.000000  0.200553  0.570812  1
  Co  Co19  1  0.000000  0.799447  0.570812  1
  Co  Co20  1  0.500000  0.881427  0.710819  1
  Co  Co21  1  0.500000  0.118573  0.710819  1
  Co  Co22  1  0.000000  0.621462  0.292796  1
  Co  Co23  1  0.000000  0.378538  0.292796  1
  P  P24  1  0.500000  0.500000  0.882355  1
  P  P25  1  0.000000  0.000000  0.116604  1
  P  P26  1  0.500000  0.500000  0.352451  1
  P  P27  1  0.000000  0.000000  0.660978  1
  P  P28  1  0.500000  0.304252  0.619215  1
  P  P29  1  0.500000  0.695748  0.619215  1
  P  P30  1  0.000000  0.193978  0.383754  1
  P  P31  1  0.000000  0.806022  0.383754  1
  P  P32  1  0.500000  0.850969  0.891440  1
  P  P33  1  0.500000  0.149031  0.891440  1
  P  P34  1  0.000000  0.662995  0.100048  1
  P  P35  1  0.000000  0.337005  0.100048  1
