# generated using pymatgen
data_Na4YTaO6
_symmetry_space_group_name_H-M   'P 1'
_cell_length_a   5.73373620
_cell_length_b   5.73372681
_cell_length_c   5.81657900
_cell_angle_alpha   99.41505726
_cell_angle_beta   99.41531519
_cell_angle_gamma   120.28965365
_symmetry_Int_Tables_number   1
_chemical_formula_structural   Na4YTaO6
_chemical_formula_sum   'Na4 Y1 Ta1 O6'
_cell_volume   155.94929222
_cell_formula_units_Z   1
loop_
 _symmetry_equiv_pos_site_id
 _symmetry_equiv_pos_as_xyz
  1  'x, y, z'
loop_
 _atom_site_type_symbol
 _atom_site_label
 _atom_site_symmetry_multiplicity
 _atom_site_fract_x
 _atom_site_fract_y
 _atom_site_fract_z
 _atom_site_occupancy
  Na  Na0  1  0.499563  0.500436  0.999999  1
  Na  Na1  1  0.006891  0.993105  0.500001  1
  Na  Na2  1  0.657665  0.342335  0.500003  1
  Na  Na3  1  0.338136  0.661859  0.500003  1
  Y  Y4  1  0.832958  0.167050  0.000002  1
  Ta  Ta5  1  0.167232  0.832767  0.999998  1
  O  O6  1  0.953695  0.600968  0.207757  1
  O  O7  1  0.217814  0.187189  0.212370  1
  O  O8  1  0.537600  0.923385  0.212560  1
  O  O9  1  0.076596  0.462391  0.787429  1
  O  O10  1  0.812822  0.782196  0.787630  1
  O  O11  1  0.399031  0.046319  0.792251  1
