# generated using pymatgen
data_Tb3Sm5(GeI6)2
_symmetry_space_group_name_H-M   'P 1'
_cell_length_a   4.27606900
_cell_length_b   14.22959284
_cell_length_c   15.02251688
_cell_angle_alpha   89.96062797
_cell_angle_beta   90.00000000
_cell_angle_gamma   90.00000000
_symmetry_Int_Tables_number   1
_chemical_formula_structural   Tb3Sm5(GeI6)2
_chemical_formula_sum   'Tb3 Sm5 Ge2 I12'
_cell_volume   914.07067529
_cell_formula_units_Z   1
loop_
 _symmetry_equiv_pos_site_id
 _symmetry_equiv_pos_as_xyz
  1  'x, y, z'
loop_
 _atom_site_type_symbol
 _atom_site_label
 _atom_site_symmetry_multiplicity
 _atom_site_fract_x
 _atom_site_fract_y
 _atom_site_fract_z
 _atom_site_occupancy
  Tb  Tb0  1  0.500000  0.385271  0.847078  1
  Tb  Tb1  1  0.000000  0.610985  0.925687  1
  Tb  Tb2  1  0.000000  0.389179  0.074499  1
  Sm  Sm3  1  0.500000  0.116321  0.345268  1
  Sm  Sm4  1  0.500000  0.883803  0.654902  1
  Sm  Sm5  1  0.500000  0.614771  0.152833  1
  Sm  Sm6  1  0.000000  0.113933  0.576736  1
  Sm  Sm7  1  0.000000  0.886520  0.423750  1
  Ge  Ge8  1  0.500000  0.000188  0.500153  1
  Ge  Ge9  1  0.500000  0.499154  0.998828  1
  I  I10  1  0.500000  0.248072  0.159435  1
  I  I11  1  0.500000  0.751561  0.839952  1
  I  I12  1  0.500000  0.743072  0.337255  1
  I  I13  1  0.500000  0.257908  0.664509  1
  I  I14  1  0.000000  0.260534  0.414944  1
  I  I15  1  0.000000  0.739462  0.585465  1
  I  I16  1  0.000000  0.758450  0.082089  1
  I  I17  1  0.000000  0.244443  0.914888  1
  I  I18  1  0.000000  0.998988  0.238897  1
  I  I19  1  0.000000  0.001174  0.761372  1
  I  I20  1  0.000000  0.496092  0.257825  1
  I  I21  1  0.000000  0.500118  0.743634  1
