# generated using pymatgen
data_SiCl12
_symmetry_space_group_name_H-M   'P 1'
_cell_length_a   12.85780960
_cell_length_b   12.33270612
_cell_length_c   7.22028581
_cell_angle_alpha   55.40642584
_cell_angle_beta   45.06871608
_cell_angle_gamma   55.27319763
_symmetry_Int_Tables_number   1
_chemical_formula_structural   SiCl12
_chemical_formula_sum   'Si1 Cl12'
_cell_volume   638.69083078
_cell_formula_units_Z   1
loop_
 _symmetry_equiv_pos_site_id
 _symmetry_equiv_pos_as_xyz
  1  'x, y, z'
loop_
 _atom_site_type_symbol
 _atom_site_label
 _atom_site_symmetry_multiplicity
 _atom_site_fract_x
 _atom_site_fract_y
 _atom_site_fract_z
 _atom_site_occupancy
  Si  Si0  1  0.914527  0.967510  0.178588  1
  Cl  Cl1  1  0.521686  0.612069  0.105217  1
  Cl  Cl2  1  0.740200  0.535815  0.981333  1
  Cl  Cl3  1  0.840675  0.829339  0.254254  1
  Cl  Cl4  1  0.513944  0.900276  0.343801  1
  Cl  Cl5  1  0.756357  0.059046  0.483840  1
  Cl  Cl6  1  0.114616  0.865926  0.152151  1
  Cl  Cl7  1  0.943890  0.115697  0.823084  1
  Cl  Cl8  1  0.345033  0.901525  0.378140  1
  Cl  Cl9  1  0.372533  0.159243  0.690245  1
  Cl  Cl10  1  0.185446  0.209412  0.717117  1
  Cl  Cl11  1  0.266206  0.468586  0.007059  1
  Cl  Cl12  1  0.484883  0.375551  0.885173  1
