# generated using pymatgen
data_La2Y3Ho15Si15Os
_symmetry_space_group_name_H-M   'P 1'
_cell_length_a   7.41670439
_cell_length_b   7.77357508
_cell_length_c   14.62573807
_cell_angle_alpha   89.66998260
_cell_angle_beta   89.98672585
_cell_angle_gamma   90.01158160
_symmetry_Int_Tables_number   1
_chemical_formula_structural   La2Y3Ho15Si15Os
_chemical_formula_sum   'La2 Y3 Ho15 Si15 Os1'
_cell_volume   843.22278562
_cell_formula_units_Z   1
loop_
 _symmetry_equiv_pos_site_id
 _symmetry_equiv_pos_as_xyz
  1  'x, y, z'
loop_
 _atom_site_type_symbol
 _atom_site_label
 _atom_site_symmetry_multiplicity
 _atom_site_fract_x
 _atom_site_fract_y
 _atom_site_fract_z
 _atom_site_occupancy
  La  La0  1  0.521314  0.569694  0.342311  1
  La  La1  1  0.023765  0.427869  0.657752  1
  Y  Y2  1  0.973045  0.067579  0.849307  1
  Y  Y3  1  0.528136  0.565459  0.652194  1
  Y  Y4  1  0.026575  0.432542  0.347158  1
  Ho  Ho5  1  0.805789  0.577398  0.878059  1
  Ho  Ho6  1  0.325274  0.432653  0.122961  1
  Ho  Ho7  1  0.183296  0.928109  0.372830  1
  Ho  Ho8  1  0.682482  0.069427  0.626783  1
  Ho  Ho9  1  0.183336  0.926823  0.628345  1
  Ho  Ho10  1  0.682128  0.070202  0.371903  1
  Ho  Ho11  1  0.808953  0.574662  0.122832  1
  Ho  Ho12  1  0.328156  0.437204  0.876113  1
  Ho  Ho13  1  0.643770  0.239388  0.999790  1
  Ho  Ho14  1  0.159008  0.761238  0.000451  1
  Ho  Ho15  1  0.350492  0.263140  0.499794  1
  Ho  Ho16  1  0.848864  0.734706  0.499687  1
  Ho  Ho17  1  0.478182  0.923581  0.849757  1
  Ho  Ho18  1  0.973521  0.066212  0.150994  1
  Ho  Ho19  1  0.476437  0.924301  0.149877  1
  Si  Si20  1  0.018476  0.351398  0.999899  1
  Si  Si21  1  0.476188  0.860304  0.501132  1
  Si  Si22  1  0.979238  0.138047  0.498806  1
  Si  Si23  1  0.652684  0.275496  0.789803  1
  Si  Si24  1  0.146857  0.721927  0.209547  1
  Si  Si25  1  0.352152  0.214419  0.286229  1
  Si  Si26  1  0.849707  0.784935  0.713288  1
  Si  Si27  1  0.361064  0.217351  0.712361  1
  Si  Si28  1  0.858223  0.781789  0.287847  1
  Si  Si29  1  0.650423  0.267832  0.207269  1
  Si  Si30  1  0.142290  0.728081  0.792802  1
  Si  Si31  1  0.768385  0.884171  0.000731  1
  Si  Si32  1  0.258910  0.126268  0.999960  1
  Si  Si33  1  0.231534  0.626249  0.502111  1
  Si  Si34  1  0.733406  0.373458  0.498987  1
  Os  Os35  1  0.517937  0.656091  0.000328  1
