# generated using pymatgen
data_Ho9Lu(In2Bi)2
_symmetry_space_group_name_H-M   'P 1'
_cell_length_a   6.60951103
_cell_length_b   9.00326798
_cell_length_c   8.97173400
_cell_angle_alpha   119.76900730
_cell_angle_beta   89.99488547
_cell_angle_gamma   90.00979422
_symmetry_Int_Tables_number   1
_chemical_formula_structural   Ho9Lu(In2Bi)2
_chemical_formula_sum   'Ho9 Lu1 In4 Bi2'
_cell_volume   463.42846223
_cell_formula_units_Z   1
loop_
 _symmetry_equiv_pos_site_id
 _symmetry_equiv_pos_as_xyz
  1  'x, y, z'
loop_
 _atom_site_type_symbol
 _atom_site_label
 _atom_site_symmetry_multiplicity
 _atom_site_fract_x
 _atom_site_fract_y
 _atom_site_fract_z
 _atom_site_occupancy
  Ho  Ho0  1  0.493404  0.328997  0.667510  1
  Ho  Ho1  1  0.493081  0.671227  0.338707  1
  Ho  Ho2  1  0.006471  0.670633  0.338178  1
  Ho  Ho3  1  0.750445  0.229494  0.990665  1
  Ho  Ho4  1  0.750209  0.770221  0.760999  1
  Ho  Ho5  1  0.750410  0.000037  0.239688  1
  Ho  Ho6  1  0.249701  0.764049  0.000299  1
  Ho  Ho7  1  0.249719  0.235570  0.236662  1
  Ho  Ho8  1  0.249537  0.000445  0.762695  1
  Lu  Lu9  1  0.007297  0.328681  0.667409  1
  In  In10  1  0.751362  0.001340  0.596075  1
  In  In11  1  0.248789  0.397043  0.002158  1
  In  In12  1  0.249055  0.602320  0.606145  1
  In  In13  1  0.248797  0.000770  0.398475  1
  Bi  Bi14  1  0.750906  0.603806  0.998505  1
  Bi  Bi15  1  0.750814  0.395366  0.395834  1
