# generated using pymatgen
data_NaSnF5
_symmetry_space_group_name_H-M   'P 1'
_cell_length_a   10.49146600
_cell_length_b   5.68753161
_cell_length_c   8.10781094
_cell_angle_alpha   69.60718219
_cell_angle_beta   90.00000000
_cell_angle_gamma   90.00000000
_symmetry_Int_Tables_number   1
_chemical_formula_structural   NaSnF5
_chemical_formula_sum   'Na4 Sn4 F20'
_cell_volume   453.47581339
_cell_formula_units_Z   4
loop_
 _symmetry_equiv_pos_site_id
 _symmetry_equiv_pos_as_xyz
  1  'x, y, z'
loop_
 _atom_site_type_symbol
 _atom_site_label
 _atom_site_symmetry_multiplicity
 _atom_site_fract_x
 _atom_site_fract_y
 _atom_site_fract_z
 _atom_site_occupancy
  Na  Na0  1  0.009990  0.514500  0.751782  1
  Na  Na1  1  0.509990  0.485500  0.748218  1
  Na  Na2  1  0.990010  0.485500  0.248218  1
  Na  Na3  1  0.490010  0.514500  0.251782  1
  Sn  Sn4  1  0.753935  0.109935  0.599690  1
  Sn  Sn5  1  0.253935  0.890065  0.900310  1
  Sn  Sn6  1  0.246065  0.890065  0.400310  1
  Sn  Sn7  1  0.746065  0.109935  0.099690  1
  F  F8  1  0.877738  0.388185  0.558324  1
  F  F9  1  0.377738  0.611815  0.941676  1
  F  F10  1  0.122262  0.611815  0.441676  1
  F  F11  1  0.622262  0.388185  0.058324  1
  F  F12  1  0.615350  0.355323  0.506576  1
  F  F13  1  0.115350  0.644677  0.993424  1
  F  F14  1  0.384650  0.644677  0.493424  1
  F  F15  1  0.884650  0.355323  0.006576  1
  F  F16  1  0.394861  0.124997  0.806337  1
  F  F17  1  0.894861  0.875003  0.693663  1
  F  F18  1  0.605139  0.875003  0.193663  1
  F  F19  1  0.105139  0.124997  0.306337  1
  F  F20  1  0.135805  0.170228  0.862820  1
  F  F21  1  0.635805  0.829772  0.637180  1
  F  F22  1  0.864195  0.829772  0.137180  1
  F  F23  1  0.364195  0.170228  0.362820  1
  F  F24  1  0.702919  0.136787  0.841926  1
  F  F25  1  0.202919  0.863213  0.658074  1
  F  F26  1  0.297081  0.863213  0.158074  1
  F  F27  1  0.797081  0.136787  0.341926  1
