# generated using pymatgen
data_LiCrPdO4
_symmetry_space_group_name_H-M   'P 1'
_cell_length_a   6.09489291
_cell_length_b   5.97531629
_cell_length_c   8.50503213
_cell_angle_alpha   89.94901217
_cell_angle_beta   89.98985848
_cell_angle_gamma   90.06129118
_symmetry_Int_Tables_number   1
_chemical_formula_structural   LiCrPdO4
_chemical_formula_sum   'Li4 Cr4 Pd4 O16'
_cell_volume   309.74371926
_cell_formula_units_Z   4
loop_
 _symmetry_equiv_pos_site_id
 _symmetry_equiv_pos_as_xyz
  1  'x, y, z'
loop_
 _atom_site_type_symbol
 _atom_site_label
 _atom_site_symmetry_multiplicity
 _atom_site_fract_x
 _atom_site_fract_y
 _atom_site_fract_z
 _atom_site_occupancy
  Li  Li0  1  0.999971  0.249464  0.111000  1
  Li  Li1  1  0.499985  0.749547  0.611220  1
  Li  Li2  1  0.000053  0.750424  0.888999  1
  Li  Li3  1  0.499987  0.250406  0.388768  1
  Cr  Cr4  1  0.499990  0.999853  0.999974  1
  Cr  Cr5  1  0.999982  0.000146  0.499955  1
  Cr  Cr6  1  0.999998  0.500142  0.500075  1
  Cr  Cr7  1  0.500000  0.499880  0.000057  1
  Pd  Pd8  1  0.249966  0.749628  0.250185  1
  Pd  Pd9  1  0.749982  0.250408  0.749761  1
  Pd  Pd10  1  0.750007  0.749628  0.250165  1
  Pd  Pd11  1  0.250067  0.250394  0.749733  1
  O  O12  1  0.999801  0.522245  0.262262  1
  O  O13  1  0.499921  0.022778  0.760945  1
  O  O14  1  0.000172  0.977357  0.261319  1
  O  O15  1  0.500275  0.478262  0.761070  1
  O  O16  1  0.999829  0.022638  0.738694  1
  O  O17  1  0.499723  0.521674  0.238976  1
  O  O18  1  0.000208  0.477806  0.737879  1
  O  O19  1  0.500084  0.977197  0.238956  1
  O  O20  1  0.778340  0.748690  0.490216  1
  O  O21  1  0.277679  0.249646  0.989731  1
  O  O22  1  0.221837  0.749138  0.490197  1
  O  O23  1  0.722395  0.249982  0.989748  1
  O  O24  1  0.221581  0.251668  0.509789  1
  O  O25  1  0.722281  0.750059  0.010265  1
  O  O26  1  0.778140  0.251202  0.509810  1
  O  O27  1  0.277746  0.749739  0.010250  1
