# generated using pymatgen
data_YbSm7(Si3Rh)4
_symmetry_space_group_name_H-M   'P 1'
_cell_length_a   8.23575900
_cell_length_b   8.23130939
_cell_length_c   8.13327300
_cell_angle_alpha   90.00000000
_cell_angle_beta   90.00000000
_cell_angle_gamma   119.98212055
_symmetry_Int_Tables_number   1
_chemical_formula_structural   YbSm7(Si3Rh)4
_chemical_formula_sum   'Yb1 Sm7 Si12 Rh4'
_cell_volume   477.58068424
_cell_formula_units_Z   1
loop_
 _symmetry_equiv_pos_site_id
 _symmetry_equiv_pos_as_xyz
  1  'x, y, z'
loop_
 _atom_site_type_symbol
 _atom_site_label
 _atom_site_symmetry_multiplicity
 _atom_site_fract_x
 _atom_site_fract_y
 _atom_site_fract_z
 _atom_site_occupancy
  Yb  Yb0  1  0.008058  0.504029  0.750000  1
  Sm  Sm1  1  0.000080  0.000040  0.250000  1
  Sm  Sm2  1  0.000016  0.000009  0.750000  1
  Sm  Sm3  1  0.504733  0.495847  0.250000  1
  Sm  Sm4  1  0.504733  0.008886  0.250000  1
  Sm  Sm5  1  0.992110  0.496055  0.250000  1
  Sm  Sm6  1  0.494153  0.504732  0.750000  1
  Sm  Sm7  1  0.494153  0.989422  0.750000  1
  Si  Si8  1  0.166155  0.833329  0.500196  1
  Si  Si9  1  0.166155  0.332827  0.500196  1
  Si  Si10  1  0.668300  0.834150  0.498775  1
  Si  Si11  1  0.833766  0.167169  0.500849  1
  Si  Si12  1  0.833766  0.666596  0.500849  1
  Si  Si13  1  0.332564  0.166281  0.499341  1
  Si  Si14  1  0.833766  0.167169  0.999151  1
  Si  Si15  1  0.833766  0.666596  0.999151  1
  Si  Si16  1  0.332564  0.166281  0.000659  1
  Si  Si17  1  0.166155  0.833329  0.999804  1
  Si  Si18  1  0.166155  0.332827  0.999804  1
  Si  Si19  1  0.668300  0.834150  0.001225  1
  Rh  Rh20  1  0.334274  0.667138  0.485082  1
  Rh  Rh21  1  0.666002  0.333001  0.520091  1
  Rh  Rh22  1  0.666002  0.333001  0.979909  1
  Rh  Rh23  1  0.334274  0.667138  0.014918  1
