# generated using pymatgen
data_Dy3LuMg2Ir3
_symmetry_space_group_name_H-M   'P 1'
_cell_length_a   7.38396200
_cell_length_b   7.38264733
_cell_length_c   4.12030300
_cell_angle_alpha   90.00000000
_cell_angle_beta   90.00000000
_cell_angle_gamma   120.00589983
_symmetry_Int_Tables_number   1
_chemical_formula_structural   Dy3LuMg2Ir3
_chemical_formula_sum   'Dy3 Lu1 Mg2 Ir3'
_cell_volume   194.50713622
_cell_formula_units_Z   1
loop_
 _symmetry_equiv_pos_site_id
 _symmetry_equiv_pos_as_xyz
  1  'x, y, z'
loop_
 _atom_site_type_symbol
 _atom_site_label
 _atom_site_symmetry_multiplicity
 _atom_site_fract_x
 _atom_site_fract_y
 _atom_site_fract_z
 _atom_site_occupancy
  Dy  Dy0  1  0.393213  0.000000  0.500001  1
  Dy  Dy1  1  0.012880  0.426017  0.500001  1
  Dy  Dy2  1  0.586862  0.573983  0.500001  1
  Lu  Lu3  1  0.751362  0.000000  0.000000  1
  Mg  Mg4  1  0.248288  0.248764  0.000000  1
  Mg  Mg5  1  0.999525  0.751236  0.000000  1
  Ir  Ir6  1  0.670218  0.330651  0.000000  1
  Ir  Ir7  1  0.339567  0.669349  0.000000  1
  Ir  Ir8  1  0.998086  0.000000  0.500001  1
