# generated using pymatgen
data_TmMn2(CoP)3
_symmetry_space_group_name_H-M   'P 1'
_cell_length_a   3.59207400
_cell_length_b   10.31623800
_cell_length_c   11.99611200
_cell_angle_alpha   90.00000000
_cell_angle_beta   90.00000000
_cell_angle_gamma   90.00000000
_symmetry_Int_Tables_number   1
_chemical_formula_structural   TmMn2(CoP)3
_chemical_formula_sum   'Tm4 Mn8 Co12 P12'
_cell_volume   444.53620716
_cell_formula_units_Z   4
loop_
 _symmetry_equiv_pos_site_id
 _symmetry_equiv_pos_as_xyz
  1  'x, y, z'
loop_
 _atom_site_type_symbol
 _atom_site_label
 _atom_site_symmetry_multiplicity
 _atom_site_fract_x
 _atom_site_fract_y
 _atom_site_fract_z
 _atom_site_occupancy
  Tm  Tm0  1  0.250000  0.583053  0.708819  1
  Tm  Tm1  1  0.250000  0.916947  0.208819  1
  Tm  Tm2  1  0.750000  0.416947  0.291181  1
  Tm  Tm3  1  0.750000  0.083053  0.791181  1
  Mn  Mn4  1  0.250000  0.713483  0.991061  1
  Mn  Mn5  1  0.250000  0.786517  0.491061  1
  Mn  Mn6  1  0.750000  0.286517  0.008939  1
  Mn  Mn7  1  0.750000  0.213483  0.508939  1
  Mn  Mn8  1  0.250000  0.406699  0.490926  1
  Mn  Mn9  1  0.250000  0.093301  0.990926  1
  Mn  Mn10  1  0.750000  0.593301  0.509074  1
  Mn  Mn11  1  0.750000  0.906699  0.009074  1
  Co  Co12  1  0.250000  0.222242  0.177039  1
  Co  Co13  1  0.250000  0.277758  0.677039  1
  Co  Co14  1  0.750000  0.777758  0.822961  1
  Co  Co15  1  0.750000  0.722242  0.322961  1
  Co  Co16  1  0.250000  0.883344  0.696890  1
  Co  Co17  1  0.250000  0.616656  0.196890  1
  Co  Co18  1  0.750000  0.116656  0.303110  1
  Co  Co19  1  0.750000  0.383344  0.803110  1
  Co  Co20  1  0.250000  0.465733  0.933428  1
  Co  Co21  1  0.250000  0.034267  0.433428  1
  Co  Co22  1  0.750000  0.534267  0.066572  1
  Co  Co23  1  0.750000  0.965733  0.566572  1
  P  P24  1  0.250000  0.419118  0.112290  1
  P  P25  1  0.250000  0.080882  0.612290  1
  P  P26  1  0.750000  0.580882  0.887710  1
  P  P27  1  0.750000  0.919118  0.387710  1
  P  P28  1  0.250000  0.268341  0.866808  1
  P  P29  1  0.250000  0.231659  0.366808  1
  P  P30  1  0.750000  0.731659  0.133192  1
  P  P31  1  0.750000  0.768341  0.633192  1
  P  P32  1  0.250000  0.598278  0.383481  1
  P  P33  1  0.250000  0.901722  0.883481  1
  P  P34  1  0.750000  0.401722  0.616519  1
  P  P35  1  0.750000  0.098278  0.116519  1
