# generated using pymatgen
data_Er7Sc3(Bi2Sb)2
_symmetry_space_group_name_H-M   'P 1'
_cell_length_a   7.90404900
_cell_length_b   9.19157771
_cell_length_c   11.62824000
_cell_angle_alpha   90.04395871
_cell_angle_beta   90.00000000
_cell_angle_gamma   90.00000000
_symmetry_Int_Tables_number   1
_chemical_formula_structural   Er7Sc3(Bi2Sb)2
_chemical_formula_sum   'Er14 Sc6 Bi8 Sb4'
_cell_volume   844.79930119
_cell_formula_units_Z   2
loop_
 _symmetry_equiv_pos_site_id
 _symmetry_equiv_pos_as_xyz
  1  'x, y, z'
loop_
 _atom_site_type_symbol
 _atom_site_label
 _atom_site_symmetry_multiplicity
 _atom_site_fract_x
 _atom_site_fract_y
 _atom_site_fract_z
 _atom_site_occupancy
  Er  Er0  1  0.809916  0.064408  0.557058  1
  Er  Er1  1  0.309916  0.435592  0.942942  1
  Er  Er2  1  0.809698  0.435592  0.557608  1
  Er  Er3  1  0.309698  0.064408  0.942392  1
  Er  Er4  1  0.190791  0.935969  0.442330  1
  Er  Er5  1  0.690791  0.564031  0.057670  1
  Er  Er6  1  0.181404  0.749660  0.718587  1
  Er  Er7  1  0.681404  0.750340  0.781413  1
  Er  Er8  1  0.817347  0.249473  0.281206  1
  Er  Er9  1  0.317347  0.250527  0.218794  1
  Er  Er10  1  0.852126  0.750908  0.285347  1
  Er  Er11  1  0.352126  0.749092  0.214653  1
  Er  Er12  1  0.146512  0.249437  0.714315  1
  Er  Er13  1  0.646512  0.250563  0.785685  1
  Sc  Sc14  1  0.190846  0.566210  0.442978  1
  Sc  Sc15  1  0.690846  0.933790  0.057022  1
  Sc  Sc16  1  0.024984  0.751502  0.989142  1
  Sc  Sc17  1  0.524984  0.748498  0.510858  1
  Sc  Sc18  1  0.974014  0.249310  0.012626  1
  Sc  Sc19  1  0.474014  0.250690  0.487374  1
  Bi  Bi20  1  0.935069  0.496761  0.830414  1
  Bi  Bi21  1  0.435069  0.003239  0.669586  1
  Bi  Bi22  1  0.062564  0.996047  0.169776  1
  Bi  Bi23  1  0.562564  0.503953  0.330224  1
  Bi  Bi24  1  0.065223  0.504257  0.172206  1
  Bi  Bi25  1  0.565223  0.995743  0.327794  1
  Bi  Bi26  1  0.933598  0.003473  0.831093  1
  Bi  Bi27  1  0.433598  0.496527  0.668907  1
  Sb  Sb28  1  0.903677  0.747744  0.540717  1
  Sb  Sb29  1  0.403677  0.752256  0.959283  1
  Sb  Sb30  1  0.102230  0.256411  0.456509  1
  Sb  Sb31  1  0.602230  0.243589  0.043491  1
