# generated using pymatgen
data_V8Tc2Mo
_symmetry_space_group_name_H-M   'P 1'
_cell_length_a   5.01472474
_cell_length_b   5.01472515
_cell_length_c   10.83710584
_cell_angle_alpha   103.77461293
_cell_angle_beta   103.77461580
_cell_angle_gamma   35.05466819
_symmetry_Int_Tables_number   1
_chemical_formula_structural   V8Tc2Mo
_chemical_formula_sum   'V8 Tc2 Mo1'
_cell_volume   151.56917955
_cell_formula_units_Z   1
loop_
 _symmetry_equiv_pos_site_id
 _symmetry_equiv_pos_as_xyz
  1  'x, y, z'
loop_
 _atom_site_type_symbol
 _atom_site_label
 _atom_site_symmetry_multiplicity
 _atom_site_fract_x
 _atom_site_fract_y
 _atom_site_fract_z
 _atom_site_occupancy
  V  V0  1  0.723776  0.723776  0.089446  1
  V  V1  1  0.456640  0.456640  0.181700  1
  V  V2  1  0.186492  0.186492  0.273093  1
  V  V3  1  0.635849  0.635849  0.451845  1
  V  V4  1  0.364834  0.364834  0.544315  1
  V  V5  1  0.813978  0.813978  0.727456  1
  V  V6  1  0.542630  0.542630  0.820041  1
  V  V7  1  0.275690  0.275690  0.912841  1
  Tc  Tc8  1  0.999925  0.999925  0.001171  1
  Tc  Tc9  1  0.908376  0.908376  0.360512  1
  Mo  Mo10  1  0.091811  0.091811  0.637580  1
