# generated using pymatgen
data_Na2ZnPt3O8
_symmetry_space_group_name_H-M   'P 1'
_cell_length_a   6.29992142
_cell_length_b   6.30222822
_cell_length_c   10.75989298
_cell_angle_alpha   106.98097017
_cell_angle_beta   107.00327088
_cell_angle_gamma   60.01313319
_symmetry_Int_Tables_number   1
_chemical_formula_structural   Na2ZnPt3O8
_chemical_formula_sum   'Na4 Zn2 Pt6 O16'
_cell_volume   348.31301038
_cell_formula_units_Z   2
loop_
 _symmetry_equiv_pos_site_id
 _symmetry_equiv_pos_as_xyz
  1  'x, y, z'
loop_
 _atom_site_type_symbol
 _atom_site_label
 _atom_site_symmetry_multiplicity
 _atom_site_fract_x
 _atom_site_fract_y
 _atom_site_fract_z
 _atom_site_occupancy
  Na  Na0  1  0.122296  0.122660  0.367275  1
  Na  Na1  1  0.622473  0.622171  0.867251  1
  Na  Na2  1  0.002629  0.002653  0.007703  1
  Na  Na3  1  0.502677  0.502519  0.507723  1
  Zn  Zn4  1  0.312528  0.312460  0.937549  1
  Zn  Zn5  1  0.812461  0.812601  0.437504  1
  Pt  Pt6  1  0.062551  0.562620  0.187513  1
  Pt  Pt7  1  0.562608  0.062313  0.687534  1
  Pt  Pt8  1  0.562394  0.062755  0.187512  1
  Pt  Pt9  1  0.062519  0.562414  0.687499  1
  Pt  Pt10  1  0.562373  0.562608  0.187497  1
  Pt  Pt11  1  0.062534  0.062265  0.687520  1
  O  O12  1  0.427440  0.427219  0.282037  1
  O  O13  1  0.927543  0.926952  0.782098  1
  O  O14  1  0.697442  0.698057  0.092848  1
  O  O15  1  0.197588  0.197698  0.592857  1
  O  O16  1  0.647883  0.215052  0.077369  1
  O  O17  1  0.147932  0.714797  0.577354  1
  O  O18  1  0.214763  0.647905  0.077179  1
  O  O19  1  0.714833  0.147763  0.577266  1
  O  O20  1  0.214578  0.214939  0.077407  1
  O  O21  1  0.714626  0.714716  0.577351  1
  O  O22  1  0.477013  0.910259  0.297666  1
  O  O23  1  0.977161  0.409914  0.797655  1
  O  O24  1  0.910130  0.477368  0.297826  1
  O  O25  1  0.410267  0.976991  0.797787  1
  O  O26  1  0.910330  0.910363  0.297622  1
  O  O27  1  0.410431  0.409968  0.797601  1
