# generated using pymatgen
data_Pr11Nd(GaBr3)4
_symmetry_space_group_name_H-M   'P 1'
_cell_length_a   10.57721196
_cell_length_b   10.57024999
_cell_length_c   10.57598720
_cell_angle_alpha   109.43385477
_cell_angle_beta   109.49304528
_cell_angle_gamma   109.47107654
_symmetry_Int_Tables_number   1
_chemical_formula_structural   Pr11Nd(GaBr3)4
_chemical_formula_sum   'Pr11 Nd1 Ga4 Br12'
_cell_volume   910.41508348
_cell_formula_units_Z   1
loop_
 _symmetry_equiv_pos_site_id
 _symmetry_equiv_pos_as_xyz
  1  'x, y, z'
loop_
 _atom_site_type_symbol
 _atom_site_label
 _atom_site_symmetry_multiplicity
 _atom_site_fract_x
 _atom_site_fract_y
 _atom_site_fract_z
 _atom_site_occupancy
  Pr  Pr0  1  0.750097  0.241832  0.258430  1
  Pr  Pr1  1  0.750097  0.008265  0.491666  1
  Pr  Pr2  1  0.241699  0.483294  0.491656  1
  Pr  Pr3  1  0.258437  0.749923  0.241618  1
  Pr  Pr4  1  0.016832  0.258417  0.008417  1
  Pr  Pr5  1  0.008752  0.017004  0.258401  1
  Pr  Pr6  1  0.491785  0.749959  0.008520  1
  Pr  Pr7  1  0.491785  0.241827  0.483266  1
  Pr  Pr8  1  0.008752  0.491748  0.750351  1
  Pr  Pr9  1  0.258437  0.008514  0.016819  1
  Pr  Pr10  1  0.241699  0.258406  0.750043  1
  Nd  Nd11  1  0.481780  0.490890  0.240890  1
  Ga  Ga12  1  0.250604  0.250614  0.250033  1
  Ga  Ga13  1  0.500123  0.000062  0.250062  1
  Ga  Ga14  1  0.000066  0.250034  0.500034  1
  Ga  Ga15  1  0.250604  0.499992  0.000571  1
  Br  Br16  1  0.250102  0.753675  0.746472  1
  Br  Br17  1  0.507229  0.503615  0.753615  1
  Br  Br18  1  0.992880  0.746440  0.996440  1
  Br  Br19  1  0.746494  0.249946  0.753592  1
  Br  Br20  1  0.996518  0.992894  0.746533  1
  Br  Br21  1  0.250102  0.996427  0.503630  1
  Br  Br22  1  0.752140  0.507066  0.501944  1
  Br  Br23  1  0.503914  0.252199  0.998448  1
  Br  Br24  1  0.752140  0.745074  0.250197  1
  Br  Br25  1  0.746494  0.996548  0.992904  1
  Br  Br26  1  0.996518  0.503625  0.249985  1
  Br  Br27  1  0.503914  0.751715  0.505465  1
