# generated using pymatgen
data_Ba3Lu2NpO9
_symmetry_space_group_name_H-M   'P 1'
_cell_length_a   6.10322566
_cell_length_b   6.10660847
_cell_length_c   13.67307000
_cell_angle_alpha   102.65632222
_cell_angle_beta   102.70932512
_cell_angle_gamma   89.81184698
_symmetry_Int_Tables_number   1
_chemical_formula_structural   Ba3Lu2NpO9
_chemical_formula_sum   'Ba6 Lu4 Np2 O18'
_cell_volume   484.49041269
_cell_formula_units_Z   2
loop_
 _symmetry_equiv_pos_site_id
 _symmetry_equiv_pos_as_xyz
  1  'x, y, z'
loop_
 _atom_site_type_symbol
 _atom_site_label
 _atom_site_symmetry_multiplicity
 _atom_site_fract_x
 _atom_site_fract_y
 _atom_site_fract_z
 _atom_site_occupancy
  Ba  Ba0  1  0.926359  0.422632  0.850796  1
  Ba  Ba1  1  0.252277  0.751740  0.500757  1
  Ba  Ba2  1  0.576055  0.080732  0.150630  1
  Ba  Ba3  1  0.747723  0.248260  0.499243  1
  Ba  Ba4  1  0.073641  0.577368  0.149204  1
  Ba  Ba5  1  0.423945  0.919268  0.849370  1
  Lu  Lu6  1  0.500000  0.500000  0.000000  1
  Lu  Lu7  1  0.335690  0.338204  0.673914  1
  Lu  Lu8  1  0.664310  0.661796  0.326086  1
  Lu  Lu9  1  0.000000  0.000000  0.000000  1
  Np  Np10  1  0.833189  0.832776  0.665549  1
  Np  Np11  1  0.166811  0.167224  0.334451  1
  O  O12  1  0.622706  0.105313  0.677963  1
  O  O13  1  0.958669  0.441841  0.355367  1
  O  O14  1  0.282660  0.787163  0.016176  1
  O  O15  1  0.041331  0.558159  0.644633  1
  O  O16  1  0.377294  0.894687  0.322037  1
  O  O17  1  0.717340  0.212837  0.983824  1
  O  O18  1  0.097704  0.047133  0.660765  1
  O  O19  1  0.435890  0.386346  0.338721  1
  O  O20  1  0.779846  0.724185  0.999657  1
  O  O21  1  0.728838  0.779307  0.506915  1
  O  O22  1  0.065029  0.113682  0.177459  1
  O  O23  1  0.386208  0.443830  0.830238  1
  O  O24  1  0.934971  0.886318  0.822541  1
  O  O25  1  0.271162  0.220693  0.493085  1
  O  O26  1  0.613792  0.556170  0.169762  1
  O  O27  1  0.564110  0.613654  0.661279  1
  O  O28  1  0.902296  0.952867  0.339235  1
  O  O29  1  0.220154  0.275815  0.000343  1
