# generated using pymatgen
data_Dy3Ho(Ga3Ir)6
_symmetry_space_group_name_H-M   'P 1'
_cell_length_a   7.59216201
_cell_length_b   7.59169383
_cell_length_c   9.50101800
_cell_angle_alpha   90.00000000
_cell_angle_beta   90.00000000
_cell_angle_gamma   119.96326853
_symmetry_Int_Tables_number   1
_chemical_formula_structural   Dy3Ho(Ga3Ir)6
_chemical_formula_sum   'Dy3 Ho1 Ga18 Ir6'
_cell_volume   474.42279819
_cell_formula_units_Z   1
loop_
 _symmetry_equiv_pos_site_id
 _symmetry_equiv_pos_as_xyz
  1  'x, y, z'
loop_
 _atom_site_type_symbol
 _atom_site_label
 _atom_site_symmetry_multiplicity
 _atom_site_fract_x
 _atom_site_fract_y
 _atom_site_fract_z
 _atom_site_occupancy
  Dy  Dy0  1  0.002799  0.331962  0.750000  1
  Dy  Dy1  1  0.667972  0.997100  0.250000  1
  Dy  Dy2  1  0.331970  0.002800  0.750000  1
  Ho  Ho3  1  0.997192  0.667979  0.250000  1
  Ga  Ga4  1  0.126479  0.126407  0.250000  1
  Ga  Ga5  1  0.873537  0.873530  0.750000  1
  Ga  Ga6  1  0.999397  0.334091  0.079615  1
  Ga  Ga7  1  0.000642  0.666084  0.920481  1
  Ga  Ga8  1  0.000642  0.666084  0.579519  1
  Ga  Ga9  1  0.333814  0.999272  0.420384  1
  Ga  Ga10  1  0.999397  0.334091  0.420385  1
  Ga  Ga11  1  0.666071  0.000630  0.579605  1
  Ga  Ga12  1  0.666071  0.000630  0.920395  1
  Ga  Ga13  1  0.333814  0.999272  0.079616  1
  Ga  Ga14  1  0.332828  0.332839  0.563412  1
  Ga  Ga15  1  0.667258  0.667148  0.436515  1
  Ga  Ga16  1  0.667258  0.667148  0.063485  1
  Ga  Ga17  1  0.332828  0.332839  0.936588  1
  Ga  Ga18  1  0.338727  0.546274  0.250000  1
  Ga  Ga19  1  0.661204  0.453680  0.750000  1
  Ga  Ga20  1  0.546369  0.338885  0.250000  1
  Ga  Ga21  1  0.453658  0.661188  0.750000  1
  Ir  Ir22  1  0.671601  0.328535  0.000010  1
  Ir  Ir23  1  0.328475  0.671579  0.000011  1
  Ir  Ir24  1  0.328475  0.671579  0.499989  1
  Ir  Ir25  1  0.671601  0.328535  0.499990  1
  Ir  Ir26  1  0.999960  0.999920  0.000031  1
  Ir  Ir27  1  0.999960  0.999920  0.499969  1
