# generated using pymatgen
data_Th3AlSn2Rh3
_symmetry_space_group_name_H-M   'P 1'
_cell_length_a   7.51498754
_cell_length_b   7.51498718
_cell_length_c   4.12356400
_cell_angle_alpha   90.00000000
_cell_angle_beta   90.00000000
_cell_angle_gamma   120.72772836
_symmetry_Int_Tables_number   1
_chemical_formula_structural   Th3AlSn2Rh3
_chemical_formula_sum   'Th3 Al1 Sn2 Rh3'
_cell_volume   200.18347704
_cell_formula_units_Z   1
loop_
 _symmetry_equiv_pos_site_id
 _symmetry_equiv_pos_as_xyz
  1  'x, y, z'
loop_
 _atom_site_type_symbol
 _atom_site_label
 _atom_site_symmetry_multiplicity
 _atom_site_fract_x
 _atom_site_fract_y
 _atom_site_fract_z
 _atom_site_occupancy
  Th  Th0  1  0.424010  0.424010  0.500000  1
  Th  Th1  1  0.584980  0.990666  0.500000  1
  Th  Th2  1  0.990666  0.584980  0.500000  1
  Al  Al3  1  0.757527  0.757527  0.000000  1
  Sn  Sn4  1  0.244366  0.997583  0.000000  1
  Sn  Sn5  1  0.997583  0.244366  0.000000  1
  Rh  Rh6  1  0.670980  0.347489  0.000000  1
  Rh  Rh7  1  0.347489  0.670980  0.000000  1
  Rh  Rh8  1  0.982400  0.982400  0.500000  1
