# generated using pymatgen
data_Dy(ZnAu)6
_symmetry_space_group_name_H-M   'P 1'
_cell_length_a   7.05244988
_cell_length_b   7.05244804
_cell_length_c   7.05244991
_cell_angle_alpha   96.01091308
_cell_angle_beta   100.08971579
_cell_angle_gamma   136.06209204
_symmetry_Int_Tables_number   1
_chemical_formula_structural   Dy(ZnAu)6
_chemical_formula_sum   'Dy1 Zn6 Au6'
_cell_volume   225.52740997
_cell_formula_units_Z   1
loop_
 _symmetry_equiv_pos_site_id
 _symmetry_equiv_pos_as_xyz
  1  'x, y, z'
loop_
 _atom_site_type_symbol
 _atom_site_label
 _atom_site_symmetry_multiplicity
 _atom_site_fract_x
 _atom_site_fract_y
 _atom_site_fract_z
 _atom_site_occupancy
  Dy  Dy0  1  0.000000  0.000000  0.000000  1
  Zn  Zn1  1  0.000000  0.000000  0.500000  1
  Zn  Zn2  1  0.500000  0.500000  0.500000  1
  Zn  Zn3  1  0.500000  0.000000  0.000000  1
  Zn  Zn4  1  0.000000  0.500000  0.000000  1
  Zn  Zn5  1  0.740711  0.500000  0.240711  1
  Zn  Zn6  1  0.259289  0.500000  0.759289  1
  Au  Au7  1  0.000001  0.339619  0.339618  1
  Au  Au8  1  0.999999  0.660381  0.660382  1
  Au  Au9  1  0.665688  0.000000  0.665688  1
  Au  Au10  1  0.334312  0.000000  0.334312  1
  Au  Au11  1  0.500000  0.324410  0.824410  1
  Au  Au12  1  0.500000  0.675590  0.175590  1
