# generated using pymatgen
data_KTmBeF6
_symmetry_space_group_name_H-M   'P 1'
_cell_length_a   5.78284100
_cell_length_b   6.40985268
_cell_length_c   7.11259062
_cell_angle_alpha   66.55739771
_cell_angle_beta   90.00000000
_cell_angle_gamma   90.00000000
_symmetry_Int_Tables_number   1
_chemical_formula_structural   KTmBeF6
_chemical_formula_sum   'K2 Tm2 Be2 F12'
_cell_volume   241.88214543
_cell_formula_units_Z   2
loop_
 _symmetry_equiv_pos_site_id
 _symmetry_equiv_pos_as_xyz
  1  'x, y, z'
loop_
 _atom_site_type_symbol
 _atom_site_label
 _atom_site_symmetry_multiplicity
 _atom_site_fract_x
 _atom_site_fract_y
 _atom_site_fract_z
 _atom_site_occupancy
  K  K0  1  0.250000  0.077062  0.791103  1
  K  K1  1  0.750000  0.922938  0.208897  1
  Tm  Tm2  1  0.250000  0.391608  0.177964  1
  Tm  Tm3  1  0.750000  0.608392  0.822036  1
  Be  Be4  1  0.250000  0.767896  0.463706  1
  Be  Be5  1  0.750000  0.232104  0.536294  1
  F  F6  1  0.468298  0.760341  0.596614  1
  F  F7  1  0.531702  0.239659  0.403386  1
  F  F8  1  0.968298  0.239659  0.403386  1
  F  F9  1  0.031702  0.760341  0.596614  1
  F  F10  1  0.250000  0.566924  0.396491  1
  F  F11  1  0.750000  0.433076  0.603509  1
  F  F12  1  0.498848  0.678958  0.030873  1
  F  F13  1  0.501152  0.321042  0.969127  1
  F  F14  1  0.998848  0.321042  0.969127  1
  F  F15  1  0.001152  0.678958  0.030873  1
  F  F16  1  0.250000  0.996626  0.267193  1
  F  F17  1  0.750000  0.003374  0.732807  1
