# generated using pymatgen
data_Dy2Tm2Si3Rh4
_symmetry_space_group_name_H-M   'P 1'
_cell_length_a   10.66409214
_cell_length_b   10.66409340
_cell_length_c   7.68581836
_cell_angle_alpha   71.07310522
_cell_angle_beta   71.07310362
_cell_angle_gamma   29.86519364
_symmetry_Int_Tables_number   1
_chemical_formula_structural   Dy2Tm2Si3Rh4
_chemical_formula_sum   'Dy4 Tm4 Si6 Rh8'
_cell_volume   409.98709690
_cell_formula_units_Z   2
loop_
 _symmetry_equiv_pos_site_id
 _symmetry_equiv_pos_as_xyz
  1  'x, y, z'
loop_
 _atom_site_type_symbol
 _atom_site_label
 _atom_site_symmetry_multiplicity
 _atom_site_fract_x
 _atom_site_fract_y
 _atom_site_fract_z
 _atom_site_occupancy
  Dy  Dy0  1  0.789364  0.549076  0.601537  1
  Dy  Dy1  1  0.450924  0.210636  0.898463  1
  Dy  Dy2  1  0.210636  0.450924  0.398463  1
  Dy  Dy3  1  0.549076  0.789364  0.101537  1
  Tm  Tm4  1  0.790117  0.074994  0.166767  1
  Tm  Tm5  1  0.925006  0.209883  0.333233  1
  Tm  Tm6  1  0.209883  0.925006  0.833233  1
  Tm  Tm7  1  0.074994  0.790117  0.666767  1
  Si  Si8  1  0.952615  0.704726  0.053883  1
  Si  Si9  1  0.295274  0.047385  0.446117  1
  Si  Si10  1  0.047385  0.295274  0.946117  1
  Si  Si11  1  0.704726  0.952615  0.553883  1
  Si  Si12  1  0.636093  0.363907  0.750000  1
  Si  Si13  1  0.363907  0.636093  0.250000  1
  Rh  Rh14  1  0.580057  0.295941  0.518482  1
  Rh  Rh15  1  0.704059  0.419943  0.981518  1
  Rh  Rh16  1  0.419943  0.704059  0.481518  1
  Rh  Rh17  1  0.295941  0.580057  0.018482  1
  Rh  Rh18  1  0.627221  0.931989  0.307069  1
  Rh  Rh19  1  0.068011  0.372779  0.192931  1
  Rh  Rh20  1  0.372779  0.068011  0.692931  1
  Rh  Rh21  1  0.931989  0.627221  0.807069  1
