# generated using pymatgen
data_K7Sr(PaS5)2
_symmetry_space_group_name_H-M   'P 1'
_cell_length_a   7.62956506
_cell_length_b   11.41738449
_cell_length_c   7.38316400
_cell_angle_alpha   102.01473126
_cell_angle_beta   100.47554692
_cell_angle_gamma   109.93379542
_symmetry_Int_Tables_number   1
_chemical_formula_structural   K7Sr(PaS5)2
_chemical_formula_sum   'K7 Sr1 Pa2 S10'
_cell_volume   568.58098857
_cell_formula_units_Z   1
loop_
 _symmetry_equiv_pos_site_id
 _symmetry_equiv_pos_as_xyz
  1  'x, y, z'
loop_
 _atom_site_type_symbol
 _atom_site_label
 _atom_site_symmetry_multiplicity
 _atom_site_fract_x
 _atom_site_fract_y
 _atom_site_fract_z
 _atom_site_occupancy
  K  K0  1  0.000164  0.500069  0.000105  1
  K  K1  1  0.417881  0.904801  0.205840  1
  K  K2  1  0.595022  0.593953  0.294625  1
  K  K3  1  0.794447  0.303117  0.420704  1
  K  K4  1  0.205663  0.696952  0.579247  1
  K  K5  1  0.404952  0.406051  0.705389  1
  K  K6  1  0.582238  0.095363  0.794252  1
  Sr  Sr7  1  0.000028  0.000035  0.499992  1
  Pa  Pa8  1  0.191944  0.198396  0.101576  1
  Pa  Pa9  1  0.807873  0.801430  0.898333  1
  S  S10  1  0.530165  0.316415  0.059294  1
  S  S11  1  0.840588  0.038299  0.129556  1
  S  S12  1  0.984825  0.767475  0.214260  1
  S  S13  1  0.179453  0.405909  0.311891  1
  S  S14  1  0.357709  0.149525  0.408835  1
  S  S15  1  0.642436  0.850563  0.591273  1
  S  S16  1  0.820528  0.593951  0.688061  1
  S  S17  1  0.015252  0.232631  0.785713  1
  S  S18  1  0.159182  0.961517  0.870327  1
  S  S19  1  0.469654  0.683546  0.940729  1
