# generated using pymatgen
data_Ce5P12Ir14Ru2W3
_symmetry_space_group_name_H-M   'P 1'
_cell_length_a   3.99153600
_cell_length_b   12.66971860
_cell_length_c   12.74185000
_cell_angle_alpha   120.22651541
_cell_angle_beta   90.00000000
_cell_angle_gamma   90.00000000
_symmetry_Int_Tables_number   1
_chemical_formula_structural   Ce5P12Ir14Ru2W3
_chemical_formula_sum   'Ce5 P12 Ir14 Ru2 W3'
_cell_volume   556.76807089
_cell_formula_units_Z   1
loop_
 _symmetry_equiv_pos_site_id
 _symmetry_equiv_pos_as_xyz
  1  'x, y, z'
loop_
 _atom_site_type_symbol
 _atom_site_label
 _atom_site_symmetry_multiplicity
 _atom_site_fract_x
 _atom_site_fract_y
 _atom_site_fract_z
 _atom_site_occupancy
  Ce  Ce0  1  0.500000  0.999252  0.186461  1
  Ce  Ce1  1  0.500000  0.186276  0.001732  1
  Ce  Ce2  1  0.500000  0.816434  0.815749  1
  Ce  Ce3  1  0.000000  0.332953  0.666661  1
  Ce  Ce4  1  0.000000  0.667626  0.331230  1
  P  P5  1  0.000000  0.000687  0.823158  1
  P  P6  1  0.000000  0.822972  0.999952  1
  P  P7  1  0.000000  0.176986  0.178928  1
  P  P8  1  0.500000  0.314320  0.483277  1
  P  P9  1  0.500000  0.167327  0.685796  1
  P  P10  1  0.500000  0.517620  0.831770  1
  P  P11  1  0.500000  0.835400  0.513568  1
  P  P12  1  0.500000  0.483593  0.312146  1
  P  P13  1  0.500000  0.680962  0.165541  1
  P  P14  1  0.000000  0.993435  0.362586  1
  P  P15  1  0.000000  0.367772  0.006389  1
  P  P16  1  0.000000  0.638395  0.636696  1
  Ir  Ir17  1  0.500000  0.000042  0.713094  1
  Ir  Ir18  1  0.500000  0.712542  0.998385  1
  Ir  Ir19  1  0.500000  0.287553  0.289906  1
  Ir  Ir20  1  0.000000  0.195127  0.376249  1
  Ir  Ir21  1  0.000000  0.180030  0.806388  1
  Ir  Ir22  1  0.000000  0.624839  0.820087  1
  Ir  Ir23  1  0.000000  0.821784  0.625937  1
  Ir  Ir24  1  0.000000  0.375867  0.201399  1
  Ir  Ir25  1  0.000000  0.801273  0.174923  1
  Ir  Ir26  1  0.500000  0.130959  0.491747  1
  Ir  Ir27  1  0.500000  0.359334  0.867399  1
  Ir  Ir28  1  0.500000  0.510958  0.640434  1
  Ir  Ir29  1  0.500000  0.641780  0.508815  1
  Ir  Ir30  1  0.000000  0.000641  0.999998  1
  Ru  Ru31  1  0.500000  0.484530  0.126627  1
  Ru  Ru32  1  0.500000  0.870278  0.355728  1
  W  W33  1  0.000000  0.999629  0.549112  1
  W  W34  1  0.000000  0.547650  0.998459  1
  W  W35  1  0.000000  0.453075  0.453673  1
