# generated using pymatgen
data_Li2Y6Ir3Ru
_symmetry_space_group_name_H-M   'P 1'
_cell_length_a   4.90905900
_cell_length_b   6.87851300
_cell_length_c   14.84908700
_cell_angle_alpha   90.00000000
_cell_angle_beta   90.00058889
_cell_angle_gamma   90.00000000
_symmetry_Int_Tables_number   1
_chemical_formula_structural   Li2Y6Ir3Ru
_chemical_formula_sum   'Li4 Y12 Ir6 Ru2'
_cell_volume   501.40950901
_cell_formula_units_Z   2
loop_
 _symmetry_equiv_pos_site_id
 _symmetry_equiv_pos_as_xyz
  1  'x, y, z'
loop_
 _atom_site_type_symbol
 _atom_site_label
 _atom_site_symmetry_multiplicity
 _atom_site_fract_x
 _atom_site_fract_y
 _atom_site_fract_z
 _atom_site_occupancy
  Li  Li0  1  0.999759  0.500000  0.329312  1
  Li  Li1  1  0.499994  0.000000  0.497935  1
  Li  Li2  1  0.000205  0.500000  0.668893  1
  Li  Li3  1  0.500399  0.000000  0.837560  1
  Y  Y4  1  0.499955  0.254317  0.003869  1
  Y  Y5  1  0.499955  0.745684  0.003869  1
  Y  Y6  1  0.999883  0.245644  0.162425  1
  Y  Y7  1  0.999883  0.754354  0.162425  1
  Y  Y8  1  0.499822  0.245237  0.327853  1
  Y  Y9  1  0.499822  0.754762  0.327853  1
  Y  Y10  1  0.999983  0.250826  0.499223  1
  Y  Y11  1  0.999983  0.749175  0.499223  1
  Y  Y12  1  0.500155  0.249121  0.667899  1
  Y  Y13  1  0.500155  0.750878  0.667899  1
  Y  Y14  1  0.000151  0.254604  0.838623  1
  Y  Y15  1  0.000151  0.745394  0.838623  1
  Ir  Ir16  1  0.999947  0.000000  0.996539  1
  Ir  Ir17  1  0.499833  0.500000  0.169667  1
  Ir  Ir18  1  0.999810  0.000000  0.336871  1
  Ir  Ir19  1  0.499976  0.500000  0.501688  1
  Ir  Ir20  1  0.000146  0.000000  0.665563  1
  Ir  Ir21  1  0.500140  0.500000  0.829910  1
  Ru  Ru22  1  0.999967  0.500000  0.000420  1
  Ru  Ru23  1  0.499936  0.000000  0.165855  1
