# generated using pymatgen
data_Ho10Co4AgRh
_symmetry_space_group_name_H-M   'P 1'
_cell_length_a   7.24754734
_cell_length_b   7.24754721
_cell_length_c   8.63695471
_cell_angle_alpha   114.80719327
_cell_angle_beta   114.80719379
_cell_angle_gamma   90.00000419
_symmetry_Int_Tables_number   1
_chemical_formula_structural   Ho10Co4AgRh
_chemical_formula_sum   'Ho10 Co4 Ag1 Rh1'
_cell_volume   365.17945972
_cell_formula_units_Z   1
loop_
 _symmetry_equiv_pos_site_id
 _symmetry_equiv_pos_as_xyz
  1  'x, y, z'
loop_
 _atom_site_type_symbol
 _atom_site_label
 _atom_site_symmetry_multiplicity
 _atom_site_fract_x
 _atom_site_fract_y
 _atom_site_fract_z
 _atom_site_occupancy
  Ho  Ho0  1  0.013082  0.013082  0.026165  1
  Ho  Ho1  1  0.486918  0.486918  0.973835  1
  Ho  Ho2  1  0.477239  0.323331  0.274984  1
  Ho  Ho3  1  0.951653  0.477239  0.274984  1
  Ho  Ho4  1  0.323331  0.797743  0.274984  1
  Ho  Ho5  1  0.797743  0.951653  0.274984  1
  Ho  Ho6  1  0.176669  0.022761  0.725015  1
  Ho  Ho7  1  0.702255  0.176669  0.725015  1
  Ho  Ho8  1  0.022761  0.548347  0.725015  1
  Ho  Ho9  1  0.548347  0.702255  0.725015  1
  Co  Co10  1  0.614938  0.114938  0.000000  1
  Co  Co11  1  0.114938  0.385063  0.000000  1
  Co  Co12  1  0.885062  0.614938  0.000000  1
  Co  Co13  1  0.385063  0.885062  0.000000  1
  Ag  Ag14  1  0.250000  0.250000  0.500000  1
  Rh  Rh15  1  0.750000  0.750000  0.500000  1
