# generated using pymatgen
data_K4MnGa2FeF14
_symmetry_space_group_name_H-M   'P 1'
_cell_length_a   7.79816108
_cell_length_b   7.79816016
_cell_length_c   7.77175878
_cell_angle_alpha   120.98811423
_cell_angle_beta   117.16839736
_cell_angle_gamma   91.82354338
_symmetry_Int_Tables_number   1
_chemical_formula_structural   K4MnGa2FeF14
_chemical_formula_sum   'K4 Mn1 Ga2 Fe1 F14'
_cell_volume   337.66194981
_cell_formula_units_Z   1
loop_
 _symmetry_equiv_pos_site_id
 _symmetry_equiv_pos_as_xyz
  1  'x, y, z'
loop_
 _atom_site_type_symbol
 _atom_site_label
 _atom_site_symmetry_multiplicity
 _atom_site_fract_x
 _atom_site_fract_y
 _atom_site_fract_z
 _atom_site_occupancy
  K  K0  1  0.500000  0.500000  0.000000  1
  K  K1  1  0.000000  0.000000  0.000000  1
  K  K2  1  0.000000  0.500000  0.000000  1
  K  K3  1  0.000000  0.000000  0.500000  1
  Mn  Mn4  1  0.500000  0.000000  0.000000  1
  Ga  Ga5  1  0.000000  0.500000  0.500000  1
  Ga  Ga6  1  0.500000  0.000000  0.500000  1
  Fe  Fe7  1  0.500000  0.500000  0.500000  1
  F  F8  1  0.876174  0.582810  0.292577  1
  F  F9  1  0.209767  0.916403  0.292577  1
  F  F10  1  0.182793  0.796513  0.754337  1
  F  F11  1  0.458138  0.706320  0.389164  1
  F  F12  1  0.457823  0.071545  0.754337  1
  F  F13  1  0.182844  0.431026  0.389164  1
  F  F14  1  0.817156  0.568974  0.610836  1
  F  F15  1  0.542177  0.928455  0.245663  1
  F  F16  1  0.541862  0.293680  0.610836  1
  F  F17  1  0.817207  0.203487  0.245663  1
  F  F18  1  0.391552  0.257174  0.148726  1
  F  F19  1  0.123826  0.417190  0.707423  1
  F  F20  1  0.790233  0.083597  0.707423  1
  F  F21  1  0.608448  0.742826  0.851274  1
