# generated using pymatgen
data_Cs2ReF7
_symmetry_space_group_name_H-M   'P 1'
_cell_length_a   6.42393700
_cell_length_b   6.30595400
_cell_length_c   11.10382900
_cell_angle_alpha   90.00000000
_cell_angle_beta   90.00000000
_cell_angle_gamma   90.00000000
_symmetry_Int_Tables_number   1
_chemical_formula_structural   Cs2ReF7
_chemical_formula_sum   'Cs4 Re2 F14'
_cell_volume   449.80557771
_cell_formula_units_Z   2
loop_
 _symmetry_equiv_pos_site_id
 _symmetry_equiv_pos_as_xyz
  1  'x, y, z'
loop_
 _atom_site_type_symbol
 _atom_site_label
 _atom_site_symmetry_multiplicity
 _atom_site_fract_x
 _atom_site_fract_y
 _atom_site_fract_z
 _atom_site_occupancy
  Cs  Cs0  1  0.000000  0.500000  0.363650  1
  Cs  Cs1  1  0.500000  0.000000  0.636350  1
  Cs  Cs2  1  0.500000  0.500000  0.997075  1
  Cs  Cs3  1  0.000000  0.000000  0.002925  1
  Re  Re4  1  0.000000  0.500000  0.760480  1
  Re  Re5  1  0.500000  0.000000  0.239520  1
  F  F6  1  0.205558  0.273444  0.795049  1
  F  F7  1  0.294442  0.226556  0.204951  1
  F  F8  1  0.705558  0.773444  0.204951  1
  F  F9  1  0.794442  0.726556  0.795049  1
  F  F10  1  0.205558  0.726556  0.795049  1
  F  F11  1  0.705558  0.226556  0.204951  1
  F  F12  1  0.294442  0.773444  0.204951  1
  F  F13  1  0.794442  0.273444  0.795049  1
  F  F14  1  0.000000  0.500000  0.939173  1
  F  F15  1  0.500000  0.000000  0.060827  1
  F  F16  1  0.183062  0.500000  0.617909  1
  F  F17  1  0.816938  0.500000  0.617909  1
  F  F18  1  0.316938  0.000000  0.382091  1
  F  F19  1  0.683062  0.000000  0.382091  1
