# generated using pymatgen
data_Ta8CuNi3N2
_symmetry_space_group_name_H-M   'P 1'
_cell_length_a   8.23847387
_cell_length_b   8.23847365
_cell_length_c   8.23302800
_cell_angle_alpha   60.02186339
_cell_angle_beta   60.02186424
_cell_angle_gamma   60.10107729
_symmetry_Int_Tables_number   1
_chemical_formula_structural   Ta8CuNi3N2
_chemical_formula_sum   'Ta16 Cu2 Ni6 N4'
_cell_volume   395.56006402
_cell_formula_units_Z   2
loop_
 _symmetry_equiv_pos_site_id
 _symmetry_equiv_pos_as_xyz
  1  'x, y, z'
loop_
 _atom_site_type_symbol
 _atom_site_label
 _atom_site_symmetry_multiplicity
 _atom_site_fract_x
 _atom_site_fract_y
 _atom_site_fract_z
 _atom_site_occupancy
  Ta  Ta0  1  0.123160  0.622020  0.627410  1
  Ta  Ta1  1  0.622020  0.123160  0.627410  1
  Ta  Ta2  1  0.624490  0.624490  0.120626  1
  Ta  Ta3  1  0.624490  0.624490  0.630393  1
  Ta  Ta4  1  0.816040  0.816040  0.183960  1
  Ta  Ta5  1  0.182799  0.182799  0.817201  1
  Ta  Ta6  1  0.816446  0.183569  0.816070  1
  Ta  Ta7  1  0.183569  0.816446  0.183915  1
  Ta  Ta8  1  0.183569  0.816446  0.816070  1
  Ta  Ta9  1  0.816446  0.183569  0.183915  1
  Ta  Ta10  1  0.432997  0.432997  0.067003  1
  Ta  Ta11  1  0.064991  0.064991  0.435009  1
  Ta  Ta12  1  0.434160  0.067125  0.434718  1
  Ta  Ta13  1  0.067125  0.434160  0.063997  1
  Ta  Ta14  1  0.067125  0.434160  0.434718  1
  Ta  Ta15  1  0.434160  0.067125  0.063997  1
  Cu  Cu16  1  0.749924  0.417349  0.416364  1
  Cu  Cu17  1  0.417349  0.749924  0.416364  1
  Ni  Ni18  1  0.420109  0.420109  0.740869  1
  Ni  Ni19  1  0.420109  0.420109  0.418912  1
  Ni  Ni20  1  0.508693  0.829999  0.830654  1
  Ni  Ni21  1  0.829999  0.508693  0.830654  1
  Ni  Ni22  1  0.830416  0.830416  0.508763  1
  Ni  Ni23  1  0.830416  0.830416  0.830405  1
  N  N24  1  0.624081  0.124959  0.125480  1
  N  N25  1  0.124959  0.624081  0.125480  1
  N  N26  1  0.125179  0.125179  0.624040  1
  N  N27  1  0.125179  0.125179  0.125602  1
