# generated using pymatgen
data_Sm8Y12Si15Pt
_symmetry_space_group_name_H-M   'P 1'
_cell_length_a   7.45732517
_cell_length_b   7.81383203
_cell_length_c   14.77080200
_cell_angle_alpha   90.00000000
_cell_angle_beta   90.00000000
_cell_angle_gamma   89.96124948
_symmetry_Int_Tables_number   1
_chemical_formula_structural   Sm8Y12Si15Pt
_chemical_formula_sum   'Sm8 Y12 Si15 Pt1'
_cell_volume   860.69866348
_cell_formula_units_Z   1
loop_
 _symmetry_equiv_pos_site_id
 _symmetry_equiv_pos_as_xyz
  1  'x, y, z'
loop_
 _atom_site_type_symbol
 _atom_site_label
 _atom_site_symmetry_multiplicity
 _atom_site_fract_x
 _atom_site_fract_y
 _atom_site_fract_z
 _atom_site_occupancy
  Sm  Sm0  1  0.022427  0.182728  0.096806  1
  Sm  Sm1  1  0.980331  0.820501  0.906059  1
  Sm  Sm2  1  0.478030  0.680276  0.904892  1
  Sm  Sm3  1  0.980331  0.820501  0.593941  1
  Sm  Sm4  1  0.522114  0.319033  0.096600  1
  Sm  Sm5  1  0.022427  0.182728  0.403194  1
  Sm  Sm6  1  0.522114  0.319033  0.403400  1
  Sm  Sm7  1  0.478030  0.680276  0.595108  1
  Y  Y8  1  0.149568  0.517741  0.750000  1
  Y  Y9  1  0.846406  0.486030  0.250000  1
  Y  Y10  1  0.346888  0.015767  0.250000  1
  Y  Y11  1  0.658979  0.986866  0.750000  1
  Y  Y12  1  0.315150  0.175577  0.624368  1
  Y  Y13  1  0.680662  0.822742  0.376203  1
  Y  Y14  1  0.178897  0.680830  0.376413  1
  Y  Y15  1  0.680662  0.822742  0.123797  1
  Y  Y16  1  0.823675  0.319504  0.624024  1
  Y  Y17  1  0.315150  0.175577  0.875632  1
  Y  Y18  1  0.823675  0.319504  0.875976  1
  Y  Y19  1  0.178897  0.680830  0.123587  1
  Si  Si20  1  0.974249  0.895870  0.250000  1
  Si  Si21  1  0.474368  0.607883  0.250000  1
  Si  Si22  1  0.523764  0.395250  0.750000  1
  Si  Si23  1  0.275387  0.870474  0.750000  1
  Si  Si24  1  0.728887  0.125054  0.250000  1
  Si  Si25  1  0.228955  0.376337  0.250000  1
  Si  Si26  1  0.763599  0.620475  0.750000  1
  Si  Si27  1  0.149158  0.471817  0.538549  1
  Si  Si28  1  0.852356  0.530013  0.461045  1
  Si  Si29  1  0.353294  0.970824  0.460765  1
  Si  Si30  1  0.852356  0.530013  0.038955  1
  Si  Si31  1  0.647853  0.029196  0.539058  1
  Si  Si32  1  0.149158  0.471817  0.961451  1
  Si  Si33  1  0.647853  0.029196  0.960942  1
  Si  Si34  1  0.353294  0.970824  0.039235  1
  Pt  Pt35  1  0.021056  0.096169  0.750000  1
