# generated using pymatgen
data_Pr10Nd2Ir2I17
_symmetry_space_group_name_H-M   'P 1'
_cell_length_a   10.12976358
_cell_length_b   12.13634742
_cell_length_c   12.11443402
_cell_angle_alpha   93.12736766
_cell_angle_beta   104.47536202
_cell_angle_gamma   115.02378002
_symmetry_Int_Tables_number   1
_chemical_formula_structural   Pr10Nd2Ir2I17
_chemical_formula_sum   'Pr10 Nd2 Ir2 I17'
_cell_volume   1284.69640997
_cell_formula_units_Z   1
loop_
 _symmetry_equiv_pos_site_id
 _symmetry_equiv_pos_as_xyz
  1  'x, y, z'
loop_
 _atom_site_type_symbol
 _atom_site_label
 _atom_site_symmetry_multiplicity
 _atom_site_fract_x
 _atom_site_fract_y
 _atom_site_fract_z
 _atom_site_occupancy
  Pr  Pr0  1  0.641407  0.239402  0.284181  1
  Pr  Pr1  1  0.011498  0.188803  0.420762  1
  Pr  Pr2  1  0.216639  0.663766  0.991235  1
  Pr  Pr3  1  0.263732  0.988020  0.894162  1
  Pr  Pr4  1  0.358709  0.760931  0.715756  1
  Pr  Pr5  1  0.940948  0.486684  0.676414  1
  Pr  Pr6  1  0.736135  0.012003  0.105700  1
  Pr  Pr7  1  0.154769  0.289282  0.148673  1
  Pr  Pr8  1  0.783502  0.336492  0.008892  1
  Pr  Pr9  1  0.845305  0.711013  0.851258  1
  Nd  Nd10  1  0.058350  0.512390  0.322929  1
  Nd  Nd11  1  0.989316  0.811222  0.580268  1
  Ir  Ir12  1  0.102758  0.738287  0.783908  1
  Ir  Ir13  1  0.897399  0.262403  0.215909  1
  I  I14  1  0.783739  0.528689  0.418031  1
  I  I15  1  0.638080  0.417145  0.758228  1
  I  I16  1  0.843104  0.894945  0.325207  1
  I  I17  1  0.325500  0.212349  0.368461  1
  I  I18  1  0.156547  0.104046  0.674785  1
  I  I19  1  0.589802  0.054769  0.841314  1
  I  I20  1  0.754064  0.182941  0.538976  1
  I  I21  1  0.548873  0.707014  0.954096  1
  I  I22  1  0.361052  0.582821  0.242142  1
  I  I23  1  0.217162  0.472314  0.581402  1
  I  I24  1  0.056658  0.361542  0.891837  1
  I  I25  1  0.451109  0.292989  0.045895  1
  I  I26  1  0.999991  0.000036  0.000036  1
  I  I27  1  0.244582  0.816326  0.460898  1
  I  I28  1  0.410279  0.945289  0.158712  1
  I  I29  1  0.675288  0.787767  0.631290  1
  I  I30  1  0.943705  0.638320  0.108644  1
