# generated using pymatgen
data_TbDy4Mn2Co17P12
_symmetry_space_group_name_H-M   'P 1'
_cell_length_a   12.03129202
_cell_length_b   12.02417817
_cell_length_c   3.66747000
_cell_angle_alpha   90.00000000
_cell_angle_beta   90.00000000
_cell_angle_gamma   119.97665112
_symmetry_Int_Tables_number   1
_chemical_formula_structural   TbDy4Mn2Co17P12
_chemical_formula_sum   'Tb1 Dy4 Mn2 Co17 P12'
_cell_volume   459.58622629
_cell_formula_units_Z   1
loop_
 _symmetry_equiv_pos_site_id
 _symmetry_equiv_pos_as_xyz
  1  'x, y, z'
loop_
 _atom_site_type_symbol
 _atom_site_label
 _atom_site_symmetry_multiplicity
 _atom_site_fract_x
 _atom_site_fract_y
 _atom_site_fract_z
 _atom_site_occupancy
  Tb  Tb0  1  0.666670  0.333225  0.000000  1
  Dy  Dy1  1  0.333418  0.666670  0.000000  1
  Dy  Dy2  1  0.186529  0.186034  0.500000  1
  Dy  Dy3  1  0.813385  0.999482  0.500000  1
  Dy  Dy4  1  0.999982  0.811885  0.500000  1
  Mn  Mn5  1  0.556857  0.557178  0.000000  1
  Mn  Mn6  1  0.443035  0.000169  0.000000  1
  Co  Co7  1  0.000002  0.447775  0.000000  1
  Co  Co8  1  0.823318  0.200852  0.000000  1
  Co  Co9  1  0.801189  0.622080  0.000000  1
  Co  Co10  1  0.376501  0.177995  0.000000  1
  Co  Co11  1  0.198925  0.820725  0.000000  1
  Co  Co12  1  0.623264  0.801457  0.000000  1
  Co  Co13  1  0.176837  0.377804  0.000000  1
  Co  Co14  1  0.643229  0.125493  0.500000  1
  Co  Co15  1  0.875585  0.516396  0.500000  1
  Co  Co16  1  0.482652  0.357381  0.500000  1
  Co  Co17  1  0.124776  0.640825  0.500000  1
  Co  Co18  1  0.517013  0.874399  0.500000  1
  Co  Co19  1  0.356764  0.482681  0.500000  1
  Co  Co20  1  0.716539  0.716326  0.500000  1
  Co  Co21  1  0.283331  0.999469  0.500000  1
  Co  Co22  1  0.000159  0.285118  0.500000  1
  Co  Co23  1  0.000002  0.000982  0.000000  1
  P  P24  1  0.364575  0.365227  0.000000  1
  P  P25  1  0.635401  0.000668  0.000000  1
  P  P26  1  0.000008  0.631978  0.000000  1
  P  P27  1  0.834975  0.314407  0.500000  1
  P  P28  1  0.686067  0.520068  0.500000  1
  P  P29  1  0.479283  0.165488  0.500000  1
  P  P30  1  0.313958  0.833627  0.500000  1
  P  P31  1  0.520335  0.686245  0.500000  1
  P  P32  1  0.165450  0.479853  0.500000  1
  P  P33  1  0.819788  0.819221  0.000000  1
  P  P34  1  0.180152  0.999284  0.000000  1
  P  P35  1  0.000048  0.181530  0.000000  1
