# generated using pymatgen
data_Zr4Al2Re5Mo
_symmetry_space_group_name_H-M   'P 1'
_cell_length_a   5.28859600
_cell_length_b   5.28363353
_cell_length_c   8.71221200
_cell_angle_alpha   90.00000000
_cell_angle_beta   90.00000000
_cell_angle_gamma   120.03106134
_symmetry_Int_Tables_number   1
_chemical_formula_structural   Zr4Al2Re5Mo
_chemical_formula_sum   'Zr4 Al2 Re5 Mo1'
_cell_volume   210.76385297
_cell_formula_units_Z   1
loop_
 _symmetry_equiv_pos_site_id
 _symmetry_equiv_pos_as_xyz
  1  'x, y, z'
loop_
 _atom_site_type_symbol
 _atom_site_label
 _atom_site_symmetry_multiplicity
 _atom_site_fract_x
 _atom_site_fract_y
 _atom_site_fract_z
 _atom_site_occupancy
  Zr  Zr0  1  0.333601  0.667202  0.434102  1
  Zr  Zr1  1  0.666639  0.333276  0.936474  1
  Zr  Zr2  1  0.666639  0.333276  0.563526  1
  Zr  Zr3  1  0.333601  0.667202  0.065898  1
  Al  Al4  1  0.999475  0.998949  0.000578  1
  Al  Al5  1  0.999475  0.998949  0.499422  1
  Re  Re6  1  0.830089  0.170258  0.250000  1
  Re  Re7  1  0.340168  0.170258  0.250000  1
  Re  Re8  1  0.660291  0.829868  0.750000  1
  Re  Re9  1  0.829968  0.659937  0.250000  1
  Re  Re10  1  0.169578  0.829868  0.750000  1
  Mo  Mo11  1  0.170478  0.340956  0.750000  1
