# generated using pymatgen
data_Sc4TcB8(MoRu2)3
_symmetry_space_group_name_H-M   'P 1'
_cell_length_a   3.06090800
_cell_length_b   8.66499834
_cell_length_c   10.01706035
_cell_angle_alpha   89.86464929
_cell_angle_beta   90.00000000
_cell_angle_gamma   90.00000000
_symmetry_Int_Tables_number   1
_chemical_formula_structural   Sc4TcB8(MoRu2)3
_chemical_formula_sum   'Sc4 Tc1 B8 Mo3 Ru6'
_cell_volume   265.67937375
_cell_formula_units_Z   1
loop_
 _symmetry_equiv_pos_site_id
 _symmetry_equiv_pos_as_xyz
  1  'x, y, z'
loop_
 _atom_site_type_symbol
 _atom_site_label
 _atom_site_symmetry_multiplicity
 _atom_site_fract_x
 _atom_site_fract_y
 _atom_site_fract_z
 _atom_site_occupancy
  Sc  Sc0  1  0.500000  0.839048  0.180750  1
  Sc  Sc1  1  0.500000  0.157931  0.818841  1
  Sc  Sc2  1  0.500000  0.658381  0.682756  1
  Sc  Sc3  1  0.500000  0.339062  0.318749  1
  Tc  Tc4  1  0.000000  0.662769  0.952290  1
  B  B5  1  0.500000  0.965198  0.586889  1
  B  B6  1  0.500000  0.033088  0.413579  1
  B  B7  1  0.500000  0.850443  0.900327  1
  B  B8  1  0.500000  0.147988  0.100119  1
  B  B9  1  0.500000  0.646297  0.397473  1
  B  B10  1  0.500000  0.354387  0.601988  1
  B  B11  1  0.500000  0.471890  0.911074  1
  B  B12  1  0.500000  0.539939  0.085062  1
  Mo  Mo13  1  0.000000  0.340450  0.046627  1
  Mo  Mo14  1  0.000000  0.836557  0.452494  1
  Mo  Mo15  1  0.000000  0.162570  0.548622  1
  Ru  Ru16  1  0.000000  0.998834  0.000360  1
  Ru  Ru17  1  0.000000  0.405306  0.761817  1
  Ru  Ru18  1  0.000000  0.593393  0.238948  1
  Ru  Ru19  1  0.000000  0.499044  0.499928  1
  Ru  Ru20  1  0.000000  0.904342  0.740241  1
  Ru  Ru21  1  0.000000  0.093085  0.261067  1
