# generated using pymatgen
data_Mg3Zr6TiAl12Pt7
_symmetry_space_group_name_H-M   'P 1'
_cell_length_a   8.87599102
_cell_length_b   8.87599192
_cell_length_c   8.87599150
_cell_angle_alpha   59.94045975
_cell_angle_beta   59.94045791
_cell_angle_gamma   59.94045985
_symmetry_Int_Tables_number   1
_chemical_formula_structural   Mg3Zr6TiAl12Pt7
_chemical_formula_sum   'Mg3 Zr6 Ti1 Al12 Pt7'
_cell_volume   493.79733898
_cell_formula_units_Z   1
loop_
 _symmetry_equiv_pos_site_id
 _symmetry_equiv_pos_as_xyz
  1  'x, y, z'
loop_
 _atom_site_type_symbol
 _atom_site_label
 _atom_site_symmetry_multiplicity
 _atom_site_fract_x
 _atom_site_fract_y
 _atom_site_fract_z
 _atom_site_occupancy
  Mg  Mg0  1  0.882429  0.882429  0.354892  1
  Mg  Mg1  1  0.882429  0.354892  0.882429  1
  Mg  Mg2  1  0.354892  0.882429  0.882429  1
  Zr  Zr3  1  0.684527  0.684527  0.315527  1
  Zr  Zr4  1  0.317563  0.683104  0.317563  1
  Zr  Zr5  1  0.683104  0.317563  0.317563  1
  Zr  Zr6  1  0.317563  0.317563  0.683104  1
  Zr  Zr7  1  0.684527  0.315527  0.684527  1
  Zr  Zr8  1  0.315527  0.684527  0.684527  1
  Ti  Ti9  1  0.878470  0.878470  0.878470  1
  Al  Al10  1  0.120774  0.120774  0.639835  1
  Al  Al11  1  0.120774  0.639835  0.120774  1
  Al  Al12  1  0.639835  0.120774  0.120774  1
  Al  Al13  1  0.119640  0.119640  0.119640  1
  Al  Al14  1  0.663549  0.663549  0.007192  1
  Al  Al15  1  0.663549  0.007192  0.663549  1
  Al  Al16  1  0.007192  0.663549  0.663549  1
  Al  Al17  1  0.664492  0.664492  0.664492  1
  Al  Al18  1  0.335222  0.335222  0.991984  1
  Al  Al19  1  0.335222  0.991984  0.335222  1
  Al  Al20  1  0.991984  0.335222  0.335222  1
  Al  Al21  1  0.336704  0.336704  0.336704  1
  Pt  Pt22  1  0.994547  0.994547  0.994547  1
  Pt  Pt23  1  0.000719  0.000719  0.506980  1
  Pt  Pt24  1  0.497770  0.001526  0.497770  1
  Pt  Pt25  1  0.001526  0.497770  0.497770  1
  Pt  Pt26  1  0.497770  0.497770  0.001526  1
  Pt  Pt27  1  0.000719  0.506980  0.000719  1
  Pt  Pt28  1  0.506980  0.000719  0.000719  1
