# generated using pymatgen
data_Tb3Al3ZnGePd
_symmetry_space_group_name_H-M   'P 1'
_cell_length_a   7.03038100
_cell_length_b   7.03038114
_cell_length_c   4.29753000
_cell_angle_alpha   90.00000000
_cell_angle_beta   90.00000000
_cell_angle_gamma   119.99999461
_symmetry_Int_Tables_number   1
_chemical_formula_structural   Tb3Al3ZnGePd
_chemical_formula_sum   'Tb3 Al3 Zn1 Ge1 Pd1'
_cell_volume   183.95318189
_cell_formula_units_Z   1
loop_
 _symmetry_equiv_pos_site_id
 _symmetry_equiv_pos_as_xyz
  1  'x, y, z'
loop_
 _atom_site_type_symbol
 _atom_site_label
 _atom_site_symmetry_multiplicity
 _atom_site_fract_x
 _atom_site_fract_y
 _atom_site_fract_z
 _atom_site_occupancy
  Tb  Tb0  1  0.418711  0.000307  0.000000  1
  Tb  Tb1  1  0.999693  0.418404  0.000000  1
  Tb  Tb2  1  0.581596  0.581288  0.000000  1
  Al  Al3  1  0.768978  0.008187  0.500000  1
  Al  Al4  1  0.239207  0.231021  0.500000  1
  Al  Al5  1  0.991813  0.760792  0.500000  1
  Zn  Zn6  1  0.666666  0.333333  0.500000  1
  Ge  Ge7  1  0.333333  0.666666  0.500000  1
  Pd  Pd8  1  0.000000  0.000000  0.000000  1
