# generated using pymatgen
data_Dy4Tm2Si24Os5Ru3
_symmetry_space_group_name_H-M   'P 1'
_cell_length_a   10.11597021
_cell_length_b   10.11597809
_cell_length_c   8.15113900
_cell_angle_alpha   90.00199562
_cell_angle_beta   90.00203075
_cell_angle_gamma   132.47270482
_symmetry_Int_Tables_number   1
_chemical_formula_structural   Dy4Tm2Si24Os5Ru3
_chemical_formula_sum   'Dy4 Tm2 Si24 Os5 Ru3'
_cell_volume   615.25350488
_cell_formula_units_Z   1
loop_
 _symmetry_equiv_pos_site_id
 _symmetry_equiv_pos_as_xyz
  1  'x, y, z'
loop_
 _atom_site_type_symbol
 _atom_site_label
 _atom_site_symmetry_multiplicity
 _atom_site_fract_x
 _atom_site_fract_y
 _atom_site_fract_z
 _atom_site_occupancy
  Dy  Dy0  1  0.501534  0.001454  0.749490  1
  Dy  Dy1  1  0.998359  0.498606  0.250519  1
  Dy  Dy2  1  0.498605  0.998357  0.250519  1
  Dy  Dy3  1  0.001455  0.501535  0.749490  1
  Tm  Tm4  1  0.499363  0.499363  0.500079  1
  Tm  Tm5  1  0.000025  0.000027  0.999278  1
  Si  Si6  1  0.795675  0.204518  0.500176  1
  Si  Si7  1  0.295981  0.704006  0.000204  1
  Si  Si8  1  0.204517  0.795676  0.500176  1
  Si  Si9  1  0.704006  0.295981  0.000204  1
  Si  Si10  1  0.332894  0.332894  0.833298  1
  Si  Si11  1  0.667631  0.667630  0.167178  1
  Si  Si12  1  0.166528  0.166528  0.331152  1
  Si  Si13  1  0.830849  0.830849  0.666080  1
  Si  Si14  1  0.120404  0.886378  0.728230  1
  Si  Si15  1  0.114048  0.880717  0.271928  1
  Si  Si16  1  0.611143  0.378484  0.228644  1
  Si  Si17  1  0.622241  0.388991  0.771606  1
  Si  Si18  1  0.880717  0.114048  0.271928  1
  Si  Si19  1  0.886378  0.120403  0.728230  1
  Si  Si20  1  0.388991  0.622241  0.771606  1
  Si  Si21  1  0.378485  0.611144  0.228644  1
  Si  Si22  1  0.345204  0.111873  0.503694  1
  Si  Si23  1  0.887898  0.655228  0.496843  1
  Si  Si24  1  0.387724  0.154847  0.005744  1
  Si  Si25  1  0.845105  0.612820  0.994777  1
  Si  Si26  1  0.655227  0.887897  0.496844  1
  Si  Si27  1  0.111872  0.345204  0.503694  1
  Si  Si28  1  0.612819  0.845103  0.994776  1
  Si  Si29  1  0.154848  0.387723  0.005743  1
  Os  Os30  1  0.669017  0.330993  0.499911  1
  Os  Os31  1  0.169473  0.830393  0.000038  1
  Os  Os32  1  0.330990  0.669016  0.499910  1
  Os  Os33  1  0.830392  0.169472  0.000037  1
  Os  Os34  1  0.126399  0.126398  0.627039  1
  Ru  Ru35  1  0.873440  0.873438  0.372556  1
  Ru  Ru36  1  0.372304  0.372304  0.128005  1
  Ru  Ru37  1  0.627457  0.627458  0.871731  1
