# generated using pymatgen
data_NdSm6PI12
_symmetry_space_group_name_H-M   'P 1'
_cell_length_a   9.84598469
_cell_length_b   9.86168049
_cell_length_c   9.86644500
_cell_angle_alpha   107.89983050
_cell_angle_beta   107.84322595
_cell_angle_gamma   107.95114439
_symmetry_Int_Tables_number   1
_chemical_formula_structural   NdSm6PI12
_chemical_formula_sum   'Nd1 Sm6 P1 I12'
_cell_volume   777.46728509
_cell_formula_units_Z   1
loop_
 _symmetry_equiv_pos_site_id
 _symmetry_equiv_pos_as_xyz
  1  'x, y, z'
loop_
 _atom_site_type_symbol
 _atom_site_label
 _atom_site_symmetry_multiplicity
 _atom_site_fract_x
 _atom_site_fract_y
 _atom_site_fract_z
 _atom_site_occupancy
  Nd  Nd0  1  0.393518  0.192026  0.463608  1
  Sm  Sm1  1  0.802732  0.525594  0.596955  1
  Sm  Sm2  1  0.525715  0.596864  0.802309  1
  Sm  Sm3  1  0.193901  0.462858  0.394526  1
  Sm  Sm4  1  0.464077  0.394602  0.194854  1
  Sm  Sm5  1  0.022183  0.022281  0.021855  1
  Sm  Sm6  1  0.597433  0.803766  0.525787  1
  P  P7  1  0.501192  0.502063  0.500985  1
  I  I8  1  0.729544  0.185685  0.579132  1
  I  I9  1  0.964922  0.886725  0.661130  1
  I  I10  1  0.576794  0.724892  0.184934  1
  I  I11  1  0.112531  0.354487  0.030520  1
  I  I12  1  0.660615  0.964344  0.885895  1
  I  I13  1  0.886947  0.661353  0.964194  1
  I  I14  1  0.024556  0.111079  0.351094  1
  I  I15  1  0.812251  0.424154  0.270460  1
  I  I16  1  0.353768  0.029102  0.108514  1
  I  I17  1  0.268531  0.809187  0.422723  1
  I  I18  1  0.184870  0.577144  0.724821  1
  I  I19  1  0.423918  0.271795  0.815706  1
