# generated using pymatgen
data_Nd2Pa(InRh)3
_symmetry_space_group_name_H-M   'P 1'
_cell_length_a   7.93305200
_cell_length_b   7.67182507
_cell_length_c   3.88617200
_cell_angle_alpha   90.00000000
_cell_angle_beta   90.00000000
_cell_angle_gamma   121.13291070
_symmetry_Int_Tables_number   1
_chemical_formula_structural   Nd2Pa(InRh)3
_chemical_formula_sum   'Nd2 Pa1 In3 Rh3'
_cell_volume   202.45088526
_cell_formula_units_Z   1
loop_
 _symmetry_equiv_pos_site_id
 _symmetry_equiv_pos_as_xyz
  1  'x, y, z'
loop_
 _atom_site_type_symbol
 _atom_site_label
 _atom_site_symmetry_multiplicity
 _atom_site_fract_x
 _atom_site_fract_y
 _atom_site_fract_z
 _atom_site_occupancy
  Nd  Nd0  1  0.407406  0.408139  0.500000  1
  Nd  Nd1  1  0.999267  0.591861  0.500000  1
  Pa  Pa2  1  0.582069  0.000000  0.500000  1
  In  In3  1  0.241532  0.000000  0.000000  1
  In  In4  1  0.745445  0.738944  0.000000  1
  In  In5  1  0.006501  0.261056  0.000000  1
  Rh  Rh6  1  0.984110  0.000000  0.500000  1
  Rh  Rh7  1  0.374300  0.714930  0.000000  1
  Rh  Rh8  1  0.659371  0.285070  0.000000  1
