# generated using pymatgen
data_DyEr2Zr2Sc(SnIr)6
_symmetry_space_group_name_H-M   'P 1'
_cell_length_a   7.47038100
_cell_length_b   7.46339651
_cell_length_c   7.58570200
_cell_angle_alpha   90.00000000
_cell_angle_beta   90.00000000
_cell_angle_gamma   119.96655751
_symmetry_Int_Tables_number   1
_chemical_formula_structural   DyEr2Zr2Sc(SnIr)6
_chemical_formula_sum   'Dy1 Er2 Zr2 Sc1 Sn6 Ir6'
_cell_volume   366.39701794
_cell_formula_units_Z   1
loop_
 _symmetry_equiv_pos_site_id
 _symmetry_equiv_pos_as_xyz
  1  'x, y, z'
loop_
 _atom_site_type_symbol
 _atom_site_label
 _atom_site_symmetry_multiplicity
 _atom_site_fract_x
 _atom_site_fract_y
 _atom_site_fract_z
 _atom_site_occupancy
  Dy  Dy0  1  0.999185  0.405648  0.250000  1
  Er  Er1  1  0.404674  0.999069  0.250000  1
  Er  Er2  1  0.595412  0.595421  0.250000  1
  Zr  Zr3  1  0.000678  0.395070  0.750000  1
  Zr  Zr4  1  0.394942  0.000071  0.750000  1
  Sc  Sc5  1  0.605605  0.606163  0.750000  1
  Sn  Sn6  1  0.268588  0.268105  0.504565  1
  Sn  Sn7  1  0.268588  0.268105  0.995435  1
  Sn  Sn8  1  0.733544  0.997529  0.993455  1
  Sn  Sn9  1  0.997344  0.733650  0.507445  1
  Sn  Sn10  1  0.733544  0.997529  0.506545  1
  Sn  Sn11  1  0.997344  0.733650  0.992555  1
  Ir  Ir12  1  0.666585  0.330625  0.528295  1
  Ir  Ir13  1  0.666585  0.330625  0.971705  1
  Ir  Ir14  1  0.331296  0.667458  0.972559  1
  Ir  Ir15  1  0.331296  0.667458  0.527441  1
  Ir  Ir16  1  0.004580  0.005009  0.750000  1
  Ir  Ir17  1  0.000214  0.998818  0.250000  1
