# generated using pymatgen
data_NdEr2Lu2(FeB3)2
_symmetry_space_group_name_H-M   'P 1'
_cell_length_a   8.18384734
_cell_length_b   8.18384750
_cell_length_c   8.18384647
_cell_angle_alpha   38.53211296
_cell_angle_beta   38.53212148
_cell_angle_gamma   38.53211325
_symmetry_Int_Tables_number   1
_chemical_formula_structural   NdEr2Lu2(FeB3)2
_chemical_formula_sum   'Nd1 Er2 Lu2 Fe2 B6'
_cell_volume   191.12409122
_cell_formula_units_Z   1
loop_
 _symmetry_equiv_pos_site_id
 _symmetry_equiv_pos_as_xyz
  1  'x, y, z'
loop_
 _atom_site_type_symbol
 _atom_site_label
 _atom_site_symmetry_multiplicity
 _atom_site_fract_x
 _atom_site_fract_y
 _atom_site_fract_z
 _atom_site_occupancy
  Nd  Nd0  1  0.000000  0.000000  0.000000  1
  Er  Er1  1  0.749326  0.749326  0.749326  1
  Er  Er2  1  0.250674  0.250674  0.250674  1
  Lu  Lu3  1  0.581410  0.581410  0.581410  1
  Lu  Lu4  1  0.418590  0.418590  0.418590  1
  Fe  Fe5  1  0.884252  0.884252  0.884252  1
  Fe  Fe6  1  0.115748  0.115748  0.115748  1
  B  B7  1  0.500000  0.831735  0.168265  1
  B  B8  1  0.168265  0.500000  0.831735  1
  B  B9  1  0.831735  0.168265  0.500000  1
  B  B10  1  0.500000  0.168265  0.831735  1
  B  B11  1  0.831735  0.500000  0.168265  1
  B  B12  1  0.168265  0.831735  0.500000  1
