# generated using pymatgen
data_Ce8Lu3Sc8Si16Mo
_symmetry_space_group_name_H-M   'P 1'
_cell_length_a   7.20916647
_cell_length_b   7.47415408
_cell_length_c   14.17301100
_cell_angle_alpha   90.00000000
_cell_angle_beta   90.00000000
_cell_angle_gamma   90.10821052
_symmetry_Int_Tables_number   1
_chemical_formula_structural   Ce8Lu3Sc8Si16Mo
_chemical_formula_sum   'Ce8 Lu3 Sc8 Si16 Mo1'
_cell_volume   763.67478307
_cell_formula_units_Z   1
loop_
 _symmetry_equiv_pos_site_id
 _symmetry_equiv_pos_as_xyz
  1  'x, y, z'
loop_
 _atom_site_type_symbol
 _atom_site_label
 _atom_site_symmetry_multiplicity
 _atom_site_fract_x
 _atom_site_fract_y
 _atom_site_fract_z
 _atom_site_occupancy
  Ce  Ce0  1  0.985973  0.168595  0.099677  1
  Ce  Ce1  1  0.492061  0.324440  0.401052  1
  Ce  Ce2  1  0.512867  0.672538  0.906819  1
  Ce  Ce3  1  0.011532  0.827542  0.594657  1
  Ce  Ce4  1  0.011532  0.827542  0.905343  1
  Ce  Ce5  1  0.512867  0.672538  0.593181  1
  Ce  Ce6  1  0.492061  0.324440  0.098948  1
  Ce  Ce7  1  0.985973  0.168595  0.400323  1
  Lu  Lu8  1  0.162695  0.493454  0.250000  1
  Lu  Lu9  1  0.837694  0.507546  0.750000  1
  Lu  Lu10  1  0.337954  0.991635  0.750000  1
  Sc  Sc11  1  0.826759  0.679894  0.126872  1
  Sc  Sc12  1  0.330838  0.830077  0.372391  1
  Sc  Sc13  1  0.671763  0.174672  0.880696  1
  Sc  Sc14  1  0.170275  0.322445  0.622543  1
  Sc  Sc15  1  0.170275  0.322445  0.877457  1
  Sc  Sc16  1  0.671763  0.174672  0.619304  1
  Sc  Sc17  1  0.330838  0.830077  0.127609  1
  Sc  Sc18  1  0.826759  0.679894  0.373128  1
  Si  Si19  1  0.782252  0.365955  0.250000  1
  Si  Si20  1  0.299641  0.120615  0.250000  1
  Si  Si21  1  0.717433  0.883488  0.750000  1
  Si  Si22  1  0.218731  0.617259  0.750000  1
  Si  Si23  1  0.024422  0.888285  0.250000  1
  Si  Si24  1  0.537551  0.631679  0.250000  1
  Si  Si25  1  0.463041  0.377268  0.750000  1
  Si  Si26  1  0.960038  0.121496  0.750000  1
  Si  Si27  1  0.847872  0.464817  0.964650  1
  Si  Si28  1  0.343735  0.034952  0.534995  1
  Si  Si29  1  0.652304  0.966671  0.049522  1
  Si  Si30  1  0.155477  0.534620  0.460651  1
  Si  Si31  1  0.155477  0.534620  0.039349  1
  Si  Si32  1  0.652304  0.966671  0.450478  1
  Si  Si33  1  0.343735  0.034952  0.965005  1
  Si  Si34  1  0.847872  0.464817  0.535350  1
  Mo  Mo35  1  0.655637  0.998791  0.250000  1
