# generated using pymatgen
data_BaLiCaSi3
_symmetry_space_group_name_H-M   'P 1'
_cell_length_a   11.53882800
_cell_length_b   11.03352000
_cell_length_c   4.58443000
_cell_angle_alpha   90.00000000
_cell_angle_beta   90.00000000
_cell_angle_gamma   90.00000000
_symmetry_Int_Tables_number   1
_chemical_formula_structural   BaLiCaSi3
_chemical_formula_sum   'Ba4 Li4 Ca4 Si12'
_cell_volume   583.66161451
_cell_formula_units_Z   4
loop_
 _symmetry_equiv_pos_site_id
 _symmetry_equiv_pos_as_xyz
  1  'x, y, z'
loop_
 _atom_site_type_symbol
 _atom_site_label
 _atom_site_symmetry_multiplicity
 _atom_site_fract_x
 _atom_site_fract_y
 _atom_site_fract_z
 _atom_site_occupancy
  Ba  Ba0  1  0.582917  0.820506  0.499999  1
  Ba  Ba1  1  0.417084  0.179493  0.499999  1
  Ba  Ba2  1  0.082916  0.679495  0.000000  1
  Ba  Ba3  1  0.917084  0.320506  0.000000  1
  Li  Li4  1  0.284665  0.860854  0.499999  1
  Li  Li5  1  0.715334  0.139146  0.499999  1
  Li  Li6  1  0.784665  0.639146  0.000000  1
  Li  Li7  1  0.215334  0.360854  0.000000  1
  Ca  Ca8  1  0.351046  0.549301  0.499999  1
  Ca  Ca9  1  0.648955  0.450699  0.499999  1
  Ca  Ca10  1  0.851046  0.950700  0.000000  1
  Ca  Ca11  1  0.148954  0.049301  0.000000  1
  Si  Si12  1  0.902303  0.546006  0.499999  1
  Si  Si13  1  0.097697  0.453994  0.499999  1
  Si  Si14  1  0.402302  0.953993  0.000000  1
  Si  Si15  1  0.597698  0.046006  0.000000  1
  Si  Si16  1  0.124273  0.239123  0.499999  1
  Si  Si17  1  0.875727  0.760878  0.499999  1
  Si  Si18  1  0.624274  0.260877  0.000000  1
  Si  Si19  1  0.375726  0.739122  0.000000  1
  Si  Si20  1  0.041147  0.899110  0.499999  1
  Si  Si21  1  0.958853  0.100890  0.499999  1
  Si  Si22  1  0.541146  0.600890  0.000000  1
  Si  Si23  1  0.458854  0.399110  0.000000  1
