# generated using pymatgen
data_Tb8Zr9Si16W3
_symmetry_space_group_name_H-M   'P 1'
_cell_length_a   7.24535222
_cell_length_b   7.24535278
_cell_length_c   13.28670316
_cell_angle_alpha   90.10311593
_cell_angle_beta   90.10311352
_cell_angle_gamma   90.05198353
_symmetry_Int_Tables_number   1
_chemical_formula_structural   Tb8Zr9Si16W3
_chemical_formula_sum   'Tb8 Zr9 Si16 W3'
_cell_volume   697.48469923
_cell_formula_units_Z   1
loop_
 _symmetry_equiv_pos_site_id
 _symmetry_equiv_pos_as_xyz
  1  'x, y, z'
loop_
 _atom_site_type_symbol
 _atom_site_label
 _atom_site_symmetry_multiplicity
 _atom_site_fract_x
 _atom_site_fract_y
 _atom_site_fract_z
 _atom_site_occupancy
  Tb  Tb0  1  0.999436  0.346408  0.214509  1
  Tb  Tb1  1  0.003409  0.654481  0.713666  1
  Tb  Tb2  1  0.153438  0.500073  0.462583  1
  Tb  Tb3  1  0.499927  0.846562  0.037417  1
  Tb  Tb4  1  0.848258  0.502111  0.967033  1
  Tb  Tb5  1  0.497889  0.151742  0.532967  1
  Tb  Tb6  1  0.345519  0.996591  0.786334  1
  Tb  Tb7  1  0.653592  0.000564  0.285491  1
  Zr  Zr8  1  0.676355  0.323645  0.750000  1
  Zr  Zr9  1  0.146275  0.993610  0.373466  1
  Zr  Zr10  1  0.855589  0.004755  0.876685  1
  Zr  Zr11  1  0.504658  0.647534  0.621312  1
  Zr  Zr12  1  0.352466  0.495342  0.878688  1
  Zr  Zr13  1  0.493666  0.353275  0.126256  1
  Zr  Zr14  1  0.646725  0.506334  0.373744  1
  Zr  Zr15  1  0.995245  0.144411  0.623315  1
  Zr  Zr16  1  0.006390  0.853725  0.126534  1
  Si  Si17  1  0.358692  0.298846  0.316004  1
  Si  Si18  1  0.639899  0.705902  0.816624  1
  Si  Si19  1  0.201965  0.859383  0.564717  1
  Si  Si20  1  0.140617  0.798035  0.935283  1
  Si  Si21  1  0.798422  0.140430  0.066650  1
  Si  Si22  1  0.859570  0.201578  0.433350  1
  Si  Si23  1  0.294098  0.360101  0.683376  1
  Si  Si24  1  0.701154  0.641308  0.183996  1
  Si  Si25  1  0.295083  0.051772  0.184315  1
  Si  Si26  1  0.705468  0.944612  0.681656  1
  Si  Si27  1  0.448032  0.794470  0.432232  1
  Si  Si28  1  0.205530  0.551968  0.067768  1
  Si  Si29  1  0.546886  0.202731  0.937760  1
  Si  Si30  1  0.797269  0.453114  0.562240  1
  Si  Si31  1  0.055388  0.294532  0.818344  1
  Si  Si32  1  0.948228  0.704917  0.315685  1
  W  W33  1  0.177336  0.175534  0.001938  1
  W  W34  1  0.824466  0.822664  0.498062  1
  W  W35  1  0.323065  0.676935  0.250000  1
