# generated using pymatgen
data_ZrSc7(MnB6)4
_symmetry_space_group_name_H-M   'P 1'
_cell_length_a   8.81631774
_cell_length_b   11.12599293
_cell_length_c   3.36059200
_cell_angle_alpha   90.00000000
_cell_angle_beta   90.00000000
_cell_angle_gamma   89.95316732
_symmetry_Int_Tables_number   1
_chemical_formula_structural   ZrSc7(MnB6)4
_chemical_formula_sum   'Zr1 Sc7 Mn4 B24'
_cell_volume   329.64132968
_cell_formula_units_Z   1
loop_
 _symmetry_equiv_pos_site_id
 _symmetry_equiv_pos_as_xyz
  1  'x, y, z'
loop_
 _atom_site_type_symbol
 _atom_site_label
 _atom_site_symmetry_multiplicity
 _atom_site_fract_x
 _atom_site_fract_y
 _atom_site_fract_z
 _atom_site_occupancy
  Zr  Zr0  1  0.322447  0.085929  0.000000  1
  Sc  Sc1  1  0.942442  0.130323  0.000000  1
  Sc  Sc2  1  0.442594  0.370050  0.000000  1
  Sc  Sc3  1  0.822014  0.413703  0.000000  1
  Sc  Sc4  1  0.178746  0.585123  0.000000  1
  Sc  Sc5  1  0.556884  0.630538  0.000000  1
  Sc  Sc6  1  0.057582  0.869683  0.000000  1
  Sc  Sc7  1  0.677032  0.915168  0.000000  1
  Mn  Mn8  1  0.637619  0.179620  0.000000  1
  Mn  Mn9  1  0.140183  0.318595  0.000000  1
  Mn  Mn10  1  0.860677  0.680018  0.000000  1
  Mn  Mn11  1  0.361282  0.821084  0.000000  1
  B  B12  1  0.100307  0.027460  0.499999  1
  B  B13  1  0.553999  0.066299  0.499999  1
  B  B14  1  0.750165  0.080634  0.499999  1
  B  B15  1  0.129675  0.184050  0.499999  1
  B  B16  1  0.481579  0.212414  0.499999  1
  B  B17  1  0.792373  0.235839  0.499999  1
  B  B18  1  0.292915  0.264994  0.499999  1
  B  B19  1  0.980716  0.288229  0.499999  1
  B  B20  1  0.630094  0.316561  0.499999  1
  B  B21  1  0.250189  0.419905  0.499999  1
  B  B22  1  0.053738  0.433246  0.499999  1
  B  B23  1  0.600151  0.472575  0.499999  1
  B  B24  1  0.399596  0.527795  0.499999  1
  B  B25  1  0.946994  0.565337  0.499999  1
  B  B26  1  0.749346  0.579719  0.499999  1
  B  B27  1  0.369893  0.684158  0.499999  1
  B  B28  1  0.019922  0.711327  0.499999  1
  B  B29  1  0.706684  0.736140  0.499999  1
  B  B30  1  0.207286  0.763951  0.499999  1
  B  B31  1  0.518999  0.788274  0.499999  1
  B  B32  1  0.869835  0.816589  0.499999  1
  B  B33  1  0.249576  0.918822  0.499999  1
  B  B34  1  0.447082  0.933344  0.499999  1
  B  B35  1  0.899377  0.972497  0.499999  1
