# generated using pymatgen
data_CeDy(Al3Rh)3
_symmetry_space_group_name_H-M   'P 1'
_cell_length_a   7.59567488
_cell_length_b   7.58937303
_cell_length_c   9.46033800
_cell_angle_alpha   90.00000000
_cell_angle_beta   90.00000000
_cell_angle_gamma   119.41960622
_symmetry_Int_Tables_number   1
_chemical_formula_structural   CeDy(Al3Rh)3
_chemical_formula_sum   'Ce2 Dy2 Al18 Rh6'
_cell_volume   475.02875444
_cell_formula_units_Z   2
loop_
 _symmetry_equiv_pos_site_id
 _symmetry_equiv_pos_as_xyz
  1  'x, y, z'
loop_
 _atom_site_type_symbol
 _atom_site_label
 _atom_site_symmetry_multiplicity
 _atom_site_fract_x
 _atom_site_fract_y
 _atom_site_fract_z
 _atom_site_occupancy
  Ce  Ce0  1  0.671837  0.996045  0.250000  1
  Ce  Ce1  1  0.328163  0.003955  0.750000  1
  Dy  Dy2  1  0.995051  0.672174  0.250000  1
  Dy  Dy3  1  0.004949  0.327826  0.750000  1
  Al  Al4  1  0.002145  0.337688  0.075336  1
  Al  Al5  1  0.997855  0.662312  0.924664  1
  Al  Al6  1  0.997855  0.662312  0.575336  1
  Al  Al7  1  0.334056  0.000857  0.422450  1
  Al  Al8  1  0.002145  0.337688  0.424664  1
  Al  Al9  1  0.665944  0.999143  0.577550  1
  Al  Al10  1  0.665944  0.999143  0.922450  1
  Al  Al11  1  0.334056  0.000857  0.077550  1
  Al  Al12  1  0.332782  0.334108  0.549672  1
  Al  Al13  1  0.667218  0.665892  0.450328  1
  Al  Al14  1  0.667218  0.665892  0.049672  1
  Al  Al15  1  0.332782  0.334108  0.950328  1
  Al  Al16  1  0.128839  0.129498  0.250000  1
  Al  Al17  1  0.871161  0.870502  0.750000  1
  Al  Al18  1  0.339691  0.549291  0.250000  1
  Al  Al19  1  0.660309  0.450709  0.750000  1
  Al  Al20  1  0.550534  0.343144  0.250000  1
  Al  Al21  1  0.449466  0.656856  0.750000  1
  Rh  Rh22  1  0.671658  0.327843  0.000219  1
  Rh  Rh23  1  0.328342  0.672157  0.999781  1
  Rh  Rh24  1  0.328342  0.672157  0.500219  1
  Rh  Rh25  1  0.671658  0.327843  0.499781  1
  Rh  Rh26  1  0.000000  0.000000  0.000000  1
  Rh  Rh27  1  0.000000  0.000000  0.500000  1
