# generated using pymatgen
data_Eu2ZnSi3
_symmetry_space_group_name_H-M   'P 1'
_cell_length_a   8.19615200
_cell_length_b   8.19615350
_cell_length_c   4.38601700
_cell_angle_alpha   90.00000000
_cell_angle_beta   90.00000000
_cell_angle_gamma   120.00000202
_symmetry_Int_Tables_number   1
_chemical_formula_structural   Eu2ZnSi3
_chemical_formula_sum   'Eu4 Zn2 Si6'
_cell_volume   255.16495135
_cell_formula_units_Z   2
loop_
 _symmetry_equiv_pos_site_id
 _symmetry_equiv_pos_as_xyz
  1  'x, y, z'
loop_
 _atom_site_type_symbol
 _atom_site_label
 _atom_site_symmetry_multiplicity
 _atom_site_fract_x
 _atom_site_fract_y
 _atom_site_fract_z
 _atom_site_occupancy
  Eu  Eu0  1  0.500000  0.500000  0.000000  1
  Eu  Eu1  1  0.000000  0.500000  0.000000  1
  Eu  Eu2  1  0.500000  0.000000  0.000000  1
  Eu  Eu3  1  0.000000  0.000000  0.000000  1
  Zn  Zn4  1  0.333333  0.666667  0.500000  1
  Zn  Zn5  1  0.666667  0.333333  0.500000  1
  Si  Si6  1  0.834447  0.668895  0.500000  1
  Si  Si7  1  0.165553  0.834447  0.500000  1
  Si  Si8  1  0.668895  0.834447  0.500000  1
  Si  Si9  1  0.165553  0.331105  0.500000  1
  Si  Si10  1  0.834447  0.165553  0.500000  1
  Si  Si11  1  0.331105  0.165553  0.500000  1
