# generated using pymatgen
data_Sc7Ti9(TcGe4)4
_symmetry_space_group_name_H-M   'P 1'
_cell_length_a   6.68298901
_cell_length_b   6.88197359
_cell_length_c   13.08990878
_cell_angle_alpha   89.96834621
_cell_angle_beta   90.10271391
_cell_angle_gamma   90.07406243
_symmetry_Int_Tables_number   1
_chemical_formula_structural   Sc7Ti9(TcGe4)4
_chemical_formula_sum   'Sc7 Ti9 Tc4 Ge16'
_cell_volume   602.03153731
_cell_formula_units_Z   1
loop_
 _symmetry_equiv_pos_site_id
 _symmetry_equiv_pos_as_xyz
  1  'x, y, z'
loop_
 _atom_site_type_symbol
 _atom_site_label
 _atom_site_symmetry_multiplicity
 _atom_site_fract_x
 _atom_site_fract_y
 _atom_site_fract_z
 _atom_site_occupancy
  Sc  Sc0  1  0.991934  0.818364  0.906327  1
  Sc  Sc1  1  0.508596  0.320892  0.091598  1
  Sc  Sc2  1  0.005680  0.179087  0.410762  1
  Sc  Sc3  1  0.506900  0.324972  0.410282  1
  Sc  Sc4  1  0.005324  0.176503  0.091617  1
  Sc  Sc5  1  0.495641  0.673750  0.910665  1
  Sc  Sc6  1  0.990588  0.822095  0.592308  1
  Ti  Ti7  1  0.664852  0.159753  0.625230  1
  Ti  Ti8  1  0.172536  0.340022  0.873057  1
  Ti  Ti9  1  0.333787  0.839149  0.127381  1
  Ti  Ti10  1  0.837973  0.662843  0.374792  1
  Ti  Ti11  1  0.334638  0.837058  0.374765  1
  Ti  Ti12  1  0.835007  0.660734  0.124882  1
  Ti  Ti13  1  0.659763  0.159522  0.871991  1
  Ti  Ti14  1  0.166254  0.338897  0.626234  1
  Ti  Ti15  1  0.489824  0.681102  0.586680  1
  Tc  Tc16  1  0.844847  0.488236  0.749160  1
  Tc  Tc17  1  0.340752  0.012182  0.748426  1
  Tc  Tc18  1  0.160429  0.513914  0.251742  1
  Tc  Tc19  1  0.657083  0.990403  0.250584  1
  Ge  Ge20  1  0.679444  0.957760  0.457715  1
  Ge  Ge21  1  0.182683  0.540120  0.043504  1
  Ge  Ge22  1  0.315633  0.038780  0.957354  1
  Ge  Ge23  1  0.810513  0.462901  0.544422  1
  Ge  Ge24  1  0.319685  0.037108  0.543808  1
  Ge  Ge25  1  0.822394  0.454349  0.956528  1
  Ge  Ge26  1  0.679764  0.957156  0.042010  1
  Ge  Ge27  1  0.184299  0.544067  0.460649  1
  Ge  Ge28  1  0.475061  0.388873  0.746447  1
  Ge  Ge29  1  0.969385  0.115949  0.751031  1
  Ge  Ge30  1  0.531508  0.618241  0.250489  1
  Ge  Ge31  1  0.026819  0.885465  0.250169  1
  Ge  Ge32  1  0.690568  0.842400  0.746688  1
  Ge  Ge33  1  0.203637  0.653311  0.748528  1
  Ge  Ge34  1  0.301886  0.153937  0.251332  1
  Ge  Ge35  1  0.804316  0.350103  0.250844  1
