# generated using pymatgen
data_Ac4Pr2Sn7Hg3
_symmetry_space_group_name_H-M   'P 1'
_cell_length_a   6.80262440
_cell_length_b   6.80262430
_cell_length_c   10.83478307
_cell_angle_alpha   90.47110405
_cell_angle_beta   90.47110305
_cell_angle_gamma   102.57504815
_symmetry_Int_Tables_number   1
_chemical_formula_structural   Ac4Pr2Sn7Hg3
_chemical_formula_sum   'Ac4 Pr2 Sn7 Hg3'
_cell_volume   489.31741702
_cell_formula_units_Z   1
loop_
 _symmetry_equiv_pos_site_id
 _symmetry_equiv_pos_as_xyz
  1  'x, y, z'
loop_
 _atom_site_type_symbol
 _atom_site_label
 _atom_site_symmetry_multiplicity
 _atom_site_fract_x
 _atom_site_fract_y
 _atom_site_fract_z
 _atom_site_occupancy
  Ac  Ac0  1  0.203139  0.797999  0.500719  1
  Ac  Ac1  1  0.205950  0.794211  0.999781  1
  Ac  Ac2  1  0.797999  0.203139  0.500719  1
  Ac  Ac3  1  0.794211  0.205950  0.999781  1
  Pr  Pr4  1  0.638223  0.638223  0.251561  1
  Pr  Pr5  1  0.362118  0.362118  0.744142  1
  Sn  Sn6  1  0.025646  0.025646  0.246152  1
  Sn  Sn7  1  0.974628  0.974628  0.752522  1
  Sn  Sn8  1  0.683627  0.683627  0.547580  1
  Sn  Sn9  1  0.486380  0.076880  0.249296  1
  Sn  Sn10  1  0.924052  0.513568  0.751497  1
  Sn  Sn11  1  0.513568  0.924052  0.751497  1
  Sn  Sn12  1  0.076880  0.486380  0.249296  1
  Hg  Hg13  1  0.318309  0.318309  0.043370  1
  Hg  Hg14  1  0.680684  0.680684  0.957702  1
  Hg  Hg15  1  0.314586  0.314586  0.454383  1
