# generated using pymatgen
data_Ho3Tm3Lu2(CdPt)2
_symmetry_space_group_name_H-M   'P 1'
_cell_length_a   9.56895738
_cell_length_b   9.56649977
_cell_length_c   9.56649932
_cell_angle_alpha   60.01699609
_cell_angle_beta   59.99149990
_cell_angle_gamma   59.99150086
_symmetry_Int_Tables_number   1
_chemical_formula_structural   Ho3Tm3Lu2(CdPt)2
_chemical_formula_sum   'Ho6 Tm6 Lu4 Cd4 Pt4'
_cell_volume   619.23524176
_cell_formula_units_Z   2
loop_
 _symmetry_equiv_pos_site_id
 _symmetry_equiv_pos_as_xyz
  1  'x, y, z'
loop_
 _atom_site_type_symbol
 _atom_site_label
 _atom_site_symmetry_multiplicity
 _atom_site_fract_x
 _atom_site_fract_y
 _atom_site_fract_z
 _atom_site_occupancy
  Ho  Ho0  1  0.185662  0.814338  0.814338  1
  Ho  Ho1  1  0.814338  0.185662  0.185662  1
  Ho  Ho2  1  0.814359  0.185641  0.814359  1
  Ho  Ho3  1  0.185641  0.814359  0.185641  1
  Ho  Ho4  1  0.814359  0.814359  0.185641  1
  Ho  Ho5  1  0.185641  0.185641  0.814359  1
  Tm  Tm6  1  0.602005  0.602285  0.602285  1
  Tm  Tm7  1  0.602285  0.602005  0.193424  1
  Tm  Tm8  1  0.602285  0.193424  0.602005  1
  Tm  Tm9  1  0.193424  0.602285  0.602285  1
  Tm  Tm10  1  0.061273  0.438727  0.438727  1
  Tm  Tm11  1  0.438727  0.061273  0.061273  1
  Lu  Lu12  1  0.438824  0.061176  0.438824  1
  Lu  Lu13  1  0.061176  0.438824  0.061176  1
  Lu  Lu14  1  0.438824  0.438824  0.061176  1
  Lu  Lu15  1  0.061176  0.061176  0.438824  1
  Cd  Cd16  1  0.831737  0.831673  0.831673  1
  Cd  Cd17  1  0.831673  0.831737  0.504918  1
  Cd  Cd18  1  0.831673  0.504918  0.831737  1
  Cd  Cd19  1  0.504918  0.831673  0.831673  1
  Pt  Pt20  1  0.393538  0.392385  0.392385  1
  Pt  Pt21  1  0.392385  0.393538  0.821691  1
  Pt  Pt22  1  0.392385  0.821691  0.393538  1
  Pt  Pt23  1  0.821691  0.392385  0.392385  1
