# generated using pymatgen
data_Dy20Bi12S
_symmetry_space_group_name_H-M   'P 1'
_cell_length_a   15.87576500
_cell_length_b   6.41671050
_cell_length_c   9.17106200
_cell_angle_alpha   89.94946100
_cell_angle_beta   90.00000000
_cell_angle_gamma   90.00000000
_symmetry_Int_Tables_number   1
_chemical_formula_structural   Dy20Bi12S
_chemical_formula_sum   'Dy20 Bi12 S1'
_cell_volume   934.25744584
_cell_formula_units_Z   1
loop_
 _symmetry_equiv_pos_site_id
 _symmetry_equiv_pos_as_xyz
  1  'x, y, z'
loop_
 _atom_site_type_symbol
 _atom_site_label
 _atom_site_symmetry_multiplicity
 _atom_site_fract_x
 _atom_site_fract_y
 _atom_site_fract_z
 _atom_site_occupancy
  Dy  Dy0  1  0.666301  0.500000  0.500000  1
  Dy  Dy1  1  0.165166  0.500000  0.000000  1
  Dy  Dy2  1  0.834834  0.500000  0.000000  1
  Dy  Dy3  1  0.333699  0.500000  0.500000  1
  Dy  Dy4  1  0.833414  0.000000  0.000000  1
  Dy  Dy5  1  0.334331  0.000000  0.500000  1
  Dy  Dy6  1  0.665669  0.000000  0.500000  1
  Dy  Dy7  1  0.166586  0.000000  0.000000  1
  Dy  Dy8  1  0.500000  0.249775  0.755241  1
  Dy  Dy9  1  0.000000  0.247305  0.252950  1
  Dy  Dy10  1  0.621859  0.250560  0.120048  1
  Dy  Dy11  1  0.123761  0.247552  0.622588  1
  Dy  Dy12  1  0.876239  0.247552  0.622588  1
  Dy  Dy13  1  0.378141  0.250560  0.120048  1
  Dy  Dy14  1  0.000000  0.752695  0.747050  1
  Dy  Dy15  1  0.500000  0.750225  0.244759  1
  Dy  Dy16  1  0.876239  0.752448  0.377412  1
  Dy  Dy17  1  0.378141  0.749440  0.879952  1
  Dy  Dy18  1  0.621859  0.749440  0.879952  1
  Dy  Dy19  1  0.123761  0.752448  0.377412  1
  Bi  Bi20  1  0.000000  0.248697  0.890032  1
  Bi  Bi21  1  0.500000  0.249521  0.387422  1
  Bi  Bi22  1  0.803074  0.248159  0.303880  1
  Bi  Bi23  1  0.304687  0.251070  0.805237  1
  Bi  Bi24  1  0.695313  0.251070  0.805237  1
  Bi  Bi25  1  0.196926  0.248159  0.303880  1
  Bi  Bi26  1  0.500000  0.750479  0.612578  1
  Bi  Bi27  1  0.000000  0.751303  0.109968  1
  Bi  Bi28  1  0.695313  0.748930  0.194763  1
  Bi  Bi29  1  0.196926  0.751841  0.696120  1
  Bi  Bi30  1  0.803074  0.751841  0.696120  1
  Bi  Bi31  1  0.304687  0.748930  0.194763  1
  S  S32  1  0.000000  0.500000  0.500000  1
