# generated using pymatgen
data_LiDyTa(NiSb)3
_symmetry_space_group_name_H-M   'P 1'
_cell_length_a   7.46182065
_cell_length_b   7.45996278
_cell_length_c   7.50184273
_cell_angle_alpha   119.90220839
_cell_angle_beta   99.71814808
_cell_angle_gamma   99.38527129
_symmetry_Int_Tables_number   1
_chemical_formula_structural   LiDyTa(NiSb)3
_chemical_formula_sum   'Li2 Dy2 Ta2 Ni6 Sb6'
_cell_volume   341.54231029
_cell_formula_units_Z   2
loop_
 _symmetry_equiv_pos_site_id
 _symmetry_equiv_pos_as_xyz
  1  'x, y, z'
loop_
 _atom_site_type_symbol
 _atom_site_label
 _atom_site_symmetry_multiplicity
 _atom_site_fract_x
 _atom_site_fract_y
 _atom_site_fract_z
 _atom_site_occupancy
  Li  Li0  1  0.999009  0.503053  0.998622  1
  Li  Li1  1  0.498516  0.328944  0.166189  1
  Dy  Dy2  1  0.998572  0.159710  0.332312  1
  Dy  Dy3  1  0.498756  0.003110  0.499253  1
  Ta  Ta4  1  0.001715  0.837225  0.668901  1
  Ta  Ta5  1  0.502060  0.669448  0.833471  1
  Ni  Ni6  1  0.116653  0.187588  0.021206  1
  Ni  Ni7  1  0.618454  0.017775  0.184311  1
  Ni  Ni8  1  0.117860  0.869600  0.394621  1
  Ni  Ni9  1  0.638343  0.715757  0.564459  1
  Ni  Ni10  1  0.138258  0.560969  0.708754  1
  Ni  Ni11  1  0.616236  0.392606  0.871545  1
  Sb  Sb12  1  0.248453  0.912216  0.075870  1
  Sb  Sb13  1  0.748018  0.729145  0.246576  1
  Sb  Sb14  1  0.254784  0.571349  0.402956  1
  Sb  Sb15  1  0.756132  0.425348  0.589337  1
  Sb  Sb16  1  0.249617  0.265665  0.769591  1
  Sb  Sb17  1  0.748565  0.100497  0.922031  1
