# generated using pymatgen
data_Y2InNi9
_symmetry_space_group_name_H-M   'P 1'
_cell_length_a   8.54069922
_cell_length_b   8.54069916
_cell_length_c   8.54069924
_cell_angle_alpha   33.48709345
_cell_angle_beta   33.48709003
_cell_angle_gamma   33.48709085
_symmetry_Int_Tables_number   1
_chemical_formula_structural   Y2InNi9
_chemical_formula_sum   'Y2 In1 Ni9'
_cell_volume   168.91039451
_cell_formula_units_Z   1
loop_
 _symmetry_equiv_pos_site_id
 _symmetry_equiv_pos_as_xyz
  1  'x, y, z'
loop_
 _atom_site_type_symbol
 _atom_site_label
 _atom_site_symmetry_multiplicity
 _atom_site_fract_x
 _atom_site_fract_y
 _atom_site_fract_z
 _atom_site_occupancy
  Y  Y0  1  0.142364  0.142364  0.142364  1
  Y  Y1  1  0.996190  0.996190  0.996190  1
  In  In2  1  0.861437  0.861437  0.861437  1
  Ni  Ni3  1  0.417055  0.417055  0.918133  1
  Ni  Ni4  1  0.918133  0.417055  0.417055  1
  Ni  Ni5  1  0.500341  0.500341  0.500341  1
  Ni  Ni6  1  0.583295  0.079828  0.583295  1
  Ni  Ni7  1  0.583295  0.583295  0.079828  1
  Ni  Ni8  1  0.333795  0.333795  0.333795  1
  Ni  Ni9  1  0.417055  0.918133  0.417055  1
  Ni  Ni10  1  0.667213  0.667213  0.667213  1
  Ni  Ni11  1  0.079828  0.583295  0.583295  1
