# generated using pymatgen
data_Li4EuNi9P7
_symmetry_space_group_name_H-M   'P 1'
_cell_length_a   9.11320100
_cell_length_b   9.11320025
_cell_length_c   3.67379300
_cell_angle_alpha   90.00000000
_cell_angle_beta   90.00000000
_cell_angle_gamma   119.99999909
_symmetry_Int_Tables_number   1
_chemical_formula_structural   Li4EuNi9P7
_chemical_formula_sum   'Li4 Eu1 Ni9 P7'
_cell_volume   264.23307606
_cell_formula_units_Z   1
loop_
 _symmetry_equiv_pos_site_id
 _symmetry_equiv_pos_as_xyz
  1  'x, y, z'
loop_
 _atom_site_type_symbol
 _atom_site_label
 _atom_site_symmetry_multiplicity
 _atom_site_fract_x
 _atom_site_fract_y
 _atom_site_fract_z
 _atom_site_occupancy
  Li  Li0  1  0.888947  0.784715  0.500000  1
  Li  Li1  1  0.895768  0.111053  0.500000  1
  Li  Li2  1  0.215285  0.104232  0.500000  1
  Li  Li3  1  0.666667  0.333333  0.500000  1
  Eu  Eu4  1  0.333333  0.666667  0.000000  1
  Ni  Ni5  1  0.718143  0.884025  0.000000  1
  Ni  Ni6  1  0.165882  0.281857  0.000000  1
  Ni  Ni7  1  0.115975  0.834118  0.000000  1
  Ni  Ni8  1  0.628978  0.570327  0.000000  1
  Ni  Ni9  1  0.941349  0.371022  0.000000  1
  Ni  Ni10  1  0.429673  0.058651  0.000000  1
  Ni  Ni11  1  0.565947  0.959797  0.500000  1
  Ni  Ni12  1  0.393850  0.434053  0.500000  1
  Ni  Ni13  1  0.040203  0.606150  0.500000  1
  P  P14  1  0.594703  0.714518  0.500000  1
  P  P15  1  0.119815  0.405297  0.500000  1
  P  P16  1  0.285482  0.880185  0.500000  1
  P  P17  1  0.000000  0.000000  0.000000  1
  P  P18  1  0.880530  0.577815  0.000000  1
  P  P19  1  0.697286  0.119470  0.000000  1
  P  P20  1  0.422185  0.302714  0.000000  1
