# generated using pymatgen
data_Lu4Sc4Re(TcB8)3
_symmetry_space_group_name_H-M   'P 1'
_cell_length_a   3.55316400
_cell_length_b   8.96833213
_cell_length_c   11.30346419
_cell_angle_alpha   90.02914571
_cell_angle_beta   90.00000000
_cell_angle_gamma   90.00000000
_symmetry_Int_Tables_number   1
_chemical_formula_structural   Lu4Sc4Re(TcB8)3
_chemical_formula_sum   'Lu4 Sc4 Re1 Tc3 B24'
_cell_volume   360.19563311
_cell_formula_units_Z   1
loop_
 _symmetry_equiv_pos_site_id
 _symmetry_equiv_pos_as_xyz
  1  'x, y, z'
loop_
 _atom_site_type_symbol
 _atom_site_label
 _atom_site_symmetry_multiplicity
 _atom_site_fract_x
 _atom_site_fract_y
 _atom_site_fract_z
 _atom_site_occupancy
  Lu  Lu0  1  0.000000  0.321890  0.413877  1
  Lu  Lu1  1  0.000000  0.678135  0.585888  1
  Lu  Lu2  1  0.000000  0.821663  0.086510  1
  Lu  Lu3  1  0.000000  0.178843  0.914021  1
  Sc  Sc4  1  0.000000  0.943918  0.370174  1
  Sc  Sc5  1  0.000000  0.056492  0.629125  1
  Sc  Sc6  1  0.000000  0.443581  0.129847  1
  Sc  Sc7  1  0.000000  0.555499  0.870523  1
  Re  Re8  1  0.000000  0.859735  0.818868  1
  Tc  Tc9  1  0.000000  0.640347  0.319068  1
  Tc  Tc10  1  0.000000  0.359596  0.680868  1
  Tc  Tc11  1  0.000000  0.140457  0.181318  1
  B  B12  1  0.500000  0.553810  0.433643  1
  B  B13  1  0.500000  0.446372  0.566315  1
  B  B14  1  0.500000  0.053848  0.066534  1
  B  B15  1  0.500000  0.946569  0.933906  1
  B  B16  1  0.500000  0.753753  0.419614  1
  B  B17  1  0.500000  0.246428  0.580202  1
  B  B18  1  0.500000  0.253640  0.080441  1
  B  B19  1  0.500000  0.745838  0.919921  1
  B  B20  1  0.500000  0.795177  0.264362  1
  B  B21  1  0.500000  0.204961  0.735463  1
  B  B22  1  0.500000  0.295046  0.235682  1
  B  B23  1  0.500000  0.704465  0.764363  1
  B  B24  1  0.500000  0.629282  0.182931  1
  B  B25  1  0.500000  0.370540  0.817141  1
  B  B26  1  0.500000  0.129386  0.317075  1
  B  B27  1  0.500000  0.870739  0.682626  1
  B  B28  1  0.500000  0.980383  0.212798  1
  B  B29  1  0.500000  0.020024  0.787036  1
  B  B30  1  0.500000  0.480479  0.287182  1
  B  B31  1  0.500000  0.519351  0.712858  1
  B  B32  1  0.500000  0.596479  0.026793  1
  B  B33  1  0.500000  0.403061  0.973472  1
  B  B34  1  0.500000  0.096644  0.473124  1
  B  B35  1  0.500000  0.903569  0.526434  1
