# generated using pymatgen
data_Er6Lu2Sc12Ga7Si9
_symmetry_space_group_name_H-M   'P 1'
_cell_length_a   7.13002285
_cell_length_b   7.37725127
_cell_length_c   14.20462088
_cell_angle_alpha   89.92856894
_cell_angle_beta   89.90458736
_cell_angle_gamma   89.90741032
_symmetry_Int_Tables_number   1
_chemical_formula_structural   Er6Lu2Sc12Ga7Si9
_chemical_formula_sum   'Er6 Lu2 Sc12 Ga7 Si9'
_cell_volume   747.16004414
_cell_formula_units_Z   1
loop_
 _symmetry_equiv_pos_site_id
 _symmetry_equiv_pos_as_xyz
  1  'x, y, z'
loop_
 _atom_site_type_symbol
 _atom_site_label
 _atom_site_symmetry_multiplicity
 _atom_site_fract_x
 _atom_site_fract_y
 _atom_site_fract_z
 _atom_site_occupancy
  Er  Er0  1  0.488360  0.677511  0.902107  1
  Er  Er1  1  0.990668  0.823703  0.599915  1
  Er  Er2  1  0.510094  0.322045  0.098911  1
  Er  Er3  1  0.008761  0.175883  0.399809  1
  Er  Er4  1  0.509749  0.322852  0.398928  1
  Er  Er5  1  0.490173  0.676776  0.600207  1
  Lu  Lu6  1  0.011318  0.174334  0.098503  1
  Lu  Lu7  1  0.990802  0.822023  0.901569  1
  Sc  Sc8  1  0.165478  0.501835  0.750577  1
  Sc  Sc9  1  0.835636  0.498848  0.249048  1
  Sc  Sc10  1  0.333270  0.001794  0.248322  1
  Sc  Sc11  1  0.665843  0.998540  0.750397  1
  Sc  Sc12  1  0.331716  0.172937  0.626115  1
  Sc  Sc13  1  0.667307  0.827499  0.373226  1
  Sc  Sc14  1  0.168221  0.672880  0.372844  1
  Sc  Sc15  1  0.666882  0.826106  0.125839  1
  Sc  Sc16  1  0.831369  0.327309  0.626769  1
  Sc  Sc17  1  0.330938  0.173404  0.875917  1
  Sc  Sc18  1  0.830663  0.327142  0.874900  1
  Sc  Sc19  1  0.170716  0.675687  0.124603  1
  Ga  Ga20  1  0.162185  0.462631  0.539144  1
  Ga  Ga21  1  0.837434  0.537493  0.460280  1
  Ga  Ga22  1  0.337233  0.961984  0.460656  1
  Ga  Ga23  1  0.838301  0.537796  0.040334  1
  Ga  Ga24  1  0.662477  0.038172  0.538924  1
  Ga  Ga25  1  0.161228  0.462548  0.961206  1
  Ga  Ga26  1  0.663300  0.037151  0.961240  1
  Si  Si27  1  0.033334  0.111968  0.751814  1
  Si  Si28  1  0.966168  0.886953  0.248667  1
  Si  Si29  1  0.466301  0.611998  0.248925  1
  Si  Si30  1  0.533263  0.387187  0.750907  1
  Si  Si31  1  0.285317  0.872178  0.751673  1
  Si  Si32  1  0.715192  0.128102  0.248163  1
  Si  Si33  1  0.212729  0.370591  0.248334  1
  Si  Si34  1  0.786436  0.629209  0.751520  1
  Si  Si35  1  0.341137  0.964926  0.039703  1
