# generated using pymatgen
data_NaCo4As3Ru
_symmetry_space_group_name_H-M   'P 1'
_cell_length_a   3.74485300
_cell_length_b   10.70924500
_cell_length_c   12.28183800
_cell_angle_alpha   90.00000000
_cell_angle_beta   90.00000000
_cell_angle_gamma   90.00000000
_symmetry_Int_Tables_number   1
_chemical_formula_structural   NaCo4As3Ru
_chemical_formula_sum   'Na4 Co16 As12 Ru4'
_cell_volume   492.55756487
_cell_formula_units_Z   4
loop_
 _symmetry_equiv_pos_site_id
 _symmetry_equiv_pos_as_xyz
  1  'x, y, z'
loop_
 _atom_site_type_symbol
 _atom_site_label
 _atom_site_symmetry_multiplicity
 _atom_site_fract_x
 _atom_site_fract_y
 _atom_site_fract_z
 _atom_site_occupancy
  Na  Na0  1  0.250000  0.916870  0.204630  1
  Na  Na1  1  0.750000  0.083130  0.795370  1
  Na  Na2  1  0.750000  0.416870  0.295370  1
  Na  Na3  1  0.250000  0.583130  0.704630  1
  Co  Co4  1  0.250000  0.093013  0.990598  1
  Co  Co5  1  0.750000  0.906987  0.009402  1
  Co  Co6  1  0.750000  0.593013  0.509402  1
  Co  Co7  1  0.250000  0.406987  0.490598  1
  Co  Co8  1  0.250000  0.285283  0.675461  1
  Co  Co9  1  0.750000  0.714717  0.324539  1
  Co  Co10  1  0.750000  0.785283  0.824539  1
  Co  Co11  1  0.250000  0.214717  0.175461  1
  Co  Co12  1  0.250000  0.616421  0.198324  1
  Co  Co13  1  0.750000  0.383579  0.801676  1
  Co  Co14  1  0.750000  0.116421  0.301676  1
  Co  Co15  1  0.250000  0.883579  0.698324  1
  Co  Co16  1  0.250000  0.036237  0.435191  1
  Co  Co17  1  0.750000  0.963763  0.564809  1
  Co  Co18  1  0.750000  0.536237  0.064809  1
  Co  Co19  1  0.250000  0.463763  0.935191  1
  As  As20  1  0.250000  0.082149  0.618541  1
  As  As21  1  0.750000  0.917851  0.381459  1
  As  As22  1  0.750000  0.582149  0.881459  1
  As  As23  1  0.250000  0.417851  0.118541  1
  As  As24  1  0.250000  0.235605  0.365441  1
  As  As25  1  0.750000  0.764395  0.634559  1
  As  As26  1  0.750000  0.735605  0.134559  1
  As  As27  1  0.250000  0.264395  0.865441  1
  As  As28  1  0.250000  0.907565  0.887804  1
  As  As29  1  0.750000  0.092435  0.112196  1
  As  As30  1  0.750000  0.407565  0.612196  1
  As  As31  1  0.250000  0.592435  0.387804  1
  Ru  Ru32  1  0.250000  0.790646  0.487399  1
  Ru  Ru33  1  0.750000  0.209354  0.512601  1
  Ru  Ru34  1  0.750000  0.290646  0.012601  1
  Ru  Ru35  1  0.250000  0.709354  0.987399  1
