# generated using pymatgen
data_Y15Tm3(ZrIr6)2
_symmetry_space_group_name_H-M   'P 1'
_cell_length_a   10.90083110
_cell_length_b   10.89471503
_cell_length_c   6.30468057
_cell_angle_alpha   90.04784739
_cell_angle_beta   89.99304185
_cell_angle_gamma   89.98569559
_symmetry_Int_Tables_number   1
_chemical_formula_structural   Y15Tm3(ZrIr6)2
_chemical_formula_sum   'Y15 Tm3 Zr2 Ir12'
_cell_volume   748.75270602
_cell_formula_units_Z   1
loop_
 _symmetry_equiv_pos_site_id
 _symmetry_equiv_pos_as_xyz
  1  'x, y, z'
loop_
 _atom_site_type_symbol
 _atom_site_label
 _atom_site_symmetry_multiplicity
 _atom_site_fract_x
 _atom_site_fract_y
 _atom_site_fract_z
 _atom_site_occupancy
  Y  Y0  1  0.287955  0.087200  0.374320  1
  Y  Y1  1  0.288388  0.913248  0.874551  1
  Y  Y2  1  0.711602  0.086764  0.874738  1
  Y  Y3  1  0.711604  0.913252  0.374660  1
  Y  Y4  1  0.587759  0.791211  0.875063  1
  Y  Y5  1  0.587757  0.208744  0.375063  1
  Y  Y6  1  0.412211  0.791249  0.375122  1
  Y  Y7  1  0.412113  0.208788  0.875222  1
  Y  Y8  1  0.208589  0.411883  0.624939  1
  Y  Y9  1  0.208657  0.587261  0.124894  1
  Y  Y10  1  0.791679  0.412001  0.124848  1
  Y  Y11  1  0.791388  0.587739  0.624840  1
  Y  Y12  1  0.913264  0.711587  0.125329  1
  Y  Y13  1  0.913599  0.288377  0.625345  1
  Y  Y14  1  0.086664  0.711531  0.625328  1
  Tm  Tm15  1  0.086253  0.289570  0.124236  1
  Tm  Tm16  1  0.500002  0.499946  0.000102  1
  Tm  Tm17  1  0.499942  0.499934  0.499962  1
  Zr  Zr18  1  0.000169  0.000021  0.500144  1
  Zr  Zr19  1  0.000247  0.000673  0.000361  1
  Ir  Ir20  1  0.857015  0.144505  0.249527  1
  Ir  Ir21  1  0.856094  0.856171  0.749898  1
  Ir  Ir22  1  0.143521  0.144744  0.752104  1
  Ir  Ir23  1  0.143907  0.856103  0.250040  1
  Ir  Ir24  1  0.652695  0.347319  0.749956  1
  Ir  Ir25  1  0.652659  0.652677  0.250035  1
  Ir  Ir26  1  0.346019  0.347061  0.249264  1
  Ir  Ir27  1  0.347279  0.652686  0.750011  1
  Ir  Ir28  1  0.499959  0.000038  0.123390  1
  Ir  Ir29  1  0.500002  0.000030  0.623447  1
  Ir  Ir30  1  0.000510  0.498808  0.877846  1
  Ir  Ir31  1  0.000498  0.498877  0.375413  1
