# generated using pymatgen
data_Li6Ti5MnPt12
_symmetry_space_group_name_H-M   'P 1'
_cell_length_a   4.14709900
_cell_length_b   6.69222100
_cell_length_c   12.43685200
_cell_angle_alpha   90.00000000
_cell_angle_beta   90.00001841
_cell_angle_gamma   90.00000000
_symmetry_Int_Tables_number   1
_chemical_formula_structural   Li6Ti5MnPt12
_chemical_formula_sum   'Li6 Ti5 Mn1 Pt12'
_cell_volume   345.16372213
_cell_formula_units_Z   1
loop_
 _symmetry_equiv_pos_site_id
 _symmetry_equiv_pos_as_xyz
  1  'x, y, z'
loop_
 _atom_site_type_symbol
 _atom_site_label
 _atom_site_symmetry_multiplicity
 _atom_site_fract_x
 _atom_site_fract_y
 _atom_site_fract_z
 _atom_site_occupancy
  Li  Li0  1  0.000000  0.500001  0.999950  1
  Li  Li1  1  0.499993  0.000000  0.161681  1
  Li  Li2  1  0.000000  0.500001  0.332064  1
  Li  Li3  1  0.499998  0.000000  0.500158  1
  Li  Li4  1  0.000001  0.500001  0.667971  1
  Li  Li5  1  0.500007  0.000000  0.838188  1
  Ti  Ti6  1  0.499994  0.500001  0.166057  1
  Ti  Ti7  1  0.999997  0.000000  0.331432  1
  Ti  Ti8  1  0.500000  0.500001  0.500014  1
  Ti  Ti9  1  0.000001  0.000000  0.668592  1
  Ti  Ti10  1  0.500003  0.500001  0.833961  1
  Mn  Mn11  1  0.000011  0.000000  0.999942  1
  Pt  Pt12  1  0.500001  0.254819  0.999974  1
  Pt  Pt13  1  0.500001  0.745181  0.999974  1
  Pt  Pt14  1  0.999996  0.251520  0.166926  1
  Pt  Pt15  1  0.999996  0.748480  0.166926  1
  Pt  Pt16  1  0.499997  0.248701  0.333210  1
  Pt  Pt17  1  0.499997  0.751299  0.333210  1
  Pt  Pt18  1  0.000001  0.250661  0.500075  1
  Pt  Pt19  1  0.000001  0.749339  0.500075  1
  Pt  Pt20  1  0.500002  0.248443  0.666808  1
  Pt  Pt21  1  0.500002  0.751557  0.666808  1
  Pt  Pt22  1  0.000002  0.251522  0.833003  1
  Pt  Pt23  1  0.000002  0.748478  0.833003  1
