# generated using pymatgen
data_TbZr3Sc4(Ni4P3)4
_symmetry_space_group_name_H-M   'P 1'
_cell_length_a   12.25110200
_cell_length_b   12.25110252
_cell_length_c   3.72481500
_cell_angle_alpha   90.00000000
_cell_angle_beta   90.00000000
_cell_angle_gamma   120.00000940
_symmetry_Int_Tables_number   1
_chemical_formula_structural   TbZr3Sc4(Ni4P3)4
_chemical_formula_sum   'Tb1 Zr3 Sc4 Ni16 P12'
_cell_volume   484.15634517
_cell_formula_units_Z   1
loop_
 _symmetry_equiv_pos_site_id
 _symmetry_equiv_pos_as_xyz
  1  'x, y, z'
loop_
 _atom_site_type_symbol
 _atom_site_label
 _atom_site_symmetry_multiplicity
 _atom_site_fract_x
 _atom_site_fract_y
 _atom_site_fract_z
 _atom_site_occupancy
  Tb  Tb0  1  0.666667  0.333333  0.000000  1
  Zr  Zr1  1  0.556690  0.558996  0.000000  1
  Zr  Zr2  1  0.441004  0.997694  0.000000  1
  Zr  Zr3  1  0.002306  0.443310  0.000000  1
  Sc  Sc4  1  0.181833  0.180726  0.500000  1
  Sc  Sc5  1  0.819274  0.001107  0.500000  1
  Sc  Sc6  1  0.998893  0.818167  0.500000  1
  Sc  Sc7  1  0.333333  0.666667  0.000000  1
  Ni  Ni8  1  0.726786  0.730750  0.500000  1
  Ni  Ni9  1  0.269250  0.996036  0.500000  1
  Ni  Ni10  1  0.003964  0.273214  0.500000  1
  Ni  Ni11  1  0.184179  0.373527  0.000000  1
  Ni  Ni12  1  0.626473  0.810652  0.000000  1
  Ni  Ni13  1  0.189348  0.815821  0.000000  1
  Ni  Ni14  1  0.810207  0.630574  0.000000  1
  Ni  Ni15  1  0.820367  0.189793  0.000000  1
  Ni  Ni16  1  0.369426  0.179633  0.000000  1
  Ni  Ni17  1  0.357271  0.484708  0.500000  1
  Ni  Ni18  1  0.515292  0.872564  0.500000  1
  Ni  Ni19  1  0.127436  0.642729  0.500000  1
  Ni  Ni20  1  0.877329  0.520407  0.500000  1
  Ni  Ni21  1  0.643079  0.122671  0.500000  1
  Ni  Ni22  1  0.479593  0.356921  0.500000  1
  Ni  Ni23  1  0.000000  0.000000  0.000000  1
  P  P24  1  0.824741  0.826689  0.000000  1
  P  P25  1  0.173311  0.998052  0.000000  1
  P  P26  1  0.001948  0.175259  0.000000  1
  P  P27  1  0.174095  0.481634  0.500000  1
  P  P28  1  0.518366  0.692461  0.500000  1
  P  P29  1  0.307539  0.825905  0.500000  1
  P  P30  1  0.693131  0.524973  0.500000  1
  P  P31  1  0.831843  0.306869  0.500000  1
  P  P32  1  0.475027  0.168157  0.500000  1
  P  P33  1  0.350280  0.349111  0.000000  1
  P  P34  1  0.650889  0.001169  0.000000  1
  P  P35  1  0.998831  0.649720  0.000000  1
