# generated using pymatgen
data_La2Th(SnRh)3
_symmetry_space_group_name_H-M   'P 1'
_cell_length_a   7.60531942
_cell_length_b   7.66506078
_cell_length_c   4.16534900
_cell_angle_alpha   90.00000000
_cell_angle_beta   90.00000000
_cell_angle_gamma   120.26020322
_symmetry_Int_Tables_number   1
_chemical_formula_structural   La2Th(SnRh)3
_chemical_formula_sum   'La2 Th1 Sn3 Rh3'
_cell_volume   209.73475134
_cell_formula_units_Z   1
loop_
 _symmetry_equiv_pos_site_id
 _symmetry_equiv_pos_as_xyz
  1  'x, y, z'
loop_
 _atom_site_type_symbol
 _atom_site_label
 _atom_site_symmetry_multiplicity
 _atom_site_fract_x
 _atom_site_fract_y
 _atom_site_fract_z
 _atom_site_occupancy
  La  La0  1  0.413394  0.413510  0.500000  1
  La  La1  1  0.586606  0.000116  0.500000  1
  Th  Th2  1  0.000000  0.585256  0.500000  1
  Sn  Sn3  1  0.747864  0.751377  0.000000  1
  Sn  Sn4  1  0.252136  0.003514  0.000000  1
  Sn  Sn5  1  0.000000  0.244045  0.000000  1
  Rh  Rh6  1  0.686614  0.350018  0.000000  1
  Rh  Rh7  1  0.313386  0.663405  0.000000  1
  Rh  Rh8  1  0.000000  0.988759  0.500000  1
