# generated using pymatgen
data_NaSm6RuCl12
_symmetry_space_group_name_H-M   'P 1'
_cell_length_a   9.06904223
_cell_length_b   9.06856758
_cell_length_c   9.06634523
_cell_angle_alpha   107.13399726
_cell_angle_beta   107.21812029
_cell_angle_gamma   107.19243046
_symmetry_Int_Tables_number   1
_chemical_formula_structural   NaSm6RuCl12
_chemical_formula_sum   'Na1 Sm6 Ru1 Cl12'
_cell_volume   617.87978977
_cell_formula_units_Z   1
loop_
 _symmetry_equiv_pos_site_id
 _symmetry_equiv_pos_as_xyz
  1  'x, y, z'
loop_
 _atom_site_type_symbol
 _atom_site_label
 _atom_site_symmetry_multiplicity
 _atom_site_fract_x
 _atom_site_fract_y
 _atom_site_fract_z
 _atom_site_occupancy
  Na  Na0  1  0.500000  0.500000  0.500000  1
  Sm  Sm1  1  0.118074  0.327787  0.031994  1
  Sm  Sm2  1  0.327705  0.031734  0.118099  1
  Sm  Sm3  1  0.031773  0.117875  0.327913  1
  Sm  Sm4  1  0.968228  0.882125  0.672088  1
  Sm  Sm5  1  0.672295  0.968267  0.881901  1
  Sm  Sm6  1  0.881926  0.672213  0.968006  1
  Ru  Ru7  1  0.000000  0.000000  0.000000  1
  Cl  Cl8  1  0.214051  0.685325  0.071969  1
  Cl  Cl9  1  0.452500  0.369071  0.156799  1
  Cl  Cl10  1  0.685667  0.072784  0.213898  1
  Cl  Cl11  1  0.927593  0.785722  0.314424  1
  Cl  Cl12  1  0.156587  0.452217  0.369010  1
  Cl  Cl13  1  0.369140  0.156523  0.452459  1
  Cl  Cl14  1  0.630860  0.843477  0.547542  1
  Cl  Cl15  1  0.843414  0.547783  0.630990  1
  Cl  Cl16  1  0.072408  0.214278  0.685577  1
  Cl  Cl17  1  0.314334  0.927217  0.786102  1
  Cl  Cl18  1  0.547500  0.630929  0.843202  1
  Cl  Cl19  1  0.785949  0.314675  0.928031  1
