# generated using pymatgen
data_Er2UCo8P6W
_symmetry_space_group_name_H-M   'P 1'
_cell_length_a   3.70957400
_cell_length_b   10.58878200
_cell_length_c   12.11353500
_cell_angle_alpha   90.00000000
_cell_angle_beta   90.00000000
_cell_angle_gamma   90.00000000
_symmetry_Int_Tables_number   1
_chemical_formula_structural   Er2UCo8P6W
_chemical_formula_sum   'Er4 U2 Co16 P12 W2'
_cell_volume   475.81808487
_cell_formula_units_Z   2
loop_
 _symmetry_equiv_pos_site_id
 _symmetry_equiv_pos_as_xyz
  1  'x, y, z'
loop_
 _atom_site_type_symbol
 _atom_site_label
 _atom_site_symmetry_multiplicity
 _atom_site_fract_x
 _atom_site_fract_y
 _atom_site_fract_z
 _atom_site_occupancy
  Er  Er0  1  0.250000  0.932249  0.795232  1
  Er  Er1  1  0.250000  0.567751  0.795232  1
  Er  Er2  1  0.750000  0.067751  0.204768  1
  Er  Er3  1  0.750000  0.432249  0.204768  1
  U  U4  1  0.750000  0.250000  0.467001  1
  U  U5  1  0.250000  0.750000  0.532999  1
  Co  Co6  1  0.250000  0.250000  0.307253  1
  Co  Co7  1  0.750000  0.750000  0.692747  1
  Co  Co8  1  0.750000  0.250000  0.013768  1
  Co  Co9  1  0.250000  0.750000  0.986232  1
  Co  Co10  1  0.250000  0.416559  0.010742  1
  Co  Co11  1  0.250000  0.083441  0.010742  1
  Co  Co12  1  0.750000  0.583441  0.989258  1
  Co  Co13  1  0.750000  0.916559  0.989258  1
  Co  Co14  1  0.250000  0.451580  0.566842  1
  Co  Co15  1  0.250000  0.048420  0.566842  1
  Co  Co16  1  0.750000  0.548420  0.433158  1
  Co  Co17  1  0.750000  0.951580  0.433158  1
  Co  Co18  1  0.250000  0.870604  0.292948  1
  Co  Co19  1  0.250000  0.629396  0.292948  1
  Co  Co20  1  0.750000  0.129396  0.707052  1
  Co  Co21  1  0.750000  0.370604  0.707052  1
  P  P22  1  0.250000  0.250000  0.123433  1
  P  P23  1  0.750000  0.750000  0.876567  1
  P  P24  1  0.250000  0.250000  0.646343  1
  P  P25  1  0.750000  0.750000  0.353657  1
  P  P26  1  0.250000  0.442553  0.383338  1
  P  P27  1  0.250000  0.057447  0.383338  1
  P  P28  1  0.750000  0.557447  0.616662  1
  P  P29  1  0.750000  0.942553  0.616662  1
  P  P30  1  0.250000  0.906059  0.106741  1
  P  P31  1  0.250000  0.593941  0.106741  1
  P  P32  1  0.750000  0.093941  0.893259  1
  P  P33  1  0.750000  0.406059  0.893259  1
  W  W34  1  0.250000  0.250000  0.843662  1
  W  W35  1  0.750000  0.750000  0.156338  1
