# generated using pymatgen
data_Dy4Er5Tm3Co4
_symmetry_space_group_name_H-M   'P 1'
_cell_length_a   6.15741911
_cell_length_b   6.92236416
_cell_length_c   9.34673400
_cell_angle_alpha   90.00597593
_cell_angle_beta   90.03441979
_cell_angle_gamma   89.98928609
_symmetry_Int_Tables_number   1
_chemical_formula_structural   Dy4Er5Tm3Co4
_chemical_formula_sum   'Dy4 Er5 Tm3 Co4'
_cell_volume   398.39414969
_cell_formula_units_Z   1
loop_
 _symmetry_equiv_pos_site_id
 _symmetry_equiv_pos_as_xyz
  1  'x, y, z'
loop_
 _atom_site_type_symbol
 _atom_site_label
 _atom_site_symmetry_multiplicity
 _atom_site_fract_x
 _atom_site_fract_y
 _atom_site_fract_z
 _atom_site_occupancy
  Dy  Dy0  1  0.860844  0.541458  0.250069  1
  Dy  Dy1  1  0.638972  0.041402  0.249978  1
  Dy  Dy2  1  0.138967  0.458683  0.749937  1
  Dy  Dy3  1  0.361050  0.958503  0.749951  1
  Er  Er4  1  0.823966  0.824596  0.932811  1
  Er  Er5  1  0.675566  0.324983  0.932784  1
  Er  Er6  1  0.824380  0.824969  0.567533  1
  Er  Er7  1  0.324280  0.674951  0.432501  1
  Er  Er8  1  0.175691  0.175252  0.067125  1
  Tm  Tm9  1  0.323802  0.675363  0.067413  1
  Tm  Tm10  1  0.176146  0.175196  0.432222  1
  Tm  Tm11  1  0.676006  0.324650  0.567574  1
  Co  Co12  1  0.050056  0.886353  0.249871  1
  Co  Co13  1  0.449825  0.386300  0.249523  1
  Co  Co14  1  0.950158  0.113767  0.750958  1
  Co  Co15  1  0.550290  0.613572  0.749752  1
