# generated using pymatgen
data_Pr6EuSiI12
_symmetry_space_group_name_H-M   'P 1'
_cell_length_a   10.13939173
_cell_length_b   10.13939145
_cell_length_c   10.13939135
_cell_angle_alpha   107.02062780
_cell_angle_beta   107.02062290
_cell_angle_gamma   107.02062667
_symmetry_Int_Tables_number   1
_chemical_formula_structural   Pr6EuSiI12
_chemical_formula_sum   'Pr6 Eu1 Si1 I12'
_cell_volume   867.63433632
_cell_formula_units_Z   1
loop_
 _symmetry_equiv_pos_site_id
 _symmetry_equiv_pos_as_xyz
  1  'x, y, z'
loop_
 _atom_site_type_symbol
 _atom_site_label
 _atom_site_symmetry_multiplicity
 _atom_site_fract_x
 _atom_site_fract_y
 _atom_site_fract_z
 _atom_site_occupancy
  Pr  Pr0  1  0.807601  0.525595  0.599735  1
  Pr  Pr1  1  0.525595  0.599735  0.807601  1
  Pr  Pr2  1  0.192399  0.474405  0.400265  1
  Pr  Pr3  1  0.474405  0.400265  0.192399  1
  Pr  Pr4  1  0.599735  0.807601  0.525595  1
  Pr  Pr5  1  0.400265  0.192399  0.474405  1
  Eu  Eu6  1  0.000000  0.000000  0.000000  1
  Si  Si7  1  0.500000  0.500000  0.500000  1
  I  I8  1  0.725888  0.182871  0.574425  1
  I  I9  1  0.955817  0.876433  0.649455  1
  I  I10  1  0.574425  0.725888  0.182871  1
  I  I11  1  0.123567  0.350545  0.044183  1
  I  I12  1  0.649455  0.955817  0.876433  1
  I  I13  1  0.876433  0.649455  0.955817  1
  I  I14  1  0.044183  0.123567  0.350545  1
  I  I15  1  0.817129  0.425575  0.274112  1
  I  I16  1  0.350545  0.044183  0.123567  1
  I  I17  1  0.274112  0.817129  0.425575  1
  I  I18  1  0.182871  0.574425  0.725888  1
  I  I19  1  0.425575  0.274112  0.817129  1
