# generated using pymatgen
data_TbU3(ReB6)2
_symmetry_space_group_name_H-M   'P 1'
_cell_length_a   3.64268300
_cell_length_b   9.30786101
_cell_length_c   11.40856701
_cell_angle_alpha   90.00509678
_cell_angle_beta   90.00000000
_cell_angle_gamma   90.00000000
_symmetry_Int_Tables_number   1
_chemical_formula_structural   TbU3(ReB6)2
_chemical_formula_sum   'Tb2 U6 Re4 B24'
_cell_volume   386.81416055
_cell_formula_units_Z   2
loop_
 _symmetry_equiv_pos_site_id
 _symmetry_equiv_pos_as_xyz
  1  'x, y, z'
loop_
 _atom_site_type_symbol
 _atom_site_label
 _atom_site_symmetry_multiplicity
 _atom_site_fract_x
 _atom_site_fract_y
 _atom_site_fract_z
 _atom_site_occupancy
  Tb  Tb0  1  0.000000  0.336491  0.407857  1
  Tb  Tb1  1  0.000000  0.663509  0.592143  1
  U  U2  1  0.000000  0.836435  0.092747  1
  U  U3  1  0.000000  0.163565  0.907253  1
  U  U4  1  0.000000  0.956500  0.396299  1
  U  U5  1  0.000000  0.043500  0.603701  1
  U  U6  1  0.000000  0.457227  0.103445  1
  U  U7  1  0.000000  0.542773  0.896555  1
  Re  Re8  1  0.000000  0.647766  0.316419  1
  Re  Re9  1  0.000000  0.352234  0.683581  1
  Re  Re10  1  0.000000  0.143521  0.177801  1
  Re  Re11  1  0.000000  0.856479  0.822199  1
  B  B12  1  0.500000  0.552380  0.430520  1
  B  B13  1  0.500000  0.447620  0.569480  1
  B  B14  1  0.500000  0.049889  0.067455  1
  B  B15  1  0.500000  0.950111  0.932545  1
  B  B16  1  0.500000  0.743134  0.422991  1
  B  B17  1  0.500000  0.256866  0.577009  1
  B  B18  1  0.500000  0.243074  0.076251  1
  B  B19  1  0.500000  0.756926  0.923749  1
  B  B20  1  0.500000  0.803993  0.273394  1
  B  B21  1  0.500000  0.196007  0.726606  1
  B  B22  1  0.500000  0.302324  0.224989  1
  B  B23  1  0.500000  0.697676  0.775011  1
  B  B24  1  0.500000  0.645361  0.187767  1
  B  B25  1  0.500000  0.354639  0.812233  1
  B  B26  1  0.500000  0.144371  0.311340  1
  B  B27  1  0.500000  0.855629  0.688660  1
  B  B28  1  0.500000  0.987175  0.218942  1
  B  B29  1  0.500000  0.012825  0.781058  1
  B  B30  1  0.500000  0.488771  0.280520  1
  B  B31  1  0.500000  0.511229  0.719480  1
  B  B32  1  0.500000  0.643401  0.039375  1
  B  B33  1  0.500000  0.356599  0.960625  1
  B  B34  1  0.500000  0.139813  0.461043  1
  B  B35  1  0.500000  0.860187  0.538957  1
