# generated using pymatgen
data_CaTb(CuO2)4
_symmetry_space_group_name_H-M   'P 1'
_cell_length_a   6.28296593
_cell_length_b   6.28296582
_cell_length_c   6.28296502
_cell_angle_alpha   125.70623428
_cell_angle_beta   125.70624258
_cell_angle_gamma   80.37149458
_symmetry_Int_Tables_number   1
_chemical_formula_structural   CaTb(CuO2)4
_chemical_formula_sum   'Ca1 Tb1 Cu4 O8'
_cell_volume   157.78747499
_cell_formula_units_Z   1
loop_
 _symmetry_equiv_pos_site_id
 _symmetry_equiv_pos_as_xyz
  1  'x, y, z'
loop_
 _atom_site_type_symbol
 _atom_site_label
 _atom_site_symmetry_multiplicity
 _atom_site_fract_x
 _atom_site_fract_y
 _atom_site_fract_z
 _atom_site_occupancy
  Ca  Ca0  1  0.000000  0.000000  0.000000  1
  Tb  Tb1  1  0.750000  0.250000  0.500000  1
  Cu  Cu2  1  0.873895  0.630276  0.254739  1
  Cu  Cu3  1  0.375537  0.619157  0.745261  1
  Cu  Cu4  1  0.380843  0.126105  0.756380  1
  Cu  Cu5  1  0.369724  0.624463  0.243620  1
  O  O6  1  0.019090  0.953826  0.375081  1
  O  O7  1  0.046174  0.421255  0.065264  1
  O  O8  1  0.355991  0.980910  0.934736  1
  O  O9  1  0.162667  0.587185  0.852324  1
  O  O10  1  0.412815  0.265139  0.575482  1
  O  O11  1  0.689657  0.837333  0.424518  1
  O  O12  1  0.578745  0.644009  0.624919  1
  O  O13  1  0.734861  0.310343  0.147676  1
