# generated using pymatgen
data_Ho2ScV2Si7Pt9
_symmetry_space_group_name_H-M   'P 1'
_cell_length_a   9.91495733
_cell_length_b   9.94345452
_cell_length_c   3.93401900
_cell_angle_alpha   90.00000000
_cell_angle_beta   90.00000000
_cell_angle_gamma   120.01223645
_symmetry_Int_Tables_number   1
_chemical_formula_structural   Ho2ScV2Si7Pt9
_chemical_formula_sum   'Ho2 Sc1 V2 Si7 Pt9'
_cell_volume   335.84714681
_cell_formula_units_Z   1
loop_
 _symmetry_equiv_pos_site_id
 _symmetry_equiv_pos_as_xyz
  1  'x, y, z'
loop_
 _atom_site_type_symbol
 _atom_site_label
 _atom_site_symmetry_multiplicity
 _atom_site_fract_x
 _atom_site_fract_y
 _atom_site_fract_z
 _atom_site_occupancy
  Ho  Ho0  1  0.997698  0.995951  0.000000  1
  Ho  Ho1  1  0.332789  0.668437  0.500000  1
  Sc  Sc2  1  0.547988  0.434152  0.500000  1
  V  V3  1  0.882790  0.449515  0.500000  1
  V  V4  1  0.570447  0.116961  0.500000  1
  Si  Si5  1  0.244777  0.200680  0.500000  1
  Si  Si6  1  0.790138  0.047243  0.500000  1
  Si  Si7  1  0.954765  0.739991  0.500000  1
  Si  Si8  1  0.553750  0.642393  0.000000  1
  Si  Si9  1  0.366748  0.921064  0.000000  1
  Si  Si10  1  0.081395  0.448378  0.000000  1
  Si  Si11  1  0.670932  0.328129  0.000000  1
  Pt  Pt12  1  0.223736  0.941958  0.500000  1
  Pt  Pt13  1  0.056161  0.282087  0.500000  1
  Pt  Pt14  1  0.723220  0.779920  0.500000  1
  Pt  Pt15  1  0.306399  0.411182  0.000000  1
  Pt  Pt16  1  0.592151  0.900694  0.000000  1
  Pt  Pt17  1  0.102248  0.694912  0.000000  1
  Pt  Pt18  1  0.389094  0.176271  0.000000  1
  Pt  Pt19  1  0.827565  0.212583  0.000000  1
  Pt  Pt20  1  0.785208  0.607499  0.000000  1
