# generated using pymatgen
data_LaNd5IrI10
_symmetry_space_group_name_H-M   'P 1'
_cell_length_a   8.02073427
_cell_length_b   10.03031486
_cell_length_c   10.10887268
_cell_angle_alpha   107.39026242
_cell_angle_beta   105.23917504
_cell_angle_gamma   96.49429917
_symmetry_Int_Tables_number   1
_chemical_formula_structural   LaNd5IrI10
_chemical_formula_sum   'La1 Nd5 Ir1 I10'
_cell_volume   732.39740365
_cell_formula_units_Z   1
loop_
 _symmetry_equiv_pos_site_id
 _symmetry_equiv_pos_as_xyz
  1  'x, y, z'
loop_
 _atom_site_type_symbol
 _atom_site_label
 _atom_site_symmetry_multiplicity
 _atom_site_fract_x
 _atom_site_fract_y
 _atom_site_fract_z
 _atom_site_occupancy
  La  La0  1  0.883784  0.238735  0.958168  1
  Nd  Nd1  1  0.645672  0.830145  0.871751  1
  Nd  Nd2  1  0.354004  0.171120  0.128702  1
  Nd  Nd3  1  0.029727  0.909466  0.708324  1
  Nd  Nd4  1  0.969073  0.087390  0.290214  1
  Nd  Nd5  1  0.116178  0.766971  0.041966  1
  Ir  Ir6  1  0.998485  0.003146  0.998796  1
  I  I7  1  0.645603  0.729050  0.548364  1
  I  I8  1  0.352356  0.270401  0.451570  1
  I  I9  1  0.215268  0.650467  0.744755  1
  I  I10  1  0.783442  0.347765  0.263697  1
  I  I11  1  0.448420  0.087041  0.818094  1
  I  I12  1  0.545099  0.908471  0.179230  1
  I  I13  1  0.264863  0.461570  0.088410  1
  I  I14  1  0.745561  0.543748  0.915001  1
  I  I15  1  0.085311  0.818211  0.365941  1
  I  I16  1  0.917155  0.176303  0.627018  1
