# generated using pymatgen
data_Tb3Dy5Re3B24Rh
_symmetry_space_group_name_H-M   'P 1'
_cell_length_a   3.69012000
_cell_length_b   9.18367388
_cell_length_c   11.56855100
_cell_angle_alpha   90.16826836
_cell_angle_beta   90.00000000
_cell_angle_gamma   90.00000000
_symmetry_Int_Tables_number   1
_chemical_formula_structural   Tb3Dy5Re3B24Rh
_chemical_formula_sum   'Tb3 Dy5 Re3 B24 Rh1'
_cell_volume   392.04329885
_cell_formula_units_Z   1
loop_
 _symmetry_equiv_pos_site_id
 _symmetry_equiv_pos_as_xyz
  1  'x, y, z'
loop_
 _atom_site_type_symbol
 _atom_site_label
 _atom_site_symmetry_multiplicity
 _atom_site_fract_x
 _atom_site_fract_y
 _atom_site_fract_z
 _atom_site_occupancy
  Tb  Tb0  1  0.000000  0.318916  0.415350  1
  Tb  Tb1  1  0.000000  0.677949  0.590905  1
  Tb  Tb2  1  0.000000  0.827143  0.081613  1
  Dy  Dy3  1  0.000000  0.176954  0.912655  1
  Dy  Dy4  1  0.000000  0.943393  0.369950  1
  Dy  Dy5  1  0.000000  0.055670  0.628824  1
  Dy  Dy6  1  0.000000  0.441574  0.129169  1
  Dy  Dy7  1  0.000000  0.556526  0.871678  1
  Re  Re8  1  0.000000  0.362149  0.677892  1
  Re  Re9  1  0.000000  0.138478  0.179715  1
  Re  Re10  1  0.000000  0.861858  0.821049  1
  B  B11  1  0.500000  0.554167  0.433372  1
  B  B12  1  0.500000  0.446416  0.567088  1
  B  B13  1  0.500000  0.053756  0.066674  1
  B  B14  1  0.500000  0.947093  0.932390  1
  B  B15  1  0.500000  0.748911  0.420036  1
  B  B16  1  0.500000  0.250881  0.581272  1
  B  B17  1  0.500000  0.249007  0.081358  1
  B  B18  1  0.500000  0.751990  0.918596  1
  B  B19  1  0.500000  0.790859  0.265424  1
  B  B20  1  0.500000  0.208425  0.733928  1
  B  B21  1  0.500000  0.291529  0.234800  1
  B  B22  1  0.500000  0.708283  0.766193  1
  B  B23  1  0.500000  0.632109  0.184418  1
  B  B24  1  0.500000  0.369004  0.813948  1
  B  B25  1  0.500000  0.131082  0.314517  1
  B  B26  1  0.500000  0.868213  0.685873  1
  B  B27  1  0.500000  0.983745  0.211869  1
  B  B28  1  0.500000  0.016925  0.787033  1
  B  B29  1  0.500000  0.483858  0.287959  1
  B  B30  1  0.500000  0.517438  0.712581  1
  B  B31  1  0.500000  0.604312  0.029580  1
  B  B32  1  0.500000  0.396707  0.971979  1
  B  B33  1  0.500000  0.102486  0.470745  1
  B  B34  1  0.500000  0.894282  0.528396  1
  Rh  Rh35  1  0.000000  0.637915  0.321173  1
