# generated using pymatgen
data_Ho5Tm5BiPb5
_symmetry_space_group_name_H-M   'P 1'
_cell_length_a   6.49856600
_cell_length_b   9.02594412
_cell_length_c   9.02754804
_cell_angle_alpha   120.04494292
_cell_angle_beta   90.00012270
_cell_angle_gamma   90.00026711
_symmetry_Int_Tables_number   1
_chemical_formula_structural   Ho5Tm5BiPb5
_chemical_formula_sum   'Ho5 Tm5 Bi1 Pb5'
_cell_volume   458.36743521
_cell_formula_units_Z   1
loop_
 _symmetry_equiv_pos_site_id
 _symmetry_equiv_pos_as_xyz
  1  'x, y, z'
loop_
 _atom_site_type_symbol
 _atom_site_label
 _atom_site_symmetry_multiplicity
 _atom_site_fract_x
 _atom_site_fract_y
 _atom_site_fract_z
 _atom_site_occupancy
  Ho  Ho0  1  0.750004  0.235370  0.999884  1
  Ho  Ho1  1  0.750002  0.764228  0.760479  1
  Ho  Ho2  1  0.749994  0.003627  0.239651  1
  Ho  Ho3  1  0.250005  0.762833  0.999843  1
  Ho  Ho4  1  0.249998  0.236986  0.237517  1
  Tm  Tm5  1  0.499131  0.331355  0.664361  1
  Tm  Tm6  1  0.499120  0.667093  0.335716  1
  Tm  Tm7  1  0.000884  0.667107  0.335726  1
  Tm  Tm8  1  0.000867  0.331361  0.664355  1
  Tm  Tm9  1  0.250001  0.999303  0.762265  1
  Bi  Bi10  1  0.749996  0.606341  0.999997  1
  Pb  Pb11  1  0.750000  0.396274  0.395750  1
  Pb  Pb12  1  0.749995  0.000511  0.604285  1
  Pb  Pb13  1  0.249987  0.394006  0.999559  1
  Pb  Pb14  1  0.250004  0.605110  0.606167  1
  Pb  Pb15  1  0.250011  0.998496  0.394445  1
