# generated using pymatgen
data_Hf3ZrSi4Rh
_symmetry_space_group_name_H-M   'P 1'
_cell_length_a   5.26606862
_cell_length_b   5.26607003
_cell_length_c   8.70184637
_cell_angle_alpha   71.94873670
_cell_angle_beta   71.94873188
_cell_angle_gamma   42.07533611
_symmetry_Int_Tables_number   1
_chemical_formula_structural   Hf3ZrSi4Rh
_chemical_formula_sum   'Hf3 Zr1 Si4 Rh1'
_cell_volume   152.53503533
_cell_formula_units_Z   1
loop_
 _symmetry_equiv_pos_site_id
 _symmetry_equiv_pos_as_xyz
  1  'x, y, z'
loop_
 _atom_site_type_symbol
 _atom_site_label
 _atom_site_symmetry_multiplicity
 _atom_site_fract_x
 _atom_site_fract_y
 _atom_site_fract_z
 _atom_site_occupancy
  Hf  Hf0  1  0.890472  0.890472  0.382231  1
  Hf  Hf1  1  0.753821  0.753821  0.844547  1
  Hf  Hf2  1  0.245798  0.245798  0.156344  1
  Zr  Zr3  1  0.110083  0.110083  0.616033  1
  Si  Si4  1  0.387265  0.387265  0.614094  1
  Si  Si5  1  0.613898  0.613898  0.384383  1
  Si  Si6  1  0.462739  0.462739  0.850585  1
  Si  Si7  1  0.536550  0.536550  0.150645  1
  Rh  Rh8  1  0.999374  0.999374  0.001138  1
