# generated using pymatgen
data_Pr2EuB10O19
_symmetry_space_group_name_H-M   'P 1'
_cell_length_a   6.46100027
_cell_length_b   6.46100101
_cell_length_c   9.19144800
_cell_angle_alpha   88.55056659
_cell_angle_beta   91.44943358
_cell_angle_gamma   118.30096080
_symmetry_Int_Tables_number   1
_chemical_formula_structural   Pr2EuB10O19
_chemical_formula_sum   'Pr2 Eu1 B10 O19'
_cell_volume   337.68299291
_cell_formula_units_Z   1
loop_
 _symmetry_equiv_pos_site_id
 _symmetry_equiv_pos_as_xyz
  1  'x, y, z'
loop_
 _atom_site_type_symbol
 _atom_site_label
 _atom_site_symmetry_multiplicity
 _atom_site_fract_x
 _atom_site_fract_y
 _atom_site_fract_z
 _atom_site_occupancy
  Pr  Pr0  1  0.154606  0.834373  0.144658  1
  Pr  Pr1  1  0.834374  0.154605  0.855342  1
  Eu  Eu2  1  0.821800  0.821800  0.500000  1
  B  B3  1  0.280397  0.364895  0.157708  1
  B  B4  1  0.364895  0.280397  0.842292  1
  B  B5  1  0.838164  0.190545  0.203768  1
  B  B6  1  0.190545  0.838164  0.796233  1
  B  B7  1  0.668525  0.443937  0.266788  1
  B  B8  1  0.443937  0.668525  0.733212  1
  B  B9  1  0.257103  0.786042  0.531230  1
  B  B10  1  0.786042  0.257103  0.468770  1
  B  B11  1  0.622446  0.761126  0.124023  1
  B  B12  1  0.761127  0.622445  0.875977  1
  O  O13  1  0.156283  0.858430  0.639896  1
  O  O14  1  0.858430  0.156283  0.360105  1
  O  O15  1  0.362901  0.593816  0.112552  1
  O  O16  1  0.593815  0.362902  0.887449  1
  O  O17  1  0.401012  0.691594  0.576772  1
  O  O18  1  0.691594  0.401012  0.423229  1
  O  O19  1  0.199488  0.806250  0.391196  1
  O  O20  1  0.806251  0.199487  0.608804  1
  O  O21  1  0.720696  0.691612  0.250059  1
  O  O22  1  0.691611  0.720697  0.749941  1
  O  O23  1  0.420352  0.280498  0.218100  1
  O  O24  1  0.280498  0.420352  0.781900  1
  O  O25  1  0.836936  0.412684  0.177468  1
  O  O26  1  0.412684  0.836937  0.822531  1
  O  O27  1  0.048841  0.198308  0.128533  1
  O  O28  1  0.198307  0.048841  0.871467  1
  O  O29  1  0.632552  0.992848  0.133660  1
  O  O30  1  0.992849  0.632551  0.866339  1
  O  O31  1  0.765843  0.765843  0.000000  1
