# generated using pymatgen
data_Sc4Al2(ReOs)3
_symmetry_space_group_name_H-M   'P 1'
_cell_length_a   5.22341700
_cell_length_b   5.23829871
_cell_length_c   8.71649100
_cell_angle_alpha   90.00000000
_cell_angle_beta   90.00000000
_cell_angle_gamma   120.09429772
_symmetry_Int_Tables_number   1
_chemical_formula_structural   Sc4Al2(ReOs)3
_chemical_formula_sum   'Sc4 Al2 Re3 Os3'
_cell_volume   206.34969043
_cell_formula_units_Z   1
loop_
 _symmetry_equiv_pos_site_id
 _symmetry_equiv_pos_as_xyz
  1  'x, y, z'
loop_
 _atom_site_type_symbol
 _atom_site_label
 _atom_site_symmetry_multiplicity
 _atom_site_fract_x
 _atom_site_fract_y
 _atom_site_fract_z
 _atom_site_occupancy
  Sc  Sc0  1  0.329741  0.664872  0.432896  1
  Sc  Sc1  1  0.656029  0.328015  0.553475  1
  Sc  Sc2  1  0.656029  0.328015  0.946525  1
  Sc  Sc3  1  0.329741  0.664872  0.067104  1
  Al  Al4  1  0.187756  0.842566  0.750000  1
  Al  Al5  1  0.187756  0.345191  0.750000  1
  Re  Re6  1  0.831230  0.169740  0.250000  1
  Re  Re7  1  0.831230  0.661489  0.250000  1
  Re  Re8  1  0.344048  0.172022  0.250000  1
  Os  Os9  1  0.987535  0.993768  0.505839  1
  Os  Os10  1  0.987535  0.993768  0.994161  1
  Os  Os11  1  0.671369  0.835685  0.750000  1
