# generated using pymatgen
data_Cs8Na4Sm3ErSb8
_symmetry_space_group_name_H-M   'P 1'
_cell_length_a   11.72212641
_cell_length_b   11.72212605
_cell_length_c   7.64478873
_cell_angle_alpha   90.05890254
_cell_angle_beta   89.94109827
_cell_angle_gamma   99.40953570
_symmetry_Int_Tables_number   1
_chemical_formula_structural   Cs8Na4Sm3ErSb8
_chemical_formula_sum   'Cs8 Na4 Sm3 Er1 Sb8'
_cell_volume   1036.32211304
_cell_formula_units_Z   1
loop_
 _symmetry_equiv_pos_site_id
 _symmetry_equiv_pos_as_xyz
  1  'x, y, z'
loop_
 _atom_site_type_symbol
 _atom_site_label
 _atom_site_symmetry_multiplicity
 _atom_site_fract_x
 _atom_site_fract_y
 _atom_site_fract_z
 _atom_site_occupancy
  Cs  Cs0  1  0.070803  0.429461  0.250208  1
  Cs  Cs1  1  0.429461  0.070803  0.749792  1
  Cs  Cs2  1  0.928745  0.570768  0.749742  1
  Cs  Cs3  1  0.570768  0.928745  0.250258  1
  Cs  Cs4  1  0.677053  0.323481  0.212899  1
  Cs  Cs5  1  0.822903  0.177085  0.712609  1
  Cs  Cs6  1  0.323481  0.677053  0.787101  1
  Cs  Cs7  1  0.177085  0.822903  0.287391  1
  Na  Na8  1  0.382341  0.382341  0.000000  1
  Na  Na9  1  0.117968  0.117968  0.500000  1
  Na  Na10  1  0.617979  0.617979  0.000000  1
  Na  Na11  1  0.881455  0.881455  0.500000  1
  Sm  Sm12  1  0.131714  0.131714  0.000000  1
  Sm  Sm13  1  0.369535  0.369535  0.500000  1
  Sm  Sm14  1  0.867653  0.867653  0.000000  1
  Er  Er15  1  0.630678  0.630678  0.500000  1
  Sb  Sb16  1  0.839333  0.656366  0.254589  1
  Sb  Sb17  1  0.656366  0.839333  0.745411  1
  Sb  Sb18  1  0.156530  0.343642  0.750106  1
  Sb  Sb19  1  0.343642  0.156530  0.249894  1
  Sb  Sb20  1  0.903509  0.096154  0.213802  1
  Sb  Sb21  1  0.597470  0.407374  0.711210  1
  Sb  Sb22  1  0.096154  0.903509  0.786198  1
  Sb  Sb23  1  0.407374  0.597470  0.288790  1
