# generated using pymatgen
data_NaTm3Ir8
_symmetry_space_group_name_H-M   'P 1'
_cell_length_a   5.31700300
_cell_length_b   5.31700354
_cell_length_c   8.64237200
_cell_angle_alpha   90.00000000
_cell_angle_beta   90.00000000
_cell_angle_gamma   120.00000289
_symmetry_Int_Tables_number   1
_chemical_formula_structural   NaTm3Ir8
_chemical_formula_sum   'Na1 Tm3 Ir8'
_cell_volume   211.59111619
_cell_formula_units_Z   1
loop_
 _symmetry_equiv_pos_site_id
 _symmetry_equiv_pos_as_xyz
  1  'x, y, z'
loop_
 _atom_site_type_symbol
 _atom_site_label
 _atom_site_symmetry_multiplicity
 _atom_site_fract_x
 _atom_site_fract_y
 _atom_site_fract_z
 _atom_site_occupancy
  Na  Na0  1  0.333334  0.666668  0.062927  1
  Tm  Tm1  1  0.333334  0.666668  0.416316  1
  Tm  Tm2  1  0.666667  0.333333  0.569770  1
  Tm  Tm3  1  0.666667  0.333333  0.943807  1
  Ir  Ir4  1  0.000000  0.000000  0.001068  1
  Ir  Ir5  1  0.339084  0.169542  0.252134  1
  Ir  Ir6  1  0.830458  0.169542  0.252134  1
  Ir  Ir7  1  0.830458  0.660914  0.252134  1
  Ir  Ir8  1  0.000000  0.000000  0.501561  1
  Ir  Ir9  1  0.171009  0.342019  0.749383  1
  Ir  Ir10  1  0.171010  0.828992  0.749383  1
  Ir  Ir11  1  0.657981  0.828992  0.749383  1
