# generated using pymatgen
data_Ho7Er3Ga3TcBi2
_symmetry_space_group_name_H-M   'P 1'
_cell_length_a   8.68510992
_cell_length_b   8.68811720
_cell_length_c   8.79915252
_cell_angle_alpha   125.84476851
_cell_angle_beta   125.83129834
_cell_angle_gamma   79.31480334
_symmetry_Int_Tables_number   1
_chemical_formula_structural   Ho7Er3Ga3TcBi2
_chemical_formula_sum   'Ho7 Er3 Ga3 Tc1 Bi2'
_cell_volume   423.65225547
_cell_formula_units_Z   1
loop_
 _symmetry_equiv_pos_site_id
 _symmetry_equiv_pos_as_xyz
  1  'x, y, z'
loop_
 _atom_site_type_symbol
 _atom_site_label
 _atom_site_symmetry_multiplicity
 _atom_site_fract_x
 _atom_site_fract_y
 _atom_site_fract_z
 _atom_site_occupancy
  Ho  Ho0  1  0.714779  0.202390  0.199418  1
  Ho  Ho1  1  0.519565  0.703778  0.499657  1
  Ho  Ho2  1  0.193630  0.038136  0.500116  1
  Ho  Ho3  1  0.996399  0.484010  0.198312  1
  Ho  Ho4  1  0.297798  0.785428  0.800950  1
  Ho  Ho5  1  0.462242  0.306163  0.500088  1
  Ho  Ho6  1  0.795962  0.980637  0.500396  1
  Er  Er7  1  0.004333  0.009276  0.013689  1
  Er  Er8  1  0.490369  0.495535  0.986142  1
  Er  Er9  1  0.016099  0.503572  0.800710  1
  Ga  Ga10  1  0.361193  0.855645  0.216976  1
  Ga  Ga11  1  0.643717  0.138326  0.782688  1
  Ga  Ga12  1  0.867013  0.633045  0.500213  1
  Tc  Tc13  1  0.126222  0.374741  0.500824  1
  Bi  Bi14  1  0.755700  0.744352  0.999899  1
  Bi  Bi15  1  0.254977  0.244965  0.999924  1
