# generated using pymatgen
data_Er9Tm3Tc3Ir
_symmetry_space_group_name_H-M   'P 1'
_cell_length_a   6.23049609
_cell_length_b   7.35189654
_cell_length_c   9.02028408
_cell_angle_alpha   90.00288082
_cell_angle_beta   89.98528151
_cell_angle_gamma   89.97182346
_symmetry_Int_Tables_number   1
_chemical_formula_structural   Er9Tm3Tc3Ir
_chemical_formula_sum   'Er9 Tm3 Tc3 Ir1'
_cell_volume   413.18273141
_cell_formula_units_Z   1
loop_
 _symmetry_equiv_pos_site_id
 _symmetry_equiv_pos_as_xyz
  1  'x, y, z'
loop_
 _atom_site_type_symbol
 _atom_site_label
 _atom_site_symmetry_multiplicity
 _atom_site_fract_x
 _atom_site_fract_y
 _atom_site_fract_z
 _atom_site_occupancy
  Er  Er0  1  0.836658  0.825472  0.938564  1
  Er  Er1  1  0.663371  0.322810  0.938743  1
  Er  Er2  1  0.836688  0.825500  0.561421  1
  Er  Er3  1  0.334492  0.676113  0.436236  1
  Er  Er4  1  0.161796  0.175473  0.062966  1
  Er  Er5  1  0.875485  0.539874  0.250039  1
  Er  Er6  1  0.623832  0.037994  0.250048  1
  Er  Er7  1  0.130129  0.458611  0.749956  1
  Er  Er8  1  0.372709  0.960556  0.749963  1
  Tm  Tm9  1  0.334486  0.676094  0.063758  1
  Tm  Tm10  1  0.161763  0.175456  0.437109  1
  Tm  Tm11  1  0.663418  0.322839  0.561261  1
  Tc  Tc12  1  0.039648  0.883683  0.249980  1
  Tc  Tc13  1  0.462664  0.385996  0.250093  1
  Tc  Tc14  1  0.960365  0.116842  0.749851  1
  Ir  Ir15  1  0.542496  0.616687  0.750012  1
