# generated using pymatgen
data_Nd8Cd2NiPd
_symmetry_space_group_name_H-M   'P 1'
_cell_length_a   9.98059302
_cell_length_b   9.98059276
_cell_length_c   9.98167200
_cell_angle_alpha   59.99641626
_cell_angle_beta   59.99641713
_cell_angle_gamma   60.00470317
_symmetry_Int_Tables_number   1
_chemical_formula_structural   Nd8Cd2NiPd
_chemical_formula_sum   'Nd16 Cd4 Ni2 Pd2'
_cell_volume   703.06080506
_cell_formula_units_Z   2
loop_
 _symmetry_equiv_pos_site_id
 _symmetry_equiv_pos_as_xyz
  1  'x, y, z'
loop_
 _atom_site_type_symbol
 _atom_site_label
 _atom_site_symmetry_multiplicity
 _atom_site_fract_x
 _atom_site_fract_y
 _atom_site_fract_z
 _atom_site_occupancy
  Nd  Nd0  1  0.601307  0.601307  0.591669  1
  Nd  Nd1  1  0.601307  0.601307  0.205718  1
  Nd  Nd2  1  0.608461  0.196235  0.597652  1
  Nd  Nd3  1  0.196235  0.608461  0.597652  1
  Nd  Nd4  1  0.052903  0.441007  0.442062  1
  Nd  Nd5  1  0.441007  0.052903  0.064028  1
  Nd  Nd6  1  0.441007  0.052903  0.442062  1
  Nd  Nd7  1  0.052903  0.441007  0.064028  1
  Nd  Nd8  1  0.441929  0.441929  0.058071  1
  Nd  Nd9  1  0.059470  0.059470  0.440530  1
  Nd  Nd10  1  0.188538  0.812988  0.815001  1
  Nd  Nd11  1  0.812988  0.188538  0.183473  1
  Nd  Nd12  1  0.812988  0.188538  0.815001  1
  Nd  Nd13  1  0.188538  0.812988  0.183473  1
  Nd  Nd14  1  0.815669  0.815669  0.184331  1
  Nd  Nd15  1  0.187563  0.187563  0.812437  1
  Cd  Cd16  1  0.830141  0.830141  0.831231  1
  Cd  Cd17  1  0.830141  0.830141  0.508487  1
  Cd  Cd18  1  0.829057  0.509793  0.830575  1
  Cd  Cd19  1  0.509793  0.829057  0.830575  1
  Ni  Ni20  1  0.391227  0.822410  0.393181  1
  Ni  Ni21  1  0.822410  0.391227  0.393181  1
  Pd  Pd22  1  0.392210  0.392210  0.395671  1
  Pd  Pd23  1  0.392210  0.392210  0.819910  1
