# generated using pymatgen
data_TbEu(AuCl6)2
_symmetry_space_group_name_H-M   'P 1'
_cell_length_a   8.01347357
_cell_length_b   9.94166362
_cell_length_c   14.10772500
_cell_angle_alpha   102.87481697
_cell_angle_beta   97.38681235
_cell_angle_gamma   113.06372614
_symmetry_Int_Tables_number   1
_chemical_formula_structural   TbEu(AuCl6)2
_chemical_formula_sum   'Tb2 Eu2 Au4 Cl24'
_cell_volume   978.46169526
_cell_formula_units_Z   2
loop_
 _symmetry_equiv_pos_site_id
 _symmetry_equiv_pos_as_xyz
  1  'x, y, z'
loop_
 _atom_site_type_symbol
 _atom_site_label
 _atom_site_symmetry_multiplicity
 _atom_site_fract_x
 _atom_site_fract_y
 _atom_site_fract_z
 _atom_site_occupancy
  Tb  Tb0  1  0.574921  0.922400  0.620610  1
  Tb  Tb1  1  0.425079  0.077600  0.379390  1
  Eu  Eu2  1  0.969039  0.318297  0.872554  1
  Eu  Eu3  1  0.030961  0.681703  0.127446  1
  Au  Au4  1  0.290171  0.635527  0.761434  1
  Au  Au5  1  0.709829  0.364473  0.238566  1
  Au  Au6  1  0.500000  0.500000  0.500000  1
  Au  Au7  1  0.000000  0.000000  0.000000  1
  Cl  Cl8  1  0.599073  0.735943  0.749719  1
  Cl  Cl9  1  0.400927  0.264057  0.250281  1
  Cl  Cl10  1  0.280676  0.852340  0.730302  1
  Cl  Cl11  1  0.719324  0.147660  0.269698  1
  Cl  Cl12  1  0.980100  0.541548  0.770047  1
  Cl  Cl13  1  0.019900  0.458452  0.229953  1
  Cl  Cl14  1  0.299778  0.415296  0.785316  1
  Cl  Cl15  1  0.700222  0.584704  0.214684  1
  Cl  Cl16  1  0.691293  0.374838  0.503666  1
  Cl  Cl17  1  0.308707  0.625162  0.496334  1
  Cl  Cl18  1  0.753999  0.735339  0.532282  1
  Cl  Cl19  1  0.246001  0.264661  0.467718  1
  Cl  Cl20  1  0.788564  0.104199  0.980936  1
  Cl  Cl21  1  0.211436  0.895801  0.019064  1
  Cl  Cl22  1  0.774180  0.789803  0.027650  1
  Cl  Cl23  1  0.225820  0.210197  0.972350  1
  Cl  Cl24  1  0.619767  0.190783  0.737806  1
  Cl  Cl25  1  0.380233  0.809217  0.262194  1
  Cl  Cl26  1  0.931973  0.054850  0.727852  1
  Cl  Cl27  1  0.068027  0.945150  0.272148  1
  Cl  Cl28  1  0.715966  0.047009  0.483154  1
  Cl  Cl29  1  0.284034  0.952991  0.516846  1
  Cl  Cl30  1  0.759071  0.432628  0.977029  1
  Cl  Cl31  1  0.240929  0.567372  0.022971  1
