# generated using pymatgen
data_DyTm5Al24ZnOs7
_symmetry_space_group_name_H-M   'P 1'
_cell_length_a   8.83588928
_cell_length_b   8.83302072
_cell_length_c   9.51612480
_cell_angle_alpha   89.91300437
_cell_angle_beta   90.05482223
_cell_angle_gamma   120.02908534
_symmetry_Int_Tables_number   1
_chemical_formula_structural   DyTm5Al24ZnOs7
_chemical_formula_sum   'Dy1 Tm5 Al24 Zn1 Os7'
_cell_volume   643.01692538
_cell_formula_units_Z   1
loop_
 _symmetry_equiv_pos_site_id
 _symmetry_equiv_pos_as_xyz
  1  'x, y, z'
loop_
 _atom_site_type_symbol
 _atom_site_label
 _atom_site_symmetry_multiplicity
 _atom_site_fract_x
 _atom_site_fract_y
 _atom_site_fract_z
 _atom_site_occupancy
  Dy  Dy0  1  0.191573  0.386738  0.248436  1
  Tm  Tm1  1  0.808017  0.611536  0.751094  1
  Tm  Tm2  1  0.611717  0.808303  0.248985  1
  Tm  Tm3  1  0.388408  0.191887  0.751021  1
  Tm  Tm4  1  0.195837  0.804492  0.253460  1
  Tm  Tm5  1  0.804254  0.195893  0.746495  1
  Al  Al6  1  0.330153  0.670630  0.022791  1
  Al  Al7  1  0.670056  0.329973  0.976823  1
  Al  Al8  1  0.665964  0.334136  0.518713  1
  Al  Al9  1  0.334326  0.666425  0.481614  1
  Al  Al10  1  0.162753  0.325762  0.574766  1
  Al  Al11  1  0.837291  0.674167  0.425734  1
  Al  Al12  1  0.674257  0.837220  0.574451  1
  Al  Al13  1  0.848837  0.677381  0.081472  1
  Al  Al14  1  0.325901  0.162541  0.425796  1
  Al  Al15  1  0.151184  0.322621  0.918132  1
  Al  Al16  1  0.162859  0.837048  0.575518  1
  Al  Al17  1  0.322662  0.150885  0.081360  1
  Al  Al18  1  0.836777  0.162765  0.424681  1
  Al  Al19  1  0.677484  0.848935  0.918407  1
  Al  Al20  1  0.836230  0.163074  0.076732  1
  Al  Al21  1  0.163388  0.836739  0.923040  1
  Al  Al22  1  0.561438  0.121196  0.249313  1
  Al  Al23  1  0.438507  0.878703  0.750693  1
  Al  Al24  1  0.878091  0.438722  0.249351  1
  Al  Al25  1  0.121299  0.561498  0.750609  1
  Al  Al26  1  0.563801  0.437084  0.254195  1
  Al  Al27  1  0.436925  0.563094  0.745931  1
  Al  Al28  1  0.998738  0.000182  0.250511  1
  Al  Al29  1  0.000838  0.999079  0.749512  1
  Zn  Zn30  1  0.500088  0.500082  0.999925  1
  Os  Os31  1  0.500156  0.000218  0.999904  1
  Os  Os32  1  0.999655  0.500263  0.999491  1
  Os  Os33  1  0.500166  0.000305  0.500124  1
  Os  Os34  1  0.999735  0.500169  0.500441  1
  Os  Os35  1  0.500602  0.500234  0.500451  1
  Os  Os36  1  0.000044  0.000068  0.999937  1
  Os  Os37  1  0.999986  0.999953  0.500093  1
