# generated using pymatgen
data_La6Cd22PPd
_symmetry_space_group_name_H-M   'P 1'
_cell_length_a   10.12199182
_cell_length_b   10.12199200
_cell_length_c   10.12199200
_cell_angle_alpha   59.99999999
_cell_angle_beta   59.99999941
_cell_angle_gamma   60.00000208
_symmetry_Int_Tables_number   1
_chemical_formula_structural   La6Cd22PPd
_chemical_formula_sum   'La6 Cd22 P1 Pd1'
_cell_volume   733.30216691
_cell_formula_units_Z   1
loop_
 _symmetry_equiv_pos_site_id
 _symmetry_equiv_pos_as_xyz
  1  'x, y, z'
loop_
 _atom_site_type_symbol
 _atom_site_label
 _atom_site_symmetry_multiplicity
 _atom_site_fract_x
 _atom_site_fract_y
 _atom_site_fract_z
 _atom_site_occupancy
  La  La0  1  0.794093  0.794093  0.205907  1
  La  La1  1  0.205907  0.794093  0.205907  1
  La  La2  1  0.794093  0.205907  0.205907  1
  La  La3  1  0.205907  0.205907  0.794093  1
  La  La4  1  0.794093  0.205907  0.794093  1
  La  La5  1  0.205907  0.794093  0.794093  1
  Cd  Cd6  1  0.830971  0.830971  0.507088  1
  Cd  Cd7  1  0.830971  0.507088  0.830971  1
  Cd  Cd8  1  0.507088  0.830971  0.830971  1
  Cd  Cd9  1  0.830971  0.830971  0.830971  1
  Cd  Cd10  1  0.169029  0.169029  0.492912  1
  Cd  Cd11  1  0.169029  0.492912  0.169029  1
  Cd  Cd12  1  0.492912  0.169029  0.169029  1
  Cd  Cd13  1  0.169029  0.169029  0.169029  1
  Cd  Cd14  1  0.616428  0.616428  0.150716  1
  Cd  Cd15  1  0.616428  0.150716  0.616428  1
  Cd  Cd16  1  0.150716  0.616428  0.616428  1
  Cd  Cd17  1  0.616428  0.616428  0.616428  1
  Cd  Cd18  1  0.383572  0.383572  0.849284  1
  Cd  Cd19  1  0.383572  0.849284  0.383572  1
  Cd  Cd20  1  0.849284  0.383572  0.383572  1
  Cd  Cd21  1  0.383572  0.383572  0.383572  1
  Cd  Cd22  1  0.000000  0.000000  0.500000  1
  Cd  Cd23  1  0.500000  0.000000  0.500000  1
  Cd  Cd24  1  0.000000  0.500000  0.500000  1
  Cd  Cd25  1  0.500000  0.500000  0.000000  1
  Cd  Cd26  1  0.000000  0.500000  0.000000  1
  Cd  Cd27  1  0.500000  0.000000  0.000000  1
  P  P28  1  0.000000  0.000000  0.000000  1
  Pd  Pd29  1  0.500000  0.500000  0.500000  1
