# generated using pymatgen
data_Hf6GePN2
_symmetry_space_group_name_H-M   'P 1'
_cell_length_a   5.76607262
_cell_length_b   5.76607316
_cell_length_c   8.44108600
_cell_angle_alpha   90.00000000
_cell_angle_beta   90.00000000
_cell_angle_gamma   145.41756460
_symmetry_Int_Tables_number   1
_chemical_formula_structural   Hf6GePN2
_chemical_formula_sum   'Hf6 Ge1 P1 N2'
_cell_volume   159.29214884
_cell_formula_units_Z   1
loop_
 _symmetry_equiv_pos_site_id
 _symmetry_equiv_pos_as_xyz
  1  'x, y, z'
loop_
 _atom_site_type_symbol
 _atom_site_label
 _atom_site_symmetry_multiplicity
 _atom_site_fract_x
 _atom_site_fract_y
 _atom_site_fract_z
 _atom_site_occupancy
  Hf  Hf0  1  0.634254  0.365746  0.439115  1
  Hf  Hf1  1  0.368585  0.631415  0.550490  1
  Hf  Hf2  1  0.634254  0.365746  0.060885  1
  Hf  Hf3  1  0.368585  0.631415  0.949510  1
  Hf  Hf4  1  0.935584  0.064416  0.250000  1
  Hf  Hf5  1  0.055234  0.944766  0.750000  1
  Ge  Ge6  1  0.744700  0.255300  0.750000  1
  P  P7  1  0.256989  0.743011  0.250000  1
  N  N8  1  0.000909  0.999091  0.497732  1
  N  N9  1  0.000909  0.999091  0.002268  1
