# generated using pymatgen
data_TiSe27
_symmetry_space_group_name_H-M   'P 1'
_cell_length_a   16.79111224
_cell_length_b   15.33302536
_cell_length_c   15.63372928
_cell_angle_alpha   111.64414754
_cell_angle_beta   123.73112558
_cell_angle_gamma   122.06276346
_symmetry_Int_Tables_number   1
_chemical_formula_structural   TiSe27
_chemical_formula_sum   'Ti1 Se27'
_cell_volume   955.47527450
_cell_formula_units_Z   1
loop_
 _symmetry_equiv_pos_site_id
 _symmetry_equiv_pos_as_xyz
  1  'x, y, z'
loop_
 _atom_site_type_symbol
 _atom_site_label
 _atom_site_symmetry_multiplicity
 _atom_site_fract_x
 _atom_site_fract_y
 _atom_site_fract_z
 _atom_site_occupancy
  Ti  Ti0  1  0.342729  0.242695  0.281390  1
  Se  Se1  1  0.956204  0.567117  0.559585  1
  Se  Se2  1  0.635670  0.659247  0.033427  1
  Se  Se3  1  0.646161  0.049851  0.667379  1
  Se  Se4  1  0.275009  0.897316  0.749373  1
  Se  Se5  1  0.879694  0.748453  0.262144  1
  Se  Se6  1  0.822129  0.355110  0.946972  1
  Se  Se7  1  0.874168  0.260139  0.741694  1
  Se  Se8  1  0.250174  0.730663  0.873072  1
  Se  Se9  1  0.806684  0.939238  0.330261  1
  Se  Se10  1  0.079288  0.632992  0.415647  1
  Se  Se11  1  0.550153  0.373335  0.034645  1
  Se  Se12  1  0.404310  0.076895  0.593468  1
  Se  Se13  1  0.536636  0.025744  0.359802  1
  Se  Se14  1  0.061633  0.401675  0.610317  1
  Se  Se15  1  0.397265  0.592740  0.058975  1
  Se  Se16  1  0.410992  0.810230  0.659181  1
  Se  Se17  1  0.736737  0.587245  0.362014  1
  Se  Se18  1  0.537800  0.319191  0.660415  1
  Se  Se19  1  0.714409  0.347789  0.561121  1
  Se  Se20  1  0.409233  0.660391  0.808613  1
  Se  Se21  1  0.562065  0.687919  0.326385  1
  Se  Se22  1  0.179757  0.463248  0.463328  1
  Se  Se23  1  0.362125  0.347305  0.104307  1
  Se  Se24  1  0.319869  0.067941  0.302234  1
  Se  Se25  1  0.911521  0.758599  0.771767  1
  Se  Se26  1  0.190371  0.175065  0.299975  1
  Se  Se27  1  0.194318  0.268963  0.209607  1
