# generated using pymatgen
data_Ho6Nb3Al13Ru7
_symmetry_space_group_name_H-M   'P 1'
_cell_length_a   9.02877953
_cell_length_b   9.02877813
_cell_length_c   9.02877823
_cell_angle_alpha   59.68707710
_cell_angle_beta   59.68708543
_cell_angle_gamma   59.68707374
_symmetry_Int_Tables_number   1
_chemical_formula_structural   Ho6Nb3Al13Ru7
_chemical_formula_sum   'Ho6 Nb3 Al13 Ru7'
_cell_volume   516.74203725
_cell_formula_units_Z   1
loop_
 _symmetry_equiv_pos_site_id
 _symmetry_equiv_pos_as_xyz
  1  'x, y, z'
loop_
 _atom_site_type_symbol
 _atom_site_label
 _atom_site_symmetry_multiplicity
 _atom_site_fract_x
 _atom_site_fract_y
 _atom_site_fract_z
 _atom_site_occupancy
  Ho  Ho0  1  0.708511  0.708511  0.285309  1
  Ho  Ho1  1  0.293819  0.708198  0.293819  1
  Ho  Ho2  1  0.708198  0.293819  0.293819  1
  Ho  Ho3  1  0.293819  0.293819  0.708198  1
  Ho  Ho4  1  0.708511  0.285309  0.708511  1
  Ho  Ho5  1  0.285309  0.708511  0.708511  1
  Nb  Nb6  1  0.877551  0.877551  0.360776  1
  Nb  Nb7  1  0.877551  0.360776  0.877551  1
  Nb  Nb8  1  0.360776  0.877551  0.877551  1
  Al  Al9  1  0.881738  0.881738  0.881738  1
  Al  Al10  1  0.120788  0.120788  0.640383  1
  Al  Al11  1  0.120788  0.640383  0.120788  1
  Al  Al12  1  0.640383  0.120788  0.120788  1
  Al  Al13  1  0.120393  0.120393  0.120393  1
  Al  Al14  1  0.671032  0.671032  0.991306  1
  Al  Al15  1  0.671032  0.991306  0.671032  1
  Al  Al16  1  0.991306  0.671032  0.671032  1
  Al  Al17  1  0.667586  0.667586  0.667586  1
  Al  Al18  1  0.331360  0.331360  0.009074  1
  Al  Al19  1  0.331360  0.009074  0.331360  1
  Al  Al20  1  0.009074  0.331360  0.331360  1
  Al  Al21  1  0.331725  0.331725  0.331725  1
  Ru  Ru22  1  0.001847  0.001847  0.001847  1
  Ru  Ru23  1  0.999150  0.999150  0.497130  1
  Ru  Ru24  1  0.502054  0.996008  0.502054  1
  Ru  Ru25  1  0.996008  0.502054  0.502054  1
  Ru  Ru26  1  0.502054  0.502054  0.996008  1
  Ru  Ru27  1  0.999150  0.497130  0.999150  1
  Ru  Ru28  1  0.497130  0.999150  0.999150  1
