# generated using pymatgen
data_Er3CoSn3IrPt
_symmetry_space_group_name_H-M   'P 1'
_cell_length_a   7.51769800
_cell_length_b   7.51769761
_cell_length_c   3.78420200
_cell_angle_alpha   90.00000000
_cell_angle_beta   90.00000000
_cell_angle_gamma   120.00000170
_symmetry_Int_Tables_number   1
_chemical_formula_structural   Er3CoSn3IrPt
_chemical_formula_sum   'Er3 Co1 Sn3 Ir1 Pt1'
_cell_volume   185.21436349
_cell_formula_units_Z   1
loop_
 _symmetry_equiv_pos_site_id
 _symmetry_equiv_pos_as_xyz
  1  'x, y, z'
loop_
 _atom_site_type_symbol
 _atom_site_label
 _atom_site_symmetry_multiplicity
 _atom_site_fract_x
 _atom_site_fract_y
 _atom_site_fract_z
 _atom_site_occupancy
  Er  Er0  1  0.402536  0.409137  0.500000  1
  Er  Er1  1  0.590863  0.993399  0.500000  1
  Er  Er2  1  0.006601  0.597464  0.500000  1
  Co  Co3  1  0.000000  0.000000  0.500000  1
  Sn  Sn4  1  0.747457  0.750136  0.000000  1
  Sn  Sn5  1  0.249864  0.997321  0.000000  1
  Sn  Sn6  1  0.002679  0.252543  0.000000  1
  Ir  Ir7  1  0.333333  0.666667  0.000000  1
  Pt  Pt8  1  0.666667  0.333333  0.000000  1
