# generated using pymatgen
data_Y16Ho3ErPb16
_symmetry_space_group_name_H-M   'P 1'
_cell_length_a   8.22392457
_cell_length_b   15.69003154
_cell_length_c   8.29154000
_cell_angle_alpha   90.01031979
_cell_angle_beta   89.97863232
_cell_angle_gamma   89.98906691
_symmetry_Int_Tables_number   1
_chemical_formula_structural   Y16Ho3ErPb16
_chemical_formula_sum   'Y16 Ho3 Er1 Pb16'
_cell_volume   1069.88744232
_cell_formula_units_Z   1
loop_
 _symmetry_equiv_pos_site_id
 _symmetry_equiv_pos_as_xyz
  1  'x, y, z'
loop_
 _atom_site_type_symbol
 _atom_site_label
 _atom_site_symmetry_multiplicity
 _atom_site_fract_x
 _atom_site_fract_y
 _atom_site_fract_z
 _atom_site_occupancy
  Y  Y0  1  0.623410  0.620940  0.158448  1
  Y  Y1  1  0.122664  0.878961  0.341741  1
  Y  Y2  1  0.376760  0.120829  0.841819  1
  Y  Y3  1  0.876959  0.379163  0.658512  1
  Y  Y4  1  0.376831  0.379212  0.841857  1
  Y  Y5  1  0.876984  0.120843  0.658508  1
  Y  Y6  1  0.623454  0.879014  0.158431  1
  Y  Y7  1  0.122684  0.620965  0.341757  1
  Y  Y8  1  0.464412  0.599976  0.675323  1
  Y  Y9  1  0.963963  0.899978  0.824290  1
  Y  Y10  1  0.535780  0.099897  0.324452  1
  Y  Y11  1  0.035879  0.400020  0.175565  1
  Y  Y12  1  0.535693  0.400157  0.324436  1
  Y  Y13  1  0.035871  0.100022  0.175532  1
  Y  Y14  1  0.464410  0.899966  0.675307  1
  Y  Y15  1  0.964005  0.599995  0.824263  1
  Ho  Ho16  1  0.291083  0.749995  0.003786  1
  Ho  Ho17  1  0.209058  0.250003  0.504068  1
  Ho  Ho18  1  0.709042  0.250031  0.996228  1
  Er  Er19  1  0.790864  0.749998  0.495846  1
  Pb  Pb20  1  0.718590  0.457022  0.967294  1
  Pb  Pb21  1  0.218438  0.043188  0.532760  1
  Pb  Pb22  1  0.281680  0.956812  0.032546  1
  Pb  Pb23  1  0.781533  0.543326  0.467340  1
  Pb  Pb24  1  0.281636  0.543215  0.032537  1
  Pb  Pb25  1  0.781530  0.956629  0.467220  1
  Pb  Pb26  1  0.718462  0.043081  0.967331  1
  Pb  Pb27  1  0.218221  0.456729  0.532854  1
  Pb  Pb28  1  0.428442  0.750001  0.373822  1
  Pb  Pb29  1  0.928132  0.750005  0.126649  1
  Pb  Pb30  1  0.571942  0.250009  0.626254  1
  Pb  Pb31  1  0.071689  0.250013  0.874150  1
  Pb  Pb32  1  0.652569  0.749987  0.845186  1
  Pb  Pb33  1  0.151953  0.750007  0.653556  1
  Pb  Pb34  1  0.347610  0.250008  0.153816  1
  Pb  Pb35  1  0.847765  0.250003  0.346521  1
