# generated using pymatgen
data_Dy3Cr(Ni4P3)2
_symmetry_space_group_name_H-M   'P 1'
_cell_length_a   3.75580300
_cell_length_b   10.56585300
_cell_length_c   12.29849300
_cell_angle_alpha   90.00000000
_cell_angle_beta   90.00000000
_cell_angle_gamma   90.00000000
_symmetry_Int_Tables_number   1
_chemical_formula_structural   Dy3Cr(Ni4P3)2
_chemical_formula_sum   'Dy6 Cr2 Ni16 P12'
_cell_volume   488.04432478
_cell_formula_units_Z   2
loop_
 _symmetry_equiv_pos_site_id
 _symmetry_equiv_pos_as_xyz
  1  'x, y, z'
loop_
 _atom_site_type_symbol
 _atom_site_label
 _atom_site_symmetry_multiplicity
 _atom_site_fract_x
 _atom_site_fract_y
 _atom_site_fract_z
 _atom_site_occupancy
  Dy  Dy0  1  0.751953  0.000000  0.477693  1
  Dy  Dy1  1  0.251953  0.500000  0.522307  1
  Dy  Dy2  1  0.251769  0.683291  0.794206  1
  Dy  Dy3  1  0.251769  0.316709  0.794206  1
  Dy  Dy4  1  0.751769  0.816709  0.205794  1
  Dy  Dy5  1  0.751769  0.183291  0.205794  1
  Cr  Cr6  1  0.251589  0.000000  0.845957  1
  Cr  Cr7  1  0.751589  0.500000  0.154043  1
  Ni  Ni8  1  0.751772  0.000000  0.016661  1
  Ni  Ni9  1  0.251772  0.500000  0.983339  1
  Ni  Ni10  1  0.252094  0.198321  0.572063  1
  Ni  Ni11  1  0.252094  0.801679  0.572063  1
  Ni  Ni12  1  0.752094  0.301679  0.427937  1
  Ni  Ni13  1  0.752094  0.698321  0.427937  1
  Ni  Ni14  1  0.251858  0.620003  0.289144  1
  Ni  Ni15  1  0.251858  0.379997  0.289144  1
  Ni  Ni16  1  0.751858  0.879997  0.710856  1
  Ni  Ni17  1  0.751858  0.120003  0.710856  1
  Ni  Ni18  1  0.251699  0.167382  0.008823  1
  Ni  Ni19  1  0.251699  0.832618  0.008823  1
  Ni  Ni20  1  0.751699  0.332618  0.991177  1
  Ni  Ni21  1  0.751699  0.667382  0.991177  1
  Ni  Ni22  1  0.251925  0.000000  0.299367  1
  Ni  Ni23  1  0.751925  0.500000  0.700633  1
  P  P24  1  0.251962  0.186194  0.385883  1
  P  P25  1  0.251962  0.813806  0.385883  1
  P  P26  1  0.751962  0.313806  0.614117  1
  P  P27  1  0.751962  0.686194  0.614117  1
  P  P28  1  0.251733  0.000000  0.121900  1
  P  P29  1  0.751733  0.500000  0.878100  1
  P  P30  1  0.251602  0.652122  0.106990  1
  P  P31  1  0.251602  0.347878  0.106990  1
  P  P32  1  0.751602  0.847878  0.893010  1
  P  P33  1  0.751602  0.152122  0.893010  1
  P  P34  1  0.251865  0.000000  0.654140  1
  P  P35  1  0.751865  0.500000  0.345860  1
