# generated using pymatgen
data_NdHo3(SiIr2)4
_symmetry_space_group_name_H-M   'P 1'
_cell_length_a   17.76600970
_cell_length_b   4.08066625
_cell_length_c   4.07658100
_cell_angle_alpha   90.00000000
_cell_angle_beta   96.58804142
_cell_angle_gamma   96.59466717
_symmetry_Int_Tables_number   1
_chemical_formula_structural   NdHo3(SiIr2)4
_chemical_formula_sum   'Nd1 Ho3 Si4 Ir8'
_cell_volume   291.62045474
_cell_formula_units_Z   1
loop_
 _symmetry_equiv_pos_site_id
 _symmetry_equiv_pos_as_xyz
  1  'x, y, z'
loop_
 _atom_site_type_symbol
 _atom_site_label
 _atom_site_symmetry_multiplicity
 _atom_site_fract_x
 _atom_site_fract_y
 _atom_site_fract_z
 _atom_site_occupancy
  Nd  Nd0  1  0.100804  0.550403  0.800402  1
  Ho  Ho1  1  0.896606  0.448303  0.198304  1
  Ho  Ho2  1  0.400467  0.200233  0.450233  1
  Ho  Ho3  1  0.600641  0.800322  0.550320  1
  Si  Si4  1  0.674874  0.337436  0.087437  1
  Si  Si5  1  0.176920  0.088460  0.338460  1
  Si  Si6  1  0.823293  0.911647  0.661645  1
  Si  Si7  1  0.326085  0.663044  0.913043  1
  Ir  Ir8  1  0.542248  0.271124  0.021124  1
  Ir  Ir9  1  0.749144  0.874573  0.124573  1
  Ir  Ir10  1  0.040845  0.020423  0.270422  1
  Ir  Ir11  1  0.252057  0.626030  0.376028  1
  Ir  Ir12  1  0.749214  0.374607  0.624606  1
  Ir  Ir13  1  0.955774  0.977889  0.727887  1
  Ir  Ir14  1  0.252227  0.126113  0.876114  1
  Ir  Ir15  1  0.458805  0.729404  0.979403  1
