# generated using pymatgen
data_Nd4Ga10Ir5Ru
_symmetry_space_group_name_H-M   'P 1'
_cell_length_a   8.66509163
_cell_length_b   8.66509203
_cell_length_c   8.66509135
_cell_angle_alpha   140.81318849
_cell_angle_beta   108.29783541
_cell_angle_gamma   84.89124043
_symmetry_Int_Tables_number   1
_chemical_formula_structural   Nd4Ga10Ir5Ru
_chemical_formula_sum   'Nd4 Ga10 Ir5 Ru1'
_cell_volume   377.17069248
_cell_formula_units_Z   1
loop_
 _symmetry_equiv_pos_site_id
 _symmetry_equiv_pos_as_xyz
  1  'x, y, z'
loop_
 _atom_site_type_symbol
 _atom_site_label
 _atom_site_symmetry_multiplicity
 _atom_site_fract_x
 _atom_site_fract_y
 _atom_site_fract_z
 _atom_site_occupancy
  Nd  Nd0  1  0.865780  0.635650  0.230400  1
  Nd  Nd1  1  0.134220  0.364621  0.769871  1
  Nd  Nd2  1  0.405249  0.135379  0.269600  1
  Nd  Nd3  1  0.594751  0.864350  0.730129  1
  Ga  Ga4  1  0.500000  0.750000  0.250000  1
  Ga  Ga5  1  0.500000  0.250000  0.750000  1
  Ga  Ga6  1  0.207499  0.957499  0.750000  1
  Ga  Ga7  1  0.792501  0.542501  0.750000  1
  Ga  Ga8  1  0.792368  0.042368  0.250000  1
  Ga  Ga9  1  0.207632  0.457632  0.250000  1
  Ga  Ga10  1  0.077424  0.906952  0.169360  1
  Ga  Ga11  1  0.922576  0.091935  0.829527  1
  Ga  Ga12  1  0.737593  0.408065  0.330640  1
  Ga  Ga13  1  0.262407  0.593048  0.670473  1
  Ir  Ir14  1  0.000000  0.250000  0.250000  1
  Ir  Ir15  1  0.257053  0.852579  0.404416  1
  Ir  Ir16  1  0.742947  0.147362  0.595525  1
  Ir  Ir17  1  0.448162  0.352638  0.095584  1
  Ir  Ir18  1  0.551838  0.647421  0.904475  1
  Ru  Ru19  1  0.000000  0.750000  0.750000  1
