# generated using pymatgen
data_Tb4Al4IrPt2Rh
_symmetry_space_group_name_H-M   'P 1'
_cell_length_a   4.38176400
_cell_length_b   6.85833140
_cell_length_c   7.86814489
_cell_angle_alpha   89.88597600
_cell_angle_beta   90.00000000
_cell_angle_gamma   90.00000000
_symmetry_Int_Tables_number   1
_chemical_formula_structural   Tb4Al4IrPt2Rh
_chemical_formula_sum   'Tb4 Al4 Ir1 Pt2 Rh1'
_cell_volume   236.44979314
_cell_formula_units_Z   1
loop_
 _symmetry_equiv_pos_site_id
 _symmetry_equiv_pos_as_xyz
  1  'x, y, z'
loop_
 _atom_site_type_symbol
 _atom_site_label
 _atom_site_symmetry_multiplicity
 _atom_site_fract_x
 _atom_site_fract_y
 _atom_site_fract_z
 _atom_site_occupancy
  Tb  Tb0  1  0.250000  0.032257  0.679547  1
  Tb  Tb1  1  0.250000  0.532117  0.820461  1
  Tb  Tb2  1  0.750000  0.971211  0.316833  1
  Tb  Tb3  1  0.750000  0.474149  0.182313  1
  Al  Al4  1  0.250000  0.140446  0.064045  1
  Al  Al5  1  0.250000  0.641022  0.434588  1
  Al  Al6  1  0.750000  0.855768  0.939228  1
  Al  Al7  1  0.750000  0.356639  0.561417  1
  Ir  Ir8  1  0.250000  0.769501  0.117697  1
  Pt  Pt9  1  0.750000  0.729162  0.618539  1
  Pt  Pt10  1  0.750000  0.229063  0.881283  1
  Rh  Rh11  1  0.250000  0.268664  0.384049  1
