# generated using pymatgen
data_Tm4Mn7Fe13P12
_symmetry_space_group_name_H-M   'P 1'
_cell_length_a   3.63379300
_cell_length_b   10.24764021
_cell_length_c   12.09547629
_cell_angle_alpha   89.97583725
_cell_angle_beta   90.00000000
_cell_angle_gamma   90.00000000
_symmetry_Int_Tables_number   1
_chemical_formula_structural   Tm4Mn7Fe13P12
_chemical_formula_sum   'Tm4 Mn7 Fe13 P12'
_cell_volume   450.40892642
_cell_formula_units_Z   1
loop_
 _symmetry_equiv_pos_site_id
 _symmetry_equiv_pos_as_xyz
  1  'x, y, z'
loop_
 _atom_site_type_symbol
 _atom_site_label
 _atom_site_symmetry_multiplicity
 _atom_site_fract_x
 _atom_site_fract_y
 _atom_site_fract_z
 _atom_site_occupancy
  Tm  Tm0  1  0.250000  0.579899  0.710408  1
  Tm  Tm1  1  0.250000  0.919656  0.210735  1
  Tm  Tm2  1  0.750000  0.419708  0.289293  1
  Tm  Tm3  1  0.750000  0.079906  0.789623  1
  Mn  Mn4  1  0.250000  0.705692  0.991791  1
  Mn  Mn5  1  0.250000  0.794177  0.491289  1
  Mn  Mn6  1  0.750000  0.293251  0.007166  1
  Mn  Mn7  1  0.750000  0.205980  0.507503  1
  Mn  Mn8  1  0.250000  0.408500  0.489726  1
  Mn  Mn9  1  0.250000  0.091657  0.990967  1
  Mn  Mn10  1  0.750000  0.591543  0.509855  1
  Fe  Fe11  1  0.750000  0.910712  0.011290  1
  Fe  Fe12  1  0.250000  0.219522  0.171333  1
  Fe  Fe13  1  0.250000  0.279298  0.671586  1
  Fe  Fe14  1  0.750000  0.778788  0.828497  1
  Fe  Fe15  1  0.750000  0.720970  0.327878  1
  Fe  Fe16  1  0.250000  0.877184  0.696321  1
  Fe  Fe17  1  0.250000  0.623608  0.194997  1
  Fe  Fe18  1  0.750000  0.123057  0.303972  1
  Fe  Fe19  1  0.750000  0.377318  0.804067  1
  Fe  Fe20  1  0.250000  0.462666  0.936087  1
  Fe  Fe21  1  0.250000  0.037619  0.435799  1
  Fe  Fe22  1  0.750000  0.537473  0.064566  1
  Fe  Fe23  1  0.750000  0.962133  0.564541  1
  P  P24  1  0.250000  0.423196  0.113904  1
  P  P25  1  0.250000  0.076538  0.613788  1
  P  P26  1  0.750000  0.575967  0.886421  1
  P  P27  1  0.750000  0.923709  0.386147  1
  P  P28  1  0.250000  0.268415  0.859979  1
  P  P29  1  0.250000  0.232096  0.360762  1
  P  P30  1  0.750000  0.732693  0.139100  1
  P  P31  1  0.750000  0.767529  0.639795  1
  P  P32  1  0.250000  0.602060  0.380325  1
  P  P33  1  0.250000  0.897173  0.881379  1
  P  P34  1  0.750000  0.398027  0.618832  1
  P  P35  1  0.750000  0.102278  0.120278  1
