# generated using pymatgen
data_CaHf7H30
_symmetry_space_group_name_H-M   'P 1'
_cell_length_a   6.97118884
_cell_length_b   6.97118835
_cell_length_c   6.97118893
_cell_angle_alpha   109.30975219
_cell_angle_beta   109.30975020
_cell_angle_gamma   109.30975946
_symmetry_Int_Tables_number   1
_chemical_formula_structural   CaHf7H30
_chemical_formula_sum   'Ca1 Hf7 H30'
_cell_volume   262.34210479
_cell_formula_units_Z   1
loop_
 _symmetry_equiv_pos_site_id
 _symmetry_equiv_pos_as_xyz
  1  'x, y, z'
loop_
 _atom_site_type_symbol
 _atom_site_label
 _atom_site_symmetry_multiplicity
 _atom_site_fract_x
 _atom_site_fract_y
 _atom_site_fract_z
 _atom_site_occupancy
  Ca  Ca0  1  0.911949  0.911949  0.911949  1
  Hf  Hf1  1  0.501527  0.001882  0.103587  1
  Hf  Hf2  1  0.001882  0.103587  0.501527  1
  Hf  Hf3  1  0.103587  0.501527  0.001882  1
  Hf  Hf4  1  0.999526  0.604600  0.498103  1
  Hf  Hf5  1  0.604600  0.498103  0.999526  1
  Hf  Hf6  1  0.498103  0.999526  0.604600  1
  Hf  Hf7  1  0.407437  0.407437  0.407437  1
  H  H8  1  0.656047  0.972966  0.387723  1
  H  H9  1  0.222777  0.309586  0.844355  1
  H  H10  1  0.189479  0.420923  0.532520  1
  H  H11  1  0.102664  0.294028  0.129119  1
  H  H12  1  0.294028  0.129119  0.102664  1
  H  H13  1  0.129119  0.102664  0.294028  1
  H  H14  1  0.458359  0.154302  0.883463  1
  H  H15  1  0.721830  0.340703  0.812522  1
  H  H16  1  0.630506  0.368884  0.247411  1
  H  H17  1  0.247411  0.630506  0.368884  1
  H  H18  1  0.746036  0.866819  0.137171  1
  H  H19  1  0.137171  0.746036  0.866819  1
  H  H20  1  0.368884  0.247411  0.630506  1
  H  H21  1  0.866819  0.137171  0.746036  1
  H  H22  1  0.765060  0.571527  0.595508  1
  H  H23  1  0.309586  0.844355  0.222777  1
  H  H24  1  0.387723  0.656047  0.972966  1
  H  H25  1  0.972966  0.387723  0.656047  1
  H  H26  1  0.532520  0.189479  0.420923  1
  H  H27  1  0.420923  0.532520  0.189479  1
  H  H28  1  0.844355  0.222777  0.309586  1
  H  H29  1  0.911510  0.667024  0.030567  1
  H  H30  1  0.812522  0.721830  0.340703  1
  H  H31  1  0.154302  0.883463  0.458359  1
  H  H32  1  0.667024  0.030567  0.911510  1
  H  H33  1  0.340703  0.812522  0.721830  1
  H  H34  1  0.883463  0.458359  0.154302  1
  H  H35  1  0.595508  0.765060  0.571527  1
  H  H36  1  0.571527  0.595508  0.765060  1
  H  H37  1  0.030567  0.911510  0.667024  1
