# generated using pymatgen
data_Ac(Al5Os)2
_symmetry_space_group_name_H-M   'P 1'
_cell_length_a   6.96301001
_cell_length_b   6.96300917
_cell_length_c   9.29412700
_cell_angle_alpha   90.00000000
_cell_angle_beta   90.00000000
_cell_angle_gamma   96.68622638
_symmetry_Int_Tables_number   1
_chemical_formula_structural   Ac(Al5Os)2
_chemical_formula_sum   'Ac2 Al20 Os4'
_cell_volume   447.54706938
_cell_formula_units_Z   2
loop_
 _symmetry_equiv_pos_site_id
 _symmetry_equiv_pos_as_xyz
  1  'x, y, z'
loop_
 _atom_site_type_symbol
 _atom_site_label
 _atom_site_symmetry_multiplicity
 _atom_site_fract_x
 _atom_site_fract_y
 _atom_site_fract_z
 _atom_site_occupancy
  Ac  Ac0  1  0.877378  0.122622  0.750000  1
  Ac  Ac1  1  0.122622  0.877378  0.250000  1
  Al  Al2  1  0.621151  0.378849  0.548682  1
  Al  Al3  1  0.378849  0.621151  0.451318  1
  Al  Al4  1  0.378849  0.621151  0.048682  1
  Al  Al5  1  0.621151  0.378849  0.951318  1
  Al  Al6  1  0.228853  0.228853  0.500000  1
  Al  Al7  1  0.771147  0.771147  0.500000  1
  Al  Al8  1  0.771147  0.771147  0.000000  1
  Al  Al9  1  0.228853  0.228853  0.000000  1
  Al  Al10  1  0.835545  0.164455  0.103474  1
  Al  Al11  1  0.164455  0.835545  0.896526  1
  Al  Al12  1  0.164455  0.835545  0.603474  1
  Al  Al13  1  0.835545  0.164455  0.396526  1
  Al  Al14  1  0.857541  0.589581  0.750000  1
  Al  Al15  1  0.142459  0.410419  0.250000  1
  Al  Al16  1  0.410419  0.142459  0.750000  1
  Al  Al17  1  0.589581  0.857541  0.250000  1
  Al  Al18  1  0.220490  0.485245  0.750000  1
  Al  Al19  1  0.779510  0.514755  0.250000  1
  Al  Al20  1  0.514755  0.779510  0.750000  1
  Al  Al21  1  0.485245  0.220490  0.250000  1
  Os  Os22  1  0.000000  0.500000  0.500000  1
  Os  Os23  1  0.000000  0.500000  0.000000  1
  Os  Os24  1  0.500000  0.000000  0.000000  1
  Os  Os25  1  0.500000  0.000000  0.500000  1
