# generated using pymatgen
data_Pa2InPdRh
_symmetry_space_group_name_H-M   'P 1'
_cell_length_a   7.78257469
_cell_length_b   7.78257482
_cell_length_c   3.62717300
_cell_angle_alpha   90.00000000
_cell_angle_beta   90.00000000
_cell_angle_gamma   89.83028736
_symmetry_Int_Tables_number   1
_chemical_formula_structural   Pa2InPdRh
_chemical_formula_sum   'Pa4 In2 Pd2 Rh2'
_cell_volume   219.69135457
_cell_formula_units_Z   2
loop_
 _symmetry_equiv_pos_site_id
 _symmetry_equiv_pos_as_xyz
  1  'x, y, z'
loop_
 _atom_site_type_symbol
 _atom_site_label
 _atom_site_symmetry_multiplicity
 _atom_site_fract_x
 _atom_site_fract_y
 _atom_site_fract_z
 _atom_site_occupancy
  Pa  Pa0  1  0.666470  0.166470  0.500000  1
  Pa  Pa1  1  0.333530  0.833530  0.500000  1
  Pa  Pa2  1  0.177413  0.322587  0.500000  1
  Pa  Pa3  1  0.822587  0.677413  0.500000  1
  In  In4  1  0.000000  0.000000  0.000000  1
  In  In5  1  0.500000  0.500000  0.000000  1
  Pd  Pd6  1  0.129529  0.629529  0.000000  1
  Pd  Pd7  1  0.870471  0.370471  0.000000  1
  Rh  Rh8  1  0.633486  0.866514  0.000000  1
  Rh  Rh9  1  0.366514  0.133486  0.000000  1
