# generated using pymatgen
data_NaMn7CuO16
_symmetry_space_group_name_H-M   'P 1'
_cell_length_a   5.86112265
_cell_length_b   7.13544031
_cell_length_c   7.25021600
_cell_angle_alpha   88.56716716
_cell_angle_beta   78.36138066
_cell_angle_gamma   78.06300496
_symmetry_Int_Tables_number   1
_chemical_formula_structural   NaMn7CuO16
_chemical_formula_sum   'Na1 Mn7 Cu1 O16'
_cell_volume   290.51572350
_cell_formula_units_Z   1
loop_
 _symmetry_equiv_pos_site_id
 _symmetry_equiv_pos_as_xyz
  1  'x, y, z'
loop_
 _atom_site_type_symbol
 _atom_site_label
 _atom_site_symmetry_multiplicity
 _atom_site_fract_x
 _atom_site_fract_y
 _atom_site_fract_z
 _atom_site_occupancy
  Na  Na0  1  0.998721  0.999850  0.001950  1
  Mn  Mn1  1  0.081238  0.509258  0.182071  1
  Mn  Mn2  1  0.172462  0.817078  0.517335  1
  Mn  Mn3  1  0.668424  0.818186  0.520636  1
  Mn  Mn4  1  0.337526  0.185786  0.479177  1
  Mn  Mn5  1  0.838155  0.184890  0.483144  1
  Mn  Mn6  1  0.428105  0.487077  0.820392  1
  Mn  Mn7  1  0.926111  0.490813  0.820309  1
  Cu  Cu8  1  0.579811  0.513121  0.186814  1
  O  O9  1  0.842374  0.643100  0.048880  1
  O  O10  1  0.320367  0.641067  0.048356  1
  O  O11  1  0.982044  0.703143  0.382086  1
  O  O12  1  0.482070  0.707761  0.388253  1
  O  O13  1  0.856982  0.956852  0.642808  1
  O  O14  1  0.352045  0.958736  0.642253  1
  O  O15  1  0.335503  0.362767  0.283219  1
  O  O16  1  0.851892  0.359060  0.281547  1
  O  O17  1  0.168310  0.631557  0.716016  1
  O  O18  1  0.666095  0.631738  0.717476  1
  O  O19  1  0.151941  0.042418  0.359414  1
  O  O20  1  0.655916  0.043441  0.360520  1
  O  O21  1  0.026522  0.297244  0.618584  1
  O  O22  1  0.524897  0.301672  0.612886  1
  O  O23  1  0.176799  0.355842  0.945743  1
  O  O24  1  0.682793  0.357540  0.940122  1
