# generated using pymatgen
data_Er2Lu10Tc3Os
_symmetry_space_group_name_H-M   'P 1'
_cell_length_a   6.10493515
_cell_length_b   7.40499199
_cell_length_c   8.85045200
_cell_angle_alpha   90.00000000
_cell_angle_beta   90.00000000
_cell_angle_gamma   90.10703075
_symmetry_Int_Tables_number   1
_chemical_formula_structural   Er2Lu10Tc3Os
_chemical_formula_sum   'Er2 Lu10 Tc3 Os1'
_cell_volume   400.10164950
_cell_formula_units_Z   1
loop_
 _symmetry_equiv_pos_site_id
 _symmetry_equiv_pos_as_xyz
  1  'x, y, z'
loop_
 _atom_site_type_symbol
 _atom_site_label
 _atom_site_symmetry_multiplicity
 _atom_site_fract_x
 _atom_site_fract_y
 _atom_site_fract_z
 _atom_site_occupancy
  Er  Er0  1  0.877597  0.539282  0.250000  1
  Er  Er1  1  0.623185  0.037314  0.250000  1
  Lu  Lu2  1  0.343532  0.673974  0.060392  1
  Lu  Lu3  1  0.153426  0.174887  0.438389  1
  Lu  Lu4  1  0.655977  0.327231  0.563211  1
  Lu  Lu5  1  0.844346  0.824023  0.936502  1
  Lu  Lu6  1  0.655977  0.327231  0.936789  1
  Lu  Lu7  1  0.844346  0.824023  0.563498  1
  Lu  Lu8  1  0.343532  0.673974  0.439608  1
  Lu  Lu9  1  0.153426  0.174887  0.061611  1
  Lu  Lu10  1  0.127510  0.458461  0.750000  1
  Lu  Lu11  1  0.376208  0.962246  0.750000  1
  Tc  Tc12  1  0.047189  0.881204  0.250000  1
  Tc  Tc13  1  0.456156  0.382112  0.250000  1
  Tc  Tc14  1  0.956870  0.118564  0.750000  1
  Os  Os15  1  0.540725  0.620584  0.750000  1
