# generated using pymatgen
data_Pr3Gd(CdIn)4
_symmetry_space_group_name_H-M   'P 1'
_cell_length_a   4.87919000
_cell_length_b   4.87919044
_cell_length_c   15.75542900
_cell_angle_alpha   90.00000000
_cell_angle_beta   90.00000000
_cell_angle_gamma   119.99999700
_symmetry_Int_Tables_number   1
_chemical_formula_structural   Pr3Gd(CdIn)4
_chemical_formula_sum   'Pr3 Gd1 Cd4 In4'
_cell_volume   324.83018359
_cell_formula_units_Z   1
loop_
 _symmetry_equiv_pos_site_id
 _symmetry_equiv_pos_as_xyz
  1  'x, y, z'
loop_
 _atom_site_type_symbol
 _atom_site_label
 _atom_site_symmetry_multiplicity
 _atom_site_fract_x
 _atom_site_fract_y
 _atom_site_fract_z
 _atom_site_occupancy
  Pr  Pr0  1  0.000000  0.000000  0.502104  1
  Pr  Pr1  1  0.000000  0.000000  0.997896  1
  Pr  Pr2  1  0.000000  0.000000  0.250000  1
  Gd  Gd3  1  0.000000  0.000000  0.750000  1
  Cd  Cd4  1  0.333333  0.666667  0.353540  1
  Cd  Cd5  1  0.666667  0.333333  0.605790  1
  Cd  Cd6  1  0.666667  0.333333  0.894210  1
  Cd  Cd7  1  0.333333  0.666667  0.146460  1
  In  In8  1  0.333333  0.666667  0.853673  1
  In  In9  1  0.666667  0.333333  0.106389  1
  In  In10  1  0.666667  0.333333  0.393611  1
  In  In11  1  0.333333  0.666667  0.646327  1
