# generated using pymatgen
data_ZrSc4Nb3Os8
_symmetry_space_group_name_H-M   'P 1'
_cell_length_a   6.41249700
_cell_length_b   4.54963700
_cell_length_c   9.09058600
_cell_angle_alpha   90.00000000
_cell_angle_beta   90.00026375
_cell_angle_gamma   90.00000000
_symmetry_Int_Tables_number   1
_chemical_formula_structural   ZrSc4Nb3Os8
_chemical_formula_sum   'Zr1 Sc4 Nb3 Os8'
_cell_volume   265.21360682
_cell_formula_units_Z   1
loop_
 _symmetry_equiv_pos_site_id
 _symmetry_equiv_pos_as_xyz
  1  'x, y, z'
loop_
 _atom_site_type_symbol
 _atom_site_label
 _atom_site_symmetry_multiplicity
 _atom_site_fract_x
 _atom_site_fract_y
 _atom_site_fract_z
 _atom_site_occupancy
  Zr  Zr0  1  0.249995  0.250001  0.125007  1
  Sc  Sc1  1  0.749989  0.250001  0.125009  1
  Sc  Sc2  1  0.250010  0.749999  0.375339  1
  Sc  Sc3  1  0.750024  0.250001  0.625022  1
  Sc  Sc4  1  0.249995  0.749999  0.874655  1
  Nb  Nb5  1  0.750004  0.749999  0.375507  1
  Nb  Nb6  1  0.249991  0.250001  0.625007  1
  Nb  Nb7  1  0.749996  0.749999  0.874482  1
  Os  Os8  1  0.506734  0.749999  0.124979  1
  Os  Os9  1  0.993271  0.749999  0.124981  1
  Os  Os10  1  0.502673  0.250001  0.379558  1
  Os  Os11  1  0.997325  0.250001  0.379562  1
  Os  Os12  1  0.000275  0.749999  0.625005  1
  Os  Os13  1  0.499725  0.749999  0.625007  1
  Os  Os14  1  0.997328  0.250001  0.870442  1
  Os  Os15  1  0.502663  0.250001  0.870442  1
