# generated using pymatgen
data_Nd5ScIrO12
_symmetry_space_group_name_H-M   'P 1'
_cell_length_a   7.13828875
_cell_length_b   7.13828806
_cell_length_c   7.60674572
_cell_angle_alpha   74.49294532
_cell_angle_beta   74.49294598
_cell_angle_gamma   50.64493716
_symmetry_Int_Tables_number   1
_chemical_formula_structural   Nd5ScIrO12
_chemical_formula_sum   'Nd5 Sc1 Ir1 O12'
_cell_volume   286.29693205
_cell_formula_units_Z   1
loop_
 _symmetry_equiv_pos_site_id
 _symmetry_equiv_pos_as_xyz
  1  'x, y, z'
loop_
 _atom_site_type_symbol
 _atom_site_label
 _atom_site_symmetry_multiplicity
 _atom_site_fract_x
 _atom_site_fract_y
 _atom_site_fract_z
 _atom_site_occupancy
  Nd  Nd0  1  0.306393  0.297779  0.359012  1
  Nd  Nd1  1  0.702221  0.693607  0.640988  1
  Nd  Nd2  1  0.688807  0.700350  0.165628  1
  Nd  Nd3  1  0.299650  0.311193  0.834372  1
  Nd  Nd4  1  0.008521  0.991479  0.500000  1
  Sc  Sc5  1  0.759756  0.240244  0.000000  1
  Ir  Ir6  1  0.246682  0.753318  0.000000  1
  O  O7  1  0.097292  0.597266  0.572298  1
  O  O8  1  0.022053  0.977639  0.181184  1
  O  O9  1  0.402734  0.902708  0.427702  1
  O  O10  1  0.483752  0.517589  0.179700  1
  O  O11  1  0.098974  0.585396  0.081478  1
  O  O12  1  0.905639  0.402871  0.422235  1
  O  O13  1  0.022361  0.977947  0.818816  1
  O  O14  1  0.597129  0.094360  0.577765  1
  O  O15  1  0.482411  0.516248  0.820300  1
  O  O16  1  0.563891  0.102870  0.081804  1
  O  O17  1  0.414604  0.901026  0.918522  1
  O  O18  1  0.897130  0.436109  0.918196  1
