# generated using pymatgen
data_Zn12Co7Si4Ni
_symmetry_space_group_name_H-M   'P 1'
_cell_length_a   7.56371835
_cell_length_b   7.56371792
_cell_length_c   7.56371682
_cell_angle_alpha   59.93513340
_cell_angle_beta   59.93513440
_cell_angle_gamma   59.93513675
_symmetry_Int_Tables_number   1
_chemical_formula_structural   Zn12Co7Si4Ni
_chemical_formula_sum   'Zn12 Co7 Si4 Ni1'
_cell_volume   305.52834467
_cell_formula_units_Z   1
loop_
 _symmetry_equiv_pos_site_id
 _symmetry_equiv_pos_as_xyz
  1  'x, y, z'
loop_
 _atom_site_type_symbol
 _atom_site_label
 _atom_site_symmetry_multiplicity
 _atom_site_fract_x
 _atom_site_fract_y
 _atom_site_fract_z
 _atom_site_occupancy
  Zn  Zn0  1  0.812699  0.812699  0.188912  1
  Zn  Zn1  1  0.186526  0.186526  0.813024  1
  Zn  Zn2  1  0.812699  0.188912  0.812699  1
  Zn  Zn3  1  0.186526  0.813024  0.186526  1
  Zn  Zn4  1  0.188912  0.812699  0.812699  1
  Zn  Zn5  1  0.813024  0.186526  0.186526  1
  Zn  Zn6  1  0.436552  0.436552  0.063317  1
  Zn  Zn7  1  0.063647  0.063647  0.435844  1
  Zn  Zn8  1  0.436552  0.063317  0.436552  1
  Zn  Zn9  1  0.063647  0.435844  0.063647  1
  Zn  Zn10  1  0.063317  0.436552  0.436552  1
  Zn  Zn11  1  0.435844  0.063647  0.063647  1
  Co  Co12  1  0.753967  0.415446  0.415446  1
  Co  Co13  1  0.415446  0.753967  0.415446  1
  Co  Co14  1  0.415446  0.415446  0.753967  1
  Co  Co15  1  0.415087  0.415087  0.415087  1
  Co  Co16  1  0.496805  0.835111  0.835111  1
  Co  Co17  1  0.835111  0.496805  0.835111  1
  Co  Co18  1  0.835111  0.835111  0.496805  1
  Si  Si19  1  0.126802  0.622420  0.622420  1
  Si  Si20  1  0.622420  0.126802  0.622420  1
  Si  Si21  1  0.622420  0.622420  0.126802  1
  Si  Si22  1  0.625188  0.625188  0.625188  1
  Ni  Ni23  1  0.836250  0.836250  0.836250  1
