# generated using pymatgen
data_Tb12Nb8ZnW11N48
_symmetry_space_group_name_H-M   'P 1'
_cell_length_a   11.18563620
_cell_length_b   11.18563625
_cell_length_c   11.18563607
_cell_angle_alpha   109.46485965
_cell_angle_beta   109.48394246
_cell_angle_gamma   109.46485755
_symmetry_Int_Tables_number   1
_chemical_formula_structural   Tb12Nb8ZnW11N48
_chemical_formula_sum   'Tb12 Nb8 Zn1 W11 N48'
_cell_volume   1077.35833754
_cell_formula_units_Z   1
loop_
 _symmetry_equiv_pos_site_id
 _symmetry_equiv_pos_as_xyz
  1  'x, y, z'
loop_
 _atom_site_type_symbol
 _atom_site_label
 _atom_site_symmetry_multiplicity
 _atom_site_fract_x
 _atom_site_fract_y
 _atom_site_fract_z
 _atom_site_occupancy
  Tb  Tb0  1  0.245663  0.371057  0.124282  1
  Tb  Tb1  1  0.370252  0.750000  0.120251  1
  Tb  Tb2  1  0.374395  0.117980  0.242316  1
  Tb  Tb3  1  0.875718  0.621382  0.246776  1
  Tb  Tb4  1  0.753224  0.128942  0.374606  1
  Tb  Tb5  1  0.120722  0.250000  0.370722  1
  Tb  Tb6  1  0.879748  0.750000  0.629748  1
  Tb  Tb7  1  0.243585  0.867921  0.625605  1
  Tb  Tb8  1  0.124335  0.382020  0.756415  1
  Tb  Tb9  1  0.625394  0.878618  0.754337  1
  Tb  Tb10  1  0.629278  0.250000  0.879278  1
  Tb  Tb11  1  0.757684  0.632079  0.875664  1
  Nb  Nb12  1  0.003864  0.017699  0.011726  1
  Nb  Nb13  1  0.513835  0.007861  0.996136  1
  Nb  Nb14  1  0.988274  0.492139  0.005974  1
  Nb  Nb15  1  0.500196  0.499409  0.000452  1
  Nb  Nb16  1  0.999548  0.999744  0.498957  1
  Nb  Nb17  1  0.501043  0.000591  0.500787  1
  Nb  Nb18  1  0.994026  0.482301  0.486165  1
  Nb  Nb19  1  0.499213  0.500256  0.499804  1
  Zn  Zn20  1  0.875000  0.250001  0.125000  1
  W  W21  1  0.749688  0.875393  0.124364  1
  W  W22  1  0.625706  0.374676  0.250312  1
  W  W23  1  0.126312  0.874806  0.251290  1
  W  W24  1  0.248970  0.624607  0.374294  1
  W  W25  1  0.625001  0.750000  0.375000  1
  W  W26  1  0.375000  0.250000  0.625000  1
  W  W27  1  0.748711  0.375023  0.623518  1
  W  W28  1  0.875636  0.125324  0.751030  1
  W  W29  1  0.376483  0.625195  0.751506  1
  W  W30  1  0.248495  0.124977  0.873688  1
  W  W31  1  0.125000  0.750000  0.875000  1
  N  N32  1  0.205844  0.117199  0.019400  1
  N  N33  1  0.313783  0.903075  0.028099  1
  N  N34  1  0.875576  0.410846  0.081170  1
  N  N35  1  0.705016  0.683519  0.084170  1
  N  N36  1  0.980600  0.686443  0.097798  1
  N  N37  1  0.618645  0.414387  0.098166  1
  N  N38  1  0.598475  0.914232  0.120004  1
  N  N39  1  0.035270  0.205594  0.124425  1
  N  N40  1  0.205773  0.585768  0.184245  1
  N  N41  1  0.481010  0.598210  0.183862  1
  N  N42  1  0.587463  0.184140  0.205697  1
  N  N43  1  0.119313  0.019284  0.206615  1
  N  N44  1  0.317338  0.914196  0.297126  1
  N  N45  1  0.478504  0.379154  0.294984  1
  N  N46  1  0.901834  0.020479  0.316222  1
  N  N47  1  0.918831  0.294406  0.329676  1
  N  N48  1  0.295742  0.479520  0.381355  1
  N  N49  1  0.585652  0.901791  0.382800  1
  N  N50  1  0.083621  0.879250  0.402192  1
  N  N51  1  0.815755  0.521529  0.401525  1
  N  N52  1  0.096676  0.618234  0.412536  1
  N  N53  1  0.816138  0.797148  0.414347  1
  N  N54  1  0.597809  0.181430  0.477058  1
  N  N55  1  0.381336  0.296492  0.480034  1
  N  N56  1  0.617199  0.702852  0.518990  1
  N  N57  1  0.400650  0.816480  0.521496  1
  N  N58  1  0.183543  0.203507  0.584843  1
  N  N59  1  0.902202  0.382801  0.588645  1
  N  N60  1  0.915830  0.120846  0.599350  1
  N  N61  1  0.187330  0.480716  0.600029  1
  N  N62  1  0.415156  0.098699  0.618664  1
  N  N63  1  0.702874  0.520212  0.617069  1
  N  N64  1  0.089292  0.714317  0.686216  1
  N  N65  1  0.096857  0.979788  0.682661  1
  N  N66  1  0.683777  0.085612  0.704258  1
  N  N67  1  0.522942  0.620750  0.704372  1
  N  N68  1  0.411354  0.813556  0.794156  1
  N  N69  1  0.879996  0.978471  0.794227  1
  N  N70  1  0.519966  0.401302  0.816457  1
  N  N71  1  0.793385  0.412697  0.812670  1
  N  N72  1  0.399972  0.087303  0.880688  1
  N  N73  1  0.971900  0.785684  0.874975  1
  N  N74  1  0.021557  0.315860  0.903324  1
  N  N75  1  0.382930  0.585804  0.903143  1
  N  N76  1  0.295628  0.318570  0.916380  1
  N  N77  1  0.125025  0.596924  0.910708  1
  N  N78  1  0.670323  0.089154  0.964730  1
  N  N79  1  0.794303  0.881766  0.978442  1
