# generated using pymatgen
data_Cd(PAu)2
_symmetry_space_group_name_H-M   'P 1'
_cell_length_a   5.98720101
_cell_length_b   5.98720186
_cell_length_c   11.36643500
_cell_angle_alpha   90.00000000
_cell_angle_beta   90.00000000
_cell_angle_gamma   148.46268804
_symmetry_Int_Tables_number   1
_chemical_formula_structural   Cd(PAu)2
_chemical_formula_sum   'Cd2 P4 Au4'
_cell_volume   213.11709939
_cell_formula_units_Z   2
loop_
 _symmetry_equiv_pos_site_id
 _symmetry_equiv_pos_as_xyz
  1  'x, y, z'
loop_
 _atom_site_type_symbol
 _atom_site_label
 _atom_site_symmetry_multiplicity
 _atom_site_fract_x
 _atom_site_fract_y
 _atom_site_fract_z
 _atom_site_occupancy
  Cd  Cd0  1  0.522401  0.477599  0.750000  1
  Cd  Cd1  1  0.477599  0.522401  0.250000  1
  P  P2  1  0.798389  0.201611  0.542997  1
  P  P3  1  0.201611  0.798389  0.042997  1
  P  P4  1  0.201611  0.798389  0.457003  1
  P  P5  1  0.798389  0.201611  0.957003  1
  Au  Au6  1  0.000000  0.000000  0.000000  1
  Au  Au7  1  0.776475  0.223525  0.750000  1
  Au  Au8  1  0.000000  0.000000  0.500000  1
  Au  Au9  1  0.223525  0.776475  0.250000  1
