# generated using pymatgen
data_Ho4GeAs5Rh7
_symmetry_space_group_name_H-M   'P 1'
_cell_length_a   7.27318859
_cell_length_b   7.27319009
_cell_length_c   7.27318846
_cell_angle_alpha   109.46890236
_cell_angle_beta   109.47238778
_cell_angle_gamma   109.47237561
_symmetry_Int_Tables_number   1
_chemical_formula_structural   Ho4GeAs5Rh7
_chemical_formula_sum   'Ho4 Ge1 As5 Rh7'
_cell_volume   296.17794546
_cell_formula_units_Z   1
loop_
 _symmetry_equiv_pos_site_id
 _symmetry_equiv_pos_as_xyz
  1  'x, y, z'
loop_
 _atom_site_type_symbol
 _atom_site_label
 _atom_site_symmetry_multiplicity
 _atom_site_fract_x
 _atom_site_fract_y
 _atom_site_fract_z
 _atom_site_occupancy
  Ho  Ho0  1  0.000000  0.000456  0.500116  1
  Ho  Ho1  1  0.000000  0.500116  0.000456  1
  Ho  Ho2  1  0.500339  0.000456  0.000456  1
  Ho  Ho3  1  0.499661  0.500116  0.500116  1
  Ge  Ge4  1  0.000000  0.680822  0.680822  1
  As  As5  1  0.681530  0.680274  0.998745  1
  As  As6  1  0.318470  0.998745  0.317215  1
  As  As7  1  0.000000  0.323017  0.323017  1
  As  As8  1  0.318470  0.317215  0.998745  1
  As  As9  1  0.681530  0.998745  0.680274  1
  Rh  Rh10  1  0.749269  0.250713  0.501444  1
  Rh  Rh11  1  0.749269  0.501444  0.250713  1
  Rh  Rh12  1  0.500000  0.249138  0.749138  1
  Rh  Rh13  1  0.250731  0.501444  0.752175  1
  Rh  Rh14  1  0.250731  0.752175  0.501444  1
  Rh  Rh15  1  0.500000  0.749138  0.249138  1
  Rh  Rh16  1  0.000000  0.995986  0.995986  1
