# generated using pymatgen
data_La17Tc2Hg3Rh2
_symmetry_space_group_name_H-M   'P 1'
_cell_length_a   10.11437600
_cell_length_b   10.15140312
_cell_length_c   10.25338201
_cell_angle_alpha   59.64070335
_cell_angle_beta   59.50090267
_cell_angle_gamma   59.47261112
_symmetry_Int_Tables_number   1
_chemical_formula_structural   La17Tc2Hg3Rh2
_chemical_formula_sum   'La17 Tc2 Hg3 Rh2'
_cell_volume   736.59640634
_cell_formula_units_Z   1
loop_
 _symmetry_equiv_pos_site_id
 _symmetry_equiv_pos_as_xyz
  1  'x, y, z'
loop_
 _atom_site_type_symbol
 _atom_site_label
 _atom_site_symmetry_multiplicity
 _atom_site_fract_x
 _atom_site_fract_y
 _atom_site_fract_z
 _atom_site_occupancy
  La  La0  1  0.341829  0.345212  0.347561  1
  La  La1  1  0.344075  0.346457  0.964936  1
  La  La2  1  0.344568  0.965627  0.346360  1
  La  La3  1  0.953871  0.345256  0.347596  1
  La  La4  1  0.809215  0.193617  0.192190  1
  La  La5  1  0.180893  0.824194  0.814332  1
  La  La6  1  0.182451  0.821308  0.183617  1
  La  La7  1  0.808604  0.196141  0.801753  1
  La  La8  1  0.183102  0.184140  0.815587  1
  La  La9  1  0.800377  0.805271  0.196786  1
  La  La10  1  0.947532  0.559531  0.562190  1
  La  La11  1  0.550853  0.943317  0.943774  1
  La  La12  1  0.555001  0.942665  0.563439  1
  La  La13  1  0.949677  0.557918  0.928226  1
  La  La14  1  0.559180  0.561924  0.941782  1
  La  La15  1  0.952136  0.930121  0.557574  1
  La  La16  1  0.279825  0.574679  0.572787  1
  Tc  Tc17  1  0.134108  0.133331  0.133961  1
  Tc  Tc18  1  0.133284  0.133720  0.597027  1
  Hg  Hg19  1  0.589795  0.586250  0.587423  1
  Hg  Hg20  1  0.592210  0.584494  0.236398  1
  Hg  Hg21  1  0.592419  0.236506  0.584423  1
  Rh  Rh22  1  0.135961  0.585071  0.139221  1
  Rh  Rh23  1  0.579033  0.143250  0.141056  1
