# generated using pymatgen
data_Cs4Pr3Nd(GeSe4)4
_symmetry_space_group_name_H-M   'P 1'
_cell_length_a   7.23431504
_cell_length_b   6.93798819
_cell_length_c   19.90077548
_cell_angle_alpha   71.34301006
_cell_angle_beta   89.98749754
_cell_angle_gamma   89.99367601
_symmetry_Int_Tables_number   1
_chemical_formula_structural   Cs4Pr3Nd(GeSe4)4
_chemical_formula_sum   'Cs4 Pr3 Nd1 Ge4 Se16'
_cell_volume   946.36261858
_cell_formula_units_Z   1
loop_
 _symmetry_equiv_pos_site_id
 _symmetry_equiv_pos_as_xyz
  1  'x, y, z'
loop_
 _atom_site_type_symbol
 _atom_site_label
 _atom_site_symmetry_multiplicity
 _atom_site_fract_x
 _atom_site_fract_y
 _atom_site_fract_z
 _atom_site_occupancy
  Cs  Cs0  1  0.749744  0.727238  0.033236  1
  Cs  Cs1  1  0.250257  0.272767  0.966751  1
  Cs  Cs2  1  0.750258  0.727220  0.533240  1
  Cs  Cs3  1  0.249744  0.272769  0.466772  1
  Pr  Pr4  1  0.233319  0.227245  0.227215  1
  Pr  Pr5  1  0.733318  0.772753  0.272784  1
  Pr  Pr6  1  0.766663  0.772764  0.772773  1
  Nd  Nd7  1  0.267007  0.227487  0.727197  1
  Ge  Ge8  1  0.732641  0.213267  0.833882  1
  Ge  Ge9  1  0.767372  0.213242  0.333917  1
  Ge  Ge10  1  0.232636  0.786735  0.666122  1
  Ge  Ge11  1  0.267381  0.786756  0.166085  1
  Se  Se12  1  0.506475  0.038624  0.143921  1
  Se  Se13  1  0.758648  0.414626  0.409496  1
  Se  Se14  1  0.005468  0.008542  0.847429  1
  Se  Se15  1  0.838675  0.428157  0.217140  1
  Se  Se16  1  0.993964  0.038986  0.644064  1
  Se  Se17  1  0.258651  0.585374  0.090505  1
  Se  Se18  1  0.741357  0.414612  0.909505  1
  Se  Se19  1  0.338669  0.571841  0.282857  1
  Se  Se20  1  0.241404  0.584496  0.590814  1
  Se  Se21  1  0.493131  0.961851  0.855851  1
  Se  Se22  1  0.660700  0.427888  0.717149  1
  Se  Se23  1  0.161524  0.570969  0.782739  1
  Se  Se24  1  0.006472  0.961370  0.356080  1
  Se  Se25  1  0.995036  0.991870  0.152321  1
  Se  Se26  1  0.495026  0.008131  0.347683  1
  Se  Se27  1  0.504459  0.992418  0.652473  1
