# generated using pymatgen
data_Be15Nb6FeCu7
_symmetry_space_group_name_H-M   'P 1'
_cell_length_a   7.67401645
_cell_length_b   7.67401648
_cell_length_c   7.67401694
_cell_angle_alpha   59.63003320
_cell_angle_beta   59.63002954
_cell_angle_gamma   59.63003212
_symmetry_Int_Tables_number   1
_chemical_formula_structural   Be15Nb6FeCu7
_chemical_formula_sum   'Be15 Nb6 Fe1 Cu7'
_cell_volume   316.87391056
_cell_formula_units_Z   1
loop_
 _symmetry_equiv_pos_site_id
 _symmetry_equiv_pos_as_xyz
  1  'x, y, z'
loop_
 _atom_site_type_symbol
 _atom_site_label
 _atom_site_symmetry_multiplicity
 _atom_site_fract_x
 _atom_site_fract_y
 _atom_site_fract_z
 _atom_site_occupancy
  Be  Be0  1  0.326451  0.326451  0.326451  1
  Be  Be1  1  0.674533  0.674533  0.674533  1
  Be  Be2  1  0.322470  0.322470  0.024391  1
  Be  Be3  1  0.322470  0.024391  0.322470  1
  Be  Be4  1  0.673597  0.673597  0.979067  1
  Be  Be5  1  0.673597  0.979067  0.673597  1
  Be  Be6  1  0.024391  0.322470  0.322470  1
  Be  Be7  1  0.979067  0.673597  0.673597  1
  Be  Be8  1  0.496410  0.000911  0.000911  1
  Be  Be9  1  0.000540  0.499425  0.499425  1
  Be  Be10  1  0.000911  0.496410  0.000911  1
  Be  Be11  1  0.499425  0.000540  0.499425  1
  Be  Be12  1  0.000911  0.000911  0.496410  1
  Be  Be13  1  0.499425  0.499425  0.000540  1
  Be  Be14  1  0.000881  0.000881  0.000881  1
  Nb  Nb15  1  0.711949  0.298740  0.298740  1
  Nb  Nb16  1  0.308735  0.693899  0.693899  1
  Nb  Nb17  1  0.298740  0.711949  0.298740  1
  Nb  Nb18  1  0.693899  0.308735  0.693899  1
  Nb  Nb19  1  0.298740  0.298740  0.711949  1
  Nb  Nb20  1  0.693899  0.693899  0.308735  1
  Fe  Fe21  1  0.122154  0.122154  0.122154  1
  Cu  Cu22  1  0.877597  0.877597  0.877597  1
  Cu  Cu23  1  0.122429  0.122429  0.632104  1
  Cu  Cu24  1  0.122429  0.632104  0.122429  1
  Cu  Cu25  1  0.876605  0.876605  0.369035  1
  Cu  Cu26  1  0.876605  0.369035  0.876605  1
  Cu  Cu27  1  0.632104  0.122429  0.122429  1
  Cu  Cu28  1  0.369035  0.876605  0.876605  1
