# generated using pymatgen
data_Ce3Er2Ir3
_symmetry_space_group_name_H-M   'P 1'
_cell_length_a   11.00664500
_cell_length_b   11.06049300
_cell_length_c   6.24680200
_cell_angle_alpha   90.00000000
_cell_angle_beta   90.00000000
_cell_angle_gamma   90.00000000
_symmetry_Int_Tables_number   1
_chemical_formula_structural   Ce3Er2Ir3
_chemical_formula_sum   'Ce12 Er8 Ir12'
_cell_volume   760.47892878
_cell_formula_units_Z   4
loop_
 _symmetry_equiv_pos_site_id
 _symmetry_equiv_pos_as_xyz
  1  'x, y, z'
loop_
 _atom_site_type_symbol
 _atom_site_label
 _atom_site_symmetry_multiplicity
 _atom_site_fract_x
 _atom_site_fract_y
 _atom_site_fract_z
 _atom_site_occupancy
  Ce  Ce0  1  0.288355  0.090995  0.378933  1
  Ce  Ce1  1  0.288355  0.909005  0.878933  1
  Ce  Ce2  1  0.711645  0.090995  0.878933  1
  Ce  Ce3  1  0.711645  0.909005  0.378933  1
  Ce  Ce4  1  0.592369  0.786124  0.881975  1
  Ce  Ce5  1  0.592369  0.213876  0.381975  1
  Ce  Ce6  1  0.407631  0.786124  0.381975  1
  Ce  Ce7  1  0.407631  0.213876  0.881975  1
  Ce  Ce8  1  0.206888  0.410606  0.619444  1
  Ce  Ce9  1  0.206888  0.589394  0.119444  1
  Ce  Ce10  1  0.793112  0.410606  0.119444  1
  Ce  Ce11  1  0.793112  0.589394  0.619444  1
  Er  Er12  1  0.914986  0.711963  0.119125  1
  Er  Er13  1  0.914986  0.288037  0.619125  1
  Er  Er14  1  0.085014  0.711963  0.619125  1
  Er  Er15  1  0.085014  0.288037  0.119125  1
  Er  Er16  1  0.000000  0.000000  0.497028  1
  Er  Er17  1  0.000000  0.000000  0.997028  1
  Er  Er18  1  0.500000  0.500000  0.005661  1
  Er  Er19  1  0.500000  0.500000  0.505661  1
  Ir  Ir20  1  0.845352  0.152407  0.244273  1
  Ir  Ir21  1  0.845352  0.847593  0.744273  1
  Ir  Ir22  1  0.154648  0.152407  0.744273  1
  Ir  Ir23  1  0.154648  0.847593  0.244273  1
  Ir  Ir24  1  0.655432  0.343985  0.753969  1
  Ir  Ir25  1  0.655432  0.656015  0.253969  1
  Ir  Ir26  1  0.344568  0.343985  0.253969  1
  Ir  Ir27  1  0.344568  0.656015  0.753969  1
  Ir  Ir28  1  0.500000  0.000000  0.120365  1
  Ir  Ir29  1  0.500000  0.000000  0.620365  1
  Ir  Ir30  1  0.000000  0.500000  0.881508  1
  Ir  Ir31  1  0.000000  0.500000  0.381508  1
