# generated using pymatgen
data_Tb10AgPb6Br
_symmetry_space_group_name_H-M   'P 1'
_cell_length_a   9.31324800
_cell_length_b   9.31330015
_cell_length_c   6.72236400
_cell_angle_alpha   90.00076900
_cell_angle_beta   90.00011074
_cell_angle_gamma   120.00051092
_symmetry_Int_Tables_number   1
_chemical_formula_structural   Tb10AgPb6Br
_chemical_formula_sum   'Tb10 Ag1 Pb6 Br1'
_cell_volume   504.95791984
_cell_formula_units_Z   1
loop_
 _symmetry_equiv_pos_site_id
 _symmetry_equiv_pos_as_xyz
  1  'x, y, z'
loop_
 _atom_site_type_symbol
 _atom_site_label
 _atom_site_symmetry_multiplicity
 _atom_site_fract_x
 _atom_site_fract_y
 _atom_site_fract_z
 _atom_site_occupancy
  Tb  Tb0  1  0.264476  0.000034  0.249331  1
  Tb  Tb1  1  0.735524  0.999966  0.750669  1
  Tb  Tb2  1  0.000057  0.264331  0.249014  1
  Tb  Tb3  1  0.999943  0.735669  0.750986  1
  Tb  Tb4  1  0.735619  0.735759  0.248862  1
  Tb  Tb5  1  0.264381  0.264241  0.751138  1
  Tb  Tb6  1  0.333581  0.666840  0.999718  1
  Tb  Tb7  1  0.666419  0.333160  0.000282  1
  Tb  Tb8  1  0.667145  0.333697  0.500202  1
  Tb  Tb9  1  0.332855  0.666303  0.499798  1
  Ag  Ag10  1  0.000000  0.000000  0.500000  1
  Pb  Pb11  1  0.613047  0.000005  0.250129  1
  Pb  Pb12  1  0.386953  0.999995  0.749871  1
  Pb  Pb13  1  0.999918  0.612924  0.249517  1
  Pb  Pb14  1  0.000082  0.387076  0.750483  1
  Pb  Pb15  1  0.387068  0.386876  0.250132  1
  Pb  Pb16  1  0.612932  0.613124  0.749868  1
  Br  Br17  1  0.000000  0.000000  0.000000  1
