# generated using pymatgen
data_Y4AlGa(B2Rh5)2
_symmetry_space_group_name_H-M   'P 1'
_cell_length_a   9.52705100
_cell_length_b   9.52705100
_cell_length_c   3.19537000
_cell_angle_alpha   90.00000000
_cell_angle_beta   90.00000000
_cell_angle_gamma   90.00000000
_symmetry_Int_Tables_number   1
_chemical_formula_structural   Y4AlGa(B2Rh5)2
_chemical_formula_sum   'Y4 Al1 Ga1 B4 Rh10'
_cell_volume   290.02680186
_cell_formula_units_Z   1
loop_
 _symmetry_equiv_pos_site_id
 _symmetry_equiv_pos_as_xyz
  1  'x, y, z'
loop_
 _atom_site_type_symbol
 _atom_site_label
 _atom_site_symmetry_multiplicity
 _atom_site_fract_x
 _atom_site_fract_y
 _atom_site_fract_z
 _atom_site_occupancy
  Y  Y0  1  0.825049  0.324945  0.000000  1
  Y  Y1  1  0.324945  0.174951  0.000000  1
  Y  Y2  1  0.675055  0.825049  0.000000  1
  Y  Y3  1  0.174951  0.675055  0.000000  1
  Al  Al4  1  0.500000  0.500000  0.000000  1
  Ga  Ga5  1  0.000000  0.000000  0.000000  1
  B  B6  1  0.622420  0.121901  0.000000  1
  B  B7  1  0.121901  0.377580  0.000000  1
  B  B8  1  0.878099  0.622420  0.000000  1
  B  B9  1  0.377580  0.878099  0.000000  1
  Rh  Rh10  1  0.070472  0.219473  0.500000  1
  Rh  Rh11  1  0.219473  0.929528  0.500000  1
  Rh  Rh12  1  0.780527  0.070472  0.500000  1
  Rh  Rh13  1  0.929528  0.780527  0.500000  1
  Rh  Rh14  1  0.429829  0.718851  0.500000  1
  Rh  Rh15  1  0.570171  0.281149  0.500000  1
  Rh  Rh16  1  0.718851  0.570171  0.500000  1
  Rh  Rh17  1  0.281149  0.429829  0.500000  1
  Rh  Rh18  1  0.500000  0.000000  0.500000  1
  Rh  Rh19  1  0.000000  0.500000  0.500000  1
