# generated using pymatgen
data_Hf3Sc(FeB4)4
_symmetry_space_group_name_H-M   'P 1'
_cell_length_a   5.75612704
_cell_length_b   11.14724307
_cell_length_c   3.24631300
_cell_angle_alpha   90.00000000
_cell_angle_beta   90.00000000
_cell_angle_gamma   90.01324401
_symmetry_Int_Tables_number   1
_chemical_formula_structural   Hf3Sc(FeB4)4
_chemical_formula_sum   'Hf3 Sc1 Fe4 B16'
_cell_volume   208.29949689
_cell_formula_units_Z   1
loop_
 _symmetry_equiv_pos_site_id
 _symmetry_equiv_pos_as_xyz
  1  'x, y, z'
loop_
 _atom_site_type_symbol
 _atom_site_label
 _atom_site_symmetry_multiplicity
 _atom_site_fract_x
 _atom_site_fract_y
 _atom_site_fract_z
 _atom_site_occupancy
  Hf  Hf0  1  0.628234  0.350875  0.000000  1
  Hf  Hf1  1  0.371815  0.649623  0.000000  1
  Hf  Hf2  1  0.129744  0.148986  0.000000  1
  Sc  Sc3  1  0.870541  0.850576  0.000000  1
  Fe  Fe4  1  0.633513  0.092020  0.000000  1
  Fe  Fe5  1  0.365817  0.910179  0.000000  1
  Fe  Fe6  1  0.134210  0.408474  0.000000  1
  Fe  Fe7  1  0.865698  0.589900  0.000000  1
  B  B8  1  0.789329  0.185970  0.500000  1
  B  B9  1  0.211081  0.813933  0.500000  1
  B  B10  1  0.289293  0.313399  0.500000  1
  B  B11  1  0.711235  0.686469  0.500000  1
  B  B12  1  0.865572  0.031443  0.500000  1
  B  B13  1  0.134625  0.968327  0.500000  1
  B  B14  1  0.365635  0.468159  0.500000  1
  B  B15  1  0.633863  0.531901  0.500000  1
  B  B16  1  0.886000  0.452766  0.500000  1
  B  B17  1  0.113293  0.547614  0.500000  1
  B  B18  1  0.387024  0.046712  0.500000  1
  B  B19  1  0.614879  0.952435  0.500000  1
  B  B20  1  0.975323  0.306241  0.500000  1
  B  B21  1  0.023745  0.693886  0.500000  1
  B  B22  1  0.475658  0.193555  0.500000  1
  B  B23  1  0.523875  0.806559  0.500000  1
