# generated using pymatgen
data_NdLu4Cr3(P3Ir4)4
_symmetry_space_group_name_H-M   'P 1'
_cell_length_a   12.55313412
_cell_length_b   12.55313387
_cell_length_c   3.98643600
_cell_angle_alpha   90.00000000
_cell_angle_beta   90.00000000
_cell_angle_gamma   119.95638606
_symmetry_Int_Tables_number   1
_chemical_formula_structural   NdLu4Cr3(P3Ir4)4
_chemical_formula_sum   'Nd1 Lu4 Cr3 P12 Ir16'
_cell_volume   544.26505957
_cell_formula_units_Z   1
loop_
 _symmetry_equiv_pos_site_id
 _symmetry_equiv_pos_as_xyz
  1  'x, y, z'
loop_
 _atom_site_type_symbol
 _atom_site_label
 _atom_site_symmetry_multiplicity
 _atom_site_fract_x
 _atom_site_fract_y
 _atom_site_fract_z
 _atom_site_occupancy
  Nd  Nd0  1  0.818005  0.818005  0.500000  1
  Lu  Lu1  1  0.666458  0.333436  0.000000  1
  Lu  Lu2  1  0.333436  0.666458  0.000000  1
  Lu  Lu3  1  0.181959  0.000178  0.500000  1
  Lu  Lu4  1  0.000178  0.181959  0.500000  1
  Cr  Cr5  1  0.292634  0.292634  0.500000  1
  Cr  Cr6  1  0.707408  0.001567  0.500000  1
  Cr  Cr7  1  0.001567  0.707408  0.500000  1
  P  P8  1  0.689808  0.168709  0.500000  1
  P  P9  1  0.832338  0.522460  0.500000  1
  P  P10  1  0.477578  0.309707  0.500000  1
  P  P11  1  0.168709  0.689808  0.500000  1
  P  P12  1  0.522460  0.832338  0.500000  1
  P  P13  1  0.309707  0.477578  0.500000  1
  P  P14  1  0.637638  0.637638  0.000000  1
  P  P15  1  0.359555  0.999913  0.000000  1
  P  P16  1  0.999913  0.359555  0.000000  1
  P  P17  1  0.183367  0.183367  0.000000  1
  P  P18  1  0.817850  0.001729  0.000000  1
  P  P19  1  0.001729  0.817850  0.000000  1
  Ir  Ir20  1  0.806566  0.181574  0.000000  1
  Ir  Ir21  1  0.819557  0.621870  0.000000  1
  Ir  Ir22  1  0.373819  0.193066  0.000000  1
  Ir  Ir23  1  0.181574  0.806566  0.000000  1
  Ir  Ir24  1  0.621870  0.819557  0.000000  1
  Ir  Ir25  1  0.193066  0.373819  0.000000  1
  Ir  Ir26  1  0.453172  0.453172  0.000000  1
  Ir  Ir27  1  0.545229  0.000758  0.000000  1
  Ir  Ir28  1  0.000758  0.545229  0.000000  1
  Ir  Ir29  1  0.868092  0.362184  0.500000  1
  Ir  Ir30  1  0.637352  0.505444  0.500000  1
  Ir  Ir31  1  0.493431  0.132135  0.500000  1
  Ir  Ir32  1  0.362184  0.868092  0.500000  1
  Ir  Ir33  1  0.505444  0.637352  0.500000  1
  Ir  Ir34  1  0.132135  0.493431  0.500000  1
  Ir  Ir35  1  0.003454  0.003454  0.000000  1
