# generated using pymatgen
data_Y6Zn21SiAg2
_symmetry_space_group_name_H-M   'P 1'
_cell_length_a   9.06393276
_cell_length_b   9.06067071
_cell_length_c   9.06067000
_cell_angle_alpha   60.00079119
_cell_angle_beta   60.01231577
_cell_angle_gamma   60.01231974
_symmetry_Int_Tables_number   1
_chemical_formula_structural   Y6Zn21SiAg2
_chemical_formula_sum   'Y6 Zn21 Si1 Ag2'
_cell_volume   526.26655238
_cell_formula_units_Z   1
loop_
 _symmetry_equiv_pos_site_id
 _symmetry_equiv_pos_as_xyz
  1  'x, y, z'
loop_
 _atom_site_type_symbol
 _atom_site_label
 _atom_site_symmetry_multiplicity
 _atom_site_fract_x
 _atom_site_fract_y
 _atom_site_fract_z
 _atom_site_occupancy
  Y  Y0  1  0.714619  0.285643  0.285643  1
  Y  Y1  1  0.714615  0.285647  0.714092  1
  Y  Y2  1  0.714616  0.714092  0.285646  1
  Y  Y3  1  0.280732  0.718636  0.718636  1
  Y  Y4  1  0.280730  0.718637  0.281996  1
  Y  Y5  1  0.280731  0.281996  0.718637  1
  Zn  Zn6  1  0.123647  0.619945  0.128205  1
  Zn  Zn7  1  0.123646  0.128206  0.619945  1
  Zn  Zn8  1  0.123648  0.128203  0.128204  1
  Zn  Zn9  1  0.386262  0.871247  0.871247  1
  Zn  Zn10  1  0.871010  0.372868  0.878060  1
  Zn  Zn11  1  0.871009  0.878060  0.372868  1
  Zn  Zn12  1  0.871008  0.878062  0.878062  1
  Zn  Zn13  1  0.497646  0.999889  0.999889  1
  Zn  Zn14  1  0.497650  0.999890  0.502573  1
  Zn  Zn15  1  0.497649  0.502573  0.999890  1
  Zn  Zn16  1  0.998562  0.500858  0.500858  1
  Zn  Zn17  1  0.998562  0.500858  0.999724  1
  Zn  Zn18  1  0.998562  0.999723  0.500858  1
  Zn  Zn19  1  0.004450  0.331850  0.331851  1
  Zn  Zn20  1  0.332416  0.003547  0.332020  1
  Zn  Zn21  1  0.332416  0.332020  0.003548  1
  Zn  Zn22  1  0.332418  0.332019  0.332019  1
  Zn  Zn23  1  0.995352  0.668216  0.668216  1
  Zn  Zn24  1  0.668046  0.996037  0.667958  1
  Zn  Zn25  1  0.668046  0.667958  0.996037  1
  Zn  Zn26  1  0.668046  0.667958  0.667958  1
  Si  Si27  1  0.493481  0.502174  0.502174  1
  Ag  Ag28  1  0.637831  0.120721  0.120722  1
  Ag  Ag29  1  0.022594  0.992468  0.992467  1
