# generated using pymatgen
data_Nd16CdAg3Pt4
_symmetry_space_group_name_H-M   'P 1'
_cell_length_a   9.93942874
_cell_length_b   9.99128748
_cell_length_c   9.99128800
_cell_angle_alpha   59.99999828
_cell_angle_beta   59.82725492
_cell_angle_gamma   59.82725631
_symmetry_Int_Tables_number   1
_chemical_formula_structural   Nd16CdAg3Pt4
_chemical_formula_sum   'Nd16 Cd1 Ag3 Pt4'
_cell_volume   699.76215260
_cell_formula_units_Z   1
loop_
 _symmetry_equiv_pos_site_id
 _symmetry_equiv_pos_as_xyz
  1  'x, y, z'
loop_
 _atom_site_type_symbol
 _atom_site_label
 _atom_site_symmetry_multiplicity
 _atom_site_fract_x
 _atom_site_fract_y
 _atom_site_fract_z
 _atom_site_occupancy
  Nd  Nd0  1  0.352744  0.351677  0.351677  1
  Nd  Nd1  1  0.352744  0.351677  0.943903  1
  Nd  Nd2  1  0.352744  0.943903  0.351677  1
  Nd  Nd3  1  0.939410  0.353530  0.353530  1
  Nd  Nd4  1  0.809600  0.190684  0.190684  1
  Nd  Nd5  1  0.191102  0.808684  0.808684  1
  Nd  Nd6  1  0.191102  0.808684  0.191530  1
  Nd  Nd7  1  0.809600  0.190684  0.809032  1
  Nd  Nd8  1  0.191102  0.191530  0.808684  1
  Nd  Nd9  1  0.809600  0.809032  0.190684  1
  Nd  Nd10  1  0.931575  0.565201  0.565201  1
  Nd  Nd11  1  0.564146  0.935587  0.935587  1
  Nd  Nd12  1  0.564146  0.935587  0.564680  1
  Nd  Nd13  1  0.931575  0.565201  0.938022  1
  Nd  Nd14  1  0.564146  0.564680  0.935587  1
  Nd  Nd15  1  0.931575  0.938022  0.565201  1
  Cd  Cd16  1  0.266753  0.577749  0.577749  1
  Ag  Ag17  1  0.581723  0.582668  0.582668  1
  Ag  Ag18  1  0.581723  0.582668  0.252942  1
  Ag  Ag19  1  0.581723  0.252942  0.582668  1
  Pt  Pt20  1  0.143543  0.143537  0.143537  1
  Pt  Pt21  1  0.143543  0.143537  0.569383  1
  Pt  Pt22  1  0.143543  0.569383  0.143537  1
  Pt  Pt23  1  0.570541  0.143153  0.143153  1
