# generated using pymatgen
data_Zr2Ta(MoP)3
_symmetry_space_group_name_H-M   'P 1'
_cell_length_a   6.91267746
_cell_length_b   6.91267807
_cell_length_c   3.41465200
_cell_angle_alpha   90.00000000
_cell_angle_beta   90.00000000
_cell_angle_gamma   119.84338413
_symmetry_Int_Tables_number   1
_chemical_formula_structural   Zr2Ta(MoP)3
_chemical_formula_sum   'Zr2 Ta1 Mo3 P3'
_cell_volume   141.53144291
_cell_formula_units_Z   1
loop_
 _symmetry_equiv_pos_site_id
 _symmetry_equiv_pos_as_xyz
  1  'x, y, z'
loop_
 _atom_site_type_symbol
 _atom_site_label
 _atom_site_symmetry_multiplicity
 _atom_site_fract_x
 _atom_site_fract_y
 _atom_site_fract_z
 _atom_site_occupancy
  Zr  Zr0  1  0.594867  0.998884  0.500000  1
  Zr  Zr1  1  0.998884  0.594867  0.500000  1
  Ta  Ta2  1  0.403243  0.403243  0.500000  1
  Mo  Mo3  1  0.006718  0.254813  0.000000  1
  Mo  Mo4  1  0.254813  0.006718  0.000000  1
  Mo  Mo5  1  0.743873  0.743873  0.000000  1
  P  P6  1  0.662555  0.334371  0.000000  1
  P  P7  1  0.334371  0.662555  0.000000  1
  P  P8  1  0.000676  0.000676  0.500000  1
