# generated using pymatgen
data_Tm5Lu(Si3Ru)8
_symmetry_space_group_name_H-M   'P 1'
_cell_length_a   10.08803954
_cell_length_b   10.08803887
_cell_length_c   8.10299107
_cell_angle_alpha   90.02181770
_cell_angle_beta   90.02181303
_cell_angle_gamma   132.69445595
_symmetry_Int_Tables_number   1
_chemical_formula_structural   Tm5Lu(Si3Ru)8
_chemical_formula_sum   'Tm5 Lu1 Si24 Ru8'
_cell_volume   606.08611419
_cell_formula_units_Z   1
loop_
 _symmetry_equiv_pos_site_id
 _symmetry_equiv_pos_as_xyz
  1  'x, y, z'
loop_
 _atom_site_type_symbol
 _atom_site_label
 _atom_site_symmetry_multiplicity
 _atom_site_fract_x
 _atom_site_fract_y
 _atom_site_fract_z
 _atom_site_occupancy
  Tm  Tm0  1  0.500000  0.500000  0.500000  1
  Tm  Tm1  1  0.502576  0.002413  0.749700  1
  Tm  Tm2  1  0.997587  0.497424  0.250300  1
  Tm  Tm3  1  0.497424  0.997587  0.250300  1
  Tm  Tm4  1  0.002413  0.502576  0.749700  1
  Lu  Lu5  1  0.000000  0.000000  0.000000  1
  Si  Si6  1  0.795026  0.204974  0.500000  1
  Si  Si7  1  0.295383  0.704617  0.000000  1
  Si  Si8  1  0.204974  0.795026  0.500000  1
  Si  Si9  1  0.704617  0.295383  0.000000  1
  Si  Si10  1  0.331907  0.331907  0.833783  1
  Si  Si11  1  0.668093  0.668093  0.166217  1
  Si  Si12  1  0.166750  0.166750  0.332770  1
  Si  Si13  1  0.833250  0.833250  0.667230  1
  Si  Si14  1  0.121676  0.887063  0.728664  1
  Si  Si15  1  0.112937  0.878324  0.271336  1
  Si  Si16  1  0.611617  0.377164  0.228969  1
  Si  Si17  1  0.622836  0.388383  0.771031  1
  Si  Si18  1  0.878324  0.112937  0.271336  1
  Si  Si19  1  0.887063  0.121676  0.728664  1
  Si  Si20  1  0.388383  0.622836  0.771031  1
  Si  Si21  1  0.377164  0.611617  0.228969  1
  Si  Si22  1  0.345380  0.111513  0.504946  1
  Si  Si23  1  0.888487  0.654620  0.495054  1
  Si  Si24  1  0.387471  0.154125  0.005228  1
  Si  Si25  1  0.845875  0.612529  0.994772  1
  Si  Si26  1  0.654620  0.888487  0.495054  1
  Si  Si27  1  0.111513  0.345380  0.504946  1
  Si  Si28  1  0.612529  0.845875  0.994772  1
  Si  Si29  1  0.154125  0.387471  0.005228  1
  Ru  Ru30  1  0.669737  0.330263  0.500000  1
  Ru  Ru31  1  0.170091  0.829909  0.000000  1
  Ru  Ru32  1  0.330263  0.669737  0.500000  1
  Ru  Ru33  1  0.829909  0.170091  0.000000  1
  Ru  Ru34  1  0.126889  0.126889  0.627330  1
  Ru  Ru35  1  0.873111  0.873111  0.372670  1
  Ru  Ru36  1  0.373060  0.373060  0.128396  1
  Ru  Ru37  1  0.626940  0.626940  0.871604  1
