# generated using pymatgen
data_DyHo9(Ir2Ru)2
_symmetry_space_group_name_H-M   'P 1'
_cell_length_a   10.79147602
_cell_length_b   10.79167100
_cell_length_c   6.41587801
_cell_angle_alpha   90.00000000
_cell_angle_beta   90.00635949
_cell_angle_gamma   90.00000000
_symmetry_Int_Tables_number   1
_chemical_formula_structural   DyHo9(Ir2Ru)2
_chemical_formula_sum   'Dy2 Ho18 Ir8 Ru4'
_cell_volume   747.18069377
_cell_formula_units_Z   2
loop_
 _symmetry_equiv_pos_site_id
 _symmetry_equiv_pos_as_xyz
  1  'x, y, z'
loop_
 _atom_site_type_symbol
 _atom_site_label
 _atom_site_symmetry_multiplicity
 _atom_site_fract_x
 _atom_site_fract_y
 _atom_site_fract_z
 _atom_site_occupancy
  Dy  Dy0  1  0.293417  0.086671  0.377470  1
  Dy  Dy1  1  0.293417  0.913329  0.877470  1
  Ho  Ho2  1  0.706587  0.086578  0.877528  1
  Ho  Ho3  1  0.706587  0.913422  0.377528  1
  Ho  Ho4  1  0.586662  0.793362  0.877632  1
  Ho  Ho5  1  0.586662  0.206638  0.377632  1
  Ho  Ho6  1  0.413587  0.793265  0.377512  1
  Ho  Ho7  1  0.413587  0.206735  0.877512  1
  Ho  Ho8  1  0.206612  0.413475  0.622471  1
  Ho  Ho9  1  0.206612  0.586525  0.122471  1
  Ho  Ho10  1  0.793353  0.413372  0.122475  1
  Ho  Ho11  1  0.793353  0.586628  0.622475  1
  Ho  Ho12  1  0.913325  0.706626  0.122523  1
  Ho  Ho13  1  0.913325  0.293374  0.622523  1
  Ho  Ho14  1  0.086554  0.706519  0.622336  1
  Ho  Ho15  1  0.086554  0.293481  0.122336  1
  Ho  Ho16  1  0.999852  0.999984  0.499893  1
  Ho  Ho17  1  0.999852  0.000016  0.999893  1
  Ho  Ho18  1  0.500013  0.499926  0.999884  1
  Ho  Ho19  1  0.500013  0.500074  0.499884  1
  Ir  Ir20  1  0.847706  0.152425  0.250057  1
  Ir  Ir21  1  0.847706  0.847575  0.750057  1
  Ir  Ir22  1  0.152061  0.152594  0.750260  1
  Ir  Ir23  1  0.152061  0.847406  0.250260  1
  Ir  Ir24  1  0.652418  0.347635  0.750091  1
  Ir  Ir25  1  0.652418  0.652365  0.250091  1
  Ir  Ir26  1  0.347619  0.347911  0.249913  1
  Ir  Ir27  1  0.347619  0.652089  0.749913  1
  Ru  Ru28  1  0.500181  0.999956  0.121835  1
  Ru  Ru29  1  0.500181  0.000044  0.621835  1
  Ru  Ru30  1  0.000054  0.499941  0.878118  1
  Ru  Ru31  1  0.000054  0.500059  0.378118  1
