# generated using pymatgen
data_Cs6(IrO3)5
_symmetry_space_group_name_H-M   'P 1'
_cell_length_a   8.05347796
_cell_length_b   8.05351122
_cell_length_c   8.05301738
_cell_angle_alpha   92.25314549
_cell_angle_beta   92.24813849
_cell_angle_gamma   92.26417504
_symmetry_Int_Tables_number   1
_chemical_formula_structural   Cs6(IrO3)5
_chemical_formula_sum   'Cs6 Ir5 O15'
_cell_volume   521.06240925
_cell_formula_units_Z   1
loop_
 _symmetry_equiv_pos_site_id
 _symmetry_equiv_pos_as_xyz
  1  'x, y, z'
loop_
 _atom_site_type_symbol
 _atom_site_label
 _atom_site_symmetry_multiplicity
 _atom_site_fract_x
 _atom_site_fract_y
 _atom_site_fract_z
 _atom_site_occupancy
  Cs  Cs0  1  0.319116  0.680891  0.999901  1
  Cs  Cs1  1  0.999873  0.319134  0.680825  1
  Cs  Cs2  1  0.680871  0.999939  0.319192  1
  Cs  Cs3  1  0.148882  0.850882  0.500160  1
  Cs  Cs4  1  0.500215  0.148954  0.850879  1
  Cs  Cs5  1  0.850815  0.500106  0.148886  1
  Ir  Ir6  1  0.500040  0.499879  0.499951  1
  Ir  Ir7  1  0.294349  0.294328  0.294380  1
  Ir  Ir8  1  0.705587  0.705561  0.705534  1
  Ir  Ir9  1  0.096384  0.096489  0.096448  1
  Ir  Ir10  1  0.903693  0.903797  0.903740  1
  O  O11  1  0.133648  0.999956  0.866632  1
  O  O12  1  0.866522  0.133743  0.000014  1
  O  O13  1  0.000030  0.866631  0.133643  1
  O  O14  1  0.054479  0.214370  0.313823  1
  O  O15  1  0.313758  0.054572  0.214246  1
  O  O16  1  0.214359  0.313777  0.054555  1
  O  O17  1  0.785977  0.945308  0.686274  1
  O  O18  1  0.686294  0.785984  0.945238  1
  O  O19  1  0.945221  0.686313  0.786077  1
  O  O20  1  0.346188  0.303441  0.539709  1
  O  O21  1  0.539705  0.346170  0.303474  1
  O  O22  1  0.303599  0.539636  0.346229  1
  O  O23  1  0.696424  0.653751  0.460119  1
  O  O24  1  0.460203  0.696262  0.653715  1
  O  O25  1  0.653766  0.460129  0.696360  1
