# generated using pymatgen
data_LaTh(Be12Ni)2
_symmetry_space_group_name_H-M   'P 1'
_cell_length_a   7.37747562
_cell_length_b   7.41977997
_cell_length_c   7.34005826
_cell_angle_alpha   59.97392965
_cell_angle_beta   59.92633535
_cell_angle_gamma   59.47865543
_symmetry_Int_Tables_number   1
_chemical_formula_structural   LaTh(Be12Ni)2
_chemical_formula_sum   'La1 Th1 Be24 Ni2'
_cell_volume   282.75972777
_cell_formula_units_Z   1
loop_
 _symmetry_equiv_pos_site_id
 _symmetry_equiv_pos_as_xyz
  1  'x, y, z'
loop_
 _atom_site_type_symbol
 _atom_site_label
 _atom_site_symmetry_multiplicity
 _atom_site_fract_x
 _atom_site_fract_y
 _atom_site_fract_z
 _atom_site_occupancy
  La  La0  1  0.500917  0.499096  0.500884  1
  Th  Th1  1  0.998465  0.001542  0.998450  1
  Be  Be2  1  0.316506  0.537982  0.181143  1
  Be  Be3  1  0.181072  0.964332  0.316597  1
  Be  Be4  1  0.038549  0.685885  0.459281  1
  Be  Be5  1  0.459194  0.816245  0.038629  1
  Be  Be6  1  0.684599  0.033068  0.817082  1
  Be  Be7  1  0.817091  0.465239  0.684585  1
  Be  Be8  1  0.960001  0.543879  0.311387  1
  Be  Be9  1  0.541288  0.957080  0.187795  1
  Be  Be10  1  0.187880  0.313801  0.541284  1
  Be  Be11  1  0.311358  0.184713  0.959983  1
  Be  Be12  1  0.462837  0.031644  0.686783  1
  Be  Be13  1  0.035068  0.466209  0.815378  1
  Be  Be14  1  0.815316  0.683291  0.035139  1
  Be  Be15  1  0.686744  0.818678  0.462869  1
  Be  Be16  1  0.313027  0.960822  0.541141  1
  Be  Be17  1  0.185280  0.540950  0.960404  1
  Be  Be18  1  0.541148  0.185033  0.312940  1
  Be  Be19  1  0.960394  0.313307  0.185321  1
  Be  Be20  1  0.687134  0.464496  0.034101  1
  Be  Be21  1  0.815307  0.034156  0.463784  1
  Be  Be22  1  0.034060  0.814223  0.687183  1
  Be  Be23  1  0.463737  0.686783  0.815297  1
  Be  Be24  1  0.250042  0.249966  0.250000  1
  Be  Be25  1  0.749996  0.749960  0.750060  1
  Ni  Ni26  1  0.547161  0.308448  0.955515  1
  Ni  Ni27  1  0.955829  0.189173  0.546986  1
