# generated using pymatgen
data_MnSb12RuAu2
_symmetry_space_group_name_H-M   'P 1'
_cell_length_a   8.25388339
_cell_length_b   8.29596796
_cell_length_c   9.56808172
_cell_angle_alpha   54.25068634
_cell_angle_beta   54.31079953
_cell_angle_gamma   69.88509945
_symmetry_Int_Tables_number   1
_chemical_formula_structural   MnSb12RuAu2
_chemical_formula_sum   'Mn1 Sb12 Ru1 Au2'
_cell_volume   431.85400029
_cell_formula_units_Z   1
loop_
 _symmetry_equiv_pos_site_id
 _symmetry_equiv_pos_as_xyz
  1  'x, y, z'
loop_
 _atom_site_type_symbol
 _atom_site_label
 _atom_site_symmetry_multiplicity
 _atom_site_fract_x
 _atom_site_fract_y
 _atom_site_fract_z
 _atom_site_occupancy
  Mn  Mn0  1  0.000000  0.500000  0.000000  1
  Sb  Sb1  1  0.152270  0.162297  0.167881  1
  Sb  Sb2  1  0.847730  0.837703  0.832119  1
  Sb  Sb3  1  0.850807  0.850172  0.507551  1
  Sb  Sb4  1  0.149193  0.149828  0.492449  1
  Sb  Sb5  1  0.814132  0.502294  0.324621  1
  Sb  Sb6  1  0.185868  0.497706  0.675379  1
  Sb  Sb7  1  0.501824  0.808917  0.334483  1
  Sb  Sb8  1  0.498176  0.191083  0.665517  1
  Sb  Sb9  1  0.645660  0.332831  0.858793  1
  Sb  Sb10  1  0.354340  0.667169  0.141207  1
  Sb  Sb11  1  0.676660  0.356737  0.137145  1
  Sb  Sb12  1  0.323340  0.643263  0.862855  1
  Ru  Ru13  1  0.500000  0.000000  0.000000  1
  Au  Au14  1  0.000000  0.500000  0.500000  1
  Au  Au15  1  0.500000  0.000000  0.500000  1
