# generated using pymatgen
data_TbDy2Tm9Co4
_symmetry_space_group_name_H-M   'P 1'
_cell_length_a   6.15198410
_cell_length_b   6.88020029
_cell_length_c   9.25742100
_cell_angle_alpha   90.00000000
_cell_angle_beta   90.00000000
_cell_angle_gamma   89.93904433
_symmetry_Int_Tables_number   1
_chemical_formula_structural   TbDy2Tm9Co4
_chemical_formula_sum   'Tb1 Dy2 Tm9 Co4'
_cell_volume   391.83755157
_cell_formula_units_Z   1
loop_
 _symmetry_equiv_pos_site_id
 _symmetry_equiv_pos_as_xyz
  1  'x, y, z'
loop_
 _atom_site_type_symbol
 _atom_site_label
 _atom_site_symmetry_multiplicity
 _atom_site_fract_x
 _atom_site_fract_y
 _atom_site_fract_z
 _atom_site_occupancy
  Tb  Tb0  1  0.638277  0.042249  0.250000  1
  Dy  Dy1  1  0.137595  0.458117  0.750000  1
  Dy  Dy2  1  0.363393  0.957772  0.750000  1
  Tm  Tm3  1  0.323131  0.675521  0.068365  1
  Tm  Tm4  1  0.175343  0.176375  0.432264  1
  Tm  Tm5  1  0.676053  0.325130  0.567095  1
  Tm  Tm6  1  0.824463  0.823282  0.932797  1
  Tm  Tm7  1  0.676053  0.325130  0.932905  1
  Tm  Tm8  1  0.824463  0.823282  0.567203  1
  Tm  Tm9  1  0.323131  0.675521  0.431635  1
  Tm  Tm10  1  0.175343  0.176375  0.067736  1
  Tm  Tm11  1  0.861332  0.542076  0.250000  1
  Co  Co12  1  0.048647  0.886898  0.250000  1
  Co  Co13  1  0.452318  0.388674  0.250000  1
  Co  Co14  1  0.950202  0.111702  0.750000  1
  Co  Co15  1  0.550254  0.611893  0.750000  1
