# generated using pymatgen
data_Zr2InSnRh2
_symmetry_space_group_name_H-M   'P 1'
_cell_length_a   7.54485000
_cell_length_b   7.55435249
_cell_length_c   7.05083300
_cell_angle_alpha   89.99971670
_cell_angle_beta   90.00000000
_cell_angle_gamma   119.95839827
_symmetry_Int_Tables_number   1
_chemical_formula_structural   Zr2InSnRh2
_chemical_formula_sum   'Zr6 In3 Sn3 Rh6'
_cell_volume   348.17759610
_cell_formula_units_Z   3
loop_
 _symmetry_equiv_pos_site_id
 _symmetry_equiv_pos_as_xyz
  1  'x, y, z'
loop_
 _atom_site_type_symbol
 _atom_site_label
 _atom_site_symmetry_multiplicity
 _atom_site_fract_x
 _atom_site_fract_y
 _atom_site_fract_z
 _atom_site_occupancy
  Zr  Zr0  1  0.601868  0.997237  0.748345  1
  Zr  Zr1  1  0.396038  0.397932  0.749489  1
  Zr  Zr2  1  0.003476  0.604822  0.748306  1
  Zr  Zr3  1  0.604630  0.002763  0.251655  1
  Zr  Zr4  1  0.398655  0.395178  0.251694  1
  Zr  Zr5  1  0.998105  0.602068  0.250511  1
  In  In6  1  0.277688  0.000000  0.000000  1
  In  In7  1  0.729628  0.730629  0.500106  1
  In  In8  1  0.998999  0.269371  0.499894  1
  Sn  Sn9  1  0.001492  0.273598  0.999689  1
  Sn  Sn10  1  0.727894  0.726402  0.000311  1
  Sn  Sn11  1  0.263463  0.000000  0.500000  1
  Rh  Rh12  1  0.671779  0.336311  0.993987  1
  Rh  Rh13  1  0.660376  0.329341  0.505074  1
  Rh  Rh14  1  0.335467  0.663689  0.006013  1
  Rh  Rh15  1  0.331033  0.670659  0.494926  1
  Rh  Rh16  1  0.999681  0.999953  0.759094  1
  Rh  Rh17  1  0.999728  0.000047  0.240906  1
