# generated using pymatgen
data_K3Li2TiSb2As
_symmetry_space_group_name_H-M   'P 1'
_cell_length_a   10.68296640
_cell_length_b   10.68296635
_cell_length_c   15.62950200
_cell_angle_alpha   90.00000000
_cell_angle_beta   90.00000000
_cell_angle_gamma   143.26568299
_symmetry_Int_Tables_number   1
_chemical_formula_structural   K3Li2TiSb2As
_chemical_formula_sum   'K12 Li8 Ti4 Sb8 As4'
_cell_volume   1066.85767102
_cell_formula_units_Z   4
loop_
 _symmetry_equiv_pos_site_id
 _symmetry_equiv_pos_as_xyz
  1  'x, y, z'
loop_
 _atom_site_type_symbol
 _atom_site_label
 _atom_site_symmetry_multiplicity
 _atom_site_fract_x
 _atom_site_fract_y
 _atom_site_fract_z
 _atom_site_occupancy
  K  K0  1  0.601224  0.939897  0.830309  1
  K  K1  1  0.281667  0.281667  0.320423  1
  K  K2  1  0.218333  0.218333  0.820423  1
  K  K3  1  0.718333  0.718333  0.679577  1
  K  K4  1  0.439897  0.101224  0.669691  1
  K  K5  1  0.898776  0.560103  0.330309  1
  K  K6  1  0.060103  0.398776  0.169691  1
  K  K7  1  0.398776  0.060103  0.169691  1
  K  K8  1  0.560103  0.898776  0.330309  1
  K  K9  1  0.101224  0.439897  0.669691  1
  K  K10  1  0.939897  0.601224  0.830309  1
  K  K11  1  0.781667  0.781667  0.179577  1
  Li  Li12  1  0.078560  0.921440  0.000000  1
  Li  Li13  1  0.578560  0.421440  0.500000  1
  Li  Li14  1  0.921440  0.078560  0.000000  1
  Li  Li15  1  0.750037  0.249963  0.000000  1
  Li  Li16  1  0.749963  0.250037  0.500000  1
  Li  Li17  1  0.249963  0.750037  0.000000  1
  Li  Li18  1  0.250037  0.749963  0.500000  1
  Li  Li19  1  0.421440  0.578560  0.500000  1
  Ti  Ti20  1  0.081332  0.918668  0.500000  1
  Ti  Ti21  1  0.418668  0.581332  0.000000  1
  Ti  Ti22  1  0.918668  0.081332  0.500000  1
  Ti  Ti23  1  0.581332  0.418668  0.000000  1
  Sb  Sb24  1  0.072228  0.391432  0.403845  1
  Sb  Sb25  1  0.891432  0.572228  0.096155  1
  Sb  Sb26  1  0.427772  0.108568  0.903845  1
  Sb  Sb27  1  0.608568  0.927772  0.596155  1
  Sb  Sb28  1  0.927772  0.608568  0.596155  1
  Sb  Sb29  1  0.108568  0.427772  0.903845  1
  Sb  Sb30  1  0.572228  0.891432  0.096155  1
  Sb  Sb31  1  0.391432  0.072228  0.403845  1
  As  As32  1  0.214224  0.214224  0.581114  1
  As  As33  1  0.714224  0.714224  0.918886  1
  As  As34  1  0.285776  0.285776  0.081114  1
  As  As35  1  0.785776  0.785776  0.418886  1
