# generated using pymatgen
data_TmPa3(Co3Si5)2
_symmetry_space_group_name_H-M   'P 1'
_cell_length_a   7.84810649
_cell_length_b   7.81450716
_cell_length_c   7.81450670
_cell_angle_alpha   138.06636149
_cell_angle_beta   104.40831443
_cell_angle_gamma   90.35259389
_symmetry_Int_Tables_number   1
_chemical_formula_structural   TmPa3(Co3Si5)2
_chemical_formula_sum   'Tm1 Pa3 Co6 Si10'
_cell_volume   296.34617354
_cell_formula_units_Z   1
loop_
 _symmetry_equiv_pos_site_id
 _symmetry_equiv_pos_as_xyz
  1  'x, y, z'
loop_
 _atom_site_type_symbol
 _atom_site_label
 _atom_site_symmetry_multiplicity
 _atom_site_fract_x
 _atom_site_fract_y
 _atom_site_fract_z
 _atom_site_occupancy
  Tm  Tm0  1  0.634694  0.367717  0.266977  1
  Pa  Pa1  1  0.367350  0.634522  0.732828  1
  Pa  Pa2  1  0.898221  0.131973  0.766247  1
  Pa  Pa3  1  0.101178  0.866515  0.234664  1
  Co  Co4  1  0.022817  0.640350  0.382468  1
  Co  Co5  1  0.978691  0.359680  0.619011  1
  Co  Co6  1  0.499516  0.754225  0.252037  1
  Co  Co7  1  0.499516  0.247480  0.745291  1
  Co  Co8  1  0.251163  0.135832  0.115332  1
  Co  Co9  1  0.747555  0.862804  0.884750  1
  Si  Si10  1  0.270817  0.517526  0.249080  1
  Si  Si11  1  0.731244  0.980535  0.248092  1
  Si  Si12  1  0.998286  0.746073  0.746520  1
  Si  Si13  1  0.245749  0.396285  0.849464  1
  Si  Si14  1  0.752856  0.601668  0.151187  1
  Si  Si15  1  0.452799  0.105826  0.346971  1
  Si  Si16  1  0.998286  0.251766  0.252213  1
  Si  Si17  1  0.547199  0.894332  0.652868  1
  Si  Si18  1  0.731244  0.483152  0.750710  1
  Si  Si19  1  0.270817  0.021737  0.753291  1
