# generated using pymatgen
data_Nd5EuCoBr10
_symmetry_space_group_name_H-M   'P 1'
_cell_length_a   7.56110821
_cell_length_b   9.37624230
_cell_length_c   9.56396400
_cell_angle_alpha   108.49611228
_cell_angle_beta   96.49499881
_cell_angle_gamma   105.46209347
_symmetry_Int_Tables_number   1
_chemical_formula_structural   Nd5EuCoBr10
_chemical_formula_sum   'Nd5 Eu1 Co1 Br10'
_cell_volume   605.06926361
_cell_formula_units_Z   1
loop_
 _symmetry_equiv_pos_site_id
 _symmetry_equiv_pos_as_xyz
  1  'x, y, z'
loop_
 _atom_site_type_symbol
 _atom_site_label
 _atom_site_symmetry_multiplicity
 _atom_site_fract_x
 _atom_site_fract_y
 _atom_site_fract_z
 _atom_site_occupancy
  Nd  Nd0  1  0.034062  0.708746  0.410173  1
  Nd  Nd1  1  0.965061  0.291132  0.589486  1
  Nd  Nd2  1  0.873337  0.951733  0.741039  1
  Nd  Nd3  1  0.127779  0.049092  0.260313  1
  Nd  Nd4  1  0.368741  0.141311  0.685975  1
  Eu  Eu5  1  0.616179  0.851288  0.304375  1
  Co  Co6  1  0.011812  0.004831  0.505683  1
  Br  Br7  1  0.450293  0.821398  0.587095  1
  Br  Br8  1  0.546222  0.183140  0.420471  1
  Br  Br9  1  0.909938  0.629710  0.670476  1
  Br  Br10  1  0.090379  0.370957  0.330725  1
  Br  Br11  1  0.247589  0.082666  0.953208  1
  Br  Br12  1  0.760322  0.920579  0.042242  1
  Br  Br13  1  0.344658  0.458450  0.774838  1
  Br  Br14  1  0.659332  0.536341  0.227043  1
  Br  Br15  1  0.793848  0.259044  0.848977  1
  Br  Br16  1  0.200449  0.739584  0.147881  1
