# generated using pymatgen
data_Tb(Cr3S4)2
_symmetry_space_group_name_H-M   'P 1'
_cell_length_a   6.19243131
_cell_length_b   6.19243119
_cell_length_c   6.19243114
_cell_angle_alpha   89.05174026
_cell_angle_beta   89.05173498
_cell_angle_gamma   89.05174155
_symmetry_Int_Tables_number   1
_chemical_formula_structural   Tb(Cr3S4)2
_chemical_formula_sum   'Tb1 Cr6 S8'
_cell_volume   237.35973518
_cell_formula_units_Z   1
loop_
 _symmetry_equiv_pos_site_id
 _symmetry_equiv_pos_as_xyz
  1  'x, y, z'
loop_
 _atom_site_type_symbol
 _atom_site_label
 _atom_site_symmetry_multiplicity
 _atom_site_fract_x
 _atom_site_fract_y
 _atom_site_fract_z
 _atom_site_occupancy
  Tb  Tb0  1  0.000000  0.000000  0.000000  1
  Cr  Cr1  1  0.769620  0.580320  0.437655  1
  Cr  Cr2  1  0.437655  0.769620  0.580320  1
  Cr  Cr3  1  0.580320  0.437655  0.769620  1
  Cr  Cr4  1  0.230380  0.419680  0.562345  1
  Cr  Cr5  1  0.562345  0.230380  0.419680  1
  Cr  Cr6  1  0.419680  0.562345  0.230380  1
  S  S7  1  0.753353  0.753353  0.753353  1
  S  S8  1  0.246647  0.246647  0.246647  1
  S  S9  1  0.255070  0.620172  0.873184  1
  S  S10  1  0.873184  0.255070  0.620172  1
  S  S11  1  0.620172  0.873184  0.255070  1
  S  S12  1  0.744930  0.379828  0.126816  1
  S  S13  1  0.126816  0.744930  0.379828  1
  S  S14  1  0.379828  0.126816  0.744930  1
