# generated using pymatgen
data_CeTmFe3Re14C3
_symmetry_space_group_name_H-M   'P 1'
_cell_length_a   6.93370612
_cell_length_b   6.93370653
_cell_length_c   6.93370510
_cell_angle_alpha   82.56709190
_cell_angle_beta   82.56708382
_cell_angle_gamma   82.56709529
_symmetry_Int_Tables_number   1
_chemical_formula_structural   CeTmFe3Re14C3
_chemical_formula_sum   'Ce1 Tm1 Fe3 Re14 C3'
_cell_volume   325.61067901
_cell_formula_units_Z   1
loop_
 _symmetry_equiv_pos_site_id
 _symmetry_equiv_pos_as_xyz
  1  'x, y, z'
loop_
 _atom_site_type_symbol
 _atom_site_label
 _atom_site_symmetry_multiplicity
 _atom_site_fract_x
 _atom_site_fract_y
 _atom_site_fract_z
 _atom_site_occupancy
  Ce  Ce0  1  0.648451  0.648451  0.648451  1
  Tm  Tm1  1  0.350065  0.350065  0.350065  1
  Fe  Fe2  1  0.999963  0.999963  0.500287  1
  Fe  Fe3  1  0.500287  0.999963  0.999963  1
  Fe  Fe4  1  0.999963  0.500287  0.999963  1
  Re  Re5  1  0.722464  0.277863  0.000241  1
  Re  Re6  1  0.000241  0.722464  0.277863  1
  Re  Re7  1  0.277863  0.000241  0.722464  1
  Re  Re8  1  0.000241  0.277863  0.722464  1
  Re  Re9  1  0.722464  0.000241  0.277863  1
  Re  Re10  1  0.277863  0.722464  0.000241  1
  Re  Re11  1  0.346462  0.346462  0.860900  1
  Re  Re12  1  0.860900  0.346462  0.346462  1
  Re  Re13  1  0.346462  0.860900  0.346462  1
  Re  Re14  1  0.653292  0.653292  0.139518  1
  Re  Re15  1  0.139518  0.653292  0.653292  1
  Re  Re16  1  0.653292  0.139518  0.653292  1
  Re  Re17  1  0.897798  0.897798  0.897798  1
  Re  Re18  1  0.102331  0.102331  0.102331  1
  C  C19  1  0.497390  0.497390  0.005303  1
  C  C20  1  0.005303  0.497390  0.497390  1
  C  C21  1  0.497390  0.005303  0.497390  1
