# generated using pymatgen
data_K4ZrMoBr12
_symmetry_space_group_name_H-M   'P 1'
_cell_length_a   7.65404833
_cell_length_b   7.37518585
_cell_length_c   12.80007000
_cell_angle_alpha   54.94289496
_cell_angle_beta   89.95531047
_cell_angle_gamma   89.81368872
_symmetry_Int_Tables_number   1
_chemical_formula_structural   K4ZrMoBr12
_chemical_formula_sum   'K4 Zr1 Mo1 Br12'
_cell_volume   591.47303152
_cell_formula_units_Z   1
loop_
 _symmetry_equiv_pos_site_id
 _symmetry_equiv_pos_as_xyz
  1  'x, y, z'
loop_
 _atom_site_type_symbol
 _atom_site_label
 _atom_site_symmetry_multiplicity
 _atom_site_fract_x
 _atom_site_fract_y
 _atom_site_fract_z
 _atom_site_occupancy
  K  K0  1  0.567120  0.723873  0.255058  1
  K  K1  1  0.075278  0.269049  0.251451  1
  K  K2  1  0.432880  0.276127  0.744942  1
  K  K3  1  0.924722  0.730951  0.748549  1
  Zr  Zr4  1  0.000000  0.000000  0.000000  1
  Mo  Mo5  1  0.500000  0.000000  0.500000  1
  Br  Br6  1  0.996907  0.824955  0.246726  1
  Br  Br7  1  0.497267  0.163260  0.262624  1
  Br  Br8  1  0.003093  0.175045  0.753274  1
  Br  Br9  1  0.502733  0.836740  0.737376  1
  Br  Br10  1  0.691105  0.676840  0.538973  1
  Br  Br11  1  0.193114  0.333240  0.959371  1
  Br  Br12  1  0.308895  0.323160  0.461027  1
  Br  Br13  1  0.806886  0.666760  0.040629  1
  Br  Br14  1  0.710893  0.224366  0.967875  1
  Br  Br15  1  0.223977  0.780285  0.532334  1
  Br  Br16  1  0.289107  0.775634  0.032125  1
  Br  Br17  1  0.776023  0.219715  0.467666  1
