# generated using pymatgen
data_Np2SnO2
_symmetry_space_group_name_H-M   'P 1'
_cell_length_a   6.91949803
_cell_length_b   6.91949759
_cell_length_c   6.91949898
_cell_angle_alpha   147.46663150
_cell_angle_beta   147.46663919
_cell_angle_gamma   46.67334356
_symmetry_Int_Tables_number   1
_chemical_formula_structural   Np2SnO2
_chemical_formula_sum   'Np2 Sn1 O2'
_cell_volume   95.47077715
_cell_formula_units_Z   1
loop_
 _symmetry_equiv_pos_site_id
 _symmetry_equiv_pos_as_xyz
  1  'x, y, z'
loop_
 _atom_site_type_symbol
 _atom_site_label
 _atom_site_symmetry_multiplicity
 _atom_site_fract_x
 _atom_site_fract_y
 _atom_site_fract_z
 _atom_site_occupancy
  Np  Np0  1  0.654503  0.654503  0.000000  1
  Np  Np1  1  0.345497  0.345497  0.000000  1
  Sn  Sn2  1  0.000000  0.000000  0.000000  1
  O  O3  1  0.750000  0.250000  0.500000  1
  O  O4  1  0.250000  0.750000  0.500000  1
