# generated using pymatgen
data_Nb12Al8Zn2NiRuC4
_symmetry_space_group_name_H-M   'P 1'
_cell_length_a   8.33471337
_cell_length_b   8.33471396
_cell_length_c   8.33934000
_cell_angle_alpha   59.98164591
_cell_angle_beta   59.98164355
_cell_angle_gamma   59.98549557
_symmetry_Int_Tables_number   1
_chemical_formula_structural   Nb12Al8Zn2NiRuC4
_chemical_formula_sum   'Nb12 Al8 Zn2 Ni1 Ru1 C4'
_cell_volume   409.47736795
_cell_formula_units_Z   1
loop_
 _symmetry_equiv_pos_site_id
 _symmetry_equiv_pos_as_xyz
  1  'x, y, z'
loop_
 _atom_site_type_symbol
 _atom_site_label
 _atom_site_symmetry_multiplicity
 _atom_site_fract_x
 _atom_site_fract_y
 _atom_site_fract_z
 _atom_site_occupancy
  Nb  Nb0  1  0.815138  0.815138  0.186756  1
  Nb  Nb1  1  0.185485  0.185485  0.814909  1
  Nb  Nb2  1  0.815251  0.186329  0.814457  1
  Nb  Nb3  1  0.184176  0.814851  0.186356  1
  Nb  Nb4  1  0.186329  0.815251  0.814457  1
  Nb  Nb5  1  0.814851  0.184176  0.186356  1
  Nb  Nb6  1  0.434862  0.434862  0.063244  1
  Nb  Nb7  1  0.064515  0.064515  0.435091  1
  Nb  Nb8  1  0.434749  0.063671  0.435543  1
  Nb  Nb9  1  0.065824  0.435149  0.063644  1
  Nb  Nb10  1  0.063671  0.434749  0.435543  1
  Nb  Nb11  1  0.435149  0.065824  0.063644  1
  Al  Al12  1  0.751277  0.425445  0.408416  1
  Al  Al13  1  0.425445  0.751277  0.408416  1
  Al  Al14  1  0.419095  0.419095  0.751980  1
  Al  Al15  1  0.421268  0.421268  0.404154  1
  Al  Al16  1  0.498723  0.824555  0.841584  1
  Al  Al17  1  0.824555  0.498723  0.841584  1
  Al  Al18  1  0.830905  0.830905  0.498020  1
  Al  Al19  1  0.828732  0.828732  0.845846  1
  Zn  Zn20  1  0.125000  0.625000  0.625000  1
  Zn  Zn21  1  0.625000  0.125000  0.625000  1
  Ni  Ni22  1  0.625000  0.625000  0.125000  1
  Ru  Ru23  1  0.625000  0.625000  0.625000  1
  C  C24  1  0.625000  0.125000  0.125000  1
  C  C25  1  0.125000  0.625000  0.125000  1
  C  C26  1  0.125000  0.125000  0.625000  1
  C  C27  1  0.125000  0.125000  0.125000  1
