# generated using pymatgen
data_La10Si4GePb
_symmetry_space_group_name_H-M   'P 1'
_cell_length_a   7.93491183
_cell_length_b   7.93491137
_cell_length_c   9.29506700
_cell_angle_alpha   115.26685319
_cell_angle_beta   115.26685163
_cell_angle_gamma   89.99999514
_symmetry_Int_Tables_number   1
_chemical_formula_structural   La10Si4GePb
_chemical_formula_sum   'La10 Si4 Ge1 Pb1'
_cell_volume   466.59161558
_cell_formula_units_Z   1
loop_
 _symmetry_equiv_pos_site_id
 _symmetry_equiv_pos_as_xyz
  1  'x, y, z'
loop_
 _atom_site_type_symbol
 _atom_site_label
 _atom_site_symmetry_multiplicity
 _atom_site_fract_x
 _atom_site_fract_y
 _atom_site_fract_z
 _atom_site_occupancy
  La  La0  1  0.520374  0.520374  0.040748  1
  La  La1  1  0.979626  0.979626  0.959252  1
  La  La2  1  0.972565  0.825784  0.279645  1
  La  La3  1  0.307080  0.453862  0.279645  1
  La  La4  1  0.825784  0.307080  0.279645  1
  La  La5  1  0.453862  0.972565  0.279645  1
  La  La6  1  0.046138  0.192920  0.720355  1
  La  La7  1  0.674216  0.527435  0.720355  1
  La  La8  1  0.192920  0.674216  0.720355  1
  La  La9  1  0.527435  0.046138  0.720355  1
  Si  Si10  1  0.614479  0.885521  0.000000  1
  Si  Si11  1  0.385521  0.114479  0.000000  1
  Si  Si12  1  0.885521  0.385521  0.000000  1
  Si  Si13  1  0.114479  0.614479  0.000000  1
  Ge  Ge14  1  0.250000  0.250000  0.500000  1
  Pb  Pb15  1  0.750000  0.750000  0.500000  1
