# generated using pymatgen
data_Er3Tm(Si4Tc3)2
_symmetry_space_group_name_H-M   'P 1'
_cell_length_a   6.77483706
_cell_length_b   6.73587546
_cell_length_c   6.76953026
_cell_angle_alpha   69.96138373
_cell_angle_beta   90.01489053
_cell_angle_gamma   90.00600398
_symmetry_Int_Tables_number   1
_chemical_formula_structural   Er3Tm(Si4Tc3)2
_chemical_formula_sum   'Er3 Tm1 Si8 Tc6'
_cell_volume   290.22217359
_cell_formula_units_Z   1
loop_
 _symmetry_equiv_pos_site_id
 _symmetry_equiv_pos_as_xyz
  1  'x, y, z'
loop_
 _atom_site_type_symbol
 _atom_site_label
 _atom_site_symmetry_multiplicity
 _atom_site_fract_x
 _atom_site_fract_y
 _atom_site_fract_z
 _atom_site_occupancy
  Er  Er0  1  0.332072  0.557684  0.808237  1
  Er  Er1  1  0.832162  0.942309  0.191731  1
  Er  Er2  1  0.667873  0.442321  0.191766  1
  Tm  Tm3  1  0.168003  0.057647  0.808095  1
  Si  Si4  1  0.550436  0.877107  0.897859  1
  Si  Si5  1  0.050653  0.623107  0.102034  1
  Si  Si6  1  0.449296  0.122964  0.102012  1
  Si  Si7  1  0.949447  0.376890  0.897849  1
  Si  Si8  1  0.141649  0.868026  0.487654  1
  Si  Si9  1  0.641663  0.632032  0.512512  1
  Si  Si10  1  0.858486  0.132034  0.512601  1
  Si  Si11  1  0.358232  0.367796  0.487650  1
  Tc  Tc12  1  0.499915  0.000040  0.500068  1
  Tc  Tc13  1  0.000054  0.499865  0.500071  1
  Tc  Tc14  1  0.850419  0.757810  0.762434  1
  Tc  Tc15  1  0.350213  0.742430  0.237530  1
  Tc  Tc16  1  0.149713  0.242320  0.237520  1
  Tc  Tc17  1  0.649714  0.257619  0.762377  1
