# generated using pymatgen
data_Nd16Hg4OsRh3
_symmetry_space_group_name_H-M   'P 1'
_cell_length_a   9.94011858
_cell_length_b   9.93982024
_cell_length_c   9.94017149
_cell_angle_alpha   59.69715693
_cell_angle_beta   59.70494131
_cell_angle_gamma   59.68326373
_symmetry_Int_Tables_number   1
_chemical_formula_structural   Nd16Hg4OsRh3
_chemical_formula_sum   'Nd16 Hg4 Os1 Rh3'
_cell_volume   689.65322078
_cell_formula_units_Z   1
loop_
 _symmetry_equiv_pos_site_id
 _symmetry_equiv_pos_as_xyz
  1  'x, y, z'
loop_
 _atom_site_type_symbol
 _atom_site_label
 _atom_site_symmetry_multiplicity
 _atom_site_fract_x
 _atom_site_fract_y
 _atom_site_fract_z
 _atom_site_occupancy
  Nd  Nd0  1  0.599945  0.600089  0.599640  1
  Nd  Nd1  1  0.598653  0.598633  0.200715  1
  Nd  Nd2  1  0.598705  0.200504  0.598769  1
  Nd  Nd3  1  0.200576  0.598664  0.598750  1
  Nd  Nd4  1  0.061341  0.440335  0.440301  1
  Nd  Nd5  1  0.440629  0.058769  0.058771  1
  Nd  Nd6  1  0.440334  0.061345  0.440325  1
  Nd  Nd7  1  0.058762  0.440609  0.058752  1
  Nd  Nd8  1  0.440271  0.440289  0.061333  1
  Nd  Nd9  1  0.058759  0.058763  0.440700  1
  Nd  Nd10  1  0.187937  0.812304  0.812441  1
  Nd  Nd11  1  0.807954  0.189562  0.189754  1
  Nd  Nd12  1  0.812326  0.187977  0.812413  1
  Nd  Nd13  1  0.189605  0.807919  0.189752  1
  Nd  Nd14  1  0.812425  0.812370  0.187858  1
  Nd  Nd15  1  0.189687  0.189641  0.807946  1
  Hg  Hg16  1  0.833801  0.833808  0.833765  1
  Hg  Hg17  1  0.833591  0.833593  0.498331  1
  Hg  Hg18  1  0.833568  0.498455  0.833549  1
  Hg  Hg19  1  0.498423  0.833575  0.833556  1
  Os  Os20  1  0.391342  0.391392  0.391308  1
  Rh  Rh21  1  0.393083  0.393105  0.825266  1
  Rh  Rh22  1  0.392975  0.825286  0.392990  1
  Rh  Rh23  1  0.825310  0.393015  0.393016  1
