# generated using pymatgen
data_Tm10Ir3Os2Pt
_symmetry_space_group_name_H-M   'P 1'
_cell_length_a   10.72595614
_cell_length_b   10.71987100
_cell_length_c   6.36920827
_cell_angle_alpha   90.00000000
_cell_angle_beta   90.07230347
_cell_angle_gamma   90.00000000
_symmetry_Int_Tables_number   1
_chemical_formula_structural   Tm10Ir3Os2Pt
_chemical_formula_sum   'Tm20 Ir6 Os4 Pt2'
_cell_volume   732.33650002
_cell_formula_units_Z   2
loop_
 _symmetry_equiv_pos_site_id
 _symmetry_equiv_pos_as_xyz
  1  'x, y, z'
loop_
 _atom_site_type_symbol
 _atom_site_label
 _atom_site_symmetry_multiplicity
 _atom_site_fract_x
 _atom_site_fract_y
 _atom_site_fract_z
 _atom_site_occupancy
  Tm  Tm0  1  0.293864  0.085794  0.376052  1
  Tm  Tm1  1  0.293864  0.914206  0.876052  1
  Tm  Tm2  1  0.702837  0.087654  0.873640  1
  Tm  Tm3  1  0.702837  0.912346  0.373640  1
  Tm  Tm4  1  0.582807  0.793405  0.876728  1
  Tm  Tm5  1  0.582807  0.206595  0.376728  1
  Tm  Tm6  1  0.413664  0.793414  0.376925  1
  Tm  Tm7  1  0.413664  0.206586  0.876925  1
  Tm  Tm8  1  0.206483  0.413892  0.623229  1
  Tm  Tm9  1  0.206483  0.586108  0.123229  1
  Tm  Tm10  1  0.793360  0.417084  0.123049  1
  Tm  Tm11  1  0.793360  0.582916  0.623049  1
  Tm  Tm12  1  0.915356  0.704575  0.128054  1
  Tm  Tm13  1  0.915356  0.295425  0.628054  1
  Tm  Tm14  1  0.088530  0.704643  0.622315  1
  Tm  Tm15  1  0.088530  0.295357  0.122315  1
  Tm  Tm16  1  0.003313  0.999607  0.500127  1
  Tm  Tm17  1  0.003313  0.000393  0.000127  1
  Tm  Tm18  1  0.499811  0.499993  0.000094  1
  Tm  Tm19  1  0.499811  0.500007  0.500094  1
  Ir  Ir20  1  0.151107  0.151498  0.749802  1
  Ir  Ir21  1  0.151107  0.848502  0.249802  1
  Ir  Ir22  1  0.652887  0.347090  0.749983  1
  Ir  Ir23  1  0.652887  0.652910  0.249983  1
  Ir  Ir24  1  0.347681  0.347918  0.249821  1
  Ir  Ir25  1  0.347681  0.652082  0.749821  1
  Os  Os26  1  0.500579  0.000068  0.124180  1
  Os  Os27  1  0.500579  0.999932  0.624180  1
  Os  Os28  1  0.000190  0.500118  0.875741  1
  Os  Os29  1  0.000190  0.499882  0.375741  1
  Pt  Pt30  1  0.847532  0.152130  0.250258  1
  Pt  Pt31  1  0.847532  0.847870  0.750258  1
