# generated using pymatgen
data_PrGd2(BN2)2
_symmetry_space_group_name_H-M   'P 1'
_cell_length_a   3.52086883
_cell_length_b   6.23429187
_cell_length_c   6.39656740
_cell_angle_alpha   119.16429104
_cell_angle_beta   105.97485871
_cell_angle_gamma   90.00000002
_symmetry_Int_Tables_number   1
_chemical_formula_structural   PrGd2(BN2)2
_chemical_formula_sum   'Pr1 Gd2 B2 N4'
_cell_volume   116.35706928
_cell_formula_units_Z   1
loop_
 _symmetry_equiv_pos_site_id
 _symmetry_equiv_pos_as_xyz
  1  'x, y, z'
loop_
 _atom_site_type_symbol
 _atom_site_label
 _atom_site_symmetry_multiplicity
 _atom_site_fract_x
 _atom_site_fract_y
 _atom_site_fract_z
 _atom_site_occupancy
  Pr  Pr0  1  0.000000  0.000000  0.000000  1
  Gd  Gd1  1  0.201896  0.701896  0.403792  1
  Gd  Gd2  1  0.798104  0.298104  0.596208  1
  B  B3  1  0.500000  0.357824  0.000000  1
  B  B4  1  0.500000  0.642177  0.000000  1
  N  N5  1  0.622751  0.368758  0.245503  1
  N  N6  1  0.622751  0.876746  0.245503  1
  N  N7  1  0.377249  0.123255  0.754497  1
  N  N8  1  0.377249  0.631242  0.754497  1
