# generated using pymatgen
data_Ho5Lu11(In3Ru)2
_symmetry_space_group_name_H-M   'P 1'
_cell_length_a   10.23166209
_cell_length_b   10.23136594
_cell_length_c   6.98238922
_cell_angle_alpha   90.02589359
_cell_angle_beta   89.97205567
_cell_angle_gamma   120.07729165
_symmetry_Int_Tables_number   1
_chemical_formula_structural   Ho5Lu11(In3Ru)2
_chemical_formula_sum   'Ho5 Lu11 In6 Ru2'
_cell_volume   632.52202800
_cell_formula_units_Z   1
loop_
 _symmetry_equiv_pos_site_id
 _symmetry_equiv_pos_as_xyz
  1  'x, y, z'
loop_
 _atom_site_type_symbol
 _atom_site_label
 _atom_site_symmetry_multiplicity
 _atom_site_fract_x
 _atom_site_fract_y
 _atom_site_fract_z
 _atom_site_occupancy
  Ho  Ho0  1  0.532416  0.064981  0.523441  1
  Ho  Ho1  1  0.935087  0.467606  0.523462  1
  Ho  Ho2  1  0.532048  0.467894  0.524176  1
  Ho  Ho3  1  0.467467  0.934723  0.023588  1
  Ho  Ho4  1  0.065187  0.532506  0.023610  1
  Lu  Lu5  1  0.466926  0.533138  0.024312  1
  Lu  Lu6  1  0.178098  0.355307  0.727626  1
  Lu  Lu7  1  0.644722  0.821918  0.727613  1
  Lu  Lu8  1  0.177372  0.822653  0.727018  1
  Lu  Lu9  1  0.821785  0.644730  0.226243  1
  Lu  Lu10  1  0.355228  0.178178  0.226249  1
  Lu  Lu11  1  0.822785  0.177222  0.226761  1
  Lu  Lu12  1  0.666241  0.333787  0.906047  1
  Lu  Lu13  1  0.333747  0.666248  0.405739  1
  Lu  Lu14  1  0.999965  0.000034  0.506916  1
  Lu  Lu15  1  0.999958  0.000030  0.006983  1
  In  In16  1  0.837175  0.674501  0.771580  1
  In  In17  1  0.325482  0.162804  0.771568  1
  In  In18  1  0.837170  0.162851  0.771935  1
  In  In19  1  0.163607  0.326096  0.271294  1
  In  In20  1  0.673953  0.836411  0.271267  1
  In  In21  1  0.162681  0.837287  0.271824  1
  Ru  Ru22  1  0.666919  0.333134  0.297838  1
  Ru  Ru23  1  0.333978  0.665961  0.798590  1
