# generated using pymatgen
data_Ho5Lu15(Ir2Ru)4
_symmetry_space_group_name_H-M   'P 1'
_cell_length_a   10.62391060
_cell_length_b   10.63050401
_cell_length_c   6.34012836
_cell_angle_alpha   89.99672474
_cell_angle_beta   89.96173766
_cell_angle_gamma   90.00493261
_symmetry_Int_Tables_number   1
_chemical_formula_structural   Ho5Lu15(Ir2Ru)4
_chemical_formula_sum   'Ho5 Lu15 Ir8 Ru4'
_cell_volume   716.03823680
_cell_formula_units_Z   1
loop_
 _symmetry_equiv_pos_site_id
 _symmetry_equiv_pos_as_xyz
  1  'x, y, z'
loop_
 _atom_site_type_symbol
 _atom_site_label
 _atom_site_symmetry_multiplicity
 _atom_site_fract_x
 _atom_site_fract_y
 _atom_site_fract_z
 _atom_site_occupancy
  Ho  Ho0  1  0.791628  0.586477  0.624057  1
  Ho  Ho1  1  0.913432  0.707520  0.123962  1
  Ho  Ho2  1  0.913355  0.292065  0.624015  1
  Ho  Ho3  1  0.087633  0.707616  0.623907  1
  Ho  Ho4  1  0.087099  0.292585  0.124032  1
  Lu  Lu5  1  0.294183  0.085731  0.377462  1
  Lu  Lu6  1  0.294151  0.914355  0.877435  1
  Lu  Lu7  1  0.705823  0.085642  0.877434  1
  Lu  Lu8  1  0.705800  0.914422  0.377327  1
  Lu  Lu9  1  0.585504  0.794238  0.877302  1
  Lu  Lu10  1  0.585901  0.206161  0.376944  1
  Lu  Lu11  1  0.414005  0.793748  0.377106  1
  Lu  Lu12  1  0.414021  0.206164  0.876997  1
  Lu  Lu13  1  0.207672  0.413673  0.623060  1
  Lu  Lu14  1  0.207623  0.586262  0.123045  1
  Lu  Lu15  1  0.792542  0.413360  0.122959  1
  Lu  Lu16  1  0.000154  0.000091  0.499332  1
  Lu  Lu17  1  0.000125  0.000148  0.999291  1
  Lu  Lu18  1  0.499807  0.499941  0.999694  1
  Lu  Lu19  1  0.499409  0.499659  0.499386  1
  Ir  Ir20  1  0.845743  0.151224  0.248130  1
  Ir  Ir21  1  0.845853  0.850195  0.748909  1
  Ir  Ir22  1  0.154175  0.151238  0.748035  1
  Ir  Ir23  1  0.154260  0.848789  0.248034  1
  Ir  Ir24  1  0.650638  0.346560  0.751413  1
  Ir  Ir25  1  0.650456  0.652898  0.248232  1
  Ir  Ir26  1  0.348607  0.347566  0.250852  1
  Ir  Ir27  1  0.348679  0.652380  0.750727  1
  Ru  Ru28  1  0.499929  0.000018  0.124475  1
  Ru  Ru29  1  0.499975  0.000098  0.624225  1
  Ru  Ru30  1  0.000804  0.499613  0.877037  1
  Ru  Ru31  1  0.001014  0.499561  0.375183  1
