# generated using pymatgen
data_Lu2Sc3Ga2Te
_symmetry_space_group_name_H-M   'P 1'
_cell_length_a   8.35450369
_cell_length_b   8.30913707
_cell_length_c   6.06163100
_cell_angle_alpha   90.00000000
_cell_angle_beta   90.00000000
_cell_angle_gamma   119.82052464
_symmetry_Int_Tables_number   1
_chemical_formula_structural   Lu2Sc3Ga2Te
_chemical_formula_sum   'Lu4 Sc6 Ga4 Te2'
_cell_volume   365.07264705
_cell_formula_units_Z   2
loop_
 _symmetry_equiv_pos_site_id
 _symmetry_equiv_pos_as_xyz
  1  'x, y, z'
loop_
 _atom_site_type_symbol
 _atom_site_label
 _atom_site_symmetry_multiplicity
 _atom_site_fract_x
 _atom_site_fract_y
 _atom_site_fract_z
 _atom_site_occupancy
  Lu  Lu0  1  0.231416  0.998388  0.250000  1
  Lu  Lu1  1  0.231416  0.233029  0.750000  1
  Lu  Lu2  1  0.012533  0.763224  0.750000  1
  Lu  Lu3  1  0.012533  0.249309  0.250000  1
  Sc  Sc4  1  0.316905  0.658453  0.000000  1
  Sc  Sc5  1  0.672038  0.336018  0.500000  1
  Sc  Sc6  1  0.672038  0.336018  0.000000  1
  Sc  Sc7  1  0.316905  0.658453  0.500000  1
  Sc  Sc8  1  0.764681  0.748921  0.250000  1
  Sc  Sc9  1  0.764681  0.015760  0.750000  1
  Ga  Ga10  1  0.993687  0.394909  0.750000  1
  Ga  Ga11  1  0.993687  0.598777  0.250000  1
  Ga  Ga12  1  0.402812  0.400040  0.250000  1
  Ga  Ga13  1  0.402812  0.002772  0.750000  1
  Te  Te14  1  0.605928  0.993373  0.250000  1
  Te  Te15  1  0.605928  0.612555  0.750000  1
