# generated using pymatgen
data_Sr3Pr(FeO3)4
_symmetry_space_group_name_H-M   'P 1'
_cell_length_a   5.55896443
_cell_length_b   5.53816329
_cell_length_c   7.81302801
_cell_angle_alpha   90.00364466
_cell_angle_beta   90.00172859
_cell_angle_gamma   90.08272661
_symmetry_Int_Tables_number   1
_chemical_formula_structural   Sr3Pr(FeO3)4
_chemical_formula_sum   'Sr3 Pr1 Fe4 O12'
_cell_volume   240.53516639
_cell_formula_units_Z   1
loop_
 _symmetry_equiv_pos_site_id
 _symmetry_equiv_pos_as_xyz
  1  'x, y, z'
loop_
 _atom_site_type_symbol
 _atom_site_label
 _atom_site_symmetry_multiplicity
 _atom_site_fract_x
 _atom_site_fract_y
 _atom_site_fract_z
 _atom_site_occupancy
  Sr  Sr0  1  0.493081  0.488968  0.749999  1
  Sr  Sr1  1  0.501538  0.510935  0.250018  1
  Sr  Sr2  1  0.000546  0.991369  0.750003  1
  Pr  Pr3  1  0.001239  0.020064  0.249983  1
  Fe  Fe4  1  0.499856  0.999380  0.999055  1
  Fe  Fe5  1  0.000067  0.501723  0.998732  1
  Fe  Fe6  1  0.000034  0.501673  0.501283  1
  Fe  Fe7  1  0.499796  0.999097  0.500846  1
  O  O8  1  0.741452  0.257353  0.026313  1
  O  O9  1  0.232573  0.231594  0.982222  1
  O  O10  1  0.772431  0.772766  0.466242  1
  O  O11  1  0.265288  0.735833  0.514210  1
  O  O12  1  0.265244  0.735869  0.985857  1
  O  O13  1  0.772489  0.772810  0.033742  1
  O  O14  1  0.232566  0.231528  0.517815  1
  O  O15  1  0.741362  0.257287  0.473674  1
  O  O16  1  0.040240  0.482776  0.250022  1
  O  O17  1  0.538661  0.997140  0.750000  1
  O  O18  1  0.444249  0.004838  0.249973  1
  O  O19  1  0.957287  0.506997  0.750010  1
