# generated using pymatgen
data_HoTm2AuO7
_symmetry_space_group_name_H-M   'P 1'
_cell_length_a   6.42274914
_cell_length_b   6.42274983
_cell_length_c   7.35906100
_cell_angle_alpha   90.00000000
_cell_angle_beta   90.00000000
_cell_angle_gamma   108.65213787
_symmetry_Int_Tables_number   1
_chemical_formula_structural   HoTm2AuO7
_chemical_formula_sum   'Ho2 Tm4 Au2 O14'
_cell_volume   287.62948179
_cell_formula_units_Z   2
loop_
 _symmetry_equiv_pos_site_id
 _symmetry_equiv_pos_as_xyz
  1  'x, y, z'
loop_
 _atom_site_type_symbol
 _atom_site_label
 _atom_site_symmetry_multiplicity
 _atom_site_fract_x
 _atom_site_fract_y
 _atom_site_fract_z
 _atom_site_occupancy
  Ho  Ho0  1  0.503854  0.503854  0.500000  1
  Ho  Ho1  1  0.496146  0.496146  0.000000  1
  Tm  Tm2  1  0.001915  0.471273  0.748595  1
  Tm  Tm3  1  0.998085  0.528727  0.248595  1
  Tm  Tm4  1  0.528727  0.998085  0.751405  1
  Tm  Tm5  1  0.471273  0.001915  0.251405  1
  Au  Au6  1  0.999384  0.999384  0.500000  1
  Au  Au7  1  0.000616  0.000616  0.000000  1
  O  O8  1  0.640332  0.359668  0.750000  1
  O  O9  1  0.359668  0.640332  0.250000  1
  O  O10  1  0.917531  0.082469  0.750000  1
  O  O11  1  0.082469  0.917531  0.250000  1
  O  O12  1  0.916416  0.666052  0.523568  1
  O  O13  1  0.083584  0.333948  0.023568  1
  O  O14  1  0.333948  0.083584  0.976432  1
  O  O15  1  0.666052  0.916416  0.476432  1
  O  O16  1  0.365813  0.634187  0.750000  1
  O  O17  1  0.634187  0.365813  0.250000  1
  O  O18  1  0.919463  0.668201  0.974239  1
  O  O19  1  0.080537  0.331799  0.474239  1
  O  O20  1  0.331799  0.080537  0.525761  1
  O  O21  1  0.668201  0.919463  0.025761  1
