# generated using pymatgen
data_Li2Pt2Pb3
_symmetry_space_group_name_H-M   'P 1'
_cell_length_a   4.66972000
_cell_length_b   4.66972160
_cell_length_c   16.22506700
_cell_angle_alpha   90.00000000
_cell_angle_beta   90.00000000
_cell_angle_gamma   119.99998864
_symmetry_Int_Tables_number   1
_chemical_formula_structural   Li2Pt2Pb3
_chemical_formula_sum   'Li4 Pt4 Pb6'
_cell_volume   306.40723148
_cell_formula_units_Z   2
loop_
 _symmetry_equiv_pos_site_id
 _symmetry_equiv_pos_as_xyz
  1  'x, y, z'
loop_
 _atom_site_type_symbol
 _atom_site_label
 _atom_site_symmetry_multiplicity
 _atom_site_fract_x
 _atom_site_fract_y
 _atom_site_fract_z
 _atom_site_occupancy
  Li  Li0  1  0.000000  0.000000  0.165873  1
  Li  Li1  1  0.000000  0.000000  0.834127  1
  Li  Li2  1  0.000000  0.000000  0.665873  1
  Li  Li3  1  0.000000  0.000000  0.334127  1
  Pt  Pt4  1  0.000000  0.000000  0.000000  1
  Pt  Pt5  1  0.000000  0.000000  0.500000  1
  Pt  Pt6  1  0.333333  0.666667  0.250000  1
  Pt  Pt7  1  0.666667  0.333333  0.750000  1
  Pb  Pb8  1  0.333333  0.666667  0.750000  1
  Pb  Pb9  1  0.666667  0.333333  0.250000  1
  Pb  Pb10  1  0.333333  0.666667  0.068048  1
  Pb  Pb11  1  0.666667  0.333333  0.931952  1
  Pb  Pb12  1  0.666667  0.333333  0.568048  1
  Pb  Pb13  1  0.333333  0.666667  0.431952  1
