# generated using pymatgen
data_Ce2Ta2NbGe4
_symmetry_space_group_name_H-M   'P 1'
_cell_length_a   7.28605765
_cell_length_b   7.28769801
_cell_length_c   13.52083300
_cell_angle_alpha   89.97207422
_cell_angle_beta   89.97581895
_cell_angle_gamma   89.98852544
_symmetry_Int_Tables_number   1
_chemical_formula_structural   Ce2Ta2NbGe4
_chemical_formula_sum   'Ce8 Ta8 Nb4 Ge16'
_cell_volume   717.93697513
_cell_formula_units_Z   4
loop_
 _symmetry_equiv_pos_site_id
 _symmetry_equiv_pos_as_xyz
  1  'x, y, z'
loop_
 _atom_site_type_symbol
 _atom_site_label
 _atom_site_symmetry_multiplicity
 _atom_site_fract_x
 _atom_site_fract_y
 _atom_site_fract_z
 _atom_site_occupancy
  Ce  Ce0  1  0.998805  0.336328  0.219270  1
  Ce  Ce1  1  0.000997  0.664058  0.719708  1
  Ce  Ce2  1  0.163599  0.498768  0.469710  1
  Ce  Ce3  1  0.499840  0.836265  0.030399  1
  Ce  Ce4  1  0.835806  0.501281  0.969733  1
  Ce  Ce5  1  0.500287  0.164072  0.530528  1
  Ce  Ce6  1  0.335970  0.000001  0.780188  1
  Ce  Ce7  1  0.663762  0.000113  0.280290  1
  Ta  Ta8  1  0.167816  0.168080  0.999449  1
  Ta  Ta9  1  0.832260  0.831887  0.500408  1
  Ta  Ta10  1  0.331432  0.667853  0.250265  1
  Ta  Ta11  1  0.668005  0.332753  0.750397  1
  Ta  Ta12  1  0.161671  0.993004  0.374894  1
  Ta  Ta13  1  0.838038  0.006319  0.874468  1
  Ta  Ta14  1  0.507108  0.662936  0.624883  1
  Ta  Ta15  1  0.337669  0.494001  0.875406  1
  Nb  Nb16  1  0.494145  0.337906  0.124685  1
  Nb  Nb17  1  0.661745  0.504719  0.375340  1
  Nb  Nb18  1  0.995341  0.162765  0.625326  1
  Nb  Nb19  1  0.005262  0.837511  0.124768  1
  Ge  Ge20  1  0.290625  0.034363  0.183315  1
  Ge  Ge21  1  0.709039  0.965857  0.683431  1
  Ge  Ge22  1  0.465379  0.791316  0.433436  1
  Ge  Ge23  1  0.208490  0.534047  0.066698  1
  Ge  Ge24  1  0.534935  0.208300  0.933034  1
  Ge  Ge25  1  0.791874  0.465710  0.567274  1
  Ge  Ge26  1  0.034363  0.292432  0.817173  1
  Ge  Ge27  1  0.965280  0.707947  0.317057  1
  Ge  Ge28  1  0.373908  0.301921  0.318462  1
  Ge  Ge29  1  0.624580  0.697393  0.818910  1
  Ge  Ge30  1  0.197909  0.874862  0.568397  1
  Ge  Ge31  1  0.124578  0.802698  0.930735  1
  Ge  Ge32  1  0.803274  0.125038  0.067780  1
  Ge  Ge33  1  0.875453  0.196116  0.431110  1
  Ge  Ge34  1  0.304333  0.376326  0.681447  1
  Ge  Ge35  1  0.696419  0.625053  0.181631  1
