# generated using pymatgen
data_Tb2Ho2Al5Ni9
_symmetry_space_group_name_H-M   'P 1'
_cell_length_a   5.18699164
_cell_length_b   5.18699285
_cell_length_c   12.13610236
_cell_angle_alpha   77.66067960
_cell_angle_beta   77.66066550
_cell_angle_gamma   59.99999982
_symmetry_Int_Tables_number   1
_chemical_formula_structural   Tb2Ho2Al5Ni9
_chemical_formula_sum   'Tb2 Ho2 Al5 Ni9'
_cell_volume   274.03062719
_cell_formula_units_Z   1
loop_
 _symmetry_equiv_pos_site_id
 _symmetry_equiv_pos_as_xyz
  1  'x, y, z'
loop_
 _atom_site_type_symbol
 _atom_site_label
 _atom_site_symmetry_multiplicity
 _atom_site_fract_x
 _atom_site_fract_y
 _atom_site_fract_z
 _atom_site_occupancy
  Tb  Tb0  1  0.952025  0.952025  0.143923  1
  Tb  Tb1  1  0.047975  0.047975  0.856077  1
  Ho  Ho2  1  0.855076  0.855076  0.434774  1
  Ho  Ho3  1  0.144924  0.144924  0.565226  1
  Al  Al4  1  0.500000  0.500000  0.500000  1
  Al  Al5  1  0.722423  0.722423  0.832733  1
  Al  Al6  1  0.277577  0.277577  0.167267  1
  Al  Al7  1  0.610333  0.610333  0.169001  1
  Al  Al8  1  0.389667  0.389667  0.830999  1
  Ni  Ni9  1  0.000000  0.500000  0.000000  1
  Ni  Ni10  1  0.500000  0.000000  0.000000  1
  Ni  Ni11  1  0.500000  0.500000  0.000000  1
  Ni  Ni12  1  0.386483  0.386483  0.333031  1
  Ni  Ni13  1  0.894004  0.386483  0.333031  1
  Ni  Ni14  1  0.386483  0.894004  0.333031  1
  Ni  Ni15  1  0.613517  0.613517  0.666969  1
  Ni  Ni16  1  0.105996  0.613517  0.666969  1
  Ni  Ni17  1  0.613517  0.105996  0.666969  1
