# generated using pymatgen
data_HoTm7Ti12Si15Ge
_symmetry_space_group_name_H-M   'P 1'
_cell_length_a   7.02328474
_cell_length_b   7.01611494
_cell_length_c   12.88627322
_cell_angle_alpha   89.97712729
_cell_angle_beta   89.94565952
_cell_angle_gamma   89.95266961
_symmetry_Int_Tables_number   1
_chemical_formula_structural   HoTm7Ti12Si15Ge
_chemical_formula_sum   'Ho1 Tm7 Ti12 Si15 Ge1'
_cell_volume   634.98567545
_cell_formula_units_Z   1
loop_
 _symmetry_equiv_pos_site_id
 _symmetry_equiv_pos_as_xyz
  1  'x, y, z'
loop_
 _atom_site_type_symbol
 _atom_site_label
 _atom_site_symmetry_multiplicity
 _atom_site_fract_x
 _atom_site_fract_y
 _atom_site_fract_z
 _atom_site_occupancy
  Ho  Ho0  1  0.997631  0.659268  0.033438  1
  Tm  Tm1  1  0.341783  0.001189  0.465607  1
  Tm  Tm2  1  0.499256  0.840350  0.717002  1
  Tm  Tm3  1  0.502018  0.159236  0.216868  1
  Tm  Tm4  1  0.840881  0.497611  0.283297  1
  Tm  Tm5  1  0.159271  0.502736  0.783662  1
  Tm  Tm6  1  0.659682  0.997410  0.967171  1
  Tm  Tm7  1  0.999899  0.342714  0.532131  1
  Ti  Ti8  1  0.326505  0.326388  0.000166  1
  Ti  Ti9  1  0.173640  0.826412  0.250100  1
  Ti  Ti10  1  0.823212  0.174030  0.750493  1
  Ti  Ti11  1  0.673379  0.673455  0.499963  1
  Ti  Ti12  1  0.152086  0.008381  0.877354  1
  Ti  Ti13  1  0.492140  0.650992  0.126353  1
  Ti  Ti14  1  0.509743  0.349784  0.626494  1
  Ti  Ti15  1  0.651994  0.492566  0.874097  1
  Ti  Ti16  1  0.348488  0.508212  0.373634  1
  Ti  Ti17  1  0.848282  0.992418  0.376219  1
  Ti  Ti18  1  0.008166  0.151582  0.123827  1
  Ti  Ti19  1  0.989288  0.845482  0.622584  1
  Si  Si20  1  0.369293  0.703257  0.933537  1
  Si  Si21  1  0.630780  0.297232  0.433459  1
  Si  Si22  1  0.702637  0.367997  0.066718  1
  Si  Si23  1  0.297344  0.631440  0.566452  1
  Si  Si24  1  0.796569  0.869039  0.184064  1
  Si  Si25  1  0.131424  0.202845  0.316530  1
  Si  Si26  1  0.869096  0.797887  0.816207  1
  Si  Si27  1  0.292514  0.953055  0.065257  1
  Si  Si28  1  0.547741  0.791467  0.314661  1
  Si  Si29  1  0.455674  0.208624  0.816643  1
  Si  Si30  1  0.792234  0.547101  0.685402  1
  Si  Si31  1  0.208610  0.452183  0.185514  1
  Si  Si32  1  0.707781  0.047460  0.564865  1
  Si  Si33  1  0.952632  0.291111  0.934950  1
  Si  Si34  1  0.047410  0.708686  0.434697  1
  Ge  Ge35  1  0.200913  0.130399  0.680587  1
