# generated using pymatgen
data_Tb4Hf3PtF28
_symmetry_space_group_name_H-M   'P 1'
_cell_length_a   5.67998573
_cell_length_b   9.04310966
_cell_length_c   12.16251046
_cell_angle_alpha   62.33330002
_cell_angle_beta   90.07260905
_cell_angle_gamma   90.06027268
_symmetry_Int_Tables_number   1
_chemical_formula_structural   Tb4Hf3PtF28
_chemical_formula_sum   'Tb4 Hf3 Pt1 F28'
_cell_volume   553.29491114
_cell_formula_units_Z   1
loop_
 _symmetry_equiv_pos_site_id
 _symmetry_equiv_pos_as_xyz
  1  'x, y, z'
loop_
 _atom_site_type_symbol
 _atom_site_label
 _atom_site_symmetry_multiplicity
 _atom_site_fract_x
 _atom_site_fract_y
 _atom_site_fract_z
 _atom_site_occupancy
  Tb  Tb0  1  0.257774  0.814658  0.267274  1
  Tb  Tb1  1  0.743550  0.187269  0.733136  1
  Tb  Tb2  1  0.758121  0.184580  0.234858  1
  Tb  Tb3  1  0.240880  0.815303  0.761528  1
  Hf  Hf4  1  0.755595  0.726555  0.043095  1
  Hf  Hf5  1  0.244898  0.275326  0.955244  1
  Hf  Hf6  1  0.256125  0.274613  0.456113  1
  Pt  Pt7  1  0.740754  0.727295  0.543739  1
  F  F8  1  0.937332  0.704041  0.419112  1
  F  F9  1  0.041599  0.289582  0.580537  1
  F  F10  1  0.460528  0.290781  0.079820  1
  F  F11  1  0.538142  0.710906  0.919339  1
  F  F12  1  0.482405  0.733900  0.145163  1
  F  F13  1  0.519626  0.267155  0.855178  1
  F  F14  1  0.980445  0.266909  0.355639  1
  F  F15  1  0.025275  0.727640  0.636505  1
  F  F16  1  0.963986  0.747102  0.170426  1
  F  F17  1  0.040957  0.252509  0.828251  1
  F  F18  1  0.462209  0.252914  0.328953  1
  F  F19  1  0.549016  0.743260  0.673409  1
  F  F20  1  0.772501  0.477377  0.140097  1
  F  F21  1  0.226055  0.524188  0.858129  1
  F  F22  1  0.269511  0.524213  0.360823  1
  F  F23  1  0.729553  0.481923  0.642013  1
  F  F24  1  0.952886  0.278691  0.048758  1
  F  F25  1  0.046591  0.722424  0.949325  1
  F  F26  1  0.448971  0.719529  0.457656  1
  F  F27  1  0.549554  0.281358  0.547051  1
  F  F28  1  0.743037  0.972712  0.450286  1
  F  F29  1  0.260916  0.025823  0.556191  1
  F  F30  1  0.240079  0.026723  0.058901  1
  F  F31  1  0.760453  0.975375  0.941802  1
  F  F32  1  0.578401  0.970001  0.234938  1
  F  F33  1  0.422156  0.028408  0.765319  1
  F  F34  1  0.078764  0.027296  0.270062  1
  F  F35  1  0.921357  0.971661  0.731327  1
