# generated using pymatgen
data_Ba4PrU3O14
_symmetry_space_group_name_H-M   'P 1'
_cell_length_a   8.24114492
_cell_length_b   8.24114456
_cell_length_c   8.20539493
_cell_angle_alpha   120.35817552
_cell_angle_beta   118.70017141
_cell_angle_gamma   91.06836216
_symmetry_Int_Tables_number   1
_chemical_formula_structural   Ba4PrU3O14
_chemical_formula_sum   'Ba4 Pr1 U3 O14'
_cell_volume   395.84686675
_cell_formula_units_Z   1
loop_
 _symmetry_equiv_pos_site_id
 _symmetry_equiv_pos_as_xyz
  1  'x, y, z'
loop_
 _atom_site_type_symbol
 _atom_site_label
 _atom_site_symmetry_multiplicity
 _atom_site_fract_x
 _atom_site_fract_y
 _atom_site_fract_z
 _atom_site_occupancy
  Ba  Ba0  1  0.000000  0.000000  0.000000  1
  Ba  Ba1  1  0.500000  0.500000  0.000000  1
  Ba  Ba2  1  0.500000  0.000000  0.000000  1
  Ba  Ba3  1  0.500000  0.500000  0.500000  1
  Pr  Pr4  1  0.000000  0.500000  0.000000  1
  U  U5  1  0.000000  0.000000  0.500000  1
  U  U6  1  0.000000  0.500000  0.500000  1
  U  U7  1  0.500000  0.000000  0.500000  1
  O  O8  1  0.895435  0.770742  0.166177  1
  O  O9  1  0.693357  0.927734  0.380289  1
  O  O10  1  0.625489  0.916213  0.722104  1
  O  O11  1  0.659232  0.304790  0.748432  1
  O  O12  1  0.340768  0.695210  0.251568  1
  O  O13  1  0.306643  0.072266  0.619711  1
  O  O14  1  0.694109  0.403384  0.277896  1
  O  O15  1  0.047444  0.813068  0.619711  1
  O  O16  1  0.056358  0.410801  0.251568  1
  O  O17  1  0.104565  0.229258  0.833823  1
  O  O18  1  0.374511  0.083787  0.277896  1
  O  O19  1  0.952556  0.186932  0.380289  1
  O  O20  1  0.943642  0.589199  0.748432  1
  O  O21  1  0.305891  0.596616  0.722104  1
