# generated using pymatgen
data_Pa2Ti2Co10P7
_symmetry_space_group_name_H-M   'P 1'
_cell_length_a   3.69908700
_cell_length_b   9.13070335
_cell_length_c   9.16626600
_cell_angle_alpha   119.67001640
_cell_angle_beta   90.00000000
_cell_angle_gamma   90.00000000
_symmetry_Int_Tables_number   1
_chemical_formula_structural   Pa2Ti2Co10P7
_chemical_formula_sum   'Pa2 Ti2 Co10 P7'
_cell_volume   269.00253423
_cell_formula_units_Z   1
loop_
 _symmetry_equiv_pos_site_id
 _symmetry_equiv_pos_as_xyz
  1  'x, y, z'
loop_
 _atom_site_type_symbol
 _atom_site_label
 _atom_site_symmetry_multiplicity
 _atom_site_fract_x
 _atom_site_fract_y
 _atom_site_fract_z
 _atom_site_occupancy
  Pa  Pa0  1  0.000000  0.670585  0.336353  1
  Pa  Pa1  1  0.500000  0.333336  0.669345  1
  Ti  Ti2  1  0.500000  0.783444  0.893930  1
  Ti  Ti3  1  0.500000  0.114374  0.217738  1
  Co  Co4  1  0.000000  0.560650  0.929286  1
  Co  Co5  1  0.000000  0.367957  0.437724  1
  Co  Co6  1  0.000000  0.068274  0.634434  1
  Co  Co7  1  0.500000  0.097487  0.874040  1
  Co  Co8  1  0.000000  0.872423  0.157682  1
  Co  Co9  1  0.000000  0.286000  0.127619  1
  Co  Co10  1  0.000000  0.845638  0.719340  1
  Co  Co11  1  0.500000  0.944228  0.388416  1
  Co  Co12  1  0.500000  0.436324  0.049553  1
  Co  Co13  1  0.500000  0.616533  0.558912  1
  P  P14  1  0.000000  0.004628  0.998646  1
  P  P15  1  0.500000  0.706965  0.112441  1
  P  P16  1  0.500000  0.407787  0.291051  1
  P  P17  1  0.500000  0.891003  0.603613  1
  P  P18  1  0.000000  0.590301  0.693966  1
  P  P19  1  0.000000  0.104287  0.410162  1
  P  P20  1  0.000000  0.297774  0.895753  1
