# generated using pymatgen
data_Y8Sb(IO8)3
_symmetry_space_group_name_H-M   'P 1'
_cell_length_a   5.49373101
_cell_length_b   7.73452799
_cell_length_c   11.70462800
_cell_angle_alpha   76.02315200
_cell_angle_beta   90.00359811
_cell_angle_gamma   90.34279999
_symmetry_Int_Tables_number   1
_chemical_formula_structural   Y8Sb(IO8)3
_chemical_formula_sum   'Y8 Sb1 I3 O24'
_cell_volume   482.61236376
_cell_formula_units_Z   1
loop_
 _symmetry_equiv_pos_site_id
 _symmetry_equiv_pos_as_xyz
  1  'x, y, z'
loop_
 _atom_site_type_symbol
 _atom_site_label
 _atom_site_symmetry_multiplicity
 _atom_site_fract_x
 _atom_site_fract_y
 _atom_site_fract_z
 _atom_site_occupancy
  Y  Y0  1  0.181843  0.803302  0.070197  1
  Y  Y1  1  0.260043  0.980700  0.751906  1
  Y  Y2  1  0.745844  0.023134  0.250676  1
  Y  Y3  1  0.316453  0.503240  0.757725  1
  Y  Y4  1  0.190324  0.222504  0.417552  1
  Y  Y5  1  0.693564  0.499788  0.242252  1
  Y  Y6  1  0.815762  0.200590  0.925702  1
  Y  Y7  1  0.804130  0.775913  0.583157  1
  Sb  Sb8  1  0.747660  0.718513  0.886917  1
  I  I9  1  0.255497  0.734720  0.381525  1
  I  I10  1  0.747439  0.265586  0.620545  1
  I  I11  1  0.260492  0.292054  0.106725  1
  O  O12  1  0.866294  0.366720  0.471002  1
  O  O13  1  0.463462  0.851543  0.928820  1
  O  O14  1  0.867046  0.630476  0.053775  1
  O  O15  1  0.021811  0.291522  0.720258  1
  O  O16  1  0.941622  0.279862  0.261937  1
  O  O17  1  0.164619  0.352187  0.937173  1
  O  O18  1  0.638449  0.478380  0.882583  1
  O  O19  1  0.531151  0.163858  0.070089  1
  O  O20  1  0.146732  0.642853  0.537651  1
  O  O21  1  0.022233  0.706128  0.764285  1
  O  O22  1  0.454712  0.228324  0.272499  1
  O  O23  1  0.069570  0.944110  0.393267  1
  O  O24  1  0.468231  0.162281  0.566209  1
  O  O25  1  0.978319  0.702057  0.285709  1
  O  O26  1  0.933659  0.053084  0.607050  1
  O  O27  1  0.572927  0.181690  0.768419  1
  O  O28  1  0.536746  0.779494  0.725700  1
  O  O29  1  0.994614  0.044307  0.099514  1
  O  O30  1  0.621088  0.491090  0.621747  1
  O  O31  1  0.387411  0.522660  0.103144  1
  O  O32  1  0.420758  0.821716  0.231256  1
  O  O33  1  0.379893  0.510207  0.379011  1
  O  O34  1  0.537750  0.838700  0.433760  1
  O  O35  1  0.961853  0.936706  0.890262  1
