# generated using pymatgen
data_TbY5Co17P12Os
_symmetry_space_group_name_H-M   'P 1'
_cell_length_a   3.70726300
_cell_length_b   10.51968800
_cell_length_c   12.22356600
_cell_angle_alpha   90.00000000
_cell_angle_beta   90.00000000
_cell_angle_gamma   90.00000000
_symmetry_Int_Tables_number   1
_chemical_formula_structural   TbY5Co17P12Os
_chemical_formula_sum   'Tb1 Y5 Co17 P12 Os1'
_cell_volume   476.70990747
_cell_formula_units_Z   1
loop_
 _symmetry_equiv_pos_site_id
 _symmetry_equiv_pos_as_xyz
  1  'x, y, z'
loop_
 _atom_site_type_symbol
 _atom_site_label
 _atom_site_symmetry_multiplicity
 _atom_site_fract_x
 _atom_site_fract_y
 _atom_site_fract_z
 _atom_site_occupancy
  Tb  Tb0  1  0.500000  0.000000  0.478176  1
  Y  Y1  1  0.000000  0.500000  0.524226  1
  Y  Y2  1  0.500000  0.817194  0.206685  1
  Y  Y3  1  0.500000  0.182806  0.206685  1
  Y  Y4  1  0.000000  0.683394  0.794265  1
  Y  Y5  1  0.000000  0.316606  0.794265  1
  Co  Co6  1  0.000000  0.000000  0.840560  1
  Co  Co7  1  0.500000  0.500000  0.703540  1
  Co  Co8  1  0.000000  0.000000  0.295778  1
  Co  Co9  1  0.000000  0.500000  0.987892  1
  Co  Co10  1  0.500000  0.000000  0.014499  1
  Co  Co11  1  0.500000  0.332856  0.991486  1
  Co  Co12  1  0.500000  0.667144  0.991486  1
  Co  Co13  1  0.000000  0.166986  0.006016  1
  Co  Co14  1  0.000000  0.833014  0.006016  1
  Co  Co15  1  0.500000  0.297388  0.430021  1
  Co  Co16  1  0.500000  0.702612  0.430021  1
  Co  Co17  1  0.000000  0.203290  0.568647  1
  Co  Co18  1  0.000000  0.796710  0.568647  1
  Co  Co19  1  0.500000  0.879350  0.709481  1
  Co  Co20  1  0.500000  0.120650  0.709481  1
  Co  Co21  1  0.000000  0.620053  0.290663  1
  Co  Co22  1  0.000000  0.379947  0.290663  1
  P  P23  1  0.500000  0.500000  0.881132  1
  P  P24  1  0.000000  0.000000  0.117035  1
  P  P25  1  0.500000  0.500000  0.350120  1
  P  P26  1  0.000000  0.000000  0.656383  1
  P  P27  1  0.500000  0.310672  0.616217  1
  P  P28  1  0.500000  0.689328  0.616217  1
  P  P29  1  0.000000  0.188628  0.384071  1
  P  P30  1  0.000000  0.811372  0.384071  1
  P  P31  1  0.500000  0.849434  0.892659  1
  P  P32  1  0.500000  0.150566  0.892659  1
  P  P33  1  0.000000  0.655058  0.105885  1
  P  P34  1  0.000000  0.344942  0.105885  1
  Os  Os35  1  0.500000  0.500000  0.158465  1
