# generated using pymatgen
data_Sc19Si16W
_symmetry_space_group_name_H-M   'P 1'
_cell_length_a   6.86939669
_cell_length_b   7.18565172
_cell_length_c   13.58146800
_cell_angle_alpha   90.00000000
_cell_angle_beta   90.00000000
_cell_angle_gamma   89.84172141
_symmetry_Int_Tables_number   1
_chemical_formula_structural   Sc19Si16W
_chemical_formula_sum   'Sc19 Si16 W1'
_cell_volume   670.39353465
_cell_formula_units_Z   1
loop_
 _symmetry_equiv_pos_site_id
 _symmetry_equiv_pos_as_xyz
  1  'x, y, z'
loop_
 _atom_site_type_symbol
 _atom_site_label
 _atom_site_symmetry_multiplicity
 _atom_site_fract_x
 _atom_site_fract_y
 _atom_site_fract_z
 _atom_site_occupancy
  Sc  Sc0  1  0.837342  0.006194  0.250000  1
  Sc  Sc1  1  0.337324  0.493786  0.250000  1
  Sc  Sc2  1  0.661928  0.510168  0.750000  1
  Sc  Sc3  1  0.995546  0.684884  0.599763  1
  Sc  Sc4  1  0.009745  0.319803  0.406636  1
  Sc  Sc5  1  0.508699  0.179060  0.405853  1
  Sc  Sc6  1  0.009745  0.319803  0.093364  1
  Sc  Sc7  1  0.488515  0.823428  0.597729  1
  Sc  Sc8  1  0.995546  0.684884  0.900237  1
  Sc  Sc9  1  0.488515  0.823428  0.902271  1
  Sc  Sc10  1  0.508699  0.179060  0.094147  1
  Sc  Sc11  1  0.333198  0.319681  0.627493  1
  Sc  Sc12  1  0.666736  0.677914  0.374374  1
  Sc  Sc13  1  0.168673  0.825016  0.377366  1
  Sc  Sc14  1  0.666736  0.677914  0.125626  1
  Sc  Sc15  1  0.830053  0.172302  0.628149  1
  Sc  Sc16  1  0.333198  0.319681  0.872507  1
  Sc  Sc17  1  0.830053  0.172302  0.871851  1
  Sc  Sc18  1  0.168673  0.825016  0.122634  1
  Si  Si19  1  0.034530  0.389497  0.750000  1
  Si  Si20  1  0.967700  0.604778  0.250000  1
  Si  Si21  1  0.464819  0.896586  0.250000  1
  Si  Si22  1  0.524329  0.091650  0.750000  1
  Si  Si23  1  0.285396  0.647684  0.750000  1
  Si  Si24  1  0.713762  0.364345  0.250000  1
  Si  Si25  1  0.210767  0.136096  0.250000  1
  Si  Si26  1  0.798020  0.864614  0.750000  1
  Si  Si27  1  0.161255  0.027795  0.547467  1
  Si  Si28  1  0.836602  0.967913  0.463556  1
  Si  Si29  1  0.339518  0.531970  0.463477  1
  Si  Si30  1  0.836602  0.967913  0.036444  1
  Si  Si31  1  0.665162  0.467977  0.538316  1
  Si  Si32  1  0.161255  0.027795  0.952533  1
  Si  Si33  1  0.665162  0.467977  0.961684  1
  Si  Si34  1  0.339518  0.531970  0.036523  1
  W  W35  1  0.156677  0.999114  0.750000  1
