# generated using pymatgen
data_Dy4NpNbRu6
_symmetry_space_group_name_H-M   'P 1'
_cell_length_a   5.80324718
_cell_length_b   5.80324875
_cell_length_c   7.85694603
_cell_angle_alpha   89.99167651
_cell_angle_beta   90.00832387
_cell_angle_gamma   119.98821818
_symmetry_Int_Tables_number   1
_chemical_formula_structural   Dy4NpNbRu6
_chemical_formula_sum   'Dy4 Np1 Nb1 Ru6'
_cell_volume   229.18078308
_cell_formula_units_Z   1
loop_
 _symmetry_equiv_pos_site_id
 _symmetry_equiv_pos_as_xyz
  1  'x, y, z'
loop_
 _atom_site_type_symbol
 _atom_site_label
 _atom_site_symmetry_multiplicity
 _atom_site_fract_x
 _atom_site_fract_y
 _atom_site_fract_z
 _atom_site_occupancy
  Dy  Dy0  1  0.666660  0.333340  0.561262  1
  Dy  Dy1  1  0.333340  0.666660  0.438738  1
  Dy  Dy2  1  0.333335  0.666665  0.053165  1
  Dy  Dy3  1  0.666665  0.333335  0.946835  1
  Np  Np4  1  0.000000  0.000000  0.500000  1
  Nb  Nb5  1  0.000000  0.000000  0.000000  1
  Ru  Ru6  1  0.167515  0.335063  0.741672  1
  Ru  Ru7  1  0.167539  0.832461  0.741668  1
  Ru  Ru8  1  0.664937  0.832485  0.741672  1
  Ru  Ru9  1  0.832485  0.664937  0.258328  1
  Ru  Ru10  1  0.832461  0.167539  0.258332  1
  Ru  Ru11  1  0.335063  0.167515  0.258328  1
