# generated using pymatgen
data_Y3Ho2AlSb2
_symmetry_space_group_name_H-M   'P 1'
_cell_length_a   8.89478318
_cell_length_b   8.89563340
_cell_length_c   6.41056200
_cell_angle_alpha   90.00000000
_cell_angle_beta   90.00000000
_cell_angle_gamma   120.00315823
_symmetry_Int_Tables_number   1
_chemical_formula_structural   Y3Ho2AlSb2
_chemical_formula_sum   'Y6 Ho4 Al2 Sb4'
_cell_volume   439.26354044
_cell_formula_units_Z   2
loop_
 _symmetry_equiv_pos_site_id
 _symmetry_equiv_pos_as_xyz
  1  'x, y, z'
loop_
 _atom_site_type_symbol
 _atom_site_label
 _atom_site_symmetry_multiplicity
 _atom_site_fract_x
 _atom_site_fract_y
 _atom_site_fract_z
 _atom_site_occupancy
  Y  Y0  1  0.755690  0.998941  0.750000  1
  Y  Y1  1  0.755690  0.756750  0.250000  1
  Y  Y2  1  0.008334  0.242953  0.250000  1
  Y  Y3  1  0.008334  0.765382  0.750000  1
  Y  Y4  1  0.241693  0.232538  0.750000  1
  Y  Y5  1  0.241693  0.009154  0.250000  1
  Ho  Ho6  1  0.335763  0.667882  0.000000  1
  Ho  Ho7  1  0.655870  0.327934  0.500000  1
  Ho  Ho8  1  0.655870  0.327934  0.000000  1
  Ho  Ho9  1  0.335763  0.667882  0.500000  1
  Al  Al10  1  0.398205  0.997046  0.750000  1
  Al  Al11  1  0.398205  0.401160  0.250000  1
  Sb  Sb12  1  0.998601  0.606361  0.250000  1
  Sb  Sb13  1  0.998601  0.392240  0.750000  1
  Sb  Sb14  1  0.605845  0.604965  0.750000  1
  Sb  Sb15  1  0.605845  0.000879  0.250000  1
