# generated using pymatgen
data_Sc4Mn2(AlTc)3
_symmetry_space_group_name_H-M   'P 1'
_cell_length_a   5.25554300
_cell_length_b   5.30017159
_cell_length_c   8.24245500
_cell_angle_alpha   90.00000000
_cell_angle_beta   90.00000000
_cell_angle_gamma   119.72185644
_symmetry_Int_Tables_number   1
_chemical_formula_structural   Sc4Mn2(AlTc)3
_chemical_formula_sum   'Sc4 Mn2 Al3 Tc3'
_cell_volume   199.39081668
_cell_formula_units_Z   1
loop_
 _symmetry_equiv_pos_site_id
 _symmetry_equiv_pos_as_xyz
  1  'x, y, z'
loop_
 _atom_site_type_symbol
 _atom_site_label
 _atom_site_symmetry_multiplicity
 _atom_site_fract_x
 _atom_site_fract_y
 _atom_site_fract_z
 _atom_site_occupancy
  Sc  Sc0  1  0.336896  0.673792  0.056441  1
  Sc  Sc1  1  0.667256  0.334510  0.564195  1
  Sc  Sc2  1  0.336896  0.673792  0.443559  1
  Sc  Sc3  1  0.667256  0.334510  0.935805  1
  Mn  Mn4  1  0.981703  0.963405  0.499429  1
  Mn  Mn5  1  0.981703  0.963405  0.000571  1
  Al  Al6  1  0.343360  0.188475  0.250000  1
  Al  Al7  1  0.845116  0.188475  0.250000  1
  Al  Al8  1  0.165207  0.330414  0.750000  1
  Tc  Tc9  1  0.843672  0.687343  0.250000  1
  Tc  Tc10  1  0.171030  0.830939  0.750000  1
  Tc  Tc11  1  0.659907  0.830939  0.750000  1
