# generated using pymatgen
data_Hf8Co2IrRu
_symmetry_space_group_name_H-M   'P 1'
_cell_length_a   8.58187034
_cell_length_b   8.58183725
_cell_length_c   8.59137509
_cell_angle_alpha   59.96676689
_cell_angle_beta   59.96767227
_cell_angle_gamma   59.97975927
_symmetry_Int_Tables_number   1
_chemical_formula_structural   Hf8Co2IrRu
_chemical_formula_sum   'Hf16 Co4 Ir2 Ru2'
_cell_volume   447.12415560
_cell_formula_units_Z   2
loop_
 _symmetry_equiv_pos_site_id
 _symmetry_equiv_pos_as_xyz
  1  'x, y, z'
loop_
 _atom_site_type_symbol
 _atom_site_label
 _atom_site_symmetry_multiplicity
 _atom_site_fract_x
 _atom_site_fract_y
 _atom_site_fract_z
 _atom_site_occupancy
  Hf  Hf0  1  0.061360  0.645724  0.646415  1
  Hf  Hf1  1  0.645767  0.061335  0.646415  1
  Hf  Hf2  1  0.646209  0.646170  0.061567  1
  Hf  Hf3  1  0.646247  0.646194  0.646031  1
  Hf  Hf4  1  0.801917  0.801966  0.198087  1
  Hf  Hf5  1  0.198421  0.198455  0.801579  1
  Hf  Hf6  1  0.801107  0.198076  0.802472  1
  Hf  Hf7  1  0.197996  0.801197  0.198385  1
  Hf  Hf8  1  0.198053  0.801137  0.802441  1
  Hf  Hf9  1  0.801173  0.198016  0.198357  1
  Hf  Hf10  1  0.435789  0.435789  0.064206  1
  Hf  Hf11  1  0.063697  0.063684  0.436310  1
  Hf  Hf12  1  0.436195  0.065665  0.436243  1
  Hf  Hf13  1  0.065664  0.436219  0.061861  1
  Hf  Hf14  1  0.065680  0.436171  0.436242  1
  Hf  Hf15  1  0.436236  0.065654  0.061852  1
  Co  Co16  1  0.425094  0.858104  0.858413  1
  Co  Co17  1  0.858097  0.425128  0.858396  1
  Co  Co18  1  0.857989  0.857995  0.425681  1
  Co  Co19  1  0.857983  0.857993  0.858389  1
  Ir  Ir20  1  0.752786  0.415204  0.416004  1
  Ir  Ir21  1  0.415197  0.752773  0.416018  1
  Ru  Ru22  1  0.415669  0.415674  0.752636  1
  Ru  Ru23  1  0.415671  0.415678  0.416002  1
