# generated using pymatgen
data_Tb5DyAl24(FeRu3)2
_symmetry_space_group_name_H-M   'P 1'
_cell_length_a   8.80285400
_cell_length_b   8.80091354
_cell_length_c   9.52692200
_cell_angle_alpha   90.00000000
_cell_angle_beta   90.00000000
_cell_angle_gamma   119.99271095
_symmetry_Int_Tables_number   1
_chemical_formula_structural   Tb5DyAl24(FeRu3)2
_chemical_formula_sum   'Tb5 Dy1 Al24 Fe2 Ru6'
_cell_volume   639.24359987
_cell_formula_units_Z   1
loop_
 _symmetry_equiv_pos_site_id
 _symmetry_equiv_pos_as_xyz
  1  'x, y, z'
loop_
 _atom_site_type_symbol
 _atom_site_label
 _atom_site_symmetry_multiplicity
 _atom_site_fract_x
 _atom_site_fract_y
 _atom_site_fract_z
 _atom_site_occupancy
  Tb  Tb0  1  0.193326  0.806582  0.250000  1
  Tb  Tb1  1  0.193326  0.386744  0.250000  1
  Tb  Tb2  1  0.613162  0.806581  0.250000  1
  Tb  Tb3  1  0.806639  0.193403  0.750000  1
  Tb  Tb4  1  0.806639  0.613235  0.750000  1
  Dy  Dy5  1  0.387411  0.193705  0.750000  1
  Al  Al6  1  0.561040  0.438773  0.250000  1
  Al  Al7  1  0.561040  0.122267  0.250000  1
  Al  Al8  1  0.877646  0.438823  0.250000  1
  Al  Al9  1  0.438843  0.560839  0.750000  1
  Al  Al10  1  0.438843  0.878004  0.750000  1
  Al  Al11  1  0.122343  0.561172  0.750000  1
  Al  Al12  1  0.317738  0.158869  0.424007  1
  Al  Al13  1  0.841083  0.158884  0.423830  1
  Al  Al14  1  0.841083  0.682199  0.423830  1
  Al  Al15  1  0.682228  0.841114  0.576321  1
  Al  Al16  1  0.158999  0.841355  0.576375  1
  Al  Al17  1  0.158999  0.317644  0.576375  1
  Al  Al18  1  0.682228  0.841114  0.923679  1
  Al  Al19  1  0.158999  0.841355  0.923625  1
  Al  Al20  1  0.158999  0.317644  0.923625  1
  Al  Al21  1  0.317738  0.158869  0.075993  1
  Al  Al22  1  0.841083  0.158884  0.076170  1
  Al  Al23  1  0.841083  0.682199  0.076170  1
  Al  Al24  1  0.666549  0.333274  0.513423  1
  Al  Al25  1  0.333300  0.666651  0.486844  1
  Al  Al26  1  0.333300  0.666651  0.013156  1
  Al  Al27  1  0.666549  0.333274  0.986577  1
  Al  Al28  1  0.999945  0.999973  0.250000  1
  Al  Al29  1  0.000595  0.000298  0.750000  1
  Fe  Fe30  1  0.999927  0.999963  0.500034  1
  Fe  Fe31  1  0.999927  0.999963  0.999966  1
  Ru  Ru32  1  0.499870  0.499787  0.500105  1
  Ru  Ru33  1  0.499870  0.000083  0.500105  1
  Ru  Ru34  1  0.999955  0.499977  0.500030  1
  Ru  Ru35  1  0.499870  0.499787  0.999895  1
  Ru  Ru36  1  0.499870  0.000083  0.999895  1
  Ru  Ru37  1  0.999955  0.499977  0.999970  1
