# generated using pymatgen
data_Pa2C2SeBr
_symmetry_space_group_name_H-M   'P 1'
_cell_length_a   4.01560947
_cell_length_b   4.01560941
_cell_length_c   10.39463900
_cell_angle_alpha   87.23367852
_cell_angle_beta   87.23367856
_cell_angle_gamma   55.04464326
_symmetry_Int_Tables_number   1
_chemical_formula_structural   Pa2C2SeBr
_chemical_formula_sum   'Pa2 C2 Se1 Br1'
_cell_volume   137.17328270
_cell_formula_units_Z   1
loop_
 _symmetry_equiv_pos_site_id
 _symmetry_equiv_pos_as_xyz
  1  'x, y, z'
loop_
 _atom_site_type_symbol
 _atom_site_label
 _atom_site_symmetry_multiplicity
 _atom_site_fract_x
 _atom_site_fract_y
 _atom_site_fract_z
 _atom_site_occupancy
  Pa  Pa0  1  0.857164  0.857164  0.127698  1
  Pa  Pa1  1  0.141778  0.141778  0.859997  1
  C  C2  1  0.419615  0.419615  0.962908  1
  C  C3  1  0.579262  0.579262  0.038437  1
  Se  Se4  1  0.824380  0.824380  0.690937  1
  Br  Br5  1  0.177802  0.177802  0.320024  1
