# generated using pymatgen
data_DyTm7(InNi)2
_symmetry_space_group_name_H-M   'P 1'
_cell_length_a   9.46559025
_cell_length_b   9.46559106
_cell_length_c   9.48505300
_cell_angle_alpha   59.93195885
_cell_angle_beta   59.93195601
_cell_angle_gamma   59.88586869
_symmetry_Int_Tables_number   1
_chemical_formula_structural   DyTm7(InNi)2
_chemical_formula_sum   'Dy2 Tm14 In4 Ni4'
_cell_volume   599.78769463
_cell_formula_units_Z   2
loop_
 _symmetry_equiv_pos_site_id
 _symmetry_equiv_pos_as_xyz
  1  'x, y, z'
loop_
 _atom_site_type_symbol
 _atom_site_label
 _atom_site_symmetry_multiplicity
 _atom_site_fract_x
 _atom_site_fract_y
 _atom_site_fract_z
 _atom_site_occupancy
  Dy  Dy0  1  0.347582  0.347582  0.349002  1
  Dy  Dy1  1  0.347582  0.347582  0.955833  1
  Tm  Tm2  1  0.347120  0.955647  0.348616  1
  Tm  Tm3  1  0.955647  0.347120  0.348616  1
  Tm  Tm4  1  0.813158  0.187933  0.187202  1
  Tm  Tm5  1  0.187933  0.813158  0.811707  1
  Tm  Tm6  1  0.187933  0.813158  0.187202  1
  Tm  Tm7  1  0.813158  0.187933  0.811707  1
  Tm  Tm8  1  0.187275  0.187275  0.812725  1
  Tm  Tm9  1  0.812025  0.812025  0.187975  1
  Tm  Tm10  1  0.937159  0.562527  0.562509  1
  Tm  Tm11  1  0.562527  0.937159  0.937805  1
  Tm  Tm12  1  0.562527  0.937159  0.562509  1
  Tm  Tm13  1  0.937159  0.562527  0.937805  1
  Tm  Tm14  1  0.562927  0.562927  0.937073  1
  Tm  Tm15  1  0.937949  0.937949  0.562051  1
  In  In16  1  0.583258  0.583258  0.582378  1
  In  In17  1  0.583258  0.583258  0.251105  1
  In  In18  1  0.583332  0.251684  0.582492  1
  In  In19  1  0.251684  0.583332  0.582492  1
  Ni  Ni20  1  0.141823  0.141823  0.143277  1
  Ni  Ni21  1  0.141823  0.141823  0.573079  1
  Ni  Ni22  1  0.140824  0.574337  0.142420  1
  Ni  Ni23  1  0.574337  0.140824  0.142420  1
