# generated using pymatgen
data_Ti10BeSn6P
_symmetry_space_group_name_H-M   'P 1'
_cell_length_a   8.18755700
_cell_length_b   8.18755557
_cell_length_c   5.48555800
_cell_angle_alpha   90.00000000
_cell_angle_beta   90.00000000
_cell_angle_gamma   120.00000172
_symmetry_Int_Tables_number   1
_chemical_formula_structural   Ti10BeSn6P
_chemical_formula_sum   'Ti10 Be1 Sn6 P1'
_cell_volume   318.46377061
_cell_formula_units_Z   1
loop_
 _symmetry_equiv_pos_site_id
 _symmetry_equiv_pos_as_xyz
  1  'x, y, z'
loop_
 _atom_site_type_symbol
 _atom_site_label
 _atom_site_symmetry_multiplicity
 _atom_site_fract_x
 _atom_site_fract_y
 _atom_site_fract_z
 _atom_site_occupancy
  Ti  Ti0  1  0.248734  0.000000  0.749434  1
  Ti  Ti1  1  0.751266  0.000000  0.250566  1
  Ti  Ti2  1  0.000000  0.248734  0.749434  1
  Ti  Ti3  1  0.000000  0.751266  0.250566  1
  Ti  Ti4  1  0.751266  0.751266  0.749434  1
  Ti  Ti5  1  0.248734  0.248734  0.250566  1
  Ti  Ti6  1  0.333333  0.666667  0.500000  1
  Ti  Ti7  1  0.666667  0.333333  0.500000  1
  Ti  Ti8  1  0.666667  0.333333  0.000000  1
  Ti  Ti9  1  0.333333  0.666667  0.000000  1
  Be  Be10  1  0.000000  0.000000  0.000000  1
  Sn  Sn11  1  0.605895  0.000000  0.753436  1
  Sn  Sn12  1  0.394105  0.000000  0.246564  1
  Sn  Sn13  1  0.000000  0.605895  0.753436  1
  Sn  Sn14  1  0.000000  0.394105  0.246564  1
  Sn  Sn15  1  0.394105  0.394105  0.753436  1
  Sn  Sn16  1  0.605895  0.605895  0.246564  1
  P  P17  1  0.000000  0.000000  0.500000  1
