# generated using pymatgen
data_Pr3Th(Al3Ir)6
_symmetry_space_group_name_H-M   'P 1'
_cell_length_a   7.63402925
_cell_length_b   7.63904945
_cell_length_c   9.60957600
_cell_angle_alpha   90.00000000
_cell_angle_beta   90.00000000
_cell_angle_gamma   119.37776899
_symmetry_Int_Tables_number   1
_chemical_formula_structural   Pr3Th(Al3Ir)6
_chemical_formula_sum   'Pr3 Th1 Al18 Ir6'
_cell_volume   488.33406914
_cell_formula_units_Z   1
loop_
 _symmetry_equiv_pos_site_id
 _symmetry_equiv_pos_as_xyz
  1  'x, y, z'
loop_
 _atom_site_type_symbol
 _atom_site_label
 _atom_site_symmetry_multiplicity
 _atom_site_fract_x
 _atom_site_fract_y
 _atom_site_fract_z
 _atom_site_occupancy
  Pr  Pr0  1  0.004471  0.330065  0.750000  1
  Pr  Pr1  1  0.670493  0.994834  0.250000  1
  Pr  Pr2  1  0.329875  0.004506  0.750000  1
  Th  Th3  1  0.995507  0.670489  0.250000  1
  Al  Al4  1  0.132093  0.131963  0.250000  1
  Al  Al5  1  0.869948  0.870767  0.750000  1
  Al  Al6  1  0.002858  0.332628  0.073022  1
  Al  Al7  1  0.996891  0.664831  0.924400  1
  Al  Al8  1  0.996891  0.664831  0.575600  1
  Al  Al9  1  0.337637  0.005140  0.427021  1
  Al  Al10  1  0.002858  0.332628  0.426978  1
  Al  Al11  1  0.665267  0.997745  0.572999  1
  Al  Al12  1  0.665267  0.997745  0.927001  1
  Al  Al13  1  0.337637  0.005140  0.072979  1
  Al  Al14  1  0.333987  0.333917  0.547725  1
  Al  Al15  1  0.663526  0.665423  0.453344  1
  Al  Al16  1  0.663526  0.665423  0.046656  1
  Al  Al17  1  0.333987  0.333917  0.952275  1
  Al  Al18  1  0.340589  0.545773  0.250000  1
  Al  Al19  1  0.659568  0.453348  0.750000  1
  Al  Al20  1  0.544494  0.339898  0.250000  1
  Al  Al21  1  0.453567  0.660510  0.750000  1
  Ir  Ir22  1  0.672529  0.330935  0.001752  1
  Ir  Ir23  1  0.327323  0.670672  0.001693  1
  Ir  Ir24  1  0.327323  0.670672  0.498307  1
  Ir  Ir25  1  0.672529  0.330935  0.498248  1
  Ir  Ir26  1  0.999682  0.997633  0.002192  1
  Ir  Ir27  1  0.999682  0.997633  0.497808  1
