# generated using pymatgen
data_K2Pt(NO3)4
_symmetry_space_group_name_H-M   'P 1'
_cell_length_a   16.03296700
_cell_length_b   8.19361861
_cell_length_c   9.74070200
_cell_angle_alpha   88.66602983
_cell_angle_beta   90.00000000
_cell_angle_gamma   90.00000000
_symmetry_Int_Tables_number   1
_chemical_formula_structural   K2Pt(NO3)4
_chemical_formula_sum   'K8 Pt4 N16 O48'
_cell_volume   1279.26990594
_cell_formula_units_Z   4
loop_
 _symmetry_equiv_pos_site_id
 _symmetry_equiv_pos_as_xyz
  1  'x, y, z'
loop_
 _atom_site_type_symbol
 _atom_site_label
 _atom_site_symmetry_multiplicity
 _atom_site_fract_x
 _atom_site_fract_y
 _atom_site_fract_z
 _atom_site_occupancy
  K  K0  1  0.839884  0.225112  0.015080  1
  K  K1  1  0.660116  0.225112  0.515080  1
  K  K2  1  0.094070  0.254082  0.548256  1
  K  K3  1  0.905930  0.745918  0.451744  1
  K  K4  1  0.160116  0.774888  0.984920  1
  K  K5  1  0.405930  0.254082  0.048256  1
  K  K6  1  0.594070  0.745918  0.951744  1
  K  K7  1  0.339884  0.774888  0.484920  1
  Pt  Pt8  1  0.879715  0.729960  0.823614  1
  Pt  Pt9  1  0.620285  0.729960  0.323614  1
  Pt  Pt10  1  0.120285  0.270040  0.176386  1
  Pt  Pt11  1  0.379715  0.270040  0.676386  1
  N  N12  1  0.193686  0.568649  0.285799  1
  N  N13  1  0.962865  0.430445  0.238922  1
  N  N14  1  0.806314  0.431351  0.714201  1
  N  N15  1  0.041038  0.955435  0.241228  1
  N  N16  1  0.458962  0.955435  0.741228  1
  N  N17  1  0.765379  0.898261  0.206917  1
  N  N18  1  0.734621  0.898261  0.706917  1
  N  N19  1  0.462865  0.569555  0.261078  1
  N  N20  1  0.306314  0.568649  0.785799  1
  N  N21  1  0.541038  0.044565  0.258772  1
  N  N22  1  0.693686  0.431351  0.214201  1
  N  N23  1  0.958962  0.044565  0.758772  1
  N  N24  1  0.234621  0.101739  0.793083  1
  N  N25  1  0.537135  0.430445  0.738922  1
  N  N26  1  0.265379  0.101739  0.293083  1
  N  N27  1  0.037135  0.569555  0.761078  1
  O  O28  1  0.998119  0.455792  0.350050  1
  O  O29  1  0.108016  0.519502  0.792134  1
  O  O30  1  0.838773  0.947470  0.214233  1
  O  O31  1  0.198576  0.488813  0.394920  1
  O  O32  1  0.526854  0.189868  0.283995  1
  O  O33  1  0.473146  0.810132  0.716005  1
  O  O34  1  0.801424  0.511187  0.605080  1
  O  O35  1  0.586549  0.963819  0.354482  1
  O  O36  1  0.086549  0.036181  0.145518  1
  O  O37  1  0.161227  0.052530  0.785767  1
  O  O38  1  0.501881  0.455792  0.850050  1
  O  O39  1  0.338773  0.052530  0.285767  1
  O  O40  1  0.501172  0.656933  0.357668  1
  O  O41  1  0.516405  0.973680  0.155067  1
  O  O42  1  0.219666  0.711375  0.268610  1
  O  O43  1  0.841077  0.495343  0.825925  1
  O  O44  1  0.661227  0.947470  0.714233  1
  O  O45  1  0.759166  0.802210  0.812959  1
  O  O46  1  0.240834  0.197790  0.187041  1
  O  O47  1  0.716716  0.932940  0.111693  1
  O  O48  1  0.998828  0.656933  0.857668  1
  O  O49  1  0.783284  0.932940  0.611693  1
  O  O50  1  0.283284  0.067060  0.888307  1
  O  O51  1  0.983595  0.973680  0.655067  1
  O  O52  1  0.498828  0.343067  0.642332  1
  O  O53  1  0.341077  0.504657  0.674075  1
  O  O54  1  0.913451  0.963819  0.854482  1
  O  O55  1  0.719666  0.288625  0.231390  1
  O  O56  1  0.158923  0.504657  0.174075  1
  O  O57  1  0.658923  0.495343  0.325925  1
  O  O58  1  0.973146  0.189868  0.783995  1
  O  O59  1  0.301424  0.488813  0.894920  1
  O  O60  1  0.498119  0.544208  0.149950  1
  O  O61  1  0.740834  0.802210  0.312959  1
  O  O62  1  0.698576  0.511187  0.105080  1
  O  O63  1  0.016405  0.026320  0.344933  1
  O  O64  1  0.413451  0.036181  0.645518  1
  O  O65  1  0.891984  0.480498  0.207866  1
  O  O66  1  0.280334  0.711375  0.768610  1
  O  O67  1  0.026854  0.810132  0.216005  1
  O  O68  1  0.216716  0.067060  0.388307  1
  O  O69  1  0.391984  0.519502  0.292134  1
  O  O70  1  0.483595  0.026320  0.844933  1
  O  O71  1  0.001881  0.544208  0.649950  1
  O  O72  1  0.259166  0.197790  0.687041  1
  O  O73  1  0.001172  0.343067  0.142332  1
  O  O74  1  0.780334  0.288625  0.731390  1
  O  O75  1  0.608016  0.480498  0.707866  1
