# generated using pymatgen
data_Pr3GdTm4(B6Os)4
_symmetry_space_group_name_H-M   'P 1'
_cell_length_a   3.68112500
_cell_length_b   9.19462508
_cell_length_c   11.62840909
_cell_angle_alpha   90.01491451
_cell_angle_beta   90.00000000
_cell_angle_gamma   90.00000000
_symmetry_Int_Tables_number   1
_chemical_formula_structural   Pr3GdTm4(B6Os)4
_chemical_formula_sum   'Pr3 Gd1 Tm4 B24 Os4'
_cell_volume   393.58168223
_cell_formula_units_Z   1
loop_
 _symmetry_equiv_pos_site_id
 _symmetry_equiv_pos_as_xyz
  1  'x, y, z'
loop_
 _atom_site_type_symbol
 _atom_site_label
 _atom_site_symmetry_multiplicity
 _atom_site_fract_x
 _atom_site_fract_y
 _atom_site_fract_z
 _atom_site_occupancy
  Pr  Pr0  1  0.000000  0.322185  0.414356  1
  Pr  Pr1  1  0.000000  0.677758  0.586025  1
  Pr  Pr2  1  0.000000  0.822452  0.085277  1
  Gd  Gd3  1  0.000000  0.178054  0.914445  1
  Tm  Tm4  1  0.000000  0.944585  0.372196  1
  Tm  Tm5  1  0.000000  0.055780  0.627893  1
  Tm  Tm6  1  0.000000  0.443927  0.126553  1
  Tm  Tm7  1  0.000000  0.555139  0.872994  1
  B  B8  1  0.500000  0.556500  0.429693  1
  B  B9  1  0.500000  0.442884  0.571021  1
  B  B10  1  0.500000  0.057210  0.067817  1
  B  B11  1  0.500000  0.946000  0.930310  1
  B  B12  1  0.500000  0.750609  0.416838  1
  B  B13  1  0.500000  0.249255  0.584070  1
  B  B14  1  0.500000  0.249966  0.080529  1
  B  B15  1  0.500000  0.750439  0.916897  1
  B  B16  1  0.500000  0.791054  0.266604  1
  B  B17  1  0.500000  0.207868  0.735195  1
  B  B18  1  0.500000  0.290738  0.231980  1
  B  B19  1  0.500000  0.709525  0.767349  1
  B  B20  1  0.500000  0.629945  0.184736  1
  B  B21  1  0.500000  0.367922  0.816582  1
  B  B22  1  0.500000  0.130246  0.314299  1
  B  B23  1  0.500000  0.870706  0.685781  1
  B  B24  1  0.500000  0.985743  0.213888  1
  B  B25  1  0.500000  0.016975  0.786514  1
  B  B26  1  0.500000  0.485046  0.284839  1
  B  B27  1  0.500000  0.513846  0.715609  1
  B  B28  1  0.500000  0.601389  0.027588  1
  B  B29  1  0.500000  0.395353  0.971478  1
  B  B30  1  0.500000  0.100729  0.472621  1
  B  B31  1  0.500000  0.899567  0.527628  1
  Os  Os32  1  0.000000  0.639589  0.318704  1
  Os  Os33  1  0.000000  0.359119  0.682555  1
  Os  Os34  1  0.000000  0.139689  0.179529  1
  Os  Os35  1  0.000000  0.862210  0.819609  1
