# generated using pymatgen
data_SrGaSi2Ni5
_symmetry_space_group_name_H-M   'P 1'
_cell_length_a   6.27976376
_cell_length_b   6.27976417
_cell_length_c   11.86755400
_cell_angle_alpha   90.00000000
_cell_angle_beta   90.00000000
_cell_angle_gamma   145.24607610
_symmetry_Int_Tables_number   1
_chemical_formula_structural   SrGaSi2Ni5
_chemical_formula_sum   'Sr2 Ga2 Si4 Ni10'
_cell_volume   266.78605017
_cell_formula_units_Z   2
loop_
 _symmetry_equiv_pos_site_id
 _symmetry_equiv_pos_as_xyz
  1  'x, y, z'
loop_
 _atom_site_type_symbol
 _atom_site_label
 _atom_site_symmetry_multiplicity
 _atom_site_fract_x
 _atom_site_fract_y
 _atom_site_fract_z
 _atom_site_occupancy
  Sr  Sr0  1  0.163523  0.836477  0.250000  1
  Sr  Sr1  1  0.836477  0.163523  0.750000  1
  Ga  Ga2  1  0.892038  0.107962  0.250000  1
  Ga  Ga3  1  0.107962  0.892038  0.750000  1
  Si  Si4  1  0.381953  0.618047  0.963617  1
  Si  Si5  1  0.618047  0.381953  0.036383  1
  Si  Si6  1  0.618047  0.381953  0.463617  1
  Si  Si7  1  0.381953  0.618047  0.536383  1
  Ni  Ni8  1  0.451845  0.548155  0.359705  1
  Ni  Ni9  1  0.451845  0.548155  0.140295  1
  Ni  Ni10  1  0.804459  0.195541  0.056887  1
  Ni  Ni11  1  0.195541  0.804459  0.943113  1
  Ni  Ni12  1  0.195541  0.804459  0.556887  1
  Ni  Ni13  1  0.804459  0.195541  0.443113  1
  Ni  Ni14  1  0.000000  0.000000  0.500000  1
  Ni  Ni15  1  0.000000  0.000000  0.000000  1
  Ni  Ni16  1  0.548155  0.451845  0.859705  1
  Ni  Ni17  1  0.548155  0.451845  0.640295  1
