# generated using pymatgen
data_Nd4Fe3RhO12
_symmetry_space_group_name_H-M   'P 1'
_cell_length_a   5.49067765
_cell_length_b   5.72840896
_cell_length_c   7.84659212
_cell_angle_alpha   90.34388708
_cell_angle_beta   90.35347623
_cell_angle_gamma   89.94945221
_symmetry_Int_Tables_number   1
_chemical_formula_structural   Nd4Fe3RhO12
_chemical_formula_sum   'Nd4 Fe3 Rh1 O12'
_cell_volume   246.78843182
_cell_formula_units_Z   1
loop_
 _symmetry_equiv_pos_site_id
 _symmetry_equiv_pos_as_xyz
  1  'x, y, z'
loop_
 _atom_site_type_symbol
 _atom_site_label
 _atom_site_symmetry_multiplicity
 _atom_site_fract_x
 _atom_site_fract_y
 _atom_site_fract_z
 _atom_site_occupancy
  Nd  Nd0  1  0.012365  0.938393  0.749575  1
  Nd  Nd1  1  0.519685  0.560472  0.249930  1
  Nd  Nd2  1  0.480315  0.439528  0.750070  1
  Nd  Nd3  1  0.987635  0.061607  0.250425  1
  Fe  Fe4  1  0.500000  0.000000  0.500000  1
  Fe  Fe5  1  0.500000  0.000000  0.000000  1
  Fe  Fe6  1  0.000000  0.500000  0.000000  1
  Rh  Rh7  1  0.000000  0.500000  0.500000  1
  O  O8  1  0.695821  0.293576  0.447847  1
  O  O9  1  0.200053  0.198681  0.550957  1
  O  O10  1  0.798231  0.797335  0.050486  1
  O  O11  1  0.297359  0.702537  0.950155  1
  O  O12  1  0.304179  0.706424  0.552153  1
  O  O13  1  0.799947  0.801319  0.449043  1
  O  O14  1  0.201769  0.202665  0.949514  1
  O  O15  1  0.702641  0.297463  0.049845  1
  O  O16  1  0.101199  0.470345  0.246935  1
  O  O17  1  0.593597  0.028445  0.749962  1
  O  O18  1  0.406403  0.971555  0.250038  1
  O  O19  1  0.898801  0.529655  0.753065  1
