# generated using pymatgen
data_La3Tb2CoAu2
_symmetry_space_group_name_H-M   'P 1'
_cell_length_a   8.87128300
_cell_length_b   8.41812900
_cell_length_c   11.87569000
_cell_angle_alpha   90.00000000
_cell_angle_beta   90.00000000
_cell_angle_gamma   90.00000000
_symmetry_Int_Tables_number   1
_chemical_formula_structural   La3Tb2CoAu2
_chemical_formula_sum   'La12 Tb8 Co4 Au8'
_cell_volume   886.87183462
_cell_formula_units_Z   4
loop_
 _symmetry_equiv_pos_site_id
 _symmetry_equiv_pos_as_xyz
  1  'x, y, z'
loop_
 _atom_site_type_symbol
 _atom_site_label
 _atom_site_symmetry_multiplicity
 _atom_site_fract_x
 _atom_site_fract_y
 _atom_site_fract_z
 _atom_site_occupancy
  La  La0  1  0.152554  0.750000  0.192816  1
  La  La1  1  0.652554  0.250000  0.307184  1
  La  La2  1  0.847446  0.250000  0.807184  1
  La  La3  1  0.347446  0.750000  0.692816  1
  La  La4  1  0.472360  0.750000  0.001247  1
  La  La5  1  0.972360  0.250000  0.498753  1
  La  La6  1  0.527640  0.250000  0.998753  1
  La  La7  1  0.027640  0.750000  0.501247  1
  La  La8  1  0.614841  0.750000  0.307998  1
  La  La9  1  0.114841  0.250000  0.192002  1
  La  La10  1  0.385159  0.250000  0.692002  1
  La  La11  1  0.885159  0.750000  0.807998  1
  Tb  Tb12  1  0.825602  0.969281  0.077098  1
  Tb  Tb13  1  0.325602  0.030719  0.422902  1
  Tb  Tb14  1  0.174398  0.469281  0.922902  1
  Tb  Tb15  1  0.674398  0.530719  0.577098  1
  Tb  Tb16  1  0.174398  0.030719  0.922902  1
  Tb  Tb17  1  0.674398  0.969281  0.577098  1
  Tb  Tb18  1  0.825602  0.530719  0.077098  1
  Tb  Tb19  1  0.325602  0.469281  0.422902  1
  Co  Co20  1  0.458296  0.750000  0.492597  1
  Co  Co21  1  0.958296  0.250000  0.007403  1
  Co  Co22  1  0.541704  0.250000  0.507403  1
  Co  Co23  1  0.041704  0.750000  0.992597  1
  Au  Au24  1  0.916875  0.979302  0.323652  1
  Au  Au25  1  0.416875  0.020698  0.176348  1
  Au  Au26  1  0.083125  0.479302  0.676348  1
  Au  Au27  1  0.583125  0.520698  0.823652  1
  Au  Au28  1  0.083125  0.020698  0.676348  1
  Au  Au29  1  0.583125  0.979302  0.823652  1
  Au  Au30  1  0.916875  0.520698  0.323652  1
  Au  Au31  1  0.416875  0.479302  0.176348  1
