# generated using pymatgen
data_Li3Gd3CdSi2
_symmetry_space_group_name_H-M   'P 1'
_cell_length_a   7.30104700
_cell_length_b   7.30104746
_cell_length_c   4.24280000
_cell_angle_alpha   90.00000000
_cell_angle_beta   90.00000000
_cell_angle_gamma   119.99999337
_symmetry_Int_Tables_number   1
_chemical_formula_structural   Li3Gd3CdSi2
_chemical_formula_sum   'Li3 Gd3 Cd1 Si2'
_cell_volume   195.86351170
_cell_formula_units_Z   1
loop_
 _symmetry_equiv_pos_site_id
 _symmetry_equiv_pos_as_xyz
  1  'x, y, z'
loop_
 _atom_site_type_symbol
 _atom_site_label
 _atom_site_symmetry_multiplicity
 _atom_site_fract_x
 _atom_site_fract_y
 _atom_site_fract_z
 _atom_site_occupancy
  Li  Li0  1  0.251604  0.000000  0.500000  1
  Li  Li1  1  0.748396  0.748396  0.500000  1
  Li  Li2  1  0.000000  0.251604  0.500000  1
  Gd  Gd3  1  0.000000  0.563066  0.000000  1
  Gd  Gd4  1  0.563066  0.000000  0.000000  1
  Gd  Gd5  1  0.436934  0.436934  0.000000  1
  Cd  Cd6  1  0.000000  0.000000  0.000000  1
  Si  Si7  1  0.333333  0.666667  0.500000  1
  Si  Si8  1  0.666667  0.333333  0.500000  1
