# generated using pymatgen
data_Cu2Sn3RuS8
_symmetry_space_group_name_H-M   'P 1'
_cell_length_a   7.39871229
_cell_length_b   7.39871263
_cell_length_c   7.39871256
_cell_angle_alpha   59.54702837
_cell_angle_beta   59.54702173
_cell_angle_gamma   59.54703436
_symmetry_Int_Tables_number   1
_chemical_formula_structural   Cu2Sn3RuS8
_chemical_formula_sum   'Cu2 Sn3 Ru1 S8'
_cell_volume   283.43764500
_cell_formula_units_Z   1
loop_
 _symmetry_equiv_pos_site_id
 _symmetry_equiv_pos_as_xyz
  1  'x, y, z'
loop_
 _atom_site_type_symbol
 _atom_site_label
 _atom_site_symmetry_multiplicity
 _atom_site_fract_x
 _atom_site_fract_y
 _atom_site_fract_z
 _atom_site_occupancy
  Cu  Cu0  1  0.379324  0.379324  0.379324  1
  Cu  Cu1  1  0.620676  0.620676  0.620676  1
  Sn  Sn2  1  0.500000  0.000000  0.000000  1
  Sn  Sn3  1  0.000000  0.000000  0.500000  1
  Sn  Sn4  1  0.000000  0.500000  0.000000  1
  Ru  Ru5  1  0.000000  0.000000  0.000000  1
  S  S6  1  0.252088  0.252088  0.252088  1
  S  S7  1  0.773009  0.231162  0.231162  1
  S  S8  1  0.231162  0.231162  0.773009  1
  S  S9  1  0.231162  0.773009  0.231162  1
  S  S10  1  0.747912  0.747912  0.747912  1
  S  S11  1  0.226991  0.768838  0.768838  1
  S  S12  1  0.768838  0.768838  0.226991  1
  S  S13  1  0.768838  0.226991  0.768838  1
