# generated using pymatgen
data_Ga3Fe(SnCl8)2
_symmetry_space_group_name_H-M   'P 1'
_cell_length_a   7.34238836
_cell_length_b   7.60120949
_cell_length_c   13.96971073
_cell_angle_alpha   87.14392654
_cell_angle_beta   90.30959536
_cell_angle_gamma   90.37780967
_symmetry_Int_Tables_number   1
_chemical_formula_structural   Ga3Fe(SnCl8)2
_chemical_formula_sum   'Ga3 Fe1 Sn2 Cl16'
_cell_volume   778.66853328
_cell_formula_units_Z   1
loop_
 _symmetry_equiv_pos_site_id
 _symmetry_equiv_pos_as_xyz
  1  'x, y, z'
loop_
 _atom_site_type_symbol
 _atom_site_label
 _atom_site_symmetry_multiplicity
 _atom_site_fract_x
 _atom_site_fract_y
 _atom_site_fract_z
 _atom_site_occupancy
  Ga  Ga0  1  0.061654  0.222744  0.077048  1
  Ga  Ga1  1  0.563099  0.638572  0.778169  1
  Ga  Ga2  1  0.437636  0.637596  0.277953  1
  Fe  Fe3  1  0.938536  0.220226  0.577949  1
  Sn  Sn4  1  0.757186  0.076723  0.813223  1
  Sn  Sn5  1  0.243933  0.071742  0.314516  1
  Cl  Cl6  1  0.428612  0.612091  0.643286  1
  Cl  Cl7  1  0.570577  0.611881  0.143621  1
  Cl  Cl8  1  0.854076  0.735503  0.761828  1
  Cl  Cl9  1  0.146731  0.731516  0.260886  1
  Cl  Cl10  1  0.938777  0.468751  0.498242  1
  Cl  Cl11  1  0.059323  0.469080  0.996061  1
  Cl  Cl12  1  0.926646  0.003198  0.004375  1
  Cl  Cl13  1  0.072903  0.007204  0.500925  1
  Cl  Cl14  1  0.654320  0.131568  0.622100  1
  Cl  Cl15  1  0.344403  0.132038  0.118400  1
  Cl  Cl16  1  0.561506  0.395199  0.872402  1
  Cl  Cl17  1  0.439195  0.395570  0.373236  1
  Cl  Cl18  1  0.446301  0.854239  0.862313  1
  Cl  Cl19  1  0.557093  0.855201  0.361684  1
  Cl  Cl20  1  0.931013  0.231983  0.221772  1
  Cl  Cl21  1  0.066479  0.232177  0.724415  1
