# generated using pymatgen
data_CaNb6VSe12
_symmetry_space_group_name_H-M   'P 1'
_cell_length_a   6.07241100
_cell_length_b   6.07241232
_cell_length_c   13.86881300
_cell_angle_alpha   90.00000000
_cell_angle_beta   90.00000000
_cell_angle_gamma   119.99998737
_symmetry_Int_Tables_number   1
_chemical_formula_structural   CaNb6VSe12
_chemical_formula_sum   'Ca1 Nb6 V1 Se12'
_cell_volume   442.88644691
_cell_formula_units_Z   1
loop_
 _symmetry_equiv_pos_site_id
 _symmetry_equiv_pos_as_xyz
  1  'x, y, z'
loop_
 _atom_site_type_symbol
 _atom_site_label
 _atom_site_symmetry_multiplicity
 _atom_site_fract_x
 _atom_site_fract_y
 _atom_site_fract_z
 _atom_site_occupancy
  Ca  Ca0  1  0.333333  0.666667  0.250000  1
  Nb  Nb1  1  0.000000  0.000000  0.519989  1
  Nb  Nb2  1  0.000000  0.000000  0.980011  1
  Nb  Nb3  1  0.333333  0.666667  0.980986  1
  Nb  Nb4  1  0.666667  0.333333  0.980018  1
  Nb  Nb5  1  0.666667  0.333333  0.519982  1
  Nb  Nb6  1  0.333333  0.666667  0.519014  1
  V  V7  1  0.666667  0.333333  0.750000  1
  Se  Se8  1  0.333280  0.328442  0.398419  1
  Se  Se9  1  0.671558  0.004838  0.398419  1
  Se  Se10  1  0.995162  0.666720  0.398419  1
  Se  Se11  1  0.330903  0.334281  0.639747  1
  Se  Se12  1  0.003379  0.669097  0.639747  1
  Se  Se13  1  0.665719  0.996621  0.639747  1
  Se  Se14  1  0.665719  0.669097  0.860253  1
  Se  Se15  1  0.330903  0.996621  0.860253  1
  Se  Se16  1  0.003379  0.334281  0.860253  1
  Se  Se17  1  0.671558  0.666720  0.101581  1
  Se  Se18  1  0.995162  0.328442  0.101581  1
  Se  Se19  1  0.333280  0.004838  0.101581  1
