# generated using pymatgen
data_Nd3YSb10
_symmetry_space_group_name_H-M   'P 1'
_cell_length_a   4.26762200
_cell_length_b   13.50172954
_cell_length_c   15.13017009
_cell_angle_alpha   77.98219489
_cell_angle_beta   90.00000000
_cell_angle_gamma   90.00000000
_symmetry_Int_Tables_number   1
_chemical_formula_structural   Nd3YSb10
_chemical_formula_sum   'Nd6 Y2 Sb20'
_cell_volume   852.69721640
_cell_formula_units_Z   2
loop_
 _symmetry_equiv_pos_site_id
 _symmetry_equiv_pos_as_xyz
  1  'x, y, z'
loop_
 _atom_site_type_symbol
 _atom_site_label
 _atom_site_symmetry_multiplicity
 _atom_site_fract_x
 _atom_site_fract_y
 _atom_site_fract_z
 _atom_site_occupancy
  Nd  Nd0  1  0.750000  0.335774  0.142870  1
  Nd  Nd1  1  0.250000  0.949749  0.361009  1
  Nd  Nd2  1  0.250000  0.664226  0.857130  1
  Nd  Nd3  1  0.250000  0.668139  0.576283  1
  Nd  Nd4  1  0.750000  0.050251  0.638991  1
  Nd  Nd5  1  0.750000  0.331861  0.423717  1
  Y  Y6  1  0.250000  0.396310  0.772627  1
  Y  Y7  1  0.750000  0.603690  0.227373  1
  Sb  Sb8  1  0.750000  0.850846  0.820312  1
  Sb  Sb9  1  0.250000  0.861767  0.675332  1
  Sb  Sb10  1  0.250000  0.142637  0.478053  1
  Sb  Sb11  1  0.750000  0.284576  0.935137  1
  Sb  Sb12  1  0.250000  0.146566  0.780986  1
  Sb  Sb13  1  0.750000  0.574207  0.441641  1
  Sb  Sb14  1  0.750000  0.138233  0.324668  1
  Sb  Sb15  1  0.250000  0.706757  0.350372  1
  Sb  Sb16  1  0.750000  0.293243  0.649628  1
  Sb  Sb17  1  0.750000  0.853434  0.219014  1
  Sb  Sb18  1  0.250000  0.420566  0.972866  1
  Sb  Sb19  1  0.250000  0.425793  0.558359  1
  Sb  Sb20  1  0.750000  0.572581  0.736425  1
  Sb  Sb21  1  0.250000  0.427419  0.263575  1
  Sb  Sb22  1  0.750000  0.857363  0.521947  1
  Sb  Sb23  1  0.750000  0.030861  0.891519  1
  Sb  Sb24  1  0.250000  0.715424  0.064863  1
  Sb  Sb25  1  0.250000  0.969139  0.108481  1
  Sb  Sb26  1  0.250000  0.149154  0.179688  1
  Sb  Sb27  1  0.750000  0.579434  0.027134  1
