# generated using pymatgen
data_Nd4PI5
_symmetry_space_group_name_H-M   'P 1'
_cell_length_a   4.25599700
_cell_length_b   9.03440700
_cell_length_c   19.03086900
_cell_angle_alpha   90.00000000
_cell_angle_beta   90.00000000
_cell_angle_gamma   90.00000000
_symmetry_Int_Tables_number   1
_chemical_formula_structural   Nd4PI5
_chemical_formula_sum   'Nd8 P2 I10'
_cell_volume   731.74469836
_cell_formula_units_Z   2
loop_
 _symmetry_equiv_pos_site_id
 _symmetry_equiv_pos_as_xyz
  1  'x, y, z'
loop_
 _atom_site_type_symbol
 _atom_site_label
 _atom_site_symmetry_multiplicity
 _atom_site_fract_x
 _atom_site_fract_y
 _atom_site_fract_z
 _atom_site_occupancy
  Nd  Nd0  1  0.000000  0.371120  0.855591  1
  Nd  Nd1  1  0.500000  0.579906  0.000000  1
  Nd  Nd2  1  0.000000  0.371120  0.144409  1
  Nd  Nd3  1  0.000000  0.835099  0.500000  1
  Nd  Nd4  1  0.500000  0.628880  0.355591  1
  Nd  Nd5  1  0.000000  0.420094  0.500000  1
  Nd  Nd6  1  0.500000  0.628880  0.644409  1
  Nd  Nd7  1  0.500000  0.164901  0.000000  1
  P  P8  1  0.500000  0.627803  0.500000  1
  P  P9  1  0.000000  0.372197  0.000000  1
  I  I10  1  0.500000  0.113505  0.167159  1
  I  I11  1  0.000000  0.365795  0.669572  1
  I  I12  1  0.000000  0.871094  0.000000  1
  I  I13  1  0.000000  0.886495  0.332841  1
  I  I14  1  0.500000  0.113505  0.832841  1
  I  I15  1  0.500000  0.634205  0.830428  1
  I  I16  1  0.000000  0.886495  0.667159  1
  I  I17  1  0.000000  0.365795  0.330428  1
  I  I18  1  0.500000  0.634205  0.169572  1
  I  I19  1  0.500000  0.128906  0.500000  1
