# generated using pymatgen
data_Lu2Hf3(Re3Tc)6
_symmetry_space_group_name_H-M   'P 1'
_cell_length_a   8.48811880
_cell_length_b   8.49074887
_cell_length_c   8.47738809
_cell_angle_alpha   109.47395491
_cell_angle_beta   109.46139229
_cell_angle_gamma   109.53579689
_symmetry_Int_Tables_number   1
_chemical_formula_structural   Lu2Hf3(Re3Tc)6
_chemical_formula_sum   'Lu2 Hf3 Re18 Tc6'
_cell_volume   469.99040106
_cell_formula_units_Z   1
loop_
 _symmetry_equiv_pos_site_id
 _symmetry_equiv_pos_as_xyz
  1  'x, y, z'
loop_
 _atom_site_type_symbol
 _atom_site_label
 _atom_site_symmetry_multiplicity
 _atom_site_fract_x
 _atom_site_fract_y
 _atom_site_fract_z
 _atom_site_occupancy
  Lu  Lu0  1  0.999274  0.999464  0.000000  1
  Lu  Lu1  1  0.625991  0.999947  0.000000  1
  Hf  Hf2  1  0.999972  0.625923  0.000000  1
  Hf  Hf3  1  0.999922  0.999836  0.627682  1
  Hf  Hf4  1  0.372240  0.372154  0.372318  1
  Re  Re5  1  0.323988  0.324489  0.720762  1
  Re  Re6  1  0.000247  0.675638  0.396115  1
  Re  Re7  1  0.675626  0.000671  0.396227  1
  Re  Re8  1  0.603227  0.603728  0.279238  1
  Re  Re9  1  0.279399  0.604444  0.603773  1
  Re  Re10  1  0.604132  0.279522  0.603885  1
  Re  Re11  1  0.376310  0.195379  0.000000  1
  Re  Re12  1  0.180819  0.805777  0.805216  1
  Re  Re13  1  0.375603  0.000560  0.194784  1
  Re  Re14  1  0.196007  0.377500  0.000000  1
  Re  Re15  1  0.001955  0.377240  0.194544  1
  Re  Re16  1  0.807412  0.182697  0.805456  1
  Re  Re17  1  0.808202  0.806828  0.184656  1
  Re  Re18  1  0.001919  0.194187  0.379267  1
  Re  Re19  1  0.195066  0.000631  0.378783  1
  Re  Re20  1  0.623546  0.622172  0.815344  1
  Re  Re21  1  0.816283  0.621847  0.621217  1
  Re  Re22  1  0.622651  0.814920  0.620733  1
  Tc  Tc23  1  0.394509  0.674118  0.000000  1
  Tc  Tc24  1  0.720630  0.325950  0.325254  1
  Tc  Tc25  1  0.395375  0.000697  0.674746  1
  Tc  Tc26  1  0.676737  0.396483  0.000000  1
  Tc  Tc27  1  0.000236  0.397355  0.677513  1
  Tc  Tc28  1  0.322723  0.719844  0.322487  1
