# generated using pymatgen
data_Hf18Cu3NiP8
_symmetry_space_group_name_H-M   'P 1'
_cell_length_a   11.98647252
_cell_length_b   11.98647252
_cell_length_c   3.64622700
_cell_angle_alpha   90.00000000
_cell_angle_beta   90.00000000
_cell_angle_gamma   89.89005914
_symmetry_Int_Tables_number   1
_chemical_formula_structural   Hf18Cu3NiP8
_chemical_formula_sum   'Hf18 Cu3 Ni1 P8'
_cell_volume   523.87260820
_cell_formula_units_Z   1
loop_
 _symmetry_equiv_pos_site_id
 _symmetry_equiv_pos_as_xyz
  1  'x, y, z'
loop_
 _atom_site_type_symbol
 _atom_site_label
 _atom_site_symmetry_multiplicity
 _atom_site_fract_x
 _atom_site_fract_y
 _atom_site_fract_z
 _atom_site_occupancy
  Hf  Hf0  1  0.000313  0.000136  0.000000  1
  Hf  Hf1  1  0.499864  0.499687  0.000000  1
  Hf  Hf2  1  0.100954  0.181999  0.500000  1
  Hf  Hf3  1  0.182362  0.899363  0.500000  1
  Hf  Hf4  1  0.817482  0.099748  0.500000  1
  Hf  Hf5  1  0.895281  0.817253  0.500000  1
  Hf  Hf6  1  0.400252  0.682518  0.500000  1
  Hf  Hf7  1  0.600637  0.317638  0.500000  1
  Hf  Hf8  1  0.682747  0.604719  0.500000  1
  Hf  Hf9  1  0.318001  0.399046  0.500000  1
  Hf  Hf10  1  0.092659  0.407341  0.000000  1
  Hf  Hf11  1  0.407659  0.906962  0.000000  1
  Hf  Hf12  1  0.593038  0.092341  0.000000  1
  Hf  Hf13  1  0.905377  0.594623  0.000000  1
  Hf  Hf14  1  0.381863  0.118137  0.500000  1
  Hf  Hf15  1  0.118321  0.618302  0.500000  1
  Hf  Hf16  1  0.881698  0.381679  0.500000  1
  Hf  Hf17  1  0.619489  0.880511  0.500000  1
  Cu  Cu18  1  0.253590  0.246410  0.000000  1
  Cu  Cu19  1  0.246245  0.746177  0.000000  1
  Cu  Cu20  1  0.753823  0.253755  0.000000  1
  Ni  Ni21  1  0.747205  0.752795  0.000000  1
  P  P22  1  0.223064  0.054429  0.000000  1
  P  P23  1  0.054332  0.777245  0.000000  1
  P  P24  1  0.945539  0.222991  0.000000  1
  P  P25  1  0.776765  0.943896  0.000000  1
  P  P26  1  0.277009  0.554461  0.000000  1
  P  P27  1  0.722755  0.445668  0.000000  1
  P  P28  1  0.556104  0.723235  0.000000  1
  P  P29  1  0.445571  0.276936  0.000000  1
