# generated using pymatgen
data_Tm12Ni4AgPb
_symmetry_space_group_name_H-M   'P 1'
_cell_length_a   8.29686704
_cell_length_b   8.29497704
_cell_length_c   8.29064621
_cell_angle_alpha   106.92572684
_cell_angle_beta   109.17574979
_cell_angle_gamma   112.37558781
_symmetry_Int_Tables_number   1
_chemical_formula_structural   Tm12Ni4AgPb
_chemical_formula_sum   'Tm12 Ni4 Ag1 Pb1'
_cell_volume   438.13498958
_cell_formula_units_Z   1
loop_
 _symmetry_equiv_pos_site_id
 _symmetry_equiv_pos_as_xyz
  1  'x, y, z'
loop_
 _atom_site_type_symbol
 _atom_site_label
 _atom_site_symmetry_multiplicity
 _atom_site_fract_x
 _atom_site_fract_y
 _atom_site_fract_z
 _atom_site_occupancy
  Tm  Tm0  1  0.701069  0.277562  0.978557  1
  Tm  Tm1  1  0.298848  0.722619  0.021520  1
  Tm  Tm2  1  0.701174  0.722373  0.423611  1
  Tm  Tm3  1  0.298797  0.277396  0.576136  1
  Tm  Tm4  1  0.806986  0.130250  0.323448  1
  Tm  Tm5  1  0.807035  0.483811  0.676843  1
  Tm  Tm6  1  0.192895  0.869694  0.676573  1
  Tm  Tm7  1  0.193035  0.516328  0.323207  1
  Tm  Tm8  1  0.612851  0.793586  0.819403  1
  Tm  Tm9  1  0.974010  0.793442  0.180546  1
  Tm  Tm10  1  0.025924  0.206532  0.819343  1
  Tm  Tm11  1  0.387090  0.206371  0.180500  1
  Ni  Ni12  1  0.859449  0.500015  0.359494  1
  Ni  Ni13  1  0.140976  0.499987  0.640953  1
  Ni  Ni14  1  0.000124  0.126546  0.126724  1
  Ni  Ni15  1  0.999941  0.873482  0.873354  1
  Ag  Ag16  1  0.499805  0.500012  0.999792  1
  Pb  Pb17  1  0.499990  0.999993  0.499995  1
