# generated using pymatgen
data_Lu7ScNb11Si16Rh
_symmetry_space_group_name_H-M   'P 1'
_cell_length_a   6.75256405
_cell_length_b   7.02405161
_cell_length_c   13.24429098
_cell_angle_alpha   90.06166124
_cell_angle_beta   89.98943807
_cell_angle_gamma   90.55979945
_symmetry_Int_Tables_number   1
_chemical_formula_structural   Lu7ScNb11Si16Rh
_chemical_formula_sum   'Lu7 Sc1 Nb11 Si16 Rh1'
_cell_volume   628.15111145
_cell_formula_units_Z   1
loop_
 _symmetry_equiv_pos_site_id
 _symmetry_equiv_pos_as_xyz
  1  'x, y, z'
loop_
 _atom_site_type_symbol
 _atom_site_label
 _atom_site_symmetry_multiplicity
 _atom_site_fract_x
 _atom_site_fract_y
 _atom_site_fract_z
 _atom_site_occupancy
  Lu  Lu0  1  0.497950  0.674255  0.593739  1
  Lu  Lu1  1  0.002120  0.827628  0.906522  1
  Lu  Lu2  1  0.497692  0.327384  0.094861  1
  Lu  Lu3  1  0.999066  0.172461  0.404704  1
  Lu  Lu4  1  0.497320  0.327317  0.405741  1
  Lu  Lu5  1  0.999118  0.172948  0.096212  1
  Lu  Lu6  1  0.498112  0.674001  0.905571  1
  Sc  Sc7  1  0.002701  0.827361  0.594230  1
  Nb  Nb8  1  0.670407  0.171304  0.627425  1
  Nb  Nb9  1  0.161373  0.323371  0.871836  1
  Nb  Nb10  1  0.336248  0.826053  0.125120  1
  Nb  Nb11  1  0.836521  0.674743  0.377316  1
  Nb  Nb12  1  0.336043  0.825953  0.374976  1
  Nb  Nb13  1  0.835856  0.673791  0.123388  1
  Nb  Nb14  1  0.670939  0.171136  0.871535  1
  Nb  Nb15  1  0.161742  0.323494  0.627408  1
  Nb  Nb16  1  0.339909  0.999719  0.749387  1
  Nb  Nb17  1  0.163186  0.508240  0.250189  1
  Nb  Nb18  1  0.662346  0.992939  0.250325  1
  Si  Si19  1  0.666628  0.963998  0.460468  1
  Si  Si20  1  0.165478  0.535648  0.038808  1
  Si  Si21  1  0.337109  0.037513  0.958096  1
  Si  Si22  1  0.836254  0.465358  0.543162  1
  Si  Si23  1  0.332730  0.034867  0.542190  1
  Si  Si24  1  0.834394  0.461751  0.958148  1
  Si  Si25  1  0.666016  0.964324  0.040335  1
  Si  Si26  1  0.164660  0.538002  0.462210  1
  Si  Si27  1  0.468983  0.381569  0.749811  1
  Si  Si28  1  0.964700  0.107678  0.748608  1
  Si  Si29  1  0.539328  0.618424  0.250183  1
  Si  Si30  1  0.037994  0.881553  0.250079  1
  Si  Si31  1  0.707732  0.861931  0.748688  1
  Si  Si32  1  0.193463  0.628766  0.748583  1
  Si  Si33  1  0.295709  0.132143  0.250187  1
  Si  Si34  1  0.793859  0.369121  0.250361  1
  Rh  Rh35  1  0.826311  0.523252  0.749599  1
