# generated using pymatgen
data_La3LuCrC6
_symmetry_space_group_name_H-M   'P 1'
_cell_length_a   8.54937400
_cell_length_b   8.54937344
_cell_length_c   5.37195900
_cell_angle_alpha   90.00000000
_cell_angle_beta   90.00000000
_cell_angle_gamma   119.99999443
_symmetry_Int_Tables_number   1
_chemical_formula_structural   La3LuCrC6
_chemical_formula_sum   'La6 Lu2 Cr2 C12'
_cell_volume   340.04152024
_cell_formula_units_Z   2
loop_
 _symmetry_equiv_pos_site_id
 _symmetry_equiv_pos_as_xyz
  1  'x, y, z'
loop_
 _atom_site_type_symbol
 _atom_site_label
 _atom_site_symmetry_multiplicity
 _atom_site_fract_x
 _atom_site_fract_y
 _atom_site_fract_z
 _atom_site_occupancy
  La  La0  1  0.600488  0.674859  0.750000  1
  La  La1  1  0.925629  0.600488  0.250000  1
  La  La2  1  0.674859  0.074371  0.250000  1
  La  La3  1  0.325141  0.925629  0.750000  1
  La  La4  1  0.074371  0.399512  0.750000  1
  La  La5  1  0.399512  0.325141  0.250000  1
  Lu  Lu6  1  0.000000  0.000000  0.500000  1
  Lu  Lu7  1  0.000000  0.000000  0.000000  1
  Cr  Cr8  1  0.666667  0.333333  0.750000  1
  Cr  Cr9  1  0.333333  0.666667  0.250000  1
  C  C10  1  0.962447  0.749153  0.750000  1
  C  C11  1  0.213292  0.962447  0.250000  1
  C  C12  1  0.749153  0.786708  0.250000  1
  C  C13  1  0.250847  0.213292  0.750000  1
  C  C14  1  0.786708  0.037553  0.750000  1
  C  C15  1  0.037553  0.250847  0.250000  1
  C  C16  1  0.851799  0.567838  0.750000  1
  C  C17  1  0.283961  0.851799  0.250000  1
  C  C18  1  0.567838  0.716039  0.250000  1
  C  C19  1  0.432162  0.283961  0.750000  1
  C  C20  1  0.148201  0.432162  0.250000  1
  C  C21  1  0.716039  0.148201  0.750000  1
