# generated using pymatgen
data_Yb3YCu2Sn5
_symmetry_space_group_name_H-M   'P 1'
_cell_length_a   4.44851000
_cell_length_b   8.81344700
_cell_length_c   14.10738300
_cell_angle_alpha   90.00000000
_cell_angle_beta   90.00000000
_cell_angle_gamma   90.00000000
_symmetry_Int_Tables_number   1
_chemical_formula_structural   Yb3YCu2Sn5
_chemical_formula_sum   'Yb6 Y2 Cu4 Sn10'
_cell_volume   553.10403343
_cell_formula_units_Z   2
loop_
 _symmetry_equiv_pos_site_id
 _symmetry_equiv_pos_as_xyz
  1  'x, y, z'
loop_
 _atom_site_type_symbol
 _atom_site_label
 _atom_site_symmetry_multiplicity
 _atom_site_fract_x
 _atom_site_fract_y
 _atom_site_fract_z
 _atom_site_occupancy
  Yb  Yb0  1  0.500000  0.792682  0.742436  1
  Yb  Yb1  1  0.000000  0.207318  0.757564  1
  Yb  Yb2  1  0.000000  0.207318  0.242436  1
  Yb  Yb3  1  0.500000  0.136764  0.000000  1
  Yb  Yb4  1  0.000000  0.863236  0.500000  1
  Yb  Yb5  1  0.500000  0.792682  0.257564  1
  Y  Y6  1  0.500000  0.699373  0.000000  1
  Y  Y7  1  0.000000  0.300627  0.500000  1
  Cu  Cu8  1  0.500000  0.377991  0.644565  1
  Cu  Cu9  1  0.000000  0.622009  0.855435  1
  Cu  Cu10  1  0.000000  0.622009  0.144565  1
  Cu  Cu11  1  0.500000  0.377991  0.355435  1
  Sn  Sn12  1  0.500000  0.085446  0.396040  1
  Sn  Sn13  1  0.000000  0.555163  0.663874  1
  Sn  Sn14  1  0.000000  0.407029  0.000000  1
  Sn  Sn15  1  0.500000  0.444837  0.163874  1
  Sn  Sn16  1  0.500000  0.592971  0.500000  1
  Sn  Sn17  1  0.500000  0.444837  0.836126  1
  Sn  Sn18  1  0.000000  0.914554  0.896040  1
  Sn  Sn19  1  0.000000  0.555163  0.336126  1
  Sn  Sn20  1  0.500000  0.085446  0.603960  1
  Sn  Sn21  1  0.000000  0.914554  0.103960  1
