# generated using pymatgen
data_Ho17Tm3(IrRh5)2
_symmetry_space_group_name_H-M   'P 1'
_cell_length_a   10.85420301
_cell_length_b   10.85247601
_cell_length_c   6.33109318
_cell_angle_alpha   89.99913104
_cell_angle_beta   89.96571286
_cell_angle_gamma   89.99461533
_symmetry_Int_Tables_number   1
_chemical_formula_structural   Ho17Tm3(IrRh5)2
_chemical_formula_sum   'Ho17 Tm3 Ir2 Rh10'
_cell_volume   745.77084356
_cell_formula_units_Z   1
loop_
 _symmetry_equiv_pos_site_id
 _symmetry_equiv_pos_as_xyz
  1  'x, y, z'
loop_
 _atom_site_type_symbol
 _atom_site_label
 _atom_site_symmetry_multiplicity
 _atom_site_fract_x
 _atom_site_fract_y
 _atom_site_fract_z
 _atom_site_occupancy
  Ho  Ho0  1  0.290728  0.089961  0.378294  1
  Ho  Ho1  1  0.290523  0.910119  0.878494  1
  Ho  Ho2  1  0.709197  0.088151  0.877516  1
  Ho  Ho3  1  0.708988  0.911788  0.377360  1
  Ho  Ho4  1  0.586556  0.789724  0.878035  1
  Ho  Ho5  1  0.586502  0.210312  0.378067  1
  Ho  Ho6  1  0.411010  0.790050  0.378570  1
  Ho  Ho7  1  0.410946  0.209944  0.878531  1
  Ho  Ho8  1  0.210978  0.412963  0.621328  1
  Ho  Ho9  1  0.210958  0.587103  0.121364  1
  Ho  Ho10  1  0.790764  0.411224  0.122346  1
  Ho  Ho11  1  0.790755  0.588700  0.622258  1
  Ho  Ho12  1  0.912096  0.709521  0.121905  1
  Ho  Ho13  1  0.912036  0.290687  0.622010  1
  Ho  Ho14  1  0.090308  0.708814  0.622229  1
  Ho  Ho15  1  0.090217  0.290960  0.122085  1
  Ho  Ho16  1  0.999698  0.999496  0.499797  1
  Tm  Tm17  1  0.999705  0.000488  0.999775  1
  Tm  Tm18  1  0.500060  0.499553  0.000025  1
  Tm  Tm19  1  0.500092  0.500446  0.500031  1
  Ir  Ir20  1  0.347111  0.346012  0.250163  1
  Ir  Ir21  1  0.347061  0.653923  0.750067  1
  Rh  Rh22  1  0.845764  0.153514  0.249593  1
  Rh  Rh23  1  0.845700  0.846540  0.751110  1
  Rh  Rh24  1  0.152633  0.153373  0.750339  1
  Rh  Rh25  1  0.152620  0.846573  0.248723  1
  Rh  Rh26  1  0.654275  0.346907  0.749940  1
  Rh  Rh27  1  0.654212  0.653143  0.250037  1
  Rh  Rh28  1  0.500398  0.999860  0.123576  1
  Rh  Rh29  1  0.500395  0.000166  0.623594  1
  Rh  Rh30  1  0.998850  0.499873  0.876407  1
  Rh  Rh31  1  0.998860  0.500110  0.376429  1
