# generated using pymatgen
data_ErTm5Mn8(Co5P6)2
_symmetry_space_group_name_H-M   'P 1'
_cell_length_a   3.69150600
_cell_length_b   10.42089500
_cell_length_c   12.30944900
_cell_angle_alpha   90.00000000
_cell_angle_beta   90.00000000
_cell_angle_gamma   90.00000000
_symmetry_Int_Tables_number   1
_chemical_formula_structural   ErTm5Mn8(Co5P6)2
_chemical_formula_sum   'Er1 Tm5 Mn8 Co10 P12'
_cell_volume   473.52968760
_cell_formula_units_Z   1
loop_
 _symmetry_equiv_pos_site_id
 _symmetry_equiv_pos_as_xyz
  1  'x, y, z'
loop_
 _atom_site_type_symbol
 _atom_site_label
 _atom_site_symmetry_multiplicity
 _atom_site_fract_x
 _atom_site_fract_y
 _atom_site_fract_z
 _atom_site_occupancy
  Er  Er0  1  0.000000  0.500000  0.523159  1
  Tm  Tm1  1  0.500000  0.000000  0.476662  1
  Tm  Tm2  1  0.500000  0.819629  0.209745  1
  Tm  Tm3  1  0.500000  0.180371  0.209745  1
  Tm  Tm4  1  0.000000  0.680368  0.790516  1
  Tm  Tm5  1  0.000000  0.319632  0.790516  1
  Mn  Mn6  1  0.500000  0.500000  0.162034  1
  Mn  Mn7  1  0.000000  0.000000  0.837603  1
  Mn  Mn8  1  0.000000  0.500000  0.988995  1
  Mn  Mn9  1  0.500000  0.000000  0.011103  1
  Mn  Mn10  1  0.500000  0.330209  0.995845  1
  Mn  Mn11  1  0.500000  0.669791  0.995845  1
  Mn  Mn12  1  0.000000  0.169329  0.004219  1
  Mn  Mn13  1  0.000000  0.830671  0.004219  1
  Co  Co14  1  0.500000  0.500000  0.697986  1
  Co  Co15  1  0.000000  0.000000  0.302461  1
  Co  Co16  1  0.500000  0.296192  0.431911  1
  Co  Co17  1  0.500000  0.703808  0.431911  1
  Co  Co18  1  0.000000  0.203299  0.568012  1
  Co  Co19  1  0.000000  0.796701  0.568012  1
  Co  Co20  1  0.500000  0.879432  0.703305  1
  Co  Co21  1  0.500000  0.120568  0.703305  1
  Co  Co22  1  0.000000  0.620723  0.296504  1
  Co  Co23  1  0.000000  0.379277  0.296504  1
  P  P24  1  0.500000  0.500000  0.876071  1
  P  P25  1  0.000000  0.000000  0.124314  1
  P  P26  1  0.500000  0.500000  0.346498  1
  P  P27  1  0.000000  0.000000  0.652951  1
  P  P28  1  0.500000  0.311826  0.614707  1
  P  P29  1  0.500000  0.688174  0.614707  1
  P  P30  1  0.000000  0.187949  0.385462  1
  P  P31  1  0.000000  0.812051  0.385462  1
  P  P32  1  0.500000  0.849557  0.882277  1
  P  P33  1  0.500000  0.150443  0.882277  1
  P  P34  1  0.000000  0.650722  0.117580  1
  P  P35  1  0.000000  0.349278  0.117580  1
