# generated using pymatgen
data_Co3Tc2P3W
_symmetry_space_group_name_H-M   'P 1'
_cell_length_a   5.74599067
_cell_length_b   5.74599075
_cell_length_c   3.77404200
_cell_angle_alpha   90.00000000
_cell_angle_beta   90.00000000
_cell_angle_gamma   119.84313008
_symmetry_Int_Tables_number   1
_chemical_formula_structural   Co3Tc2P3W
_chemical_formula_sum   'Co3 Tc2 P3 W1'
_cell_volume   108.08154195
_cell_formula_units_Z   1
loop_
 _symmetry_equiv_pos_site_id
 _symmetry_equiv_pos_as_xyz
  1  'x, y, z'
loop_
 _atom_site_type_symbol
 _atom_site_label
 _atom_site_symmetry_multiplicity
 _atom_site_fract_x
 _atom_site_fract_y
 _atom_site_fract_z
 _atom_site_occupancy
  Co  Co0  1  0.743750  0.743750  0.000000  1
  Co  Co1  1  0.254890  0.000709  0.000000  1
  Co  Co2  1  0.000709  0.254890  0.000000  1
  Tc  Tc3  1  0.998627  0.590336  0.500000  1
  Tc  Tc4  1  0.590336  0.998627  0.500000  1
  P  P5  1  0.999231  0.999231  0.500000  1
  P  P6  1  0.668852  0.331581  0.000000  1
  P  P7  1  0.331581  0.668852  0.000000  1
  W  W8  1  0.412022  0.412022  0.500000  1
