# generated using pymatgen
data_Hf5Fe18CoP12
_symmetry_space_group_name_H-M   'P 1'
_cell_length_a   11.72211100
_cell_length_b   11.72211083
_cell_length_c   3.60720400
_cell_angle_alpha   90.00000000
_cell_angle_beta   90.00000000
_cell_angle_gamma   119.99999767
_symmetry_Int_Tables_number   1
_chemical_formula_structural   Hf5Fe18CoP12
_chemical_formula_sum   'Hf5 Fe18 Co1 P12'
_cell_volume   429.25266327
_cell_formula_units_Z   1
loop_
 _symmetry_equiv_pos_site_id
 _symmetry_equiv_pos_as_xyz
  1  'x, y, z'
loop_
 _atom_site_type_symbol
 _atom_site_label
 _atom_site_symmetry_multiplicity
 _atom_site_fract_x
 _atom_site_fract_y
 _atom_site_fract_z
 _atom_site_occupancy
  Hf  Hf0  1  0.333333  0.666667  0.500000  1
  Hf  Hf1  1  0.666667  0.333333  0.500000  1
  Hf  Hf2  1  0.187612  0.000000  0.000000  1
  Hf  Hf3  1  0.000000  0.187612  0.000000  1
  Hf  Hf4  1  0.812388  0.812388  0.000000  1
  Fe  Fe5  1  0.196422  0.376501  0.500000  1
  Fe  Fe6  1  0.623499  0.819921  0.500000  1
  Fe  Fe7  1  0.180079  0.803578  0.500000  1
  Fe  Fe8  1  0.819921  0.623499  0.500000  1
  Fe  Fe9  1  0.803578  0.180079  0.500000  1
  Fe  Fe10  1  0.376501  0.196422  0.500000  1
  Fe  Fe11  1  0.556096  0.000000  0.500000  1
  Fe  Fe12  1  0.000000  0.556096  0.500000  1
  Fe  Fe13  1  0.443904  0.443904  0.500000  1
  Fe  Fe14  1  0.124770  0.484349  0.000000  1
  Fe  Fe15  1  0.515651  0.640422  0.000000  1
  Fe  Fe16  1  0.359578  0.875230  0.000000  1
  Fe  Fe17  1  0.640422  0.515651  0.000000  1
  Fe  Fe18  1  0.875230  0.359578  0.000000  1
  Fe  Fe19  1  0.484349  0.124770  0.000000  1
  Fe  Fe20  1  0.717855  0.000000  0.000000  1
  Fe  Fe21  1  0.000000  0.717855  0.000000  1
  Fe  Fe22  1  0.282145  0.282145  0.000000  1
  Co  Co23  1  0.000000  0.000000  0.500000  1
  P  P24  1  0.366605  0.000000  0.500000  1
  P  P25  1  0.000000  0.366605  0.500000  1
  P  P26  1  0.633395  0.633395  0.500000  1
  P  P27  1  0.314335  0.481787  0.000000  1
  P  P28  1  0.518213  0.832546  0.000000  1
  P  P29  1  0.167454  0.685665  0.000000  1
  P  P30  1  0.832546  0.518213  0.000000  1
  P  P31  1  0.685665  0.167454  0.000000  1
  P  P32  1  0.481787  0.314335  0.000000  1
  P  P33  1  0.820680  0.000000  0.500000  1
  P  P34  1  0.000000  0.820680  0.500000  1
  P  P35  1  0.179320  0.179320  0.500000  1
