# generated using pymatgen
data_LiLu3Cu3Si4
_symmetry_space_group_name_H-M   'P 1'
_cell_length_a   4.09893763
_cell_length_b   6.50063442
_cell_length_c   7.81223939
_cell_angle_alpha   115.20748299
_cell_angle_beta   105.20898719
_cell_angle_gamma   89.99999866
_symmetry_Int_Tables_number   1
_chemical_formula_structural   LiLu3Cu3Si4
_chemical_formula_sum   'Li1 Lu3 Cu3 Si4'
_cell_volume   180.24867050
_cell_formula_units_Z   1
loop_
 _symmetry_equiv_pos_site_id
 _symmetry_equiv_pos_as_xyz
  1  'x, y, z'
loop_
 _atom_site_type_symbol
 _atom_site_label
 _atom_site_symmetry_multiplicity
 _atom_site_fract_x
 _atom_site_fract_y
 _atom_site_fract_z
 _atom_site_occupancy
  Li  Li0  1  0.673373  0.864363  0.346746  1
  Lu  Lu1  1  0.998909  0.499650  0.997817  1
  Lu  Lu2  1  0.872099  0.865515  0.744199  1
  Lu  Lu3  1  0.128318  0.137471  0.256635  1
  Cu  Cu4  1  0.667064  0.482576  0.334127  1
  Cu  Cu5  1  0.334551  0.523117  0.669101  1
  Cu  Cu6  1  0.324947  0.126710  0.649893  1
  Si  Si7  1  0.785428  0.294793  0.570857  1
  Si  Si8  1  0.217057  0.703234  0.434113  1
  Si  Si9  1  0.497939  0.185336  0.995878  1
  Si  Si10  1  0.500317  0.817235  0.000635  1
