# generated using pymatgen
data_Dy3Tm(Tc3Os)2
_symmetry_space_group_name_H-M   'P 1'
_cell_length_a   5.28962305
_cell_length_b   5.29014310
_cell_length_c   9.09494600
_cell_angle_alpha   89.99721174
_cell_angle_beta   90.00301135
_cell_angle_gamma   120.00597518
_symmetry_Int_Tables_number   1
_chemical_formula_structural   Dy3Tm(Tc3Os)2
_chemical_formula_sum   'Dy3 Tm1 Tc6 Os2'
_cell_volume   220.39246811
_cell_formula_units_Z   1
loop_
 _symmetry_equiv_pos_site_id
 _symmetry_equiv_pos_as_xyz
  1  'x, y, z'
loop_
 _atom_site_type_symbol
 _atom_site_label
 _atom_site_symmetry_multiplicity
 _atom_site_fract_x
 _atom_site_fract_y
 _atom_site_fract_z
 _atom_site_occupancy
  Dy  Dy0  1  0.666652  0.333338  0.563804  1
  Dy  Dy1  1  0.333355  0.666661  0.437179  1
  Dy  Dy2  1  0.333354  0.666658  0.062563  1
  Tm  Tm3  1  0.666647  0.333333  0.936000  1
  Tc  Tc4  1  0.170593  0.341128  0.751051  1
  Tc  Tc5  1  0.170620  0.829388  0.751025  1
  Tc  Tc6  1  0.658859  0.829412  0.751055  1
  Tc  Tc7  1  0.829204  0.658373  0.249133  1
  Tc  Tc8  1  0.829180  0.170813  0.249152  1
  Tc  Tc9  1  0.341645  0.170799  0.249129  1
  Os  Os10  1  0.999942  0.000048  0.499937  1
  Os  Os11  1  0.999948  0.000051  0.999972  1
