# generated using pymatgen
data_Dy13Lu2Th(CdCo)4
_symmetry_space_group_name_H-M   'P 1'
_cell_length_a   9.47239798
_cell_length_b   9.49569671
_cell_length_c   9.46443500
_cell_angle_alpha   60.10884889
_cell_angle_beta   60.02780811
_cell_angle_gamma   60.10005187
_symmetry_Int_Tables_number   1
_chemical_formula_structural   Dy13Lu2Th(CdCo)4
_chemical_formula_sum   'Dy13 Lu2 Th1 Cd4 Co4'
_cell_volume   603.03398112
_cell_formula_units_Z   1
loop_
 _symmetry_equiv_pos_site_id
 _symmetry_equiv_pos_as_xyz
  1  'x, y, z'
loop_
 _atom_site_type_symbol
 _atom_site_label
 _atom_site_symmetry_multiplicity
 _atom_site_fract_x
 _atom_site_fract_y
 _atom_site_fract_z
 _atom_site_occupancy
  Dy  Dy0  1  0.936895  0.562139  0.563169  1
  Dy  Dy1  1  0.543683  0.151471  0.152423  1
  Dy  Dy2  1  0.151447  0.151691  0.542123  1
  Dy  Dy3  1  0.936297  0.940307  0.561699  1
  Dy  Dy4  1  0.314385  0.688488  0.310603  1
  Dy  Dy5  1  0.560952  0.940292  0.937367  1
  Dy  Dy6  1  0.560952  0.940292  0.561390  1
  Dy  Dy7  1  0.687066  0.686390  0.313272  1
  Dy  Dy8  1  0.563223  0.561878  0.937450  1
  Dy  Dy9  1  0.936895  0.562139  0.937797  1
  Dy  Dy10  1  0.314385  0.688488  0.686524  1
  Dy  Dy11  1  0.151447  0.151691  0.154738  1
  Dy  Dy12  1  0.314199  0.311683  0.687059  1
  Lu  Lu13  1  0.688828  0.312836  0.686762  1
  Lu  Lu14  1  0.688828  0.312836  0.311575  1
  Th  Th15  1  0.156111  0.529475  0.157207  1
  Cd  Cd16  1  0.919147  0.241224  0.919815  1
  Cd  Cd17  1  0.918707  0.920566  0.918314  1
  Cd  Cd18  1  0.918707  0.920566  0.242414  1
  Cd  Cd19  1  0.243189  0.919687  0.918563  1
  Co  Co20  1  0.355933  0.360834  0.926537  1
  Co  Co21  1  0.357746  0.923214  0.359521  1
  Co  Co22  1  0.925051  0.360977  0.356987  1
  Co  Co23  1  0.355933  0.360834  0.356696  1
