# generated using pymatgen
data_AcYb(Ni2B)12
_symmetry_space_group_name_H-M   'P 1'
_cell_length_a   6.04503839
_cell_length_b   6.04503809
_cell_length_c   11.05803154
_cell_angle_alpha   90.02810574
_cell_angle_beta   90.02810825
_cell_angle_gamma   104.78609404
_symmetry_Int_Tables_number   1
_chemical_formula_structural   AcYb(Ni2B)12
_chemical_formula_sum   'Ac1 Yb1 Ni24 B12'
_cell_volume   390.70662279
_cell_formula_units_Z   1
loop_
 _symmetry_equiv_pos_site_id
 _symmetry_equiv_pos_as_xyz
  1  'x, y, z'
loop_
 _atom_site_type_symbol
 _atom_site_label
 _atom_site_symmetry_multiplicity
 _atom_site_fract_x
 _atom_site_fract_y
 _atom_site_fract_z
 _atom_site_occupancy
  Ac  Ac0  1  0.168290  0.168290  0.498839  1
  Yb  Yb1  1  0.832900  0.832900  0.000196  1
  Ni  Ni2  1  0.994855  0.629842  0.563351  1
  Ni  Ni3  1  0.725355  0.345816  0.432328  1
  Ni  Ni4  1  0.345816  0.725355  0.432328  1
  Ni  Ni5  1  0.657396  0.271328  0.933852  1
  Ni  Ni6  1  0.003655  0.369203  0.062500  1
  Ni  Ni7  1  0.369203  0.003655  0.062500  1
  Ni  Ni8  1  0.629842  0.994855  0.563351  1
  Ni  Ni9  1  0.433473  0.433473  0.082184  1
  Ni  Ni10  1  0.211176  0.475829  0.728125  1
  Ni  Ni11  1  0.790891  0.525929  0.222738  1
  Ni  Ni12  1  0.525929  0.790891  0.222738  1
  Ni  Ni13  1  0.475829  0.211176  0.728125  1
  Ni  Ni14  1  0.573450  0.573450  0.586007  1
  Ni  Ni15  1  0.217787  0.217787  0.902165  1
  Ni  Ni16  1  0.145559  0.878957  0.746385  1
  Ni  Ni17  1  0.854424  0.116673  0.240897  1
  Ni  Ni18  1  0.116673  0.854424  0.240897  1
  Ni  Ni19  1  0.878957  0.145559  0.746385  1
  Ni  Ni20  1  0.541279  0.804524  0.768197  1
  Ni  Ni21  1  0.460744  0.194200  0.263112  1
  Ni  Ni22  1  0.194200  0.460744  0.263112  1
  Ni  Ni23  1  0.804524  0.541279  0.768197  1
  Ni  Ni24  1  0.776054  0.776054  0.398253  1
  Ni  Ni25  1  0.271328  0.657396  0.933852  1
  B  B26  1  0.398557  0.986913  0.878854  1
  B  B27  1  0.604472  0.014929  0.377524  1
  B  B28  1  0.014929  0.604472  0.377524  1
  B  B29  1  0.986913  0.398557  0.878854  1
  B  B30  1  0.325177  0.749541  0.616170  1
  B  B31  1  0.674457  0.245291  0.113684  1
  B  B32  1  0.245291  0.674457  0.113684  1
  B  B33  1  0.749541  0.325177  0.616170  1
  B  B34  1  0.515353  0.515353  0.334009  1
  B  B35  1  0.485156  0.485156  0.844936  1
  B  B36  1  0.165812  0.165812  0.161829  1
  B  B37  1  0.834751  0.834751  0.670150  1
