# generated using pymatgen
data_GaNi2Sb11Pt2
_symmetry_space_group_name_H-M   'P 1'
_cell_length_a   8.12839875
_cell_length_b   8.12839793
_cell_length_c   8.13249300
_cell_angle_alpha   109.28441755
_cell_angle_beta   109.74753729
_cell_angle_gamma   109.36163162
_symmetry_Int_Tables_number   1
_chemical_formula_structural   GaNi2Sb11Pt2
_chemical_formula_sum   'Ga1 Ni2 Sb11 Pt2'
_cell_volume   413.72636957
_cell_formula_units_Z   1
loop_
 _symmetry_equiv_pos_site_id
 _symmetry_equiv_pos_as_xyz
  1  'x, y, z'
loop_
 _atom_site_type_symbol
 _atom_site_label
 _atom_site_symmetry_multiplicity
 _atom_site_fract_x
 _atom_site_fract_y
 _atom_site_fract_z
 _atom_site_occupancy
  Ga  Ga0  1  0.841492  0.659745  0.501238  1
  Ni  Ni1  1  0.003471  0.499334  0.000269  1
  Ni  Ni2  1  0.500935  0.996797  0.000269  1
  Sb  Sb3  1  0.838105  0.349468  0.187575  1
  Sb  Sb4  1  0.144796  0.665941  0.810735  1
  Sb  Sb5  1  0.337201  0.495419  0.148485  1
  Sb  Sb6  1  0.149259  0.347692  0.496951  1
  Sb  Sb7  1  0.653067  0.811285  0.148485  1
  Sb  Sb8  1  0.183960  0.834551  0.335827  1
  Sb  Sb9  1  0.669663  0.502490  0.848115  1
  Sb  Sb10  1  0.820526  0.161947  0.669909  1
  Sb  Sb11  1  0.345624  0.178452  0.848115  1
  Sb  Sb12  1  0.507963  0.849382  0.669909  1
  Sb  Sb13  1  0.501275  0.151869  0.335827  1
  Pt  Pt14  1  0.997347  0.993828  0.499146  1
  Pt  Pt15  1  0.505318  0.501799  0.499146  1
