# generated using pymatgen
data_Ti6Re3Os2Pt
_symmetry_space_group_name_H-M   'P 1'
_cell_length_a   4.40605500
_cell_length_b   6.24023500
_cell_length_c   13.22441000
_cell_angle_alpha   90.00000000
_cell_angle_beta   90.00083205
_cell_angle_gamma   90.00000000
_symmetry_Int_Tables_number   1
_chemical_formula_structural   Ti6Re3Os2Pt
_chemical_formula_sum   'Ti12 Re6 Os4 Pt2'
_cell_volume   363.60275433
_cell_formula_units_Z   2
loop_
 _symmetry_equiv_pos_site_id
 _symmetry_equiv_pos_as_xyz
  1  'x, y, z'
loop_
 _atom_site_type_symbol
 _atom_site_label
 _atom_site_symmetry_multiplicity
 _atom_site_fract_x
 _atom_site_fract_y
 _atom_site_fract_z
 _atom_site_occupancy
  Ti  Ti0  1  0.500021  0.246176  0.995898  1
  Ti  Ti1  1  0.500021  0.753823  0.995898  1
  Ti  Ti2  1  0.999962  0.253825  0.170769  1
  Ti  Ti3  1  0.999962  0.746174  0.170769  1
  Ti  Ti4  1  0.500005  0.253408  0.337312  1
  Ti  Ti5  1  0.500005  0.746593  0.337312  1
  Ti  Ti6  1  0.000002  0.249390  0.500434  1
  Ti  Ti7  1  0.000002  0.750609  0.500434  1
  Ti  Ti8  1  0.500027  0.250608  0.666227  1
  Ti  Ti9  1  0.500027  0.749393  0.666227  1
  Ti  Ti10  1  0.000036  0.246610  0.829361  1
  Ti  Ti11  1  0.000036  0.753389  0.829361  1
  Re  Re12  1  0.999976  0.000000  0.001531  1
  Re  Re13  1  0.499967  0.500001  0.165160  1
  Re  Re14  1  0.999946  0.000000  0.331939  1
  Re  Re15  1  0.500014  0.500001  0.499893  1
  Re  Re16  1  0.000020  0.000000  0.666764  1
  Re  Re17  1  0.500038  0.500001  0.834710  1
  Os  Os18  1  0.999985  0.500001  0.332800  1
  Os  Os19  1  0.500007  0.000000  0.499461  1
  Os  Os20  1  0.000025  0.500001  0.667185  1
  Os  Os21  1  0.500022  0.000000  0.833880  1
  Pt  Pt22  1  0.999993  0.500001  0.000010  1
  Pt  Pt23  1  0.499901  0.000000  0.166667  1
