# generated using pymatgen
data_Tm6Co14P12Ir3Ru
_symmetry_space_group_name_H-M   'P 1'
_cell_length_a   3.69587400
_cell_length_b   10.60929800
_cell_length_c   12.31090600
_cell_angle_alpha   90.00000000
_cell_angle_beta   90.00000000
_cell_angle_gamma   90.00000000
_symmetry_Int_Tables_number   1
_chemical_formula_structural   Tm6Co14P12Ir3Ru
_chemical_formula_sum   'Tm6 Co14 P12 Ir3 Ru1'
_cell_volume   482.71836334
_cell_formula_units_Z   1
loop_
 _symmetry_equiv_pos_site_id
 _symmetry_equiv_pos_as_xyz
  1  'x, y, z'
loop_
 _atom_site_type_symbol
 _atom_site_label
 _atom_site_symmetry_multiplicity
 _atom_site_fract_x
 _atom_site_fract_y
 _atom_site_fract_z
 _atom_site_occupancy
  Tm  Tm0  1  0.000000  0.500000  0.519930  1
  Tm  Tm1  1  0.500000  0.000000  0.479916  1
  Tm  Tm2  1  0.500000  0.813077  0.205877  1
  Tm  Tm3  1  0.500000  0.186923  0.205877  1
  Tm  Tm4  1  0.000000  0.686192  0.794247  1
  Tm  Tm5  1  0.000000  0.313808  0.794247  1
  Co  Co6  1  0.000000  0.500000  0.988668  1
  Co  Co7  1  0.500000  0.000000  0.011614  1
  Co  Co8  1  0.500000  0.332033  0.992790  1
  Co  Co9  1  0.500000  0.667967  0.992790  1
  Co  Co10  1  0.000000  0.168509  0.007415  1
  Co  Co11  1  0.000000  0.831491  0.007415  1
  Co  Co12  1  0.500000  0.300092  0.429156  1
  Co  Co13  1  0.500000  0.699908  0.429156  1
  Co  Co14  1  0.000000  0.200128  0.570426  1
  Co  Co15  1  0.000000  0.799872  0.570426  1
  Co  Co16  1  0.500000  0.879722  0.710552  1
  Co  Co17  1  0.500000  0.120278  0.710552  1
  Co  Co18  1  0.000000  0.619806  0.290276  1
  Co  Co19  1  0.000000  0.380194  0.290276  1
  P  P20  1  0.500000  0.500000  0.889548  1
  P  P21  1  0.000000  0.000000  0.110792  1
  P  P22  1  0.500000  0.500000  0.349944  1
  P  P23  1  0.000000  0.000000  0.647757  1
  P  P24  1  0.500000  0.303359  0.613673  1
  P  P25  1  0.500000  0.696641  0.613673  1
  P  P26  1  0.000000  0.196684  0.386210  1
  P  P27  1  0.000000  0.803316  0.386210  1
  P  P28  1  0.500000  0.844129  0.893766  1
  P  P29  1  0.500000  0.155871  0.893766  1
  P  P30  1  0.000000  0.654341  0.107238  1
  P  P31  1  0.000000  0.345659  0.107238  1
  Ir  Ir32  1  0.000000  0.000000  0.839055  1
  Ir  Ir33  1  0.500000  0.500000  0.702895  1
  Ir  Ir34  1  0.000000  0.000000  0.296982  1
  Ru  Ru35  1  0.500000  0.500000  0.159649  1
