# generated using pymatgen
data_Th6Ga7Rh16
_symmetry_space_group_name_H-M   'P 1'
_cell_length_a   8.98789280
_cell_length_b   8.98904575
_cell_length_c   8.99302961
_cell_angle_alpha   60.02271993
_cell_angle_beta   60.01181790
_cell_angle_gamma   60.00088644
_symmetry_Int_Tables_number   1
_chemical_formula_structural   Th6Ga7Rh16
_chemical_formula_sum   'Th6 Ga7 Rh16'
_cell_volume   513.90011323
_cell_formula_units_Z   1
loop_
 _symmetry_equiv_pos_site_id
 _symmetry_equiv_pos_as_xyz
  1  'x, y, z'
loop_
 _atom_site_type_symbol
 _atom_site_label
 _atom_site_symmetry_multiplicity
 _atom_site_fract_x
 _atom_site_fract_y
 _atom_site_fract_z
 _atom_site_occupancy
  Th  Th0  1  0.719199  0.719195  0.280817  1
  Th  Th1  1  0.280798  0.719191  0.280820  1
  Th  Th2  1  0.719190  0.280801  0.280819  1
  Th  Th3  1  0.280801  0.280805  0.719183  1
  Th  Th4  1  0.719202  0.280809  0.719180  1
  Th  Th5  1  0.280810  0.719199  0.719181  1
  Ga  Ga6  1  0.000000  0.000000  0.000000  1
  Ga  Ga7  1  0.000000  0.000000  0.500000  1
  Ga  Ga8  1  0.500000  0.000000  0.500000  1
  Ga  Ga9  1  0.000000  0.500000  0.500000  1
  Ga  Ga10  1  0.500000  0.500000  0.000000  1
  Ga  Ga11  1  0.000000  0.500000  0.000000  1
  Ga  Ga12  1  0.500000  0.000000  0.000000  1
  Rh  Rh13  1  0.878871  0.878823  0.363456  1
  Rh  Rh14  1  0.878917  0.363390  0.878811  1
  Rh  Rh15  1  0.363359  0.878896  0.878839  1
  Rh  Rh16  1  0.878913  0.878871  0.878825  1
  Rh  Rh17  1  0.121129  0.121177  0.636544  1
  Rh  Rh18  1  0.121083  0.636610  0.121189  1
  Rh  Rh19  1  0.636641  0.121104  0.121161  1
  Rh  Rh20  1  0.121087  0.121129  0.121175  1
  Rh  Rh21  1  0.663990  0.663957  0.008092  1
  Rh  Rh22  1  0.664005  0.008070  0.663927  1
  Rh  Rh23  1  0.008066  0.663985  0.663937  1
  Rh  Rh24  1  0.664023  0.663987  0.663919  1
  Rh  Rh25  1  0.336010  0.336043  0.991908  1
  Rh  Rh26  1  0.335995  0.991930  0.336073  1
  Rh  Rh27  1  0.991934  0.336015  0.336063  1
  Rh  Rh28  1  0.335977  0.336013  0.336081  1
