# generated using pymatgen
data_Hf2Zr4FeSi12Rh5
_symmetry_space_group_name_H-M   'P 1'
_cell_length_a   9.96767465
_cell_length_b   9.95707760
_cell_length_c   9.94879319
_cell_angle_alpha   148.61892458
_cell_angle_beta   133.75530028
_cell_angle_gamma   56.99660396
_symmetry_Int_Tables_number   1
_chemical_formula_structural   Hf2Zr4FeSi12Rh5
_chemical_formula_sum   'Hf2 Zr4 Fe1 Si12 Rh5'
_cell_volume   368.62999134
_cell_formula_units_Z   1
loop_
 _symmetry_equiv_pos_site_id
 _symmetry_equiv_pos_as_xyz
  1  'x, y, z'
loop_
 _atom_site_type_symbol
 _atom_site_label
 _atom_site_symmetry_multiplicity
 _atom_site_fract_x
 _atom_site_fract_y
 _atom_site_fract_z
 _atom_site_occupancy
  Hf  Hf0  1  0.137928  0.140262  0.999369  1
  Hf  Hf1  1  0.862072  0.859738  0.000631  1
  Zr  Zr2  1  0.848959  0.594212  0.254585  1
  Zr  Zr3  1  0.151041  0.405788  0.745415  1
  Zr  Zr4  1  0.660680  0.402714  0.252567  1
  Zr  Zr5  1  0.339320  0.597286  0.747433  1
  Fe  Fe6  1  0.000000  0.000000  0.500000  1
  Si  Si7  1  0.487939  0.140827  0.356476  1
  Si  Si8  1  0.512061  0.859173  0.643524  1
  Si  Si9  1  0.210723  0.872065  0.365342  1
  Si  Si10  1  0.789277  0.127935  0.634658  1
  Si  Si11  1  0.709172  0.721851  0.025024  1
  Si  Si12  1  0.290828  0.278149  0.974976  1
  Si  Si13  1  0.499131  0.719325  0.219355  1
  Si  Si14  1  0.500869  0.280675  0.780645  1
  Si  Si15  1  0.000123  0.271806  0.271806  1
  Si  Si16  1  0.201604  0.719182  0.506050  1
  Si  Si17  1  0.999877  0.728194  0.728194  1
  Si  Si18  1  0.798396  0.280818  0.493950  1
  Rh  Rh19  1  0.746594  0.000141  0.743279  1
  Rh  Rh20  1  0.500000  0.500000  0.500000  1
  Rh  Rh21  1  0.500000  0.000000  0.000000  1
  Rh  Rh22  1  0.253406  0.999859  0.256721  1
  Rh  Rh23  1  0.000000  0.500000  0.000000  1
