# generated using pymatgen
data_Bi2SbRhF14
_symmetry_space_group_name_H-M   'P 1'
_cell_length_a   5.65660099
_cell_length_b   8.97386462
_cell_length_c   12.13704900
_cell_angle_alpha   63.19848361
_cell_angle_beta   91.00374527
_cell_angle_gamma   89.36672118
_symmetry_Int_Tables_number   1
_chemical_formula_structural   Bi2SbRhF14
_chemical_formula_sum   'Bi4 Sb2 Rh2 F28'
_cell_volume   549.70254764
_cell_formula_units_Z   2
loop_
 _symmetry_equiv_pos_site_id
 _symmetry_equiv_pos_as_xyz
  1  'x, y, z'
loop_
 _atom_site_type_symbol
 _atom_site_label
 _atom_site_symmetry_multiplicity
 _atom_site_fract_x
 _atom_site_fract_y
 _atom_site_fract_z
 _atom_site_occupancy
  Bi  Bi0  1  0.267054  0.831680  0.237632  1
  Bi  Bi1  1  0.732946  0.168320  0.762368  1
  Bi  Bi2  1  0.757890  0.207725  0.205493  1
  Bi  Bi3  1  0.242110  0.792275  0.794507  1
  Sb  Sb4  1  0.258670  0.271610  0.456831  1
  Sb  Sb5  1  0.741330  0.728390  0.543169  1
  Rh  Rh6  1  0.760379  0.727335  0.046524  1
  Rh  Rh7  1  0.239621  0.272665  0.953476  1
  F  F8  1  0.926163  0.704156  0.422097  1
  F  F9  1  0.073837  0.295844  0.577903  1
  F  F10  1  0.425510  0.300334  0.085514  1
  F  F11  1  0.574490  0.699666  0.914486  1
  F  F12  1  0.461510  0.717014  0.133219  1
  F  F13  1  0.538490  0.282986  0.866781  1
  F  F14  1  0.974129  0.271960  0.368815  1
  F  F15  1  0.025871  0.728040  0.631185  1
  F  F16  1  0.934743  0.744918  0.183401  1
  F  F17  1  0.065257  0.255082  0.816599  1
  F  F18  1  0.439555  0.255928  0.329767  1
  F  F19  1  0.560445  0.744072  0.670233  1
  F  F20  1  0.784104  0.482750  0.146752  1
  F  F21  1  0.215896  0.517250  0.853248  1
  F  F22  1  0.272764  0.509295  0.365816  1
  F  F23  1  0.727236  0.490705  0.634184  1
  F  F24  1  0.926115  0.282007  0.027532  1
  F  F25  1  0.073885  0.717993  0.972468  1
  F  F26  1  0.450259  0.724251  0.459981  1
  F  F27  1  0.549741  0.275749  0.540019  1
  F  F28  1  0.740240  0.966703  0.455279  1
  F  F29  1  0.259760  0.033297  0.544721  1
  F  F30  1  0.245680  0.021032  0.043593  1
  F  F31  1  0.754320  0.978968  0.956407  1
  F  F32  1  0.604961  0.969060  0.223249  1
  F  F33  1  0.395039  0.030940  0.776751  1
  F  F34  1  0.094074  0.041616  0.261444  1
  F  F35  1  0.905926  0.958384  0.738556  1
