# generated using pymatgen
data_Tb3Ho7(In3Br)2
_symmetry_space_group_name_H-M   'P 1'
_cell_length_a   9.18447800
_cell_length_b   9.18447896
_cell_length_c   6.74647800
_cell_angle_alpha   90.00000000
_cell_angle_beta   90.00000000
_cell_angle_gamma   120.00332619
_symmetry_Int_Tables_number   1
_chemical_formula_structural   Tb3Ho7(In3Br)2
_chemical_formula_sum   'Tb3 Ho7 In6 Br2'
_cell_volume   492.83572850
_cell_formula_units_Z   1
loop_
 _symmetry_equiv_pos_site_id
 _symmetry_equiv_pos_as_xyz
  1  'x, y, z'
loop_
 _atom_site_type_symbol
 _atom_site_label
 _atom_site_symmetry_multiplicity
 _atom_site_fract_x
 _atom_site_fract_y
 _atom_site_fract_z
 _atom_site_occupancy
  Tb  Tb0  1  0.733881  0.733881  0.250000  1
  Tb  Tb1  1  0.000041  0.733895  0.750000  1
  Tb  Tb2  1  0.733895  0.000041  0.750000  1
  Ho  Ho3  1  0.333057  0.666392  0.499916  1
  Ho  Ho4  1  0.266372  0.266372  0.750000  1
  Ho  Ho5  1  0.000038  0.266433  0.250000  1
  Ho  Ho6  1  0.666392  0.333057  0.499916  1
  Ho  Ho7  1  0.266433  0.000038  0.250000  1
  Ho  Ho8  1  0.333057  0.666392  0.000084  1
  Ho  Ho9  1  0.666392  0.333057  0.000084  1
  In  In10  1  0.392951  0.000315  0.750000  1
  In  In11  1  0.000312  0.606936  0.250000  1
  In  In12  1  0.606936  0.000312  0.250000  1
  In  In13  1  0.000315  0.392951  0.750000  1
  In  In14  1  0.392463  0.392463  0.250000  1
  In  In15  1  0.606413  0.606413  0.750000  1
  Br  Br16  1  0.000526  0.000526  0.499669  1
  Br  Br17  1  0.000526  0.000526  0.000331  1
