# generated using pymatgen
data_Sm8Sc12Si15Hg
_symmetry_space_group_name_H-M   'P 1'
_cell_length_a   7.21004158
_cell_length_b   7.46658875
_cell_length_c   14.22238808
_cell_angle_alpha   89.95584641
_cell_angle_beta   89.59685340
_cell_angle_gamma   90.13458980
_symmetry_Int_Tables_number   1
_chemical_formula_structural   Sm8Sc12Si15Hg
_chemical_formula_sum   'Sm8 Sc12 Si15 Hg1'
_cell_volume   765.63264437
_cell_formula_units_Z   1
loop_
 _symmetry_equiv_pos_site_id
 _symmetry_equiv_pos_as_xyz
  1  'x, y, z'
loop_
 _atom_site_type_symbol
 _atom_site_label
 _atom_site_symmetry_multiplicity
 _atom_site_fract_x
 _atom_site_fract_y
 _atom_site_fract_z
 _atom_site_occupancy
  Sm  Sm0  1  0.012809  0.174160  0.097965  1
  Sm  Sm1  1  0.986902  0.826620  0.903692  1
  Sm  Sm2  1  0.487088  0.674666  0.903226  1
  Sm  Sm3  1  0.988075  0.832788  0.598409  1
  Sm  Sm4  1  0.512466  0.325739  0.097281  1
  Sm  Sm5  1  0.008242  0.169894  0.397933  1
  Sm  Sm6  1  0.512683  0.324155  0.398402  1
  Sm  Sm7  1  0.495718  0.680016  0.600564  1
  Sc  Sc8  1  0.161682  0.499778  0.754462  1
  Sc  Sc9  1  0.838302  0.500340  0.249959  1
  Sc  Sc10  1  0.338561  0.998903  0.248544  1
  Sc  Sc11  1  0.664050  0.998779  0.751886  1
  Sc  Sc12  1  0.341047  0.168518  0.628791  1
  Sc  Sc13  1  0.665582  0.824543  0.373026  1
  Sc  Sc14  1  0.167693  0.678050  0.370863  1
  Sc  Sc15  1  0.670402  0.823945  0.124289  1
  Sc  Sc16  1  0.823764  0.324750  0.626130  1
  Sc  Sc17  1  0.328292  0.174588  0.876169  1
  Sc  Sc18  1  0.829338  0.323003  0.876266  1
  Sc  Sc19  1  0.169729  0.676412  0.124899  1
  Si  Si20  1  0.035457  0.124507  0.751361  1
  Si  Si21  1  0.964384  0.878705  0.248181  1
  Si  Si22  1  0.465881  0.621113  0.248096  1
  Si  Si23  1  0.534228  0.380862  0.752028  1
  Si  Si24  1  0.284939  0.876910  0.751571  1
  Si  Si25  1  0.711820  0.122490  0.247860  1
  Si  Si26  1  0.212778  0.376725  0.248581  1
  Si  Si27  1  0.789130  0.622614  0.752189  1
  Si  Si28  1  0.835601  0.540690  0.458530  1
  Si  Si29  1  0.343067  0.961361  0.459833  1
  Si  Si30  1  0.846909  0.536138  0.039302  1
  Si  Si31  1  0.655550  0.038704  0.537390  1
  Si  Si32  1  0.152904  0.463270  0.961799  1
  Si  Si33  1  0.653054  0.035972  0.960477  1
  Si  Si34  1  0.346031  0.963651  0.040017  1
  Hg  Hg35  1  0.165844  0.456642  0.540028  1
