# generated using pymatgen
data_Tm4Al18NiIr3Pt2
_symmetry_space_group_name_H-M   'P 1'
_cell_length_a   7.54840533
_cell_length_b   7.54840365
_cell_length_c   9.34627495
_cell_angle_alpha   90.11956287
_cell_angle_beta   90.11955740
_cell_angle_gamma   119.88420807
_symmetry_Int_Tables_number   1
_chemical_formula_structural   Tm4Al18NiIr3Pt2
_chemical_formula_sum   'Tm4 Al18 Ni1 Ir3 Pt2'
_cell_volume   461.72277350
_cell_formula_units_Z   1
loop_
 _symmetry_equiv_pos_site_id
 _symmetry_equiv_pos_as_xyz
  1  'x, y, z'
loop_
 _atom_site_type_symbol
 _atom_site_label
 _atom_site_symmetry_multiplicity
 _atom_site_fract_x
 _atom_site_fract_y
 _atom_site_fract_z
 _atom_site_occupancy
  Tm  Tm0  1  0.994198  0.667903  0.250066  1
  Tm  Tm1  1  0.005013  0.331515  0.749959  1
  Tm  Tm2  1  0.668485  0.994987  0.250041  1
  Tm  Tm3  1  0.332097  0.005802  0.749934  1
  Al  Al4  1  0.123985  0.123118  0.244496  1
  Al  Al5  1  0.876882  0.876015  0.755504  1
  Al  Al6  1  0.001888  0.332066  0.075322  1
  Al  Al7  1  0.003636  0.671288  0.924662  1
  Al  Al8  1  0.000947  0.663191  0.575898  1
  Al  Al9  1  0.336809  0.999053  0.424102  1
  Al  Al10  1  0.999718  0.336356  0.423649  1
  Al  Al11  1  0.663644  0.000282  0.576351  1
  Al  Al12  1  0.667934  0.998112  0.924678  1
  Al  Al13  1  0.328712  0.996364  0.075338  1
  Al  Al14  1  0.335447  0.335209  0.555147  1
  Al  Al15  1  0.664791  0.664553  0.444853  1
  Al  Al16  1  0.670316  0.673369  0.055766  1
  Al  Al17  1  0.326631  0.329684  0.944234  1
  Al  Al18  1  0.338979  0.548048  0.249661  1
  Al  Al19  1  0.662012  0.454890  0.748169  1
  Al  Al20  1  0.545110  0.337988  0.251831  1
  Al  Al21  1  0.451952  0.661021  0.750339  1
  Ni  Ni22  1  0.999713  0.000287  0.000000  1
  Ir  Ir23  1  0.327895  0.672105  0.000000  1
  Ir  Ir24  1  0.328177  0.671823  0.500000  1
  Ir  Ir25  1  0.672460  0.327540  0.500000  1
  Pt  Pt26  1  0.672278  0.327722  0.000000  1
  Pt  Pt27  1  0.000292  0.999708  0.500000  1
