# generated using pymatgen
data_Ti12PS3
_symmetry_space_group_name_H-M   'P 1'
_cell_length_a   9.84761042
_cell_length_b   9.84541952
_cell_length_c   4.97990594
_cell_angle_alpha   89.91844680
_cell_angle_beta   89.77318202
_cell_angle_gamma   89.99525197
_symmetry_Int_Tables_number   1
_chemical_formula_structural   Ti12PS3
_chemical_formula_sum   'Ti24 P2 S6'
_cell_volume   482.81680943
_cell_formula_units_Z   2
loop_
 _symmetry_equiv_pos_site_id
 _symmetry_equiv_pos_as_xyz
  1  'x, y, z'
loop_
 _atom_site_type_symbol
 _atom_site_label
 _atom_site_symmetry_multiplicity
 _atom_site_fract_x
 _atom_site_fract_y
 _atom_site_fract_z
 _atom_site_occupancy
  Ti  Ti0  1  0.970378  0.861333  0.279540  1
  Ti  Ti1  1  0.361076  0.528227  0.779446  1
  Ti  Ti2  1  0.639198  0.470795  0.780885  1
  Ti  Ti3  1  0.027473  0.139261  0.280715  1
  Ti  Ti4  1  0.530783  0.639297  0.219831  1
  Ti  Ti5  1  0.140096  0.973446  0.720460  1
  Ti  Ti6  1  0.859912  0.030786  0.719529  1
  Ti  Ti7  1  0.473624  0.358903  0.220048  1
  Ti  Ti8  1  0.819163  0.284009  0.016828  1
  Ti  Ti9  1  0.783874  0.679442  0.515066  1
  Ti  Ti10  1  0.215329  0.318379  0.515728  1
  Ti  Ti11  1  0.180083  0.715902  0.014049  1
  Ti  Ti12  1  0.680363  0.215036  0.484727  1
  Ti  Ti13  1  0.715142  0.821080  0.983173  1
  Ti  Ti14  1  0.284364  0.180717  0.985521  1
  Ti  Ti15  1  0.320007  0.784432  0.484027  1
  Ti  Ti16  1  0.914081  0.392315  0.541087  1
  Ti  Ti17  1  0.892630  0.585358  0.038702  1
  Ti  Ti18  1  0.106204  0.414325  0.042270  1
  Ti  Ti19  1  0.085026  0.606282  0.539883  1
  Ti  Ti20  1  0.585236  0.106594  0.959615  1
  Ti  Ti21  1  0.606846  0.914854  0.460619  1
  Ti  Ti22  1  0.393951  0.084870  0.459117  1
  Ti  Ti23  1  0.414897  0.893804  0.960247  1
  P  P24  1  0.294405  0.539541  0.285376  1
  P  P25  1  0.959715  0.794390  0.785307  1
  S  S26  1  0.459803  0.292024  0.712793  1
  S  S27  1  0.791965  0.039744  0.213261  1
  S  S28  1  0.207504  0.959857  0.213371  1
  S  S29  1  0.539625  0.707840  0.713754  1
  S  S30  1  0.039546  0.207439  0.787631  1
  S  S31  1  0.707699  0.459719  0.287392  1
