# generated using pymatgen
data_Tb2Pr3Ho3(CdIr)2
_symmetry_space_group_name_H-M   'P 1'
_cell_length_a   9.77752385
_cell_length_b   9.77752324
_cell_length_c   9.77752300
_cell_angle_alpha   59.99999741
_cell_angle_beta   59.99999950
_cell_angle_gamma   59.99999758
_symmetry_Int_Tables_number   1
_chemical_formula_structural   Tb2Pr3Ho3(CdIr)2
_chemical_formula_sum   'Tb4 Pr6 Ho6 Cd4 Ir4'
_cell_volume   660.95451125
_cell_formula_units_Z   2
loop_
 _symmetry_equiv_pos_site_id
 _symmetry_equiv_pos_as_xyz
  1  'x, y, z'
loop_
 _atom_site_type_symbol
 _atom_site_label
 _atom_site_symmetry_multiplicity
 _atom_site_fract_x
 _atom_site_fract_y
 _atom_site_fract_z
 _atom_site_occupancy
  Tb  Tb0  1  0.347464  0.347464  0.347464  1
  Tb  Tb1  1  0.347464  0.347464  0.957607  1
  Tb  Tb2  1  0.347464  0.957607  0.347464  1
  Tb  Tb3  1  0.957607  0.347464  0.347464  1
  Pr  Pr4  1  0.941159  0.558841  0.558841  1
  Pr  Pr5  1  0.558841  0.941159  0.941159  1
  Pr  Pr6  1  0.558841  0.941159  0.558841  1
  Pr  Pr7  1  0.941159  0.558841  0.941159  1
  Pr  Pr8  1  0.558841  0.558841  0.941159  1
  Pr  Pr9  1  0.941159  0.941159  0.558841  1
  Ho  Ho10  1  0.813075  0.186925  0.186925  1
  Ho  Ho11  1  0.186925  0.813075  0.813075  1
  Ho  Ho12  1  0.186925  0.813075  0.186925  1
  Ho  Ho13  1  0.813075  0.186925  0.813075  1
  Ho  Ho14  1  0.186925  0.186925  0.813075  1
  Ho  Ho15  1  0.813075  0.813075  0.186925  1
  Cd  Cd16  1  0.579187  0.579187  0.579187  1
  Cd  Cd17  1  0.579187  0.579187  0.262438  1
  Cd  Cd18  1  0.579187  0.262438  0.579187  1
  Cd  Cd19  1  0.262438  0.579187  0.579187  1
  Ir  Ir20  1  0.140797  0.140797  0.140797  1
  Ir  Ir21  1  0.140797  0.140797  0.577611  1
  Ir  Ir22  1  0.140797  0.577611  0.140797  1
  Ir  Ir23  1  0.577611  0.140797  0.140797  1
