# generated using pymatgen
data_Dy3YAl4(IrPt)2
_symmetry_space_group_name_H-M   'P 1'
_cell_length_a   4.37626100
_cell_length_b   6.82598444
_cell_length_c   7.86701065
_cell_angle_alpha   90.07429709
_cell_angle_beta   90.00000000
_cell_angle_gamma   90.00000000
_symmetry_Int_Tables_number   1
_chemical_formula_structural   Dy3YAl4(IrPt)2
_chemical_formula_sum   'Dy3 Y1 Al4 Ir2 Pt2'
_cell_volume   235.00542191
_cell_formula_units_Z   1
loop_
 _symmetry_equiv_pos_site_id
 _symmetry_equiv_pos_as_xyz
  1  'x, y, z'
loop_
 _atom_site_type_symbol
 _atom_site_label
 _atom_site_symmetry_multiplicity
 _atom_site_fract_x
 _atom_site_fract_y
 _atom_site_fract_z
 _atom_site_occupancy
  Dy  Dy0  1  0.250000  0.031903  0.679198  1
  Dy  Dy1  1  0.250000  0.532262  0.820857  1
  Dy  Dy2  1  0.750000  0.973508  0.317356  1
  Y  Y3  1  0.750000  0.473558  0.183149  1
  Al  Al4  1  0.250000  0.141317  0.065070  1
  Al  Al5  1  0.250000  0.640844  0.434921  1
  Al  Al6  1  0.750000  0.855633  0.939577  1
  Al  Al7  1  0.750000  0.355588  0.560518  1
  Ir  Ir8  1  0.250000  0.266669  0.383341  1
  Ir  Ir9  1  0.250000  0.768695  0.117186  1
  Pt  Pt10  1  0.750000  0.730298  0.618877  1
  Pt  Pt11  1  0.750000  0.229725  0.879949  1
