# generated using pymatgen
data_YThSiI2
_symmetry_space_group_name_H-M   'P 1'
_cell_length_a   11.75283170
_cell_length_b   11.75283166
_cell_length_c   11.75283190
_cell_angle_alpha   20.90437116
_cell_angle_beta   20.90437430
_cell_angle_gamma   20.90436859
_symmetry_Int_Tables_number   1
_chemical_formula_structural   YThSiI2
_chemical_formula_sum   'Y1 Th1 Si1 I2'
_cell_volume   180.97557441
_cell_formula_units_Z   1
loop_
 _symmetry_equiv_pos_site_id
 _symmetry_equiv_pos_as_xyz
  1  'x, y, z'
loop_
 _atom_site_type_symbol
 _atom_site_label
 _atom_site_symmetry_multiplicity
 _atom_site_fract_x
 _atom_site_fract_y
 _atom_site_fract_z
 _atom_site_occupancy
  Y  Y0  1  0.620907  0.620907  0.620907  1
  Th  Th1  1  0.377445  0.377445  0.377445  1
  Si  Si2  1  0.998568  0.998568  0.998568  1
  I  I3  1  0.229353  0.229353  0.229353  1
  I  I4  1  0.773725  0.773725  0.773725  1
