# generated using pymatgen
data_TbPa3(GeRu)4
_symmetry_space_group_name_H-M   'P 1'
_cell_length_a   4.40967800
_cell_length_b   7.17583557
_cell_length_c   7.21754151
_cell_angle_alpha   90.42510155
_cell_angle_beta   90.00000000
_cell_angle_gamma   90.00000000
_symmetry_Int_Tables_number   1
_chemical_formula_structural   TbPa3(GeRu)4
_chemical_formula_sum   'Tb1 Pa3 Ge4 Ru4'
_cell_volume   228.37927686
_cell_formula_units_Z   1
loop_
 _symmetry_equiv_pos_site_id
 _symmetry_equiv_pos_as_xyz
  1  'x, y, z'
loop_
 _atom_site_type_symbol
 _atom_site_label
 _atom_site_symmetry_multiplicity
 _atom_site_fract_x
 _atom_site_fract_y
 _atom_site_fract_z
 _atom_site_occupancy
  Tb  Tb0  1  0.750000  0.009708  0.187351  1
  Pa  Pa1  1  0.250000  0.490408  0.684419  1
  Pa  Pa2  1  0.750000  0.511822  0.313599  1
  Pa  Pa3  1  0.250000  0.985593  0.803178  1
  Ge  Ge4  1  0.250000  0.282789  0.107506  1
  Ge  Ge5  1  0.750000  0.712445  0.894392  1
  Ge  Ge6  1  0.250000  0.795527  0.383379  1
  Ge  Ge7  1  0.750000  0.212237  0.610262  1
  Ru  Ru8  1  0.750000  0.846593  0.567449  1
  Ru  Ru9  1  0.250000  0.152614  0.451291  1
  Ru  Ru10  1  0.750000  0.361038  0.939481  1
  Ru  Ru11  1  0.250000  0.639226  0.057692  1
