# generated using pymatgen
data_Pa4NbSn3C
_symmetry_space_group_name_H-M   'P 1'
_cell_length_a   8.95598300
_cell_length_b   8.95598393
_cell_length_c   5.90313000
_cell_angle_alpha   90.00000000
_cell_angle_beta   90.00000000
_cell_angle_gamma   120.00000765
_symmetry_Int_Tables_number   1
_chemical_formula_structural   Pa4NbSn3C
_chemical_formula_sum   'Pa8 Nb2 Sn6 C2'
_cell_volume   410.05254507
_cell_formula_units_Z   2
loop_
 _symmetry_equiv_pos_site_id
 _symmetry_equiv_pos_as_xyz
  1  'x, y, z'
loop_
 _atom_site_type_symbol
 _atom_site_label
 _atom_site_symmetry_multiplicity
 _atom_site_fract_x
 _atom_site_fract_y
 _atom_site_fract_z
 _atom_site_occupancy
  Pa  Pa0  1  0.666667  0.333333  0.000000  1
  Pa  Pa1  1  0.333333  0.666667  0.000000  1
  Pa  Pa2  1  0.222897  0.000000  0.755987  1
  Pa  Pa3  1  0.777103  0.000000  0.244013  1
  Pa  Pa4  1  0.000000  0.222897  0.755987  1
  Pa  Pa5  1  0.000000  0.777103  0.244013  1
  Pa  Pa6  1  0.777103  0.777103  0.755987  1
  Pa  Pa7  1  0.222897  0.222897  0.244013  1
  Nb  Nb8  1  0.333333  0.666667  0.500000  1
  Nb  Nb9  1  0.666667  0.333333  0.500000  1
  Sn  Sn10  1  0.595054  0.000000  0.729997  1
  Sn  Sn11  1  0.404946  0.000000  0.270003  1
  Sn  Sn12  1  0.000000  0.595054  0.729997  1
  Sn  Sn13  1  0.000000  0.404946  0.270003  1
  Sn  Sn14  1  0.404946  0.404946  0.729997  1
  Sn  Sn15  1  0.595054  0.595054  0.270003  1
  C  C16  1  0.000000  0.000000  0.500000  1
  C  C17  1  0.000000  0.000000  0.000000  1
