# generated using pymatgen
data_Co4ReMo5(WC)2
_symmetry_space_group_name_H-M   'P 1'
_cell_length_a   8.02586173
_cell_length_b   7.99777448
_cell_length_c   7.99488257
_cell_angle_alpha   59.62305082
_cell_angle_beta   59.74758792
_cell_angle_gamma   59.76210663
_symmetry_Int_Tables_number   1
_chemical_formula_structural   Co4ReMo5(WC)2
_chemical_formula_sum   'Co8 Re2 Mo10 W4 C4'
_cell_volume   360.49175804
_cell_formula_units_Z   2
loop_
 _symmetry_equiv_pos_site_id
 _symmetry_equiv_pos_as_xyz
  1  'x, y, z'
loop_
 _atom_site_type_symbol
 _atom_site_label
 _atom_site_symmetry_multiplicity
 _atom_site_fract_x
 _atom_site_fract_y
 _atom_site_fract_z
 _atom_site_occupancy
  Co  Co0  1  0.919861  0.240002  0.920418  1
  Co  Co1  1  0.245514  0.919012  0.918425  1
  Co  Co2  1  0.919812  0.920788  0.239367  1
  Co  Co3  1  0.004833  0.331736  0.330559  1
  Co  Co4  1  0.330390  0.009926  0.329011  1
  Co  Co5  1  0.917048  0.917738  0.918685  1
  Co  Co6  1  0.332521  0.331028  0.331198  1
  Co  Co7  1  0.330099  0.329539  0.009602  1
  Re  Re8  1  0.625433  0.124660  0.124492  1
  Re  Re9  1  0.124988  0.124951  0.124456  1
  Mo  Mo10  1  0.564208  0.938180  0.559423  1
  Mo  Mo11  1  0.686252  0.312319  0.690032  1
  Mo  Mo12  1  0.686064  0.690007  0.312655  1
  Mo  Mo13  1  0.312093  0.311951  0.689578  1
  Mo  Mo14  1  0.689038  0.310213  0.311006  1
  Mo  Mo15  1  0.313980  0.686274  0.686254  1
  Mo  Mo16  1  0.935926  0.564043  0.563818  1
  Mo  Mo17  1  0.937930  0.938247  0.559408  1
  Mo  Mo18  1  0.311986  0.689591  0.312645  1
  Mo  Mo19  1  0.564449  0.559919  0.937525  1
  W  W20  1  0.124765  0.124881  0.625035  1
  W  W21  1  0.938838  0.558582  0.938867  1
  W  W22  1  0.125058  0.625420  0.124847  1
  W  W23  1  0.559051  0.941013  0.940677  1
  C  C24  1  0.625075  0.625149  0.625449  1
  C  C25  1  0.124517  0.625061  0.625749  1
  C  C26  1  0.624977  0.124404  0.625949  1
  C  C27  1  0.625296  0.625366  0.124871  1
