# generated using pymatgen
data_CaTb2Dy5(B6Ru)4
_symmetry_space_group_name_H-M   'P 1'
_cell_length_a   3.66847300
_cell_length_b   9.16060199
_cell_length_c   11.54909003
_cell_angle_alpha   89.89055437
_cell_angle_beta   90.00000000
_cell_angle_gamma   90.00000000
_symmetry_Int_Tables_number   1
_chemical_formula_structural   CaTb2Dy5(B6Ru)4
_chemical_formula_sum   'Ca1 Tb2 Dy5 B24 Ru4'
_cell_volume   388.11132538
_cell_formula_units_Z   1
loop_
 _symmetry_equiv_pos_site_id
 _symmetry_equiv_pos_as_xyz
  1  'x, y, z'
loop_
 _atom_site_type_symbol
 _atom_site_label
 _atom_site_symmetry_multiplicity
 _atom_site_fract_x
 _atom_site_fract_y
 _atom_site_fract_z
 _atom_site_occupancy
  Ca  Ca0  1  0.000000  0.323109  0.413844  1
  Tb  Tb1  1  0.000000  0.675268  0.585069  1
  Tb  Tb2  1  0.000000  0.823160  0.086374  1
  Dy  Dy3  1  0.000000  0.177375  0.914555  1
  Dy  Dy4  1  0.000000  0.944093  0.371065  1
  Dy  Dy5  1  0.000000  0.057966  0.628277  1
  Dy  Dy6  1  0.000000  0.442955  0.129649  1
  Dy  Dy7  1  0.000000  0.556046  0.872170  1
  B  B8  1  0.500000  0.554560  0.432374  1
  B  B9  1  0.500000  0.445951  0.567925  1
  B  B10  1  0.500000  0.053541  0.066643  1
  B  B11  1  0.500000  0.945779  0.932179  1
  B  B12  1  0.500000  0.748295  0.419020  1
  B  B13  1  0.500000  0.252450  0.581403  1
  B  B14  1  0.500000  0.247194  0.080282  1
  B  B15  1  0.500000  0.752111  0.919390  1
  B  B16  1  0.500000  0.791254  0.266250  1
  B  B17  1  0.500000  0.209894  0.734183  1
  B  B18  1  0.500000  0.289623  0.232902  1
  B  B19  1  0.500000  0.709519  0.766656  1
  B  B20  1  0.500000  0.632430  0.186066  1
  B  B21  1  0.500000  0.368019  0.815087  1
  B  B22  1  0.500000  0.131211  0.313440  1
  B  B23  1  0.500000  0.868334  0.685460  1
  B  B24  1  0.500000  0.983904  0.211655  1
  B  B25  1  0.500000  0.016084  0.787441  1
  B  B26  1  0.500000  0.484778  0.287563  1
  B  B27  1  0.500000  0.515746  0.712933  1
  B  B28  1  0.500000  0.608763  0.030296  1
  B  B29  1  0.500000  0.391098  0.970350  1
  B  B30  1  0.500000  0.104817  0.470952  1
  B  B31  1  0.500000  0.894102  0.529274  1
  Ru  Ru32  1  0.000000  0.639991  0.320413  1
  Ru  Ru33  1  0.000000  0.361863  0.680733  1
  Ru  Ru34  1  0.000000  0.136613  0.177001  1
  Ru  Ru35  1  0.000000  0.862105  0.821125  1
