# generated using pymatgen
data_Ba3IrRu2O9
_symmetry_space_group_name_H-M   'P 1'
_cell_length_a   5.82886555
_cell_length_b   5.82880104
_cell_length_c   8.05564909
_cell_angle_alpha   90.00061178
_cell_angle_beta   111.21180717
_cell_angle_gamma   60.00039362
_symmetry_Int_Tables_number   1
_chemical_formula_structural   Ba3IrRu2O9
_chemical_formula_sum   'Ba3 Ir1 Ru2 O9'
_cell_volume   215.34940851
_cell_formula_units_Z   1
loop_
 _symmetry_equiv_pos_site_id
 _symmetry_equiv_pos_as_xyz
  1  'x, y, z'
loop_
 _atom_site_type_symbol
 _atom_site_label
 _atom_site_symmetry_multiplicity
 _atom_site_fract_x
 _atom_site_fract_y
 _atom_site_fract_z
 _atom_site_occupancy
  Ba  Ba0  1  0.000000  0.000000  0.000000  1
  Ba  Ba1  1  0.561131  0.219436  0.341696  1
  Ba  Ba2  1  0.438869  0.780564  0.658304  1
  Ir  Ir3  1  0.000000  0.500000  0.500000  1
  Ru  Ru4  1  0.234973  0.382510  0.852423  1
  Ru  Ru5  1  0.765027  0.617490  0.147577  1
  O  O6  1  0.569494  0.715253  0.323937  1
  O  O7  1  0.039224  0.715323  0.323940  1
  O  O8  1  0.039221  0.245455  0.323939  1
  O  O9  1  0.430506  0.284747  0.676063  1
  O  O10  1  0.960776  0.284677  0.676060  1
  O  O11  1  0.960779  0.754545  0.676061  1
  O  O12  1  0.500000  0.500000  0.000000  1
  O  O13  1  0.500000  0.000000  0.000000  1
  O  O14  1  0.000000  0.500000  0.000000  1
