# generated using pymatgen
data_HoEr5Fe8(Co5P6)2
_symmetry_space_group_name_H-M   'P 1'
_cell_length_a   3.69172800
_cell_length_b   10.50492800
_cell_length_c   12.08747200
_cell_angle_alpha   90.00000000
_cell_angle_beta   90.00000000
_cell_angle_gamma   90.00000000
_symmetry_Int_Tables_number   1
_chemical_formula_structural   HoEr5Fe8(Co5P6)2
_chemical_formula_sum   'Ho1 Er5 Fe8 Co10 P12'
_cell_volume   468.76832312
_cell_formula_units_Z   1
loop_
 _symmetry_equiv_pos_site_id
 _symmetry_equiv_pos_as_xyz
  1  'x, y, z'
loop_
 _atom_site_type_symbol
 _atom_site_label
 _atom_site_symmetry_multiplicity
 _atom_site_fract_x
 _atom_site_fract_y
 _atom_site_fract_z
 _atom_site_occupancy
  Ho  Ho0  1  0.500000  0.000000  0.476954  1
  Er  Er1  1  0.000000  0.500000  0.523045  1
  Er  Er2  1  0.500000  0.818913  0.205117  1
  Er  Er3  1  0.500000  0.181087  0.205117  1
  Er  Er4  1  0.000000  0.681072  0.794773  1
  Er  Er5  1  0.000000  0.318928  0.794773  1
  Fe  Fe6  1  0.000000  0.500000  0.987261  1
  Fe  Fe7  1  0.500000  0.000000  0.012758  1
  Fe  Fe8  1  0.500000  0.298530  0.428907  1
  Fe  Fe9  1  0.500000  0.701470  0.428907  1
  Fe  Fe10  1  0.000000  0.201752  0.571165  1
  Fe  Fe11  1  0.000000  0.798248  0.571165  1
  Fe  Fe12  1  0.500000  0.500000  0.155645  1
  Fe  Fe13  1  0.000000  0.000000  0.844383  1
  Co  Co14  1  0.500000  0.880371  0.711733  1
  Co  Co15  1  0.500000  0.119629  0.711733  1
  Co  Co16  1  0.000000  0.619561  0.288351  1
  Co  Co17  1  0.000000  0.380439  0.288351  1
  Co  Co18  1  0.500000  0.331951  0.993971  1
  Co  Co19  1  0.500000  0.668049  0.993971  1
  Co  Co20  1  0.000000  0.168053  0.006044  1
  Co  Co21  1  0.000000  0.831947  0.006044  1
  Co  Co22  1  0.500000  0.500000  0.699630  1
  Co  Co23  1  0.000000  0.000000  0.300078  1
  P  P24  1  0.500000  0.308038  0.614780  1
  P  P25  1  0.500000  0.691962  0.614780  1
  P  P26  1  0.000000  0.192165  0.385159  1
  P  P27  1  0.000000  0.807835  0.385159  1
  P  P28  1  0.500000  0.500000  0.882822  1
  P  P29  1  0.000000  0.000000  0.117136  1
  P  P30  1  0.500000  0.847950  0.893704  1
  P  P31  1  0.500000  0.152050  0.893704  1
  P  P32  1  0.000000  0.652058  0.106310  1
  P  P33  1  0.000000  0.347942  0.106310  1
  P  P34  1  0.500000  0.500000  0.343140  1
  P  P35  1  0.000000  0.000000  0.657122  1
