# generated using pymatgen
data_Ac20Si15Cl
_symmetry_space_group_name_H-M   'P 1'
_cell_length_a   8.37249472
_cell_length_b   8.35658925
_cell_length_c   16.21388123
_cell_angle_alpha   88.83054635
_cell_angle_beta   85.07673677
_cell_angle_gamma   90.02316943
_symmetry_Int_Tables_number   1
_chemical_formula_structural   Ac20Si15Cl
_chemical_formula_sum   'Ac20 Si15 Cl1'
_cell_volume   1129.98885597
_cell_formula_units_Z   1
loop_
 _symmetry_equiv_pos_site_id
 _symmetry_equiv_pos_as_xyz
  1  'x, y, z'
loop_
 _atom_site_type_symbol
 _atom_site_label
 _atom_site_symmetry_multiplicity
 _atom_site_fract_x
 _atom_site_fract_y
 _atom_site_fract_z
 _atom_site_occupancy
  Ac  Ac0  1  0.160694  0.516125  0.747823  1
  Ac  Ac1  1  0.852963  0.352624  0.615037  1
  Ac  Ac2  1  0.459844  0.692607  0.895843  1
  Ac  Ac3  1  0.960253  0.814975  0.896658  1
  Ac  Ac4  1  0.189090  0.674033  0.119182  1
  Ac  Ac5  1  0.687418  0.816564  0.119018  1
  Ac  Ac6  1  0.313964  0.182405  0.881813  1
  Ac  Ac7  1  0.147592  0.658056  0.384632  1
  Ac  Ac8  1  0.039635  0.181811  0.105050  1
  Ac  Ac9  1  0.358202  0.173574  0.615530  1
  Ac  Ac10  1  0.837579  0.483049  0.237465  1
  Ac  Ac11  1  0.339165  0.999658  0.253090  1
  Ac  Ac12  1  0.490583  0.303698  0.396869  1
  Ac  Ac13  1  0.813946  0.324226  0.881918  1
  Ac  Ac14  1  0.010062  0.845471  0.606605  1
  Ac  Ac15  1  0.483473  0.702365  0.612934  1
  Ac  Ac16  1  0.000082  0.158481  0.394294  1
  Ac  Ac17  1  0.640566  0.828108  0.388154  1
  Ac  Ac18  1  0.665162  0.003571  0.747065  1
  Ac  Ac19  1  0.536124  0.308739  0.103066  1
  Si  Si20  1  0.456682  0.594127  0.253945  1
  Si  Si21  1  0.233365  0.372211  0.249770  1
  Si  Si22  1  0.546955  0.409008  0.752180  1
  Si  Si23  1  0.625357  0.022669  0.957605  1
  Si  Si24  1  0.040976  0.116738  0.751497  1
  Si  Si25  1  0.763740  0.625638  0.752395  1
  Si  Si26  1  0.729217  0.108187  0.251630  1
  Si  Si27  1  0.295605  0.965385  0.454619  1
  Si  Si28  1  0.953603  0.889056  0.252818  1
  Si  Si29  1  0.375850  0.976130  0.043593  1
  Si  Si30  1  0.714219  0.039318  0.542814  1
  Si  Si31  1  0.126836  0.478274  0.957716  1
  Si  Si32  1  0.205585  0.480346  0.548690  1
  Si  Si33  1  0.876576  0.520820  0.042806  1
  Si  Si34  1  0.266972  0.888689  0.755023  1
  Cl  Cl35  1  0.802065  0.493263  0.430853  1
