# generated using pymatgen
data_TbNp3Ga12Cu
_symmetry_space_group_name_H-M   'P 1'
_cell_length_a   7.46328316
_cell_length_b   7.49716250
_cell_length_c   7.46328439
_cell_angle_alpha   109.56320277
_cell_angle_beta   109.37907957
_cell_angle_gamma   109.56320115
_symmetry_Int_Tables_number   1
_chemical_formula_structural   TbNp3Ga12Cu
_chemical_formula_sum   'Tb1 Np3 Ga12 Cu1'
_cell_volume   321.10029339
_cell_formula_units_Z   1
loop_
 _symmetry_equiv_pos_site_id
 _symmetry_equiv_pos_as_xyz
  1  'x, y, z'
loop_
 _atom_site_type_symbol
 _atom_site_label
 _atom_site_symmetry_multiplicity
 _atom_site_fract_x
 _atom_site_fract_y
 _atom_site_fract_z
 _atom_site_occupancy
  Tb  Tb0  1  0.000000  0.500000  0.000000  1
  Np  Np1  1  0.500000  0.000000  0.000000  1
  Np  Np2  1  0.000000  0.000000  0.500000  1
  Np  Np3  1  0.500000  0.500000  0.500000  1
  Ga  Ga4  1  0.292639  0.002464  0.292639  1
  Ga  Ga5  1  0.498535  0.249267  0.749267  1
  Ga  Ga6  1  0.000000  0.709826  0.707361  1
  Ga  Ga7  1  0.707361  0.997536  0.707361  1
  Ga  Ga8  1  0.749267  0.500000  0.250733  1
  Ga  Ga9  1  0.250733  0.750733  0.501465  1
  Ga  Ga10  1  0.749267  0.249267  0.498535  1
  Ga  Ga11  1  0.707361  0.709826  0.000000  1
  Ga  Ga12  1  0.250733  0.500000  0.749267  1
  Ga  Ga13  1  0.501465  0.750733  0.250733  1
  Ga  Ga14  1  0.292639  0.290174  0.000000  1
  Ga  Ga15  1  0.000000  0.290174  0.292639  1
  Cu  Cu16  1  0.000000  0.000000  0.000000  1
