# generated using pymatgen
data_LiY6Mn(Co4P3)4
_symmetry_space_group_name_H-M   'P 1'
_cell_length_a   3.71382900
_cell_length_b   10.56632900
_cell_length_c   12.21854200
_cell_angle_alpha   90.00000000
_cell_angle_beta   90.00000000
_cell_angle_gamma   90.00000000
_symmetry_Int_Tables_number   1
_chemical_formula_structural   LiY6Mn(Co4P3)4
_chemical_formula_sum   'Li1 Y6 Mn1 Co16 P12'
_cell_volume   479.47439319
_cell_formula_units_Z   1
loop_
 _symmetry_equiv_pos_site_id
 _symmetry_equiv_pos_as_xyz
  1  'x, y, z'
loop_
 _atom_site_type_symbol
 _atom_site_label
 _atom_site_symmetry_multiplicity
 _atom_site_fract_x
 _atom_site_fract_y
 _atom_site_fract_z
 _atom_site_occupancy
  Li  Li0  1  0.500000  0.500000  0.152192  1
  Y  Y1  1  0.000000  0.500000  0.522363  1
  Y  Y2  1  0.500000  0.000000  0.477466  1
  Y  Y3  1  0.500000  0.818723  0.205530  1
  Y  Y4  1  0.500000  0.181277  0.205530  1
  Y  Y5  1  0.000000  0.681528  0.794247  1
  Y  Y6  1  0.000000  0.318472  0.794247  1
  Mn  Mn7  1  0.000000  0.000000  0.839671  1
  Co  Co8  1  0.500000  0.500000  0.704316  1
  Co  Co9  1  0.000000  0.000000  0.297303  1
  Co  Co10  1  0.000000  0.500000  0.986285  1
  Co  Co11  1  0.500000  0.000000  0.013087  1
  Co  Co12  1  0.500000  0.331105  0.994810  1
  Co  Co13  1  0.500000  0.668895  0.994810  1
  Co  Co14  1  0.000000  0.164940  0.003757  1
  Co  Co15  1  0.000000  0.835060  0.003757  1
  Co  Co16  1  0.500000  0.295807  0.432194  1
  Co  Co17  1  0.500000  0.704193  0.432194  1
  Co  Co18  1  0.000000  0.202598  0.570843  1
  Co  Co19  1  0.000000  0.797402  0.570843  1
  Co  Co20  1  0.500000  0.880076  0.709438  1
  Co  Co21  1  0.500000  0.119924  0.709438  1
  Co  Co22  1  0.000000  0.622037  0.293259  1
  Co  Co23  1  0.000000  0.377963  0.293259  1
  P  P24  1  0.500000  0.500000  0.884811  1
  P  P25  1  0.000000  0.000000  0.117032  1
  P  P26  1  0.500000  0.500000  0.344787  1
  P  P27  1  0.000000  0.000000  0.653916  1
  P  P28  1  0.500000  0.310203  0.616440  1
  P  P29  1  0.500000  0.689797  0.616440  1
  P  P30  1  0.000000  0.190083  0.384909  1
  P  P31  1  0.000000  0.809917  0.384909  1
  P  P32  1  0.500000  0.847358  0.892614  1
  P  P33  1  0.500000  0.152642  0.892614  1
  P  P34  1  0.000000  0.656709  0.105346  1
  P  P35  1  0.000000  0.343291  0.105346  1
