# generated using pymatgen
data_SmGa3NiAu
_symmetry_space_group_name_H-M   'P 1'
_cell_length_a   4.09018473
_cell_length_b   6.57355300
_cell_length_c   8.14571583
_cell_angle_alpha   90.00000000
_cell_angle_beta   104.54046384
_cell_angle_gamma   90.00000000
_symmetry_Int_Tables_number   1
_chemical_formula_structural   SmGa3NiAu
_chemical_formula_sum   'Sm2 Ga6 Ni2 Au2'
_cell_volume   211.99933657
_cell_formula_units_Z   2
loop_
 _symmetry_equiv_pos_site_id
 _symmetry_equiv_pos_as_xyz
  1  'x, y, z'
loop_
 _atom_site_type_symbol
 _atom_site_label
 _atom_site_symmetry_multiplicity
 _atom_site_fract_x
 _atom_site_fract_y
 _atom_site_fract_z
 _atom_site_occupancy
  Sm  Sm0  1  0.877675  0.750000  0.755348  1
  Sm  Sm1  1  0.122325  0.250000  0.244652  1
  Ga  Ga2  1  0.071765  0.750000  0.143530  1
  Ga  Ga3  1  0.928235  0.250000  0.856470  1
  Ga  Ga4  1  0.686411  0.551040  0.372822  1
  Ga  Ga5  1  0.313589  0.448960  0.627178  1
  Ga  Ga6  1  0.686411  0.948960  0.372822  1
  Ga  Ga7  1  0.313589  0.051040  0.627178  1
  Ni  Ni8  1  0.224266  0.750000  0.448533  1
  Ni  Ni9  1  0.775734  0.250000  0.551467  1
  Au  Au10  1  0.500000  0.500000  0.000000  1
  Au  Au11  1  0.500000  0.000000  0.000000  1
