# generated using pymatgen
data_Pr3Nd9(ThPt3)2
_symmetry_space_group_name_H-M   'P 1'
_cell_length_a   6.49996300
_cell_length_b   10.21569144
_cell_length_c   10.21569261
_cell_angle_alpha   120.05223651
_cell_angle_beta   90.00043906
_cell_angle_gamma   89.99956404
_symmetry_Int_Tables_number   1
_chemical_formula_structural   Pr3Nd9(ThPt3)2
_chemical_formula_sum   'Pr3 Nd9 Th2 Pt6'
_cell_volume   587.14891046
_cell_formula_units_Z   1
loop_
 _symmetry_equiv_pos_site_id
 _symmetry_equiv_pos_as_xyz
  1  'x, y, z'
loop_
 _atom_site_type_symbol
 _atom_site_label
 _atom_site_symmetry_multiplicity
 _atom_site_fract_x
 _atom_site_fract_y
 _atom_site_fract_z
 _atom_site_occupancy
  Pr  Pr0  1  0.247554  0.127697  0.872303  1
  Pr  Pr1  1  0.247818  0.744407  0.872175  1
  Pr  Pr2  1  0.247818  0.127825  0.255593  1
  Nd  Nd3  1  0.747915  0.872362  0.127638  1
  Nd  Nd4  1  0.748202  0.255464  0.127761  1
  Nd  Nd5  1  0.748202  0.872239  0.744536  1
  Nd  Nd6  1  0.446034  0.538134  0.461866  1
  Nd  Nd7  1  0.446408  0.923932  0.461888  1
  Nd  Nd8  1  0.446408  0.538112  0.076068  1
  Nd  Nd9  1  0.945657  0.461999  0.538001  1
  Nd  Nd10  1  0.946054  0.075816  0.537986  1
  Nd  Nd11  1  0.946054  0.462014  0.924184  1
  Th  Th12  1  0.463873  0.333255  0.666745  1
  Th  Th13  1  0.963670  0.666740  0.333260  1
  Pt  Pt14  1  0.181839  0.808335  0.191665  1
  Pt  Pt15  1  0.181954  0.383457  0.191639  1
  Pt  Pt16  1  0.181954  0.808361  0.616543  1
  Pt  Pt17  1  0.682782  0.191360  0.808640  1
  Pt  Pt18  1  0.682902  0.617158  0.808668  1
  Pt  Pt19  1  0.682902  0.191332  0.382842  1
