# generated using pymatgen
data_Ho2Co10Re2P7
_symmetry_space_group_name_H-M   'P 1'
_cell_length_a   8.94929393
_cell_length_b   9.02180901
_cell_length_c   3.67736100
_cell_angle_alpha   90.00000000
_cell_angle_beta   90.00000000
_cell_angle_gamma   119.60495476
_symmetry_Int_Tables_number   1
_chemical_formula_structural   Ho2Co10Re2P7
_chemical_formula_sum   'Ho2 Co10 Re2 P7'
_cell_volume   258.14539593
_cell_formula_units_Z   1
loop_
 _symmetry_equiv_pos_site_id
 _symmetry_equiv_pos_as_xyz
  1  'x, y, z'
loop_
 _atom_site_type_symbol
 _atom_site_label
 _atom_site_symmetry_multiplicity
 _atom_site_fract_x
 _atom_site_fract_y
 _atom_site_fract_z
 _atom_site_occupancy
  Ho  Ho0  1  0.337173  0.668180  0.000000  1
  Ho  Ho1  1  0.668201  0.334588  0.500000  1
  Co  Co2  1  0.433663  0.062110  0.000000  1
  Co  Co3  1  0.158720  0.281586  0.000000  1
  Co  Co4  1  0.939791  0.373060  0.000000  1
  Co  Co5  1  0.625619  0.564723  0.000000  1
  Co  Co6  1  0.119847  0.841610  0.000000  1
  Co  Co7  1  0.723726  0.878848  0.000000  1
  Co  Co8  1  0.383329  0.437361  0.500000  1
  Co  Co9  1  0.050605  0.616729  0.500000  1
  Co  Co10  1  0.866314  0.763233  0.500000  1
  Co  Co11  1  0.563938  0.945732  0.500000  1
  Re  Re12  1  0.215753  0.100011  0.500000  1
  Re  Re13  1  0.908066  0.127615  0.500000  1
  P  P14  1  0.999661  0.997088  0.000000  1
  P  P15  1  0.701616  0.111545  0.000000  1
  P  P16  1  0.412818  0.300057  0.000000  1
  P  P17  1  0.886816  0.591749  0.000000  1
  P  P18  1  0.117630  0.413481  0.500000  1
  P  P19  1  0.596243  0.707547  0.500000  1
  P  P20  1  0.290479  0.883137  0.500000  1
