# generated using pymatgen
data_Tb2Sm2AsBr6
_symmetry_space_group_name_H-M   'P 1'
_cell_length_a   4.11372100
_cell_length_b   13.46647600
_cell_length_c   14.16131100
_cell_angle_alpha   90.00000000
_cell_angle_beta   90.00000000
_cell_angle_gamma   90.00000000
_symmetry_Int_Tables_number   1
_chemical_formula_structural   Tb2Sm2AsBr6
_chemical_formula_sum   'Tb4 Sm4 As2 Br12'
_cell_volume   784.49874955
_cell_formula_units_Z   2
loop_
 _symmetry_equiv_pos_site_id
 _symmetry_equiv_pos_as_xyz
  1  'x, y, z'
loop_
 _atom_site_type_symbol
 _atom_site_label
 _atom_site_symmetry_multiplicity
 _atom_site_fract_x
 _atom_site_fract_y
 _atom_site_fract_z
 _atom_site_occupancy
  Tb  Tb0  1  0.500000  0.118544  0.341141  1
  Tb  Tb1  1  0.500000  0.881456  0.658859  1
  Tb  Tb2  1  0.500000  0.618544  0.158859  1
  Tb  Tb3  1  0.500000  0.381456  0.841141  1
  Sm  Sm4  1  0.000000  0.119244  0.579430  1
  Sm  Sm5  1  0.000000  0.880756  0.420570  1
  Sm  Sm6  1  0.000000  0.619244  0.920570  1
  Sm  Sm7  1  0.000000  0.380756  0.079430  1
  As  As8  1  0.500000  0.000000  0.500000  1
  As  As9  1  0.500000  0.500000  0.000000  1
  Br  Br10  1  0.500000  0.240043  0.165950  1
  Br  Br11  1  0.500000  0.759957  0.834050  1
  Br  Br12  1  0.500000  0.740043  0.334050  1
  Br  Br13  1  0.500000  0.259957  0.665950  1
  Br  Br14  1  0.000000  0.253467  0.409142  1
  Br  Br15  1  0.000000  0.746533  0.590858  1
  Br  Br16  1  0.000000  0.753467  0.090858  1
  Br  Br17  1  0.000000  0.246533  0.909142  1
  Br  Br18  1  0.000000  0.004665  0.243852  1
  Br  Br19  1  0.000000  0.995335  0.756148  1
  Br  Br20  1  0.000000  0.504665  0.256148  1
  Br  Br21  1  0.000000  0.495335  0.743852  1
