# generated using pymatgen
data_Na3Li2ErPt6
_symmetry_space_group_name_H-M   'P 1'
_cell_length_a   5.44023200
_cell_length_b   5.44023190
_cell_length_c   8.30669900
_cell_angle_alpha   90.00000000
_cell_angle_beta   90.00000000
_cell_angle_gamma   120.00000060
_symmetry_Int_Tables_number   1
_chemical_formula_structural   Na3Li2ErPt6
_chemical_formula_sum   'Na3 Li2 Er1 Pt6'
_cell_volume   212.90895887
_cell_formula_units_Z   1
loop_
 _symmetry_equiv_pos_site_id
 _symmetry_equiv_pos_as_xyz
  1  'x, y, z'
loop_
 _atom_site_type_symbol
 _atom_site_label
 _atom_site_symmetry_multiplicity
 _atom_site_fract_x
 _atom_site_fract_y
 _atom_site_fract_z
 _atom_site_occupancy
  Na  Na0  1  0.333333  0.666666  0.447260  1
  Na  Na1  1  0.666667  0.333333  0.570712  1
  Na  Na2  1  0.666667  0.333333  0.920753  1
  Li  Li3  1  0.000000  0.000000  0.997577  1
  Li  Li4  1  0.000000  0.000000  0.499631  1
  Er  Er5  1  0.333333  0.666666  0.065425  1
  Pt  Pt6  1  0.335851  0.167925  0.238804  1
  Pt  Pt7  1  0.832073  0.167925  0.238804  1
  Pt  Pt8  1  0.832076  0.664150  0.238804  1
  Pt  Pt9  1  0.167432  0.334864  0.760743  1
  Pt  Pt10  1  0.167431  0.832569  0.760743  1
  Pt  Pt11  1  0.665136  0.832569  0.760743  1
