# generated using pymatgen
data_Dy7Y6Ho3(CdPt)4
_symmetry_space_group_name_H-M   'P 1'
_cell_length_a   9.68262788
_cell_length_b   9.68344453
_cell_length_c   9.67927821
_cell_angle_alpha   60.00865902
_cell_angle_beta   59.98751843
_cell_angle_gamma   59.97431555
_symmetry_Int_Tables_number   1
_chemical_formula_structural   Dy7Y6Ho3(CdPt)4
_chemical_formula_sum   'Dy7 Y6 Ho3 Cd4 Pt4'
_cell_volume   641.58491170
_cell_formula_units_Z   1
loop_
 _symmetry_equiv_pos_site_id
 _symmetry_equiv_pos_as_xyz
  1  'x, y, z'
loop_
 _atom_site_type_symbol
 _atom_site_label
 _atom_site_symmetry_multiplicity
 _atom_site_fract_x
 _atom_site_fract_y
 _atom_site_fract_z
 _atom_site_occupancy
  Dy  Dy0  1  0.352209  0.351405  0.352487  1
  Dy  Dy1  1  0.353258  0.352183  0.942172  1
  Dy  Dy2  1  0.352487  0.943900  0.352209  1
  Dy  Dy3  1  0.942172  0.352388  0.353258  1
  Dy  Dy4  1  0.810856  0.189551  0.189055  1
  Dy  Dy5  1  0.189055  0.810538  0.810856  1
  Dy  Dy6  1  0.189696  0.810304  0.189696  1
  Y  Y7  1  0.935984  0.564106  0.564010  1
  Y  Y8  1  0.564010  0.935900  0.935984  1
  Y  Y9  1  0.564336  0.935664  0.564336  1
  Y  Y10  1  0.936232  0.563768  0.936232  1
  Y  Y11  1  0.564036  0.564101  0.936002  1
  Y  Y12  1  0.936002  0.935861  0.564036  1
  Ho  Ho13  1  0.810976  0.189024  0.810976  1
  Ho  Ho14  1  0.189233  0.189719  0.810664  1
  Ho  Ho15  1  0.810664  0.810384  0.189233  1
  Cd  Cd16  1  0.581681  0.581941  0.581531  1
  Cd  Cd17  1  0.581635  0.582005  0.254489  1
  Cd  Cd18  1  0.581531  0.254846  0.581681  1
  Cd  Cd19  1  0.254489  0.581870  0.581635  1
  Pt  Pt20  1  0.143394  0.144100  0.142936  1
  Pt  Pt21  1  0.142510  0.143666  0.570619  1
  Pt  Pt22  1  0.142936  0.569570  0.143394  1
  Pt  Pt23  1  0.570619  0.143206  0.142510  1
