# generated using pymatgen
data_Co7NiRhS8
_symmetry_space_group_name_H-M   'P 1'
_cell_length_a   7.02568380
_cell_length_b   7.01136519
_cell_length_c   7.01136500
_cell_angle_alpha   60.00000563
_cell_angle_beta   60.06740047
_cell_angle_gamma   60.06740113
_symmetry_Int_Tables_number   1
_chemical_formula_structural   Co7NiRhS8
_chemical_formula_sum   'Co7 Ni1 Rh1 S8'
_cell_volume   244.46713211
_cell_formula_units_Z   1
loop_
 _symmetry_equiv_pos_site_id
 _symmetry_equiv_pos_as_xyz
  1  'x, y, z'
loop_
 _atom_site_type_symbol
 _atom_site_label
 _atom_site_symmetry_multiplicity
 _atom_site_fract_x
 _atom_site_fract_y
 _atom_site_fract_z
 _atom_site_occupancy
  Co  Co0  1  0.126223  0.621352  0.126212  1
  Co  Co1  1  0.126223  0.126212  0.621352  1
  Co  Co2  1  0.126223  0.126212  0.126212  1
  Co  Co3  1  0.378596  0.873801  0.873801  1
  Co  Co4  1  0.873194  0.379017  0.873895  1
  Co  Co5  1  0.873194  0.873895  0.379017  1
  Co  Co6  1  0.873194  0.873895  0.873895  1
  Ni  Ni7  1  0.618769  0.127077  0.127077  1
  Rh  Rh8  1  0.500649  0.499784  0.499784  1
  S  S9  1  0.243691  0.252103  0.252103  1
  S  S10  1  0.748534  0.750489  0.750489  1
  S  S11  1  0.748144  0.256419  0.256419  1
  S  S12  1  0.748144  0.256419  0.739018  1
  S  S13  1  0.748144  0.739018  0.256419  1
  S  S14  1  0.255693  0.744230  0.744230  1
  S  S15  1  0.255693  0.744230  0.255848  1
  S  S16  1  0.255693  0.255848  0.744230  1
