# generated using pymatgen
data_Sm5Ho(CBr3)2
_symmetry_space_group_name_H-M   'P 1'
_cell_length_a   3.80375900
_cell_length_b   8.48181945
_cell_length_c   11.63188400
_cell_angle_alpha   92.23935474
_cell_angle_beta   90.00000000
_cell_angle_gamma   90.00000000
_symmetry_Int_Tables_number   1
_chemical_formula_structural   Sm5Ho(CBr3)2
_chemical_formula_sum   'Sm5 Ho1 C2 Br6'
_cell_volume   374.99051901
_cell_formula_units_Z   1
loop_
 _symmetry_equiv_pos_site_id
 _symmetry_equiv_pos_as_xyz
  1  'x, y, z'
loop_
 _atom_site_type_symbol
 _atom_site_label
 _atom_site_symmetry_multiplicity
 _atom_site_fract_x
 _atom_site_fract_y
 _atom_site_fract_z
 _atom_site_occupancy
  Sm  Sm0  1  0.250000  0.909779  0.605324  1
  Sm  Sm1  1  0.750000  0.089480  0.394287  1
  Sm  Sm2  1  0.250000  0.882942  0.172660  1
  Sm  Sm3  1  0.750000  0.116044  0.828526  1
  Sm  Sm4  1  0.250000  0.310388  0.617575  1
  Ho  Ho5  1  0.750000  0.695539  0.381281  1
  C  C6  1  0.250000  0.872300  0.382191  1
  C  C7  1  0.750000  0.120362  0.618640  1
  Br  Br8  1  0.250000  0.859327  0.874076  1
  Br  Br9  1  0.750000  0.139345  0.126165  1
  Br  Br10  1  0.250000  0.374816  0.867601  1
  Br  Br11  1  0.750000  0.622854  0.138552  1
  Br  Br12  1  0.250000  0.388775  0.369202  1
  Br  Br13  1  0.750000  0.618049  0.623921  1
