# generated using pymatgen
data_Cs4NpScSe6
_symmetry_space_group_name_H-M   'P 1'
_cell_length_a   8.33811634
_cell_length_b   8.33811589
_cell_length_c   7.33379800
_cell_angle_alpha   90.00000000
_cell_angle_beta   90.00000000
_cell_angle_gamma   109.04609147
_symmetry_Int_Tables_number   1
_chemical_formula_structural   Cs4NpScSe6
_chemical_formula_sum   'Cs4 Np1 Sc1 Se6'
_cell_volume   481.96381459
_cell_formula_units_Z   1
loop_
 _symmetry_equiv_pos_site_id
 _symmetry_equiv_pos_as_xyz
  1  'x, y, z'
loop_
 _atom_site_type_symbol
 _atom_site_label
 _atom_site_symmetry_multiplicity
 _atom_site_fract_x
 _atom_site_fract_y
 _atom_site_fract_z
 _atom_site_occupancy
  Cs  Cs0  1  0.501996  0.812844  0.250000  1
  Cs  Cs1  1  0.494948  0.185265  0.750000  1
  Cs  Cs2  1  0.185265  0.494948  0.750000  1
  Cs  Cs3  1  0.812844  0.501996  0.250000  1
  Np  Np4  1  0.925159  0.925159  0.750000  1
  Sc  Sc5  1  0.087528  0.087528  0.250000  1
  Se  Se6  1  0.652270  0.652270  0.750000  1
  Se  Se7  1  0.345128  0.345128  0.250000  1
  Se  Se8  1  0.863208  0.134222  0.496636  1
  Se  Se9  1  0.863208  0.134222  0.003364  1
  Se  Se10  1  0.134222  0.863208  0.496636  1
  Se  Se11  1  0.134222  0.863208  0.003364  1
