# generated using pymatgen
data_Lu4FeTc3Ru4
_symmetry_space_group_name_H-M   'P 1'
_cell_length_a   5.25766365
_cell_length_b   5.17505706
_cell_length_c   8.88959000
_cell_angle_alpha   90.00000000
_cell_angle_beta   90.00000000
_cell_angle_gamma   120.34034278
_symmetry_Int_Tables_number   1
_chemical_formula_structural   Lu4FeTc3Ru4
_chemical_formula_sum   'Lu4 Fe1 Tc3 Ru4'
_cell_volume   208.74719282
_cell_formula_units_Z   1
loop_
 _symmetry_equiv_pos_site_id
 _symmetry_equiv_pos_as_xyz
  1  'x, y, z'
loop_
 _atom_site_type_symbol
 _atom_site_label
 _atom_site_symmetry_multiplicity
 _atom_site_fract_x
 _atom_site_fract_y
 _atom_site_fract_z
 _atom_site_occupancy
  Lu  Lu0  1  0.334967  0.666952  0.434043  1
  Lu  Lu1  1  0.671243  0.337043  0.563242  1
  Lu  Lu2  1  0.671243  0.337043  0.936758  1
  Lu  Lu3  1  0.334967  0.666952  0.065957  1
  Fe  Fe4  1  0.821791  0.660152  0.250000  1
  Tc  Tc5  1  0.161724  0.333258  0.750000  1
  Tc  Tc6  1  0.165136  0.825199  0.750000  1
  Tc  Tc7  1  0.336870  0.168926  0.250000  1
  Ru  Ru8  1  0.649149  0.825079  0.750000  1
  Ru  Ru9  1  0.018242  0.004741  0.004362  1
  Ru  Ru10  1  0.816426  0.169915  0.250000  1
  Ru  Ru11  1  0.018242  0.004741  0.495638  1
