# generated using pymatgen
data_PrSm7(Si3Pt)4
_symmetry_space_group_name_H-M   'P 1'
_cell_length_a   8.20581300
_cell_length_b   8.20581367
_cell_length_c   8.46587900
_cell_angle_alpha   90.00000000
_cell_angle_beta   90.00000000
_cell_angle_gamma   120.00000134
_symmetry_Int_Tables_number   1
_chemical_formula_structural   PrSm7(Si3Pt)4
_chemical_formula_sum   'Pr1 Sm7 Si12 Pt4'
_cell_volume   493.68047315
_cell_formula_units_Z   1
loop_
 _symmetry_equiv_pos_site_id
 _symmetry_equiv_pos_as_xyz
  1  'x, y, z'
loop_
 _atom_site_type_symbol
 _atom_site_label
 _atom_site_symmetry_multiplicity
 _atom_site_fract_x
 _atom_site_fract_y
 _atom_site_fract_z
 _atom_site_occupancy
  Pr  Pr0  1  0.000000  0.000000  0.250000  1
  Sm  Sm1  1  0.499581  0.500419  0.750000  1
  Sm  Sm2  1  0.500418  0.499582  0.250000  1
  Sm  Sm3  1  0.000839  0.500419  0.750000  1
  Sm  Sm4  1  0.999163  0.499582  0.250000  1
  Sm  Sm5  1  0.499581  0.999161  0.750000  1
  Sm  Sm6  1  0.500418  0.000837  0.250000  1
  Sm  Sm7  1  0.000000  0.000000  0.750000  1
  Si  Si8  1  0.833939  0.166061  0.998320  1
  Si  Si9  1  0.166057  0.833943  0.998205  1
  Si  Si10  1  0.332123  0.166061  0.998320  1
  Si  Si11  1  0.166057  0.833943  0.501795  1
  Si  Si12  1  0.667885  0.833943  0.998205  1
  Si  Si13  1  0.833939  0.166061  0.501680  1
  Si  Si14  1  0.833939  0.667877  0.998320  1
  Si  Si15  1  0.667885  0.833943  0.501795  1
  Si  Si16  1  0.166057  0.332115  0.998205  1
  Si  Si17  1  0.332123  0.166061  0.501680  1
  Si  Si18  1  0.166057  0.332115  0.501795  1
  Si  Si19  1  0.833939  0.667877  0.501680  1
  Pt  Pt20  1  0.666667  0.333333  0.998896  1
  Pt  Pt21  1  0.333333  0.666667  0.001285  1
  Pt  Pt22  1  0.333333  0.666667  0.498715  1
  Pt  Pt23  1  0.666667  0.333333  0.501104  1
