# generated using pymatgen
data_Tb3Ho2Pd15
_symmetry_space_group_name_H-M   'P 1'
_cell_length_a   4.12630300
_cell_length_b   4.12526700
_cell_length_c   20.85570900
_cell_angle_alpha   90.00000000
_cell_angle_beta   90.00000000
_cell_angle_gamma   90.00000000
_symmetry_Int_Tables_number   1
_chemical_formula_structural   Tb3Ho2Pd15
_chemical_formula_sum   'Tb3 Ho2 Pd15'
_cell_volume   355.00799749
_cell_formula_units_Z   1
loop_
 _symmetry_equiv_pos_site_id
 _symmetry_equiv_pos_as_xyz
  1  'x, y, z'
loop_
 _atom_site_type_symbol
 _atom_site_label
 _atom_site_symmetry_multiplicity
 _atom_site_fract_x
 _atom_site_fract_y
 _atom_site_fract_z
 _atom_site_occupancy
  Tb  Tb0  1  0.000000  0.000000  0.199665  1
  Tb  Tb1  1  0.000000  0.000000  0.399762  1
  Tb  Tb2  1  0.000000  0.000000  0.000053  1
  Ho  Ho3  1  0.000000  0.000000  0.600110  1
  Ho  Ho4  1  0.000000  0.000000  0.800398  1
  Pd  Pd5  1  0.500000  0.500000  0.000116  1
  Pd  Pd6  1  0.500000  0.500000  0.199342  1
  Pd  Pd7  1  0.500000  0.500000  0.399706  1
  Pd  Pd8  1  0.500000  0.500000  0.600212  1
  Pd  Pd9  1  0.500000  0.500000  0.800636  1
  Pd  Pd10  1  0.500000  0.000000  0.099747  1
  Pd  Pd11  1  0.500000  0.000000  0.299514  1
  Pd  Pd12  1  0.500000  0.000000  0.500172  1
  Pd  Pd13  1  0.500000  0.000000  0.700392  1
  Pd  Pd14  1  0.500000  0.000000  0.900175  1
  Pd  Pd15  1  0.000000  0.500000  0.099751  1
  Pd  Pd16  1  0.000000  0.500000  0.299515  1
  Pd  Pd17  1  0.000000  0.500000  0.500172  1
  Pd  Pd18  1  0.000000  0.500000  0.700392  1
  Pd  Pd19  1  0.000000  0.500000  0.900170  1
