# generated using pymatgen
data_La8Sc12Si15Se
_symmetry_space_group_name_H-M   'P 1'
_cell_length_a   7.33856480
_cell_length_b   7.65378696
_cell_length_c   14.22925300
_cell_angle_alpha   90.00000000
_cell_angle_beta   90.00000000
_cell_angle_gamma   90.74613452
_symmetry_Int_Tables_number   1
_chemical_formula_structural   La8Sc12Si15Se
_chemical_formula_sum   'La8 Sc12 Si15 Se1'
_cell_volume   799.15823370
_cell_formula_units_Z   1
loop_
 _symmetry_equiv_pos_site_id
 _symmetry_equiv_pos_as_xyz
  1  'x, y, z'
loop_
 _atom_site_type_symbol
 _atom_site_label
 _atom_site_symmetry_multiplicity
 _atom_site_fract_x
 _atom_site_fract_y
 _atom_site_fract_z
 _atom_site_occupancy
  La  La0  1  0.012223  0.173151  0.402188  1
  La  La1  1  0.511393  0.327759  0.401585  1
  La  La2  1  0.496449  0.662692  0.906988  1
  La  La3  1  0.496449  0.662692  0.593012  1
  La  La4  1  0.990686  0.831115  0.599777  1
  La  La5  1  0.990686  0.831115  0.900223  1
  La  La6  1  0.511393  0.327759  0.098415  1
  La  La7  1  0.012223  0.173151  0.097812  1
  Sc  Sc8  1  0.325133  0.174206  0.627614  1
  Sc  Sc9  1  0.671116  0.826662  0.373971  1
  Sc  Sc10  1  0.664688  0.003288  0.750000  1
  Sc  Sc11  1  0.170826  0.675333  0.374945  1
  Sc  Sc12  1  0.824344  0.329350  0.876522  1
  Sc  Sc13  1  0.824344  0.329350  0.623478  1
  Sc  Sc14  1  0.841455  0.505644  0.250000  1
  Sc  Sc15  1  0.342138  0.993427  0.250000  1
  Sc  Sc16  1  0.325133  0.174206  0.872386  1
  Sc  Sc17  1  0.170826  0.675333  0.125055  1
  Sc  Sc18  1  0.671116  0.826662  0.126029  1
  Sc  Sc19  1  0.155599  0.487746  0.750000  1
  Si  Si20  1  0.466063  0.628371  0.250000  1
  Si  Si21  1  0.012396  0.149239  0.750000  1
  Si  Si22  1  0.529527  0.369962  0.750000  1
  Si  Si23  1  0.150444  0.465249  0.542347  1
  Si  Si24  1  0.969812  0.871826  0.250000  1
  Si  Si25  1  0.708852  0.115172  0.250000  1
  Si  Si26  1  0.849141  0.538888  0.040939  1
  Si  Si27  1  0.349109  0.963466  0.037665  1
  Si  Si28  1  0.150444  0.465249  0.957653  1
  Si  Si29  1  0.647491  0.035042  0.542111  1
  Si  Si30  1  0.349109  0.963466  0.462335  1
  Si  Si31  1  0.849141  0.538888  0.459061  1
  Si  Si32  1  0.792372  0.618346  0.750000  1
  Si  Si33  1  0.209499  0.387888  0.250000  1
  Si  Si34  1  0.647491  0.035042  0.957889  1
  Se  Se35  1  0.310884  0.863266  0.750000  1
