# generated using pymatgen
data_Te11Rh
_symmetry_space_group_name_H-M   'P 1'
_cell_length_a   4.23456900
_cell_length_b   4.23456897
_cell_length_c   23.71787800
_cell_angle_alpha   90.00000000
_cell_angle_beta   90.00000000
_cell_angle_gamma   120.00000808
_symmetry_Int_Tables_number   1
_chemical_formula_structural   Te11Rh
_chemical_formula_sum   'Te11 Rh1'
_cell_volume   368.31961786
_cell_formula_units_Z   1
loop_
 _symmetry_equiv_pos_site_id
 _symmetry_equiv_pos_as_xyz
  1  'x, y, z'
loop_
 _atom_site_type_symbol
 _atom_site_label
 _atom_site_symmetry_multiplicity
 _atom_site_fract_x
 _atom_site_fract_y
 _atom_site_fract_z
 _atom_site_occupancy
  Te  Te0  1  0.666667  0.333333  0.919671  1
  Te  Te1  1  0.333333  0.666667  0.339027  1
  Te  Te2  1  0.333333  0.666667  0.080329  1
  Te  Te3  1  0.666667  0.333333  0.660973  1
  Te  Te4  1  0.333333  0.666667  0.820942  1
  Te  Te5  1  0.666667  0.333333  0.179058  1
  Te  Te6  1  0.000000  0.000000  0.740379  1
  Te  Te7  1  0.666667  0.333333  0.448655  1
  Te  Te8  1  0.333333  0.666667  0.551345  1
  Te  Te9  1  0.000000  0.000000  0.000000  1
  Te  Te10  1  0.000000  0.000000  0.259621  1
  Rh  Rh11  1  0.000000  0.000000  0.500000  1
