# generated using pymatgen
data_SmYCo9As7Ru3
_symmetry_space_group_name_H-M   'P 1'
_cell_length_a   3.83045300
_cell_length_b   9.40018465
_cell_length_c   9.39824107
_cell_angle_alpha   120.00726946
_cell_angle_beta   90.00000000
_cell_angle_gamma   90.00000000
_symmetry_Int_Tables_number   1
_chemical_formula_structural   SmYCo9As7Ru3
_chemical_formula_sum   'Sm1 Y1 Co9 As7 Ru3'
_cell_volume   293.04338179
_cell_formula_units_Z   1
loop_
 _symmetry_equiv_pos_site_id
 _symmetry_equiv_pos_as_xyz
  1  'x, y, z'
loop_
 _atom_site_type_symbol
 _atom_site_label
 _atom_site_symmetry_multiplicity
 _atom_site_fract_x
 _atom_site_fract_y
 _atom_site_fract_z
 _atom_site_occupancy
  Sm  Sm0  1  0.500000  0.333329  0.666676  1
  Y  Y1  1  0.000000  0.666700  0.333421  1
  Co  Co2  1  0.000000  0.570287  0.942236  1
  Co  Co3  1  0.000000  0.372000  0.429739  1
  Co  Co4  1  0.000000  0.057729  0.628038  1
  Co  Co5  1  0.000000  0.875526  0.157214  1
  Co  Co6  1  0.000000  0.281677  0.124448  1
  Co  Co7  1  0.000000  0.842756  0.718272  1
  Co  Co8  1  0.500000  0.946213  0.382539  1
  Co  Co9  1  0.500000  0.436317  0.053789  1
  Co  Co10  1  0.500000  0.617492  0.563690  1
  As  As11  1  0.000000  0.999996  0.999985  1
  As  As12  1  0.500000  0.708033  0.116799  1
  As  As13  1  0.500000  0.408810  0.292020  1
  As  As14  1  0.500000  0.883188  0.591233  1
  As  As15  1  0.000000  0.589671  0.701326  1
  As  As16  1  0.000000  0.111688  0.410375  1
  As  As17  1  0.000000  0.298651  0.888273  1
  Ru  Ru18  1  0.500000  0.781204  0.900441  1
  Ru  Ru19  1  0.500000  0.119213  0.218754  1
  Ru  Ru20  1  0.500000  0.099520  0.880732  1
