# generated using pymatgen
data_Ho5In4IrPt
_symmetry_space_group_name_H-M   'P 1'
_cell_length_a   3.61647400
_cell_length_b   8.13687091
_cell_length_c   18.21568482
_cell_angle_alpha   89.88740773
_cell_angle_beta   90.00000000
_cell_angle_gamma   90.00000000
_symmetry_Int_Tables_number   1
_chemical_formula_structural   Ho5In4IrPt
_chemical_formula_sum   'Ho10 In8 Ir2 Pt2'
_cell_volume   536.02795316
_cell_formula_units_Z   2
loop_
 _symmetry_equiv_pos_site_id
 _symmetry_equiv_pos_as_xyz
  1  'x, y, z'
loop_
 _atom_site_type_symbol
 _atom_site_label
 _atom_site_symmetry_multiplicity
 _atom_site_fract_x
 _atom_site_fract_y
 _atom_site_fract_z
 _atom_site_occupancy
  Ho  Ho0  1  0.000000  0.114912  0.412141  1
  Ho  Ho1  1  0.000000  0.885088  0.587859  1
  Ho  Ho2  1  0.000000  0.383505  0.913675  1
  Ho  Ho3  1  0.000000  0.616495  0.086325  1
  Ho  Ho4  1  0.000000  0.235401  0.222130  1
  Ho  Ho5  1  0.000000  0.764599  0.777870  1
  Ho  Ho6  1  0.000000  0.248789  0.720659  1
  Ho  Ho7  1  0.000000  0.751211  0.279341  1
  Ho  Ho8  1  0.000000  0.000000  0.000000  1
  Ho  Ho9  1  0.000000  0.500000  0.500000  1
  In  In10  1  0.500000  0.424458  0.351269  1
  In  In11  1  0.500000  0.575542  0.648731  1
  In  In12  1  0.500000  0.073534  0.851083  1
  In  In13  1  0.500000  0.926466  0.148917  1
  In  In14  1  0.500000  0.292027  0.066418  1
  In  In15  1  0.500000  0.707973  0.933582  1
  In  In16  1  0.500000  0.207261  0.567448  1
  In  In17  1  0.500000  0.792739  0.432552  1
  Ir  Ir18  1  0.500000  0.020754  0.303911  1
  Ir  Ir19  1  0.500000  0.979246  0.696089  1
  Pt  Pt20  1  0.500000  0.478244  0.803388  1
  Pt  Pt21  1  0.500000  0.521756  0.196612  1
