# generated using pymatgen
data_LiLa5RuO12
_symmetry_space_group_name_H-M   'P 1'
_cell_length_a   7.13746222
_cell_length_b   7.13746247
_cell_length_c   7.75330400
_cell_angle_alpha   74.24775655
_cell_angle_beta   74.24775598
_cell_angle_gamma   50.88085581
_symmetry_Int_Tables_number   1
_chemical_formula_structural   LiLa5RuO12
_chemical_formula_sum   'Li1 La5 Ru1 O12'
_cell_volume   292.26355187
_cell_formula_units_Z   1
loop_
 _symmetry_equiv_pos_site_id
 _symmetry_equiv_pos_as_xyz
  1  'x, y, z'
loop_
 _atom_site_type_symbol
 _atom_site_label
 _atom_site_symmetry_multiplicity
 _atom_site_fract_x
 _atom_site_fract_y
 _atom_site_fract_z
 _atom_site_occupancy
  Li  Li0  1  0.747609  0.252391  0.000000  1
  La  La1  1  0.329393  0.288392  0.351406  1
  La  La2  1  0.711608  0.670607  0.648594  1
  La  La3  1  0.692458  0.686150  0.163218  1
  La  La4  1  0.313850  0.307542  0.836782  1
  La  La5  1  0.012257  0.987743  0.500000  1
  Ru  Ru6  1  0.227197  0.772803  0.000000  1
  O  O7  1  0.106248  0.590239  0.570131  1
  O  O8  1  0.018272  0.982193  0.170710  1
  O  O9  1  0.409761  0.893752  0.429869  1
  O  O10  1  0.458765  0.542816  0.171199  1
  O  O11  1  0.098079  0.592461  0.081027  1
  O  O12  1  0.917772  0.390751  0.420563  1
  O  O13  1  0.017807  0.981728  0.829290  1
  O  O14  1  0.609249  0.082227  0.579437  1
  O  O15  1  0.457184  0.541235  0.828801  1
  O  O16  1  0.562104  0.097153  0.081842  1
  O  O17  1  0.407539  0.901921  0.918973  1
  O  O18  1  0.902847  0.437896  0.918158  1
