# generated using pymatgen
data_Dy2HoTm(Al3Rh)6
_symmetry_space_group_name_H-M   'P 1'
_cell_length_a   7.54804535
_cell_length_b   7.55070105
_cell_length_c   9.46303700
_cell_angle_alpha   90.00000000
_cell_angle_beta   90.00000000
_cell_angle_gamma   119.27482988
_symmetry_Int_Tables_number   1
_chemical_formula_structural   Dy2HoTm(Al3Rh)6
_chemical_formula_sum   'Dy2 Ho1 Tm1 Al18 Rh6'
_cell_volume   470.44657198
_cell_formula_units_Z   1
loop_
 _symmetry_equiv_pos_site_id
 _symmetry_equiv_pos_as_xyz
  1  'x, y, z'
loop_
 _atom_site_type_symbol
 _atom_site_label
 _atom_site_symmetry_multiplicity
 _atom_site_fract_x
 _atom_site_fract_y
 _atom_site_fract_z
 _atom_site_occupancy
  Dy  Dy0  1  0.005730  0.327695  0.750000  1
  Dy  Dy1  1  0.672379  0.994237  0.250000  1
  Ho  Ho2  1  0.994415  0.672327  0.250000  1
  Tm  Tm3  1  0.327589  0.005560  0.750000  1
  Al  Al4  1  0.128827  0.128495  0.250000  1
  Al  Al5  1  0.871666  0.871385  0.750000  1
  Al  Al6  1  0.001154  0.336302  0.075407  1
  Al  Al7  1  0.999576  0.664684  0.924435  1
  Al  Al8  1  0.999576  0.664684  0.575565  1
  Al  Al9  1  0.335427  0.000596  0.425345  1
  Al  Al10  1  0.001154  0.336302  0.424593  1
  Al  Al11  1  0.663225  0.998981  0.575778  1
  Al  Al12  1  0.663225  0.998981  0.924222  1
  Al  Al13  1  0.335427  0.000596  0.074655  1
  Al  Al14  1  0.333147  0.332536  0.550092  1
  Al  Al15  1  0.667294  0.666941  0.451321  1
  Al  Al16  1  0.667294  0.666941  0.048679  1
  Al  Al17  1  0.333147  0.332536  0.949908  1
  Al  Al18  1  0.339732  0.550645  0.250000  1
  Al  Al19  1  0.659419  0.449016  0.750000  1
  Al  Al20  1  0.550805  0.339962  0.250000  1
  Al  Al21  1  0.449713  0.660840  0.750000  1
  Rh  Rh22  1  0.671915  0.328062  0.999900  1
  Rh  Rh23  1  0.327632  0.672059  0.999897  1
  Rh  Rh24  1  0.327632  0.672059  0.500103  1
  Rh  Rh25  1  0.671915  0.328062  0.500100  1
  Rh  Rh26  1  0.000491  0.999758  0.999746  1
  Rh  Rh27  1  0.000491  0.999758  0.500254  1
