# generated using pymatgen
data_TaIn2(Ni10B3)2
_symmetry_space_group_name_H-M   'P 1'
_cell_length_a   7.53515996
_cell_length_b   7.53363363
_cell_length_c   7.53502005
_cell_angle_alpha   60.00607806
_cell_angle_beta   60.00814519
_cell_angle_gamma   59.99379605
_symmetry_Int_Tables_number   1
_chemical_formula_structural   TaIn2(Ni10B3)2
_chemical_formula_sum   'Ta1 In2 Ni20 B6'
_cell_volume   302.47723170
_cell_formula_units_Z   1
loop_
 _symmetry_equiv_pos_site_id
 _symmetry_equiv_pos_as_xyz
  1  'x, y, z'
loop_
 _atom_site_type_symbol
 _atom_site_label
 _atom_site_symmetry_multiplicity
 _atom_site_fract_x
 _atom_site_fract_y
 _atom_site_fract_z
 _atom_site_occupancy
  Ta  Ta0  1  0.000000  0.000000  0.000000  1
  In  In1  1  0.249990  0.250097  0.249922  1
  In  In2  1  0.750010  0.749903  0.750078  1
  Ni  Ni3  1  0.386373  0.386412  0.386363  1
  Ni  Ni4  1  0.386342  0.386377  0.840924  1
  Ni  Ni5  1  0.840897  0.386394  0.386345  1
  Ni  Ni6  1  0.386394  0.840811  0.386386  1
  Ni  Ni7  1  0.613627  0.613588  0.613637  1
  Ni  Ni8  1  0.613658  0.613623  0.159076  1
  Ni  Ni9  1  0.613606  0.159189  0.613614  1
  Ni  Ni10  1  0.159103  0.613606  0.613655  1
  Ni  Ni11  1  0.339024  0.000004  0.000008  1
  Ni  Ni12  1  0.999996  0.339047  0.660956  1
  Ni  Ni13  1  0.660976  0.999996  0.999992  1
  Ni  Ni14  1  0.000004  0.660953  0.339044  1
  Ni  Ni15  1  0.000000  0.339054  0.000003  1
  Ni  Ni16  1  0.000005  0.000004  0.338977  1
  Ni  Ni17  1  0.338993  0.999999  0.661004  1
  Ni  Ni18  1  0.339067  0.660925  0.000006  1
  Ni  Ni19  1  0.661007  0.000001  0.338996  1
  Ni  Ni20  1  0.999995  0.999996  0.661023  1
  Ni  Ni21  1  0.000000  0.660946  0.999997  1
  Ni  Ni22  1  0.660933  0.339075  0.999994  1
  B  B23  1  0.727954  0.272046  0.727979  1
  B  B24  1  0.272024  0.272046  0.727977  1
  B  B25  1  0.272046  0.727954  0.272021  1
  B  B26  1  0.272032  0.727945  0.727992  1
  B  B27  1  0.727968  0.272055  0.272008  1
  B  B28  1  0.727976  0.727954  0.272023  1
