# generated using pymatgen
data_Gd4Si7Pd
_symmetry_space_group_name_H-M   'P 1'
_cell_length_a   8.21543300
_cell_length_b   8.21543353
_cell_length_c   4.05519400
_cell_angle_alpha   90.00000000
_cell_angle_beta   90.00000000
_cell_angle_gamma   120.00000191
_symmetry_Int_Tables_number   1
_chemical_formula_structural   Gd4Si7Pd
_chemical_formula_sum   'Gd4 Si7 Pd1'
_cell_volume   237.02993811
_cell_formula_units_Z   1
loop_
 _symmetry_equiv_pos_site_id
 _symmetry_equiv_pos_as_xyz
  1  'x, y, z'
loop_
 _atom_site_type_symbol
 _atom_site_label
 _atom_site_symmetry_multiplicity
 _atom_site_fract_x
 _atom_site_fract_y
 _atom_site_fract_z
 _atom_site_occupancy
  Gd  Gd0  1  0.505664  0.494336  0.000000  1
  Gd  Gd1  1  0.988672  0.494336  0.000000  1
  Gd  Gd2  1  0.505664  0.011328  0.000000  1
  Gd  Gd3  1  0.000000  0.000000  0.000000  1
  Si  Si4  1  0.666667  0.333333  0.500000  1
  Si  Si5  1  0.834796  0.669592  0.500000  1
  Si  Si6  1  0.167217  0.832783  0.500000  1
  Si  Si7  1  0.665565  0.832783  0.500000  1
  Si  Si8  1  0.167217  0.334435  0.500000  1
  Si  Si9  1  0.834796  0.165204  0.500000  1
  Si  Si10  1  0.330408  0.165204  0.500000  1
  Pd  Pd11  1  0.333333  0.666667  0.500000  1
