# generated using pymatgen
data_Ho8Er2Sn3Pb5
_symmetry_space_group_name_H-M   'P 1'
_cell_length_a   8.10856700
_cell_length_b   15.51150400
_cell_length_c   8.18118400
_cell_angle_alpha   90.00000000
_cell_angle_beta   90.00000000
_cell_angle_gamma   90.00000000
_symmetry_Int_Tables_number   1
_chemical_formula_structural   Ho8Er2Sn3Pb5
_chemical_formula_sum   'Ho16 Er4 Sn6 Pb10'
_cell_volume   1028.99716701
_cell_formula_units_Z   2
loop_
 _symmetry_equiv_pos_site_id
 _symmetry_equiv_pos_as_xyz
  1  'x, y, z'
loop_
 _atom_site_type_symbol
 _atom_site_label
 _atom_site_symmetry_multiplicity
 _atom_site_fract_x
 _atom_site_fract_y
 _atom_site_fract_z
 _atom_site_occupancy
  Ho  Ho0  1  0.622061  0.623271  0.160098  1
  Ho  Ho1  1  0.122061  0.876729  0.339902  1
  Ho  Ho2  1  0.377745  0.122235  0.838509  1
  Ho  Ho3  1  0.877745  0.377765  0.661491  1
  Ho  Ho4  1  0.377745  0.377765  0.838509  1
  Ho  Ho5  1  0.877745  0.122235  0.661491  1
  Ho  Ho6  1  0.622061  0.876729  0.160098  1
  Ho  Ho7  1  0.122061  0.623271  0.339902  1
  Ho  Ho8  1  0.465169  0.603494  0.676270  1
  Ho  Ho9  1  0.965169  0.896506  0.823730  1
  Ho  Ho10  1  0.534482  0.100346  0.325449  1
  Ho  Ho11  1  0.034482  0.399654  0.174551  1
  Ho  Ho12  1  0.534482  0.399654  0.325449  1
  Ho  Ho13  1  0.034482  0.100346  0.174551  1
  Ho  Ho14  1  0.465169  0.896506  0.676270  1
  Ho  Ho15  1  0.965169  0.603494  0.823730  1
  Er  Er16  1  0.790443  0.750000  0.496652  1
  Er  Er17  1  0.290443  0.750000  0.003348  1
  Er  Er18  1  0.210054  0.250000  0.507277  1
  Er  Er19  1  0.710054  0.250000  0.992723  1
  Sn  Sn20  1  0.425899  0.750000  0.376594  1
  Sn  Sn21  1  0.925899  0.750000  0.123406  1
  Sn  Sn22  1  0.573679  0.250000  0.624493  1
  Sn  Sn23  1  0.073679  0.250000  0.875507  1
  Sn  Sn24  1  0.657269  0.750000  0.850950  1
  Sn  Sn25  1  0.157269  0.750000  0.649050  1
  Pb  Pb26  1  0.717571  0.458264  0.966785  1
  Pb  Pb27  1  0.217571  0.041736  0.533215  1
  Pb  Pb28  1  0.281876  0.957833  0.033338  1
  Pb  Pb29  1  0.781876  0.542167  0.466662  1
  Pb  Pb30  1  0.281876  0.542167  0.033338  1
  Pb  Pb31  1  0.781876  0.957833  0.466662  1
  Pb  Pb32  1  0.717571  0.041736  0.966785  1
  Pb  Pb33  1  0.217571  0.458264  0.533215  1
  Pb  Pb34  1  0.344849  0.250000  0.151980  1
  Pb  Pb35  1  0.844849  0.250000  0.348020  1
