# generated using pymatgen
data_YHoZr2(Al3Rh)6
_symmetry_space_group_name_H-M   'P 1'
_cell_length_a   7.52069501
_cell_length_b   7.49947744
_cell_length_c   9.36181900
_cell_angle_alpha   90.00000000
_cell_angle_beta   90.00000000
_cell_angle_gamma   119.66934152
_symmetry_Int_Tables_number   1
_chemical_formula_structural   YHoZr2(Al3Rh)6
_chemical_formula_sum   'Y1 Ho1 Zr2 Al18 Rh6'
_cell_volume   458.79351524
_cell_formula_units_Z   1
loop_
 _symmetry_equiv_pos_site_id
 _symmetry_equiv_pos_as_xyz
  1  'x, y, z'
loop_
 _atom_site_type_symbol
 _atom_site_label
 _atom_site_symmetry_multiplicity
 _atom_site_fract_x
 _atom_site_fract_y
 _atom_site_fract_z
 _atom_site_occupancy
  Y  Y0  1  0.329224  0.005972  0.750000  1
  Ho  Ho1  1  0.670860  0.994112  0.250000  1
  Zr  Zr2  1  0.994719  0.670767  0.250000  1
  Zr  Zr3  1  0.005230  0.329187  0.750000  1
  Al  Al4  1  0.124944  0.123028  0.250000  1
  Al  Al5  1  0.874786  0.876900  0.750000  1
  Al  Al6  1  0.999430  0.337334  0.074728  1
  Al  Al7  1  0.000355  0.662475  0.925492  1
  Al  Al8  1  0.000355  0.662475  0.574508  1
  Al  Al9  1  0.331945  0.997799  0.421646  1
  Al  Al10  1  0.999430  0.337334  0.425272  1
  Al  Al11  1  0.668247  0.002172  0.577976  1
  Al  Al12  1  0.668247  0.002172  0.922024  1
  Al  Al13  1  0.331945  0.997799  0.078354  1
  Al  Al14  1  0.330908  0.333493  0.554437  1
  Al  Al15  1  0.669090  0.666682  0.445366  1
  Al  Al16  1  0.669090  0.666682  0.054634  1
  Al  Al17  1  0.330908  0.333493  0.945563  1
  Al  Al18  1  0.334003  0.549007  0.250000  1
  Al  Al19  1  0.666252  0.451278  0.750000  1
  Al  Al20  1  0.556028  0.344370  0.250000  1
  Al  Al21  1  0.444050  0.655467  0.750000  1
  Rh  Rh22  1  0.672349  0.327617  0.999469  1
  Rh  Rh23  1  0.327766  0.672391  0.000671  1
  Rh  Rh24  1  0.327766  0.672391  0.499329  1
  Rh  Rh25  1  0.672349  0.327617  0.500531  1
  Rh  Rh26  1  0.999861  0.999992  0.000089  1
  Rh  Rh27  1  0.999861  0.999992  0.499911  1
