# generated using pymatgen
data_K3AgP2S7
_symmetry_space_group_name_H-M   'P 1'
_cell_length_a   6.76311500
_cell_length_b   13.41185979
_cell_length_c   15.36449900
_cell_angle_alpha   81.41621513
_cell_angle_beta   90.00000000
_cell_angle_gamma   90.00000000
_symmetry_Int_Tables_number   1
_chemical_formula_structural   K3AgP2S7
_chemical_formula_sum   'K12 Ag4 P8 S28'
_cell_volume   1378.04071710
_cell_formula_units_Z   4
loop_
 _symmetry_equiv_pos_site_id
 _symmetry_equiv_pos_as_xyz
  1  'x, y, z'
loop_
 _atom_site_type_symbol
 _atom_site_label
 _atom_site_symmetry_multiplicity
 _atom_site_fract_x
 _atom_site_fract_y
 _atom_site_fract_z
 _atom_site_occupancy
  K  K0  1  0.220890  0.907451  0.466580  1
  K  K1  1  0.779110  0.092549  0.533420  1
  K  K2  1  0.758030  0.812022  0.302168  1
  K  K3  1  0.258030  0.687978  0.697832  1
  K  K4  1  0.337415  0.843979  0.070957  1
  K  K5  1  0.279110  0.407451  0.466580  1
  K  K6  1  0.837415  0.656021  0.929043  1
  K  K7  1  0.662585  0.156021  0.929043  1
  K  K8  1  0.241970  0.187978  0.697832  1
  K  K9  1  0.720890  0.592549  0.533420  1
  K  K10  1  0.162585  0.343979  0.070957  1
  K  K11  1  0.741970  0.312022  0.302168  1
  Ag  Ag12  1  0.472899  0.433653  0.802439  1
  Ag  Ag13  1  0.972899  0.066347  0.197561  1
  Ag  Ag14  1  0.527101  0.566347  0.197561  1
  Ag  Ag15  1  0.027101  0.933653  0.802439  1
  P  P16  1  0.745688  0.330363  0.644316  1
  P  P17  1  0.995077  0.388141  0.841735  1
  P  P18  1  0.504923  0.888141  0.841735  1
  P  P19  1  0.495077  0.111859  0.158265  1
  P  P20  1  0.245688  0.169637  0.355684  1
  P  P21  1  0.754312  0.830363  0.644316  1
  P  P22  1  0.254312  0.669637  0.355684  1
  P  P23  1  0.004923  0.611859  0.158265  1
  S  S24  1  0.527731  0.917162  0.697628  1
  S  S25  1  0.170613  0.652093  0.483765  1
  S  S26  1  0.472269  0.082838  0.302372  1
  S  S27  1  0.740112  0.406157  0.907771  1
  S  S28  1  0.240112  0.093843  0.092229  1
  S  S29  1  0.739776  0.188253  0.707635  1
  S  S30  1  0.980110  0.096302  0.349293  1
  S  S31  1  0.829387  0.347907  0.516235  1
  S  S32  1  0.329387  0.152093  0.483765  1
  S  S33  1  0.519890  0.596302  0.349293  1
  S  S34  1  0.260224  0.811747  0.292365  1
  S  S35  1  0.615620  0.247710  0.118194  1
  S  S36  1  0.826344  0.493959  0.139457  1
  S  S37  1  0.673656  0.993959  0.139457  1
  S  S38  1  0.884380  0.747710  0.118194  1
  S  S39  1  0.259888  0.593843  0.092229  1
  S  S40  1  0.239776  0.311747  0.292365  1
  S  S41  1  0.384380  0.752290  0.881806  1
  S  S42  1  0.115620  0.252290  0.881806  1
  S  S43  1  0.027731  0.582838  0.302372  1
  S  S44  1  0.760224  0.688253  0.707635  1
  S  S45  1  0.480110  0.403698  0.650707  1
  S  S46  1  0.759888  0.906157  0.907771  1
  S  S47  1  0.972269  0.417162  0.697628  1
  S  S48  1  0.019890  0.903698  0.650707  1
  S  S49  1  0.173656  0.506041  0.860543  1
  S  S50  1  0.670613  0.847907  0.516235  1
  S  S51  1  0.326344  0.006041  0.860543  1
