# generated using pymatgen
data_TbHoLu4(Co3P2)6
_symmetry_space_group_name_H-M   'P 1'
_cell_length_a   3.66615900
_cell_length_b   10.46312500
_cell_length_c   12.09516700
_cell_angle_alpha   90.00000000
_cell_angle_beta   90.00000000
_cell_angle_gamma   90.00000000
_symmetry_Int_Tables_number   1
_chemical_formula_structural   TbHoLu4(Co3P2)6
_chemical_formula_sum   'Tb1 Ho1 Lu4 Co18 P12'
_cell_volume   463.96431526
_cell_formula_units_Z   1
loop_
 _symmetry_equiv_pos_site_id
 _symmetry_equiv_pos_as_xyz
  1  'x, y, z'
loop_
 _atom_site_type_symbol
 _atom_site_label
 _atom_site_symmetry_multiplicity
 _atom_site_fract_x
 _atom_site_fract_y
 _atom_site_fract_z
 _atom_site_occupancy
  Tb  Tb0  1  0.500000  0.000000  0.476913  1
  Ho  Ho1  1  0.000000  0.500000  0.522937  1
  Lu  Lu2  1  0.500000  0.818547  0.205743  1
  Lu  Lu3  1  0.500000  0.181453  0.205743  1
  Lu  Lu4  1  0.000000  0.681423  0.794158  1
  Lu  Lu5  1  0.000000  0.318577  0.794158  1
  Co  Co6  1  0.500000  0.500000  0.159384  1
  Co  Co7  1  0.000000  0.000000  0.840814  1
  Co  Co8  1  0.500000  0.500000  0.704975  1
  Co  Co9  1  0.000000  0.000000  0.294447  1
  Co  Co10  1  0.000000  0.500000  0.986918  1
  Co  Co11  1  0.500000  0.000000  0.013080  1
  Co  Co12  1  0.500000  0.332978  0.994811  1
  Co  Co13  1  0.500000  0.667022  0.994811  1
  Co  Co14  1  0.000000  0.166965  0.005208  1
  Co  Co15  1  0.000000  0.833035  0.005208  1
  Co  Co16  1  0.500000  0.297406  0.430271  1
  Co  Co17  1  0.500000  0.702594  0.430271  1
  Co  Co18  1  0.000000  0.203376  0.569842  1
  Co  Co19  1  0.000000  0.796624  0.569842  1
  Co  Co20  1  0.500000  0.878088  0.710368  1
  Co  Co21  1  0.500000  0.121912  0.710368  1
  Co  Co22  1  0.000000  0.621739  0.289831  1
  Co  Co23  1  0.000000  0.378261  0.289831  1
  P  P24  1  0.500000  0.500000  0.882663  1
  P  P25  1  0.000000  0.000000  0.117114  1
  P  P26  1  0.500000  0.500000  0.344551  1
  P  P27  1  0.000000  0.000000  0.656085  1
  P  P28  1  0.500000  0.311381  0.617471  1
  P  P29  1  0.500000  0.688619  0.617471  1
  P  P30  1  0.000000  0.189201  0.382297  1
  P  P31  1  0.000000  0.810799  0.382297  1
  P  P32  1  0.500000  0.846115  0.891940  1
  P  P33  1  0.500000  0.153885  0.891940  1
  P  P34  1  0.000000  0.653871  0.108119  1
  P  P35  1  0.000000  0.346129  0.108119  1
