# generated using pymatgen
data_AcZnSnO
_symmetry_space_group_name_H-M   'P 1'
_cell_length_a   4.19974100
_cell_length_b   4.19974100
_cell_length_c   10.72112400
_cell_angle_alpha   90.00000000
_cell_angle_beta   90.00000000
_cell_angle_gamma   90.00000000
_symmetry_Int_Tables_number   1
_chemical_formula_structural   AcZnSnO
_chemical_formula_sum   'Ac2 Zn2 Sn2 O2'
_cell_volume   189.09730320
_cell_formula_units_Z   2
loop_
 _symmetry_equiv_pos_site_id
 _symmetry_equiv_pos_as_xyz
  1  'x, y, z'
loop_
 _atom_site_type_symbol
 _atom_site_label
 _atom_site_symmetry_multiplicity
 _atom_site_fract_x
 _atom_site_fract_y
 _atom_site_fract_z
 _atom_site_occupancy
  Ac  Ac0  1  0.000000  0.500001  0.120006  1
  Ac  Ac1  1  0.500001  0.000000  0.879994  1
  Zn  Zn2  1  0.000000  0.000000  0.500000  1
  Zn  Zn3  1  0.500001  0.500001  0.500000  1
  Sn  Sn4  1  0.500001  0.000000  0.326709  1
  Sn  Sn5  1  0.000000  0.500001  0.673291  1
  O  O6  1  0.000000  0.000000  0.000000  1
  O  O7  1  0.500001  0.500001  0.000000  1
