# generated using pymatgen
data_Tb3Dy5Hf3Si16Mo9
_symmetry_space_group_name_H-M   'P 1'
_cell_length_a   6.98985174
_cell_length_b   6.99001201
_cell_length_c   12.93484103
_cell_angle_alpha   89.93053767
_cell_angle_beta   90.06937821
_cell_angle_gamma   89.82204213
_symmetry_Int_Tables_number   1
_chemical_formula_structural   Tb3Dy5Hf3Si16Mo9
_chemical_formula_sum   'Tb3 Dy5 Hf3 Si16 Mo9'
_cell_volume   631.98132867
_cell_formula_units_Z   1
loop_
 _symmetry_equiv_pos_site_id
 _symmetry_equiv_pos_as_xyz
  1  'x, y, z'
loop_
 _atom_site_type_symbol
 _atom_site_label
 _atom_site_symmetry_multiplicity
 _atom_site_fract_x
 _atom_site_fract_y
 _atom_site_fract_z
 _atom_site_occupancy
  Tb  Tb0  1  0.496782  0.160750  0.531685  1
  Tb  Tb1  1  0.337905  0.999526  0.783382  1
  Tb  Tb2  1  0.660416  0.004966  0.279591  1
  Dy  Dy3  1  0.999796  0.338136  0.216619  1
  Dy  Dy4  1  0.004765  0.660167  0.720365  1
  Dy  Dy5  1  0.160515  0.496987  0.468310  1
  Dy  Dy6  1  0.500349  0.841414  0.031058  1
  Dy  Dy7  1  0.841448  0.500345  0.968935  1
  Hf  Hf8  1  0.831741  0.831606  0.500031  1
  Hf  Hf9  1  0.329713  0.669283  0.247678  1
  Hf  Hf10  1  0.669395  0.329811  0.752351  1
  Si  Si11  1  0.370521  0.295478  0.316632  1
  Si  Si12  1  0.627530  0.705773  0.817322  1
  Si  Si13  1  0.204030  0.871785  0.567710  1
  Si  Si14  1  0.125297  0.804355  0.934872  1
  Si  Si15  1  0.804602  0.125531  0.065159  1
  Si  Si16  1  0.872504  0.204404  0.432301  1
  Si  Si17  1  0.295061  0.371247  0.683333  1
  Si  Si18  1  0.705931  0.627053  0.182631  1
  Si  Si19  1  0.286799  0.046897  0.182939  1
  Si  Si20  1  0.709843  0.957767  0.689026  1
  Si  Si21  1  0.456347  0.789691  0.437806  1
  Si  Si22  1  0.212358  0.533592  0.058422  1
  Si  Si23  1  0.533735  0.212506  0.941677  1
  Si  Si24  1  0.790300  0.456668  0.562240  1
  Si  Si25  1  0.046671  0.287290  0.817001  1
  Si  Si26  1  0.958060  0.709264  0.311031  1
  Mo  Mo27  1  0.167901  0.168032  0.000109  1
  Mo  Mo28  1  0.160389  0.994817  0.375185  1
  Mo  Mo29  1  0.833149  0.003311  0.877261  1
  Mo  Mo30  1  0.506393  0.659413  0.626565  1
  Mo  Mo31  1  0.344264  0.497769  0.873582  1
  Mo  Mo32  1  0.497712  0.344389  0.126389  1
  Mo  Mo33  1  0.659574  0.506368  0.373354  1
  Mo  Mo34  1  0.994880  0.160573  0.624710  1
  Mo  Mo35  1  0.003324  0.833037  0.122739  1
