# generated using pymatgen
data_Hf4Nb5TcN12
_symmetry_space_group_name_H-M   'P 1'
_cell_length_a   5.28573500
_cell_length_b   5.27466977
_cell_length_c   10.63978300
_cell_angle_alpha   90.00000000
_cell_angle_beta   90.00000000
_cell_angle_gamma   120.06942542
_symmetry_Int_Tables_number   1
_chemical_formula_structural   Hf4Nb5TcN12
_chemical_formula_sum   'Hf4 Nb5 Tc1 N12'
_cell_volume   256.72006600
_cell_formula_units_Z   1
loop_
 _symmetry_equiv_pos_site_id
 _symmetry_equiv_pos_as_xyz
  1  'x, y, z'
loop_
 _atom_site_type_symbol
 _atom_site_label
 _atom_site_symmetry_multiplicity
 _atom_site_fract_x
 _atom_site_fract_y
 _atom_site_fract_z
 _atom_site_occupancy
  Hf  Hf0  1  0.333933  0.666522  0.495479  1
  Hf  Hf1  1  0.667412  0.333478  0.004521  1
  Hf  Hf2  1  0.667412  0.333478  0.495479  1
  Hf  Hf3  1  0.333933  0.666522  0.004521  1
  Nb  Nb4  1  0.675523  0.675180  0.250000  1
  Nb  Nb5  1  0.000343  0.324820  0.250000  1
  Nb  Nb6  1  0.998528  0.674879  0.750000  1
  Nb  Nb7  1  0.323649  0.325121  0.750000  1
  Nb  Nb8  1  0.324472  0.000000  0.250000  1
  Tc  Tc9  1  0.673816  0.000000  0.750000  1
  N  N10  1  0.343036  0.342531  0.376639  1
  N  N11  1  0.656855  0.000000  0.377219  1
  N  N12  1  0.000505  0.657469  0.376639  1
  N  N13  1  0.999813  0.345464  0.871909  1
  N  N14  1  0.656855  0.000000  0.122781  1
  N  N15  1  0.654349  0.654536  0.871909  1
  N  N16  1  0.345931  0.000000  0.871669  1
  N  N17  1  0.654349  0.654536  0.628091  1
  N  N18  1  0.999813  0.345464  0.628091  1
  N  N19  1  0.000505  0.657469  0.123361  1
  N  N20  1  0.345931  0.000000  0.628331  1
  N  N21  1  0.343036  0.342531  0.123361  1
