# generated using pymatgen
data_SbPRh
_symmetry_space_group_name_H-M   'P 1'
_cell_length_a   6.24120000
_cell_length_b   6.29343662
_cell_length_c   6.30310706
_cell_angle_alpha   113.76398382
_cell_angle_beta   90.00000000
_cell_angle_gamma   90.00000000
_symmetry_Int_Tables_number   1
_chemical_formula_structural   SbPRh
_chemical_formula_sum   'Sb4 P4 Rh4'
_cell_volume   226.58591032
_cell_formula_units_Z   4
loop_
 _symmetry_equiv_pos_site_id
 _symmetry_equiv_pos_as_xyz
  1  'x, y, z'
loop_
 _atom_site_type_symbol
 _atom_site_label
 _atom_site_symmetry_multiplicity
 _atom_site_fract_x
 _atom_site_fract_y
 _atom_site_fract_z
 _atom_site_occupancy
  Sb  Sb0  1  0.124504  0.841662  0.141124  1
  Sb  Sb1  1  0.624504  0.158338  0.358876  1
  Sb  Sb2  1  0.875496  0.158338  0.858876  1
  Sb  Sb3  1  0.375496  0.841662  0.641124  1
  P  P4  1  0.863127  0.648605  0.327573  1
  P  P5  1  0.363127  0.351395  0.172427  1
  P  P6  1  0.136873  0.351395  0.672427  1
  P  P7  1  0.636873  0.648605  0.827573  1
  Rh  Rh8  1  0.516378  0.705471  0.203755  1
  Rh  Rh9  1  0.016378  0.294529  0.296245  1
  Rh  Rh10  1  0.483622  0.294529  0.796245  1
  Rh  Rh11  1  0.983622  0.705471  0.703755  1
