# generated using pymatgen
data_VGaSbO6
_symmetry_space_group_name_H-M   'P 1'
_cell_length_a   4.61156701
_cell_length_b   4.61144300
_cell_length_c   9.22672500
_cell_angle_alpha   89.99993235
_cell_angle_beta   89.99978243
_cell_angle_gamma   89.99570116
_symmetry_Int_Tables_number   1
_chemical_formula_structural   VGaSbO6
_chemical_formula_sum   'V2 Ga2 Sb2 O12'
_cell_volume   196.21533417
_cell_formula_units_Z   2
loop_
 _symmetry_equiv_pos_site_id
 _symmetry_equiv_pos_as_xyz
  1  'x, y, z'
loop_
 _atom_site_type_symbol
 _atom_site_label
 _atom_site_symmetry_multiplicity
 _atom_site_fract_x
 _atom_site_fract_y
 _atom_site_fract_z
 _atom_site_occupancy
  V  V0  1  0.500001  0.499998  0.500419  1
  V  V1  1  0.999999  0.000004  0.000496  1
  Ga  Ga2  1  0.000001  0.999995  0.667792  1
  Ga  Ga3  1  0.500009  0.500005  0.167736  1
  Sb  Sb4  1  0.499996  0.499998  0.833660  1
  Sb  Sb5  1  0.000008  0.000001  0.333528  1
  O  O6  1  0.193732  0.806270  0.163754  1
  O  O7  1  0.806274  0.193729  0.163757  1
  O  O8  1  0.306250  0.306254  0.663739  1
  O  O9  1  0.693737  0.693747  0.663740  1
  O  O10  1  0.200437  0.799566  0.499881  1
  O  O11  1  0.799558  0.200433  0.499880  1
  O  O12  1  0.299589  0.299593  0.999872  1
  O  O13  1  0.700412  0.700410  0.999871  1
  O  O14  1  0.192105  0.807887  0.835473  1
  O  O15  1  0.807887  0.192110  0.835473  1
  O  O16  1  0.307903  0.307895  0.335462  1
  O  O17  1  0.692102  0.692103  0.335464  1
