# generated using pymatgen
data_Ho16CdNi2Hg3Ir2
_symmetry_space_group_name_H-M   'P 1'
_cell_length_a   9.50464034
_cell_length_b   9.51795722
_cell_length_c   9.56596200
_cell_angle_alpha   59.83302528
_cell_angle_beta   59.78635397
_cell_angle_gamma   60.05556382
_symmetry_Int_Tables_number   1
_chemical_formula_structural   Ho16CdNi2Hg3Ir2
_chemical_formula_sum   'Ho16 Cd1 Ni2 Hg3 Ir2'
_cell_volume   610.40580143
_cell_formula_units_Z   1
loop_
 _symmetry_equiv_pos_site_id
 _symmetry_equiv_pos_as_xyz
  1  'x, y, z'
loop_
 _atom_site_type_symbol
 _atom_site_label
 _atom_site_symmetry_multiplicity
 _atom_site_fract_x
 _atom_site_fract_y
 _atom_site_fract_z
 _atom_site_occupancy
  Ho  Ho0  1  0.351407  0.351358  0.344813  1
  Ho  Ho1  1  0.351407  0.351358  0.952421  1
  Ho  Ho2  1  0.355887  0.947572  0.348270  1
  Ho  Ho3  1  0.944442  0.356832  0.349362  1
  Ho  Ho4  1  0.808565  0.187941  0.191168  1
  Ho  Ho5  1  0.186415  0.809711  0.813336  1
  Ho  Ho6  1  0.186415  0.809711  0.190538  1
  Ho  Ho7  1  0.808565  0.187941  0.812325  1
  Ho  Ho8  1  0.188342  0.189301  0.811178  1
  Ho  Ho9  1  0.810439  0.810401  0.189580  1
  Ho  Ho10  1  0.937334  0.560932  0.565891  1
  Ho  Ho11  1  0.560386  0.938120  0.935672  1
  Ho  Ho12  1  0.560386  0.938120  0.565822  1
  Ho  Ho13  1  0.937334  0.560932  0.935844  1
  Ho  Ho14  1  0.564808  0.565819  0.934686  1
  Ho  Ho15  1  0.939479  0.940192  0.560165  1
  Cd  Cd16  1  0.259766  0.578163  0.581036  1
  Ni  Ni17  1  0.142445  0.573556  0.142000  1
  Ni  Ni18  1  0.573374  0.142835  0.141895  1
  Hg  Hg19  1  0.582711  0.584499  0.588028  1
  Hg  Hg20  1  0.582711  0.584499  0.244763  1
  Hg  Hg21  1  0.582988  0.243337  0.586837  1
  Ir  Ir22  1  0.142198  0.143434  0.143398  1
  Ir  Ir23  1  0.142198  0.143434  0.570969  1
