# generated using pymatgen
data_Cs3GdO3
_symmetry_space_group_name_H-M   'P 1'
_cell_length_a   7.69274300
_cell_length_b   8.40947774
_cell_length_c   12.35847263
_cell_angle_alpha   84.32812679
_cell_angle_beta   90.00000000
_cell_angle_gamma   90.00000000
_symmetry_Int_Tables_number   1
_chemical_formula_structural   Cs3GdO3
_chemical_formula_sum   'Cs12 Gd4 O12'
_cell_volume   795.57955045
_cell_formula_units_Z   4
loop_
 _symmetry_equiv_pos_site_id
 _symmetry_equiv_pos_as_xyz
  1  'x, y, z'
loop_
 _atom_site_type_symbol
 _atom_site_label
 _atom_site_symmetry_multiplicity
 _atom_site_fract_x
 _atom_site_fract_y
 _atom_site_fract_z
 _atom_site_occupancy
  Cs  Cs0  1  0.844326  0.655445  0.421527  1
  Cs  Cs1  1  0.819583  0.382185  0.191780  1
  Cs  Cs2  1  0.319583  0.617815  0.308220  1
  Cs  Cs3  1  0.680417  0.382185  0.691780  1
  Cs  Cs4  1  0.622996  0.934483  0.157139  1
  Cs  Cs5  1  0.155674  0.344555  0.578473  1
  Cs  Cs6  1  0.877004  0.934483  0.657139  1
  Cs  Cs7  1  0.180417  0.617815  0.808220  1
  Cs  Cs8  1  0.655674  0.655445  0.921527  1
  Cs  Cs9  1  0.377004  0.065517  0.842861  1
  Cs  Cs10  1  0.122996  0.065517  0.342861  1
  Cs  Cs11  1  0.344326  0.344555  0.078473  1
  Gd  Gd12  1  0.410330  0.841415  0.568671  1
  Gd  Gd13  1  0.089670  0.841415  0.068671  1
  Gd  Gd14  1  0.589670  0.158585  0.431329  1
  Gd  Gd15  1  0.910330  0.158585  0.931329  1
  O  O16  1  0.950122  0.700032  0.193709  1
  O  O17  1  0.149564  0.753663  0.549424  1
  O  O18  1  0.444435  0.104990  0.588001  1
  O  O19  1  0.350436  0.753663  0.049424  1
  O  O20  1  0.549878  0.700032  0.693709  1
  O  O21  1  0.555565  0.895010  0.411999  1
  O  O22  1  0.049878  0.299968  0.806291  1
  O  O23  1  0.450122  0.299968  0.306291  1
  O  O24  1  0.850436  0.246337  0.450576  1
  O  O25  1  0.649564  0.246337  0.950576  1
  O  O26  1  0.055565  0.104990  0.088001  1
  O  O27  1  0.944435  0.895010  0.911999  1
