# generated using pymatgen
data_TbEr3(Co2O5)4
_symmetry_space_group_name_H-M   'P 1'
_cell_length_a   5.62460800
_cell_length_b   7.20240455
_cell_length_c   8.42586942
_cell_angle_alpha   90.06570922
_cell_angle_beta   90.00000000
_cell_angle_gamma   90.00000000
_symmetry_Int_Tables_number   1
_chemical_formula_structural   TbEr3(Co2O5)4
_chemical_formula_sum   'Tb1 Er3 Co8 O20'
_cell_volume   341.33766253
_cell_formula_units_Z   1
loop_
 _symmetry_equiv_pos_site_id
 _symmetry_equiv_pos_as_xyz
  1  'x, y, z'
loop_
 _atom_site_type_symbol
 _atom_site_label
 _atom_site_symmetry_multiplicity
 _atom_site_fract_x
 _atom_site_fract_y
 _atom_site_fract_z
 _atom_site_occupancy
  Tb  Tb0  1  0.000000  0.141951  0.174077  1
  Er  Er1  1  0.000000  0.856972  0.825820  1
  Er  Er2  1  0.000000  0.641606  0.325077  1
  Er  Er3  1  0.000000  0.357325  0.674350  1
  Co  Co4  1  0.255140  0.001448  0.502110  1
  Co  Co5  1  0.744277  0.503040  0.997520  1
  Co  Co6  1  0.744860  0.001448  0.502110  1
  Co  Co7  1  0.255723  0.503040  0.997520  1
  Co  Co8  1  0.500000  0.406149  0.349790  1
  Co  Co9  1  0.500000  0.603209  0.641706  1
  Co  Co10  1  0.500000  0.908502  0.153144  1
  Co  Co11  1  0.500000  0.102417  0.857929  1
  O  O12  1  0.275734  0.996812  0.998557  1
  O  O13  1  0.724460  0.497396  0.501192  1
  O  O14  1  0.724266  0.996812  0.998557  1
  O  O15  1  0.275540  0.497396  0.501192  1
  O  O16  1  0.000000  0.166736  0.448504  1
  O  O17  1  0.000000  0.838623  0.553816  1
  O  O18  1  0.000000  0.667633  0.052208  1
  O  O19  1  0.000000  0.339797  0.945573  1
  O  O20  1  0.500000  0.152074  0.443542  1
  O  O21  1  0.500000  0.841016  0.568477  1
  O  O22  1  0.500000  0.654090  0.052177  1
  O  O23  1  0.500000  0.340788  0.933530  1
  O  O24  1  0.245383  0.404260  0.208810  1
  O  O25  1  0.244304  0.596654  0.785319  1
  O  O26  1  0.754801  0.893960  0.292593  1
  O  O27  1  0.755684  0.096987  0.714039  1
  O  O28  1  0.755696  0.596654  0.785319  1
  O  O29  1  0.754617  0.404260  0.208810  1
  O  O30  1  0.244316  0.096987  0.714039  1
  O  O31  1  0.245199  0.893960  0.292593  1
