# generated using pymatgen
data_Eu2Er3Pb4
_symmetry_space_group_name_H-M   'P 1'
_cell_length_a   8.10230800
_cell_length_b   8.57589400
_cell_length_c   16.05916200
_cell_angle_alpha   90.00000000
_cell_angle_beta   90.00000000
_cell_angle_gamma   90.00000000
_symmetry_Int_Tables_number   1
_chemical_formula_structural   Eu2Er3Pb4
_chemical_formula_sum   'Eu8 Er12 Pb16'
_cell_volume   1115.86339705
_cell_formula_units_Z   4
loop_
 _symmetry_equiv_pos_site_id
 _symmetry_equiv_pos_as_xyz
  1  'x, y, z'
loop_
 _atom_site_type_symbol
 _atom_site_label
 _atom_site_symmetry_multiplicity
 _atom_site_fract_x
 _atom_site_fract_y
 _atom_site_fract_z
 _atom_site_occupancy
  Eu  Eu0  1  0.004197  0.180502  0.092498  1
  Eu  Eu1  1  0.504197  0.319498  0.407502  1
  Eu  Eu2  1  0.495803  0.680502  0.907502  1
  Eu  Eu3  1  0.995803  0.819498  0.592498  1
  Eu  Eu4  1  0.995803  0.819498  0.907502  1
  Eu  Eu5  1  0.495803  0.680502  0.592498  1
  Eu  Eu6  1  0.504197  0.319498  0.092498  1
  Eu  Eu7  1  0.004197  0.180502  0.407502  1
  Er  Er8  1  0.829205  0.657507  0.123915  1
  Er  Er9  1  0.329205  0.842493  0.376085  1
  Er  Er10  1  0.670795  0.157507  0.876085  1
  Er  Er11  1  0.170795  0.342493  0.623915  1
  Er  Er12  1  0.170795  0.342493  0.876085  1
  Er  Er13  1  0.670795  0.157507  0.623915  1
  Er  Er14  1  0.329205  0.842493  0.123915  1
  Er  Er15  1  0.829205  0.657507  0.376085  1
  Er  Er16  1  0.668355  0.003265  0.250000  1
  Er  Er17  1  0.168355  0.496735  0.250000  1
  Er  Er18  1  0.831645  0.503265  0.750000  1
  Er  Er19  1  0.331645  0.996735  0.750000  1
  Pb  Pb20  1  0.026941  0.866825  0.250000  1
  Pb  Pb21  1  0.526941  0.633175  0.250000  1
  Pb  Pb22  1  0.473059  0.366825  0.750000  1
  Pb  Pb23  1  0.973059  0.133175  0.750000  1
  Pb  Pb24  1  0.804991  0.353604  0.250000  1
  Pb  Pb25  1  0.304991  0.146396  0.250000  1
  Pb  Pb26  1  0.695009  0.853604  0.750000  1
  Pb  Pb27  1  0.195009  0.646396  0.750000  1
  Pb  Pb28  1  0.823056  0.458343  0.956046  1
  Pb  Pb29  1  0.323056  0.041657  0.543954  1
  Pb  Pb30  1  0.676944  0.958343  0.043954  1
  Pb  Pb31  1  0.176944  0.541657  0.456046  1
  Pb  Pb32  1  0.176944  0.541657  0.043954  1
  Pb  Pb33  1  0.676944  0.958343  0.456046  1
  Pb  Pb34  1  0.323056  0.041657  0.956046  1
  Pb  Pb35  1  0.823056  0.458343  0.543954  1
