# generated using pymatgen
data_PrNd5IrAu7
_symmetry_space_group_name_H-M   'P 1'
_cell_length_a   8.36140141
_cell_length_b   8.36901641
_cell_length_c   8.36331206
_cell_angle_alpha   114.50212339
_cell_angle_beta   114.45133248
_cell_angle_gamma   114.44552238
_symmetry_Int_Tables_number   1
_chemical_formula_structural   PrNd5IrAu7
_chemical_formula_sum   'Pr1 Nd5 Ir1 Au7'
_cell_volume   342.92072428
_cell_formula_units_Z   1
loop_
 _symmetry_equiv_pos_site_id
 _symmetry_equiv_pos_as_xyz
  1  'x, y, z'
loop_
 _atom_site_type_symbol
 _atom_site_label
 _atom_site_symmetry_multiplicity
 _atom_site_fract_x
 _atom_site_fract_y
 _atom_site_fract_z
 _atom_site_occupancy
  Pr  Pr0  1  0.737054  0.618618  0.987308  1
  Nd  Nd1  1  0.987007  0.736743  0.618708  1
  Nd  Nd2  1  0.618651  0.987263  0.737193  1
  Nd  Nd3  1  0.262685  0.381485  0.012372  1
  Nd  Nd4  1  0.012509  0.263108  0.381470  1
  Nd  Nd5  1  0.381668  0.012951  0.263253  1
  Ir  Ir6  1  0.000988  0.001223  0.000456  1
  Au  Au7  1  0.570751  0.233713  0.071003  1
  Au  Au8  1  0.071634  0.570403  0.234484  1
  Au  Au9  1  0.233231  0.069600  0.570848  1
  Au  Au10  1  0.428515  0.766407  0.929040  1
  Au  Au11  1  0.929659  0.428663  0.765459  1
  Au  Au12  1  0.766013  0.929828  0.429601  1
  Au  Au13  1  0.499635  0.499995  0.498805  1
