# generated using pymatgen
data_DyLuU2(ReB6)2
_symmetry_space_group_name_H-M   'P 1'
_cell_length_a   3.62464000
_cell_length_b   9.27801282
_cell_length_c   11.39753124
_cell_angle_alpha   89.92821260
_cell_angle_beta   90.00000000
_cell_angle_gamma   90.00000000
_symmetry_Int_Tables_number   1
_chemical_formula_structural   DyLuU2(ReB6)2
_chemical_formula_sum   'Dy2 Lu2 U4 Re4 B24'
_cell_volume   383.29247882
_cell_formula_units_Z   2
loop_
 _symmetry_equiv_pos_site_id
 _symmetry_equiv_pos_as_xyz
  1  'x, y, z'
loop_
 _atom_site_type_symbol
 _atom_site_label
 _atom_site_symmetry_multiplicity
 _atom_site_fract_x
 _atom_site_fract_y
 _atom_site_fract_z
 _atom_site_occupancy
  Dy  Dy0  1  0.000000  0.836566  0.092704  1
  Dy  Dy1  1  0.000000  0.163434  0.907296  1
  Lu  Lu2  1  0.000000  0.336797  0.407850  1
  Lu  Lu3  1  0.000000  0.663203  0.592150  1
  U  U4  1  0.000000  0.956286  0.396521  1
  U  U5  1  0.000000  0.043714  0.603479  1
  U  U6  1  0.000000  0.456260  0.103810  1
  U  U7  1  0.000000  0.543740  0.896190  1
  Re  Re8  1  0.000000  0.644033  0.319592  1
  Re  Re9  1  0.000000  0.355967  0.680408  1
  Re  Re10  1  0.000000  0.146331  0.182214  1
  Re  Re11  1  0.000000  0.853669  0.817786  1
  B  B12  1  0.500000  0.550247  0.431884  1
  B  B13  1  0.500000  0.449753  0.568116  1
  B  B14  1  0.500000  0.051929  0.069322  1
  B  B15  1  0.500000  0.948071  0.930678  1
  B  B16  1  0.500000  0.741590  0.424119  1
  B  B17  1  0.500000  0.258410  0.575881  1
  B  B18  1  0.500000  0.243357  0.077195  1
  B  B19  1  0.500000  0.756643  0.922805  1
  B  B20  1  0.500000  0.801486  0.276025  1
  B  B21  1  0.500000  0.198514  0.723975  1
  B  B22  1  0.500000  0.302536  0.225556  1
  B  B23  1  0.500000  0.697464  0.774444  1
  B  B24  1  0.500000  0.643511  0.189291  1
  B  B25  1  0.500000  0.356489  0.810709  1
  B  B26  1  0.500000  0.145012  0.311900  1
  B  B27  1  0.500000  0.854988  0.688100  1
  B  B28  1  0.500000  0.989081  0.220154  1
  B  B29  1  0.500000  0.010919  0.779846  1
  B  B30  1  0.500000  0.487632  0.281537  1
  B  B31  1  0.500000  0.512368  0.718463  1
  B  B32  1  0.500000  0.639829  0.039101  1
  B  B33  1  0.500000  0.360171  0.960899  1
  B  B34  1  0.500000  0.142284  0.460694  1
  B  B35  1  0.500000  0.857716  0.539306  1
