# generated using pymatgen
data_Nd2Ga2Co5NiB2
_symmetry_space_group_name_H-M   'P 1'
_cell_length_a   5.23959923
_cell_length_b   5.23959944
_cell_length_c   6.71255500
_cell_angle_alpha   90.00000000
_cell_angle_beta   90.00000000
_cell_angle_gamma   119.68955240
_symmetry_Int_Tables_number   1
_chemical_formula_structural   Nd2Ga2Co5NiB2
_chemical_formula_sum   'Nd2 Ga2 Co5 Ni1 B2'
_cell_volume   160.09020330
_cell_formula_units_Z   1
loop_
 _symmetry_equiv_pos_site_id
 _symmetry_equiv_pos_as_xyz
  1  'x, y, z'
loop_
 _atom_site_type_symbol
 _atom_site_label
 _atom_site_symmetry_multiplicity
 _atom_site_fract_x
 _atom_site_fract_y
 _atom_site_fract_z
 _atom_site_occupancy
  Nd  Nd0  1  0.000000  0.000000  0.002537  1
  Nd  Nd1  1  0.000000  0.000000  0.499279  1
  Ga  Ga2  1  0.331792  0.668208  0.001043  1
  Ga  Ga3  1  0.668208  0.331792  0.001043  1
  Co  Co4  1  0.500000  0.000000  0.702812  1
  Co  Co5  1  0.000000  0.500000  0.296510  1
  Co  Co6  1  0.500000  0.000000  0.296510  1
  Co  Co7  1  0.500000  0.500000  0.296769  1
  Co  Co8  1  0.000000  0.500000  0.702812  1
  Ni  Ni9  1  0.500000  0.500000  0.704063  1
  B  B10  1  0.330358  0.669642  0.498310  1
  B  B11  1  0.669642  0.330358  0.498310  1
