# generated using pymatgen
data_Nd2Ga2IrPt
_symmetry_space_group_name_H-M   'P 1'
_cell_length_a   4.48384100
_cell_length_b   7.06923600
_cell_length_c   7.89350000
_cell_angle_alpha   90.00000000
_cell_angle_beta   90.00000000
_cell_angle_gamma   90.00000000
_symmetry_Int_Tables_number   1
_chemical_formula_structural   Nd2Ga2IrPt
_chemical_formula_sum   'Nd4 Ga4 Ir2 Pt2'
_cell_volume   250.20287606
_cell_formula_units_Z   2
loop_
 _symmetry_equiv_pos_site_id
 _symmetry_equiv_pos_as_xyz
  1  'x, y, z'
loop_
 _atom_site_type_symbol
 _atom_site_label
 _atom_site_symmetry_multiplicity
 _atom_site_fract_x
 _atom_site_fract_y
 _atom_site_fract_z
 _atom_site_occupancy
  Nd  Nd0  1  0.250000  0.029397  0.686557  1
  Nd  Nd1  1  0.250000  0.529397  0.813443  1
  Nd  Nd2  1  0.750000  0.978283  0.306779  1
  Nd  Nd3  1  0.750000  0.478283  0.193221  1
  Ga  Ga4  1  0.250000  0.154587  0.072655  1
  Ga  Ga5  1  0.250000  0.654587  0.427345  1
  Ga  Ga6  1  0.750000  0.839928  0.933183  1
  Ga  Ga7  1  0.750000  0.339928  0.566817  1
  Ir  Ir8  1  0.250000  0.276721  0.391986  1
  Ir  Ir9  1  0.250000  0.776721  0.108014  1
  Pt  Pt10  1  0.750000  0.721084  0.607860  1
  Pt  Pt11  1  0.750000  0.221084  0.892140  1
