# generated using pymatgen
data_NiOs(Ru2W)2
_symmetry_space_group_name_H-M   'P 1'
_cell_length_a   5.50481503
_cell_length_b   5.47623654
_cell_length_c   4.34475400
_cell_angle_alpha   90.00000000
_cell_angle_beta   90.00000000
_cell_angle_gamma   120.24289040
_symmetry_Int_Tables_number   1
_chemical_formula_structural   NiOs(Ru2W)2
_chemical_formula_sum   'Ni1 Os1 Ru4 W2'
_cell_volume   113.14948825
_cell_formula_units_Z   1
loop_
 _symmetry_equiv_pos_site_id
 _symmetry_equiv_pos_as_xyz
  1  'x, y, z'
loop_
 _atom_site_type_symbol
 _atom_site_label
 _atom_site_symmetry_multiplicity
 _atom_site_fract_x
 _atom_site_fract_y
 _atom_site_fract_z
 _atom_site_occupancy
  Ni  Ni0  1  0.166049  0.329327  0.250000  1
  Os  Os1  1  0.665233  0.835866  0.250000  1
  Ru  Ru2  1  0.170937  0.836027  0.250000  1
  Ru  Ru3  1  0.833943  0.668173  0.750000  1
  Ru  Ru4  1  0.326180  0.169374  0.750000  1
  Ru  Ru5  1  0.843250  0.170786  0.750000  1
  W  W6  1  0.330810  0.661142  0.750000  1
  W  W7  1  0.663599  0.329303  0.250000  1
