# generated using pymatgen
data_GdLu7Sb20
_symmetry_space_group_name_H-M   'P 1'
_cell_length_a   4.19361500
_cell_length_b   13.06984682
_cell_length_c   14.44952400
_cell_angle_alpha   78.54119621
_cell_angle_beta   90.00000000
_cell_angle_gamma   90.00000000
_symmetry_Int_Tables_number   1
_chemical_formula_structural   GdLu7Sb20
_chemical_formula_sum   'Gd1 Lu7 Sb20'
_cell_volume   776.19120138
_cell_formula_units_Z   1
loop_
 _symmetry_equiv_pos_site_id
 _symmetry_equiv_pos_as_xyz
  1  'x, y, z'
loop_
 _atom_site_type_symbol
 _atom_site_label
 _atom_site_symmetry_multiplicity
 _atom_site_fract_x
 _atom_site_fract_y
 _atom_site_fract_z
 _atom_site_occupancy
  Gd  Gd0  1  0.750000  0.046016  0.642240  1
  Lu  Lu1  1  0.250000  0.397007  0.770642  1
  Lu  Lu2  1  0.750000  0.604837  0.229222  1
  Lu  Lu3  1  0.250000  0.660110  0.856839  1
  Lu  Lu4  1  0.750000  0.338091  0.144231  1
  Lu  Lu5  1  0.250000  0.668326  0.575484  1
  Lu  Lu6  1  0.750000  0.331478  0.423237  1
  Lu  Lu7  1  0.250000  0.954308  0.359797  1
  Sb  Sb8  1  0.250000  0.146788  0.779731  1
  Sb  Sb9  1  0.750000  0.857087  0.222799  1
  Sb  Sb10  1  0.250000  0.145744  0.481493  1
  Sb  Sb11  1  0.750000  0.854522  0.516141  1
  Sb  Sb12  1  0.250000  0.153287  0.167817  1
  Sb  Sb13  1  0.750000  0.844084  0.832083  1
  Sb  Sb14  1  0.250000  0.420335  0.976188  1
  Sb  Sb15  1  0.750000  0.578617  0.024573  1
  Sb  Sb16  1  0.750000  0.029137  0.912848  1
  Sb  Sb17  1  0.250000  0.969632  0.086141  1
  Sb  Sb18  1  0.750000  0.139736  0.320852  1
  Sb  Sb19  1  0.250000  0.856713  0.679201  1
  Sb  Sb20  1  0.750000  0.278614  0.936090  1
  Sb  Sb21  1  0.250000  0.720948  0.063955  1
  Sb  Sb22  1  0.750000  0.286970  0.653836  1
  Sb  Sb23  1  0.250000  0.715833  0.346007  1
  Sb  Sb24  1  0.750000  0.577417  0.734071  1
  Sb  Sb25  1  0.250000  0.423210  0.265535  1
  Sb  Sb26  1  0.750000  0.571771  0.446363  1
  Sb  Sb27  1  0.250000  0.429381  0.552585  1
