# generated using pymatgen
data_Dy4Ga24Pd2Pt7
_symmetry_space_group_name_H-M   'P 1'
_cell_length_a   7.52989946
_cell_length_b   7.53845243
_cell_length_c   13.19910800
_cell_angle_alpha   84.61454360
_cell_angle_beta   100.88072387
_cell_angle_gamma   119.83904513
_symmetry_Int_Tables_number   1
_chemical_formula_structural   Dy4Ga24Pd2Pt7
_chemical_formula_sum   'Dy4 Ga24 Pd2 Pt7'
_cell_volume   638.21943147
_cell_formula_units_Z   1
loop_
 _symmetry_equiv_pos_site_id
 _symmetry_equiv_pos_as_xyz
  1  'x, y, z'
loop_
 _atom_site_type_symbol
 _atom_site_label
 _atom_site_symmetry_multiplicity
 _atom_site_fract_x
 _atom_site_fract_y
 _atom_site_fract_z
 _atom_site_occupancy
  Dy  Dy0  1  0.730962  0.998854  0.190731  1
  Dy  Dy1  1  0.269284  0.001192  0.809229  1
  Dy  Dy2  1  0.061678  0.667854  0.190800  1
  Dy  Dy3  1  0.938266  0.331865  0.809290  1
  Ga  Ga4  1  0.808876  0.869598  0.817364  1
  Ga  Ga5  1  0.190871  0.130634  0.182630  1
  Ga  Ga6  1  0.983733  0.667322  0.938969  1
  Ga  Ga7  1  0.018851  0.333982  0.060848  1
  Ga  Ga8  1  0.398949  0.664516  0.817920  1
  Ga  Ga9  1  0.598829  0.335608  0.182641  1
  Ga  Ga10  1  0.885172  0.665303  0.674065  1
  Ga  Ga11  1  0.115289  0.334546  0.325862  1
  Ga  Ga12  1  0.603917  0.461026  0.817054  1
  Ga  Ga13  1  0.395535  0.541183  0.182410  1
  Ga  Ga14  1  0.230180  0.337864  0.674003  1
  Ga  Ga15  1  0.769997  0.662026  0.325972  1
  Ga  Ga16  1  0.853681  0.333200  0.557135  1
  Ga  Ga17  1  0.185413  0.999235  0.557445  1
  Ga  Ga18  1  0.814785  0.000516  0.442563  1
  Ga  Ga19  1  0.352923  0.995797  0.061269  1
  Ga  Ga20  1  0.645771  0.001543  0.938905  1
  Ga  Ga21  1  0.557729  0.994206  0.674228  1
  Ga  Ga22  1  0.442542  0.005344  0.325863  1
  Ga  Ga23  1  0.519913  0.666844  0.560307  1
  Ga  Ga24  1  0.480390  0.332943  0.439975  1
  Ga  Ga25  1  0.689206  0.671567  0.055997  1
  Ga  Ga26  1  0.309782  0.329312  0.943929  1
  Ga  Ga27  1  0.146480  0.666661  0.442587  1
  Pd  Pd28  1  0.329952  0.670135  0.000084  1
  Pd  Pd29  1  0.999826  0.000152  0.999991  1
  Pt  Pt30  1  0.547045  0.325346  0.637996  1
  Pt  Pt31  1  0.453586  0.674261  0.362519  1
  Pt  Pt32  1  0.887496  0.006656  0.639213  1
  Pt  Pt33  1  0.112859  0.993134  0.360798  1
  Pt  Pt34  1  0.669975  0.329977  0.999883  1
  Pt  Pt35  1  0.204776  0.666559  0.639277  1
  Pt  Pt36  1  0.795478  0.333238  0.360247  1
