# generated using pymatgen
data_La8Zn8Ir5Pt3
_symmetry_space_group_name_H-M   'P 1'
_cell_length_a   4.08745500
_cell_length_b   7.49538302
_cell_length_c   16.82835747
_cell_angle_alpha   89.91133897
_cell_angle_beta   90.00000000
_cell_angle_gamma   90.00000000
_symmetry_Int_Tables_number   1
_chemical_formula_structural   La8Zn8Ir5Pt3
_chemical_formula_sum   'La8 Zn8 Ir5 Pt3'
_cell_volume   515.57045733
_cell_formula_units_Z   1
loop_
 _symmetry_equiv_pos_site_id
 _symmetry_equiv_pos_as_xyz
  1  'x, y, z'
loop_
 _atom_site_type_symbol
 _atom_site_label
 _atom_site_symmetry_multiplicity
 _atom_site_fract_x
 _atom_site_fract_y
 _atom_site_fract_z
 _atom_site_occupancy
  La  La0  1  0.750000  0.325290  0.440212  1
  La  La1  1  0.250000  0.054334  0.717651  1
  La  La2  1  0.250000  0.544251  0.785379  1
  La  La3  1  0.250000  0.665648  0.560124  1
  La  La4  1  0.750000  0.826378  0.059421  1
  La  La5  1  0.250000  0.168773  0.936889  1
  La  La6  1  0.750000  0.455833  0.219327  1
  La  La7  1  0.750000  0.955869  0.280564  1
  Zn  Zn8  1  0.250000  0.125737  0.150724  1
  Zn  Zn9  1  0.250000  0.001641  0.440043  1
  Zn  Zn10  1  0.750000  0.874576  0.852094  1
  Zn  Zn11  1  0.750000  0.004773  0.560940  1
  Zn  Zn12  1  0.250000  0.501441  0.059645  1
  Zn  Zn13  1  0.750000  0.370305  0.649097  1
  Zn  Zn14  1  0.750000  0.503638  0.938672  1
  Zn  Zn15  1  0.250000  0.625494  0.349172  1
  Ir  Ir16  1  0.750000  0.252306  0.815214  1
  Ir  Ir17  1  0.250000  0.246820  0.313438  1
  Ir  Ir18  1  0.250000  0.739253  0.934314  1
  Ir  Ir19  1  0.250000  0.239728  0.565312  1
  Ir  Ir20  1  0.250000  0.746966  0.186526  1
  Pt  Pt21  1  0.750000  0.758370  0.434826  1
  Pt  Pt22  1  0.750000  0.259689  0.065616  1
  Pt  Pt23  1  0.750000  0.752886  0.684803  1
