# generated using pymatgen
data_Dy7YCd2OsPt
_symmetry_space_group_name_H-M   'P 1'
_cell_length_a   9.66204935
_cell_length_b   9.66201089
_cell_length_c   9.73131401
_cell_angle_alpha   59.76347854
_cell_angle_beta   59.76358363
_cell_angle_gamma   59.58689085
_symmetry_Int_Tables_number   1
_chemical_formula_structural   Dy7YCd2OsPt
_chemical_formula_sum   'Dy14 Y2 Cd4 Os2 Pt2'
_cell_volume   638.06827503
_cell_formula_units_Z   2
loop_
 _symmetry_equiv_pos_site_id
 _symmetry_equiv_pos_as_xyz
  1  'x, y, z'
loop_
 _atom_site_type_symbol
 _atom_site_label
 _atom_site_symmetry_multiplicity
 _atom_site_fract_x
 _atom_site_fract_y
 _atom_site_fract_z
 _atom_site_occupancy
  Dy  Dy0  1  0.349681  0.349683  0.352118  1
  Dy  Dy1  1  0.349656  0.349655  0.948556  1
  Dy  Dy2  1  0.346493  0.954884  0.349289  1
  Dy  Dy3  1  0.954884  0.346493  0.349289  1
  Dy  Dy4  1  0.813936  0.187917  0.191611  1
  Dy  Dy5  1  0.187911  0.813936  0.806543  1
  Dy  Dy6  1  0.187917  0.813938  0.191608  1
  Dy  Dy7  1  0.813936  0.187909  0.806544  1
  Dy  Dy8  1  0.188456  0.188455  0.811541  1
  Dy  Dy9  1  0.808172  0.808173  0.191819  1
  Dy  Dy10  1  0.938812  0.556070  0.566280  1
  Dy  Dy11  1  0.556084  0.938797  0.938835  1
  Dy  Dy12  1  0.556072  0.938813  0.566281  1
  Dy  Dy13  1  0.938796  0.556082  0.938838  1
  Y  Y14  1  0.563500  0.563498  0.936497  1
  Y  Y15  1  0.939520  0.939516  0.560506  1
  Cd  Cd16  1  0.580356  0.580355  0.581424  1
  Cd  Cd17  1  0.580360  0.580361  0.257867  1
  Cd  Cd18  1  0.581370  0.254662  0.581999  1
  Cd  Cd19  1  0.254660  0.581369  0.582002  1
  Os  Os20  1  0.144781  0.144781  0.135836  1
  Os  Os21  1  0.144776  0.144782  0.574590  1
  Pt  Pt22  1  0.145235  0.574639  0.140064  1
  Pt  Pt23  1  0.574637  0.145234  0.140067  1
