# generated using pymatgen
data_YPa3(CoGe)4
_symmetry_space_group_name_H-M   'P 1'
_cell_length_a   4.26387200
_cell_length_b   6.93343979
_cell_length_c   7.29489820
_cell_angle_alpha   93.15056644
_cell_angle_beta   90.00000000
_cell_angle_gamma   90.00000000
_symmetry_Int_Tables_number   1
_chemical_formula_structural   YPa3(CoGe)4
_chemical_formula_sum   'Y1 Pa3 Co4 Ge4'
_cell_volume   215.33530225
_cell_formula_units_Z   1
loop_
 _symmetry_equiv_pos_site_id
 _symmetry_equiv_pos_as_xyz
  1  'x, y, z'
loop_
 _atom_site_type_symbol
 _atom_site_label
 _atom_site_symmetry_multiplicity
 _atom_site_fract_x
 _atom_site_fract_y
 _atom_site_fract_z
 _atom_site_occupancy
  Y  Y0  1  0.250000  0.776953  0.480515  1
  Pa  Pa1  1  0.250000  0.696231  0.991274  1
  Pa  Pa2  1  0.750000  0.303519  0.009494  1
  Pa  Pa3  1  0.750000  0.231252  0.522213  1
  Co  Co4  1  0.250000  0.041792  0.122655  1
  Co  Co5  1  0.750000  0.957326  0.875051  1
  Co  Co6  1  0.750000  0.550558  0.250478  1
  Co  Co7  1  0.250000  0.441215  0.744952  1
  Ge  Ge8  1  0.250000  0.385833  0.299133  1
  Ge  Ge9  1  0.750000  0.619054  0.705242  1
  Ge  Ge10  1  0.750000  0.907789  0.224368  1
  Ge  Ge11  1  0.250000  0.088480  0.774624  1
