# generated using pymatgen
data_Ho2Fe3CoP7Ru8
_symmetry_space_group_name_H-M   'P 1'
_cell_length_a   9.23101380
_cell_length_b   9.26620216
_cell_length_c   3.83011900
_cell_angle_alpha   90.00000000
_cell_angle_beta   90.00000000
_cell_angle_gamma   120.04250900
_symmetry_Int_Tables_number   1
_chemical_formula_structural   Ho2Fe3CoP7Ru8
_chemical_formula_sum   'Ho2 Fe3 Co1 P7 Ru8'
_cell_volume   283.60108070
_cell_formula_units_Z   1
loop_
 _symmetry_equiv_pos_site_id
 _symmetry_equiv_pos_as_xyz
  1  'x, y, z'
loop_
 _atom_site_type_symbol
 _atom_site_label
 _atom_site_symmetry_multiplicity
 _atom_site_fract_x
 _atom_site_fract_y
 _atom_site_fract_z
 _atom_site_occupancy
  Ho  Ho0  1  0.999800  0.000641  0.000000  1
  Ho  Ho1  1  0.329164  0.663077  0.500000  1
  Fe  Fe2  1  0.783358  0.179866  0.000000  1
  Fe  Fe3  1  0.394297  0.221989  0.000000  1
  Fe  Fe4  1  0.824436  0.600472  0.000000  1
  Co  Co5  1  0.087817  0.393424  0.000000  1
  P  P6  1  0.559611  0.922149  0.000000  1
  P  P7  1  0.356861  0.442122  0.000000  1
  P  P8  1  0.078741  0.631339  0.000000  1
  P  P9  1  0.947829  0.216739  0.500000  1
  P  P10  1  0.269024  0.053560  0.500000  1
  P  P11  1  0.782737  0.729417  0.500000  1
  P  P12  1  0.665471  0.332842  0.000000  1
  Ru  Ru13  1  0.305751  0.909836  0.000000  1
  Ru  Ru14  1  0.602537  0.692101  0.000000  1
  Ru  Ru15  1  0.718916  0.946998  0.500000  1
  Ru  Ru16  1  0.225939  0.285431  0.500000  1
  Ru  Ru17  1  0.053510  0.771997  0.500000  1
  Ru  Ru18  1  0.551459  0.130738  0.500000  1
  Ru  Ru19  1  0.579281  0.448790  0.500000  1
  Ru  Ru20  1  0.883462  0.426469  0.500000  1
