# generated using pymatgen
data_Dy2Zn(PRh2)6
_symmetry_space_group_name_H-M   'P 1'
_cell_length_a   9.66041300
_cell_length_b   9.66041232
_cell_length_c   3.89049800
_cell_angle_alpha   90.00000000
_cell_angle_beta   90.00000000
_cell_angle_gamma   120.00000574
_symmetry_Int_Tables_number   1
_chemical_formula_structural   Dy2Zn(PRh2)6
_chemical_formula_sum   'Dy2 Zn1 P6 Rh12'
_cell_volume   314.43230541
_cell_formula_units_Z   1
loop_
 _symmetry_equiv_pos_site_id
 _symmetry_equiv_pos_as_xyz
  1  'x, y, z'
loop_
 _atom_site_type_symbol
 _atom_site_label
 _atom_site_symmetry_multiplicity
 _atom_site_fract_x
 _atom_site_fract_y
 _atom_site_fract_z
 _atom_site_occupancy
  Dy  Dy0  1  0.333333  0.666667  0.752952  1
  Dy  Dy1  1  0.666667  0.333333  0.247048  1
  Zn  Zn2  1  0.000000  0.000000  0.500000  1
  P  P3  1  0.401834  0.284645  0.748335  1
  P  P4  1  0.715355  0.117189  0.748335  1
  P  P5  1  0.882811  0.598166  0.748335  1
  P  P6  1  0.598166  0.715355  0.251665  1
  P  P7  1  0.284645  0.882811  0.251665  1
  P  P8  1  0.117189  0.401834  0.251665  1
  Rh  Rh9  1  0.451991  0.065727  0.749136  1
  Rh  Rh10  1  0.934273  0.386264  0.749136  1
  Rh  Rh11  1  0.613736  0.548009  0.749136  1
  Rh  Rh12  1  0.548009  0.934273  0.250864  1
  Rh  Rh13  1  0.065727  0.613736  0.250864  1
  Rh  Rh14  1  0.386264  0.451991  0.250864  1
  Rh  Rh15  1  0.158748  0.283643  0.753623  1
  Rh  Rh16  1  0.716357  0.875106  0.753623  1
  Rh  Rh17  1  0.124894  0.841252  0.753623  1
  Rh  Rh18  1  0.841252  0.716357  0.246377  1
  Rh  Rh19  1  0.283643  0.124894  0.246377  1
  Rh  Rh20  1  0.875106  0.158748  0.246377  1
