# generated using pymatgen
data_V8Cr4(GaS8)3
_symmetry_space_group_name_H-M   'P 1'
_cell_length_a   6.78360882
_cell_length_b   9.66972831
_cell_length_c   11.89244106
_cell_angle_alpha   113.83094748
_cell_angle_beta   106.17235330
_cell_angle_gamma   91.09620953
_symmetry_Int_Tables_number   1
_chemical_formula_structural   V8Cr4(GaS8)3
_chemical_formula_sum   'V8 Cr4 Ga3 S24'
_cell_volume   677.60471842
_cell_formula_units_Z   1
loop_
 _symmetry_equiv_pos_site_id
 _symmetry_equiv_pos_as_xyz
  1  'x, y, z'
loop_
 _atom_site_type_symbol
 _atom_site_label
 _atom_site_symmetry_multiplicity
 _atom_site_fract_x
 _atom_site_fract_y
 _atom_site_fract_z
 _atom_site_occupancy
  V  V0  1  0.412442  0.800716  0.810090  1
  V  V1  1  0.744774  0.134708  0.476636  1
  V  V2  1  0.934035  0.328980  0.860899  1
  V  V3  1  0.267428  0.657149  0.522688  1
  V  V4  1  0.601914  0.989671  0.189499  1
  V  V5  1  0.796084  0.605902  0.999325  1
  V  V6  1  0.124438  0.945084  0.667037  1
  V  V7  1  0.456790  0.276982  0.332917  1
  Cr  Cr8  1  0.198309  0.599540  0.998033  1
  Cr  Cr9  1  0.534867  0.934700  0.666703  1
  Cr  Cr10  1  0.866247  0.266327  0.333680  1
  Cr  Cr11  1  0.076094  0.463115  0.150363  1
  Ga  Ga12  1  0.007315  0.002635  0.998208  1
  Ga  Ga13  1  0.340166  0.337666  0.666550  1
  Ga  Ga14  1  0.672002  0.671557  0.330918  1
  S  S15  1  0.731900  0.863102  0.999738  1
  S  S16  1  0.062186  0.199971  0.667980  1
  S  S17  1  0.394831  0.531266  0.331975  1
  S  S18  1  0.569161  0.708692  0.146233  1
  S  S19  1  0.901866  0.045598  0.815739  1
  S  S20  1  0.233600  0.376334  0.481349  1
  S  S21  1  0.421977  0.561726  0.851745  1
  S  S22  1  0.752464  0.894658  0.517555  1
  S  S23  1  0.084820  0.227790  0.184691  1
  S  S24  1  0.272144  0.858256  0.999898  1
  S  S25  1  0.605191  0.192923  0.667138  1
  S  S26  1  0.936164  0.524181  0.332718  1
  S  S27  1  0.744522  0.372476  0.000180  1
  S  S28  1  0.081815  0.708034  0.666612  1
  S  S29  1  0.414820  0.040239  0.332792  1
  S  S30  1  0.915030  0.543590  0.827322  1
  S  S31  1  0.244271  0.876043  0.494241  1
  S  S32  1  0.577031  0.207466  0.160265  1
  S  S33  1  0.086988  0.710717  0.171089  1
  S  S34  1  0.417711  0.048612  0.839805  1
  S  S35  1  0.749414  0.382200  0.505769  1
  S  S36  1  0.254958  0.372893  0.002355  1
  S  S37  1  0.590084  0.702931  0.665820  1
  S  S38  1  0.924148  0.035571  0.333444  1
