# generated using pymatgen
data_ErTm4Bi2Au
_symmetry_space_group_name_H-M   'P 1'
_cell_length_a   7.98388800
_cell_length_b   9.25348700
_cell_length_c   12.06683400
_cell_angle_alpha   90.00000000
_cell_angle_beta   90.00000000
_cell_angle_gamma   90.00000000
_symmetry_Int_Tables_number   1
_chemical_formula_structural   ErTm4Bi2Au
_chemical_formula_sum   'Er4 Tm16 Bi8 Au4'
_cell_volume   891.48326178
_cell_formula_units_Z   4
loop_
 _symmetry_equiv_pos_site_id
 _symmetry_equiv_pos_as_xyz
  1  'x, y, z'
loop_
 _atom_site_type_symbol
 _atom_site_label
 _atom_site_symmetry_multiplicity
 _atom_site_fract_x
 _atom_site_fract_y
 _atom_site_fract_z
 _atom_site_occupancy
  Er  Er0  1  0.634540  0.750000  0.297449  1
  Er  Er1  1  0.865460  0.750000  0.797449  1
  Er  Er2  1  0.365460  0.250000  0.702551  1
  Er  Er3  1  0.134540  0.250000  0.202551  1
  Tm  Tm4  1  0.820184  0.553642  0.065191  1
  Tm  Tm5  1  0.679816  0.946358  0.565191  1
  Tm  Tm6  1  0.179816  0.053642  0.934809  1
  Tm  Tm7  1  0.320184  0.446358  0.434809  1
  Tm  Tm8  1  0.179816  0.446358  0.934809  1
  Tm  Tm9  1  0.320184  0.053642  0.434809  1
  Tm  Tm10  1  0.820184  0.946358  0.065191  1
  Tm  Tm11  1  0.679816  0.553642  0.565191  1
  Tm  Tm12  1  0.174758  0.750000  0.218546  1
  Tm  Tm13  1  0.325242  0.750000  0.718546  1
  Tm  Tm14  1  0.825242  0.250000  0.781454  1
  Tm  Tm15  1  0.674758  0.250000  0.281454  1
  Tm  Tm16  1  0.457156  0.750000  0.001823  1
  Tm  Tm17  1  0.042844  0.750000  0.501823  1
  Tm  Tm18  1  0.542844  0.250000  0.998177  1
  Tm  Tm19  1  0.957156  0.250000  0.498177  1
  Bi  Bi20  1  0.934299  0.510423  0.326406  1
  Bi  Bi21  1  0.565701  0.989577  0.826406  1
  Bi  Bi22  1  0.065701  0.010423  0.673594  1
  Bi  Bi23  1  0.434299  0.489577  0.173594  1
  Bi  Bi24  1  0.065701  0.489577  0.673594  1
  Bi  Bi25  1  0.434299  0.010423  0.173594  1
  Bi  Bi26  1  0.934299  0.989577  0.326406  1
  Bi  Bi27  1  0.565701  0.510423  0.826406  1
  Au  Au28  1  0.409154  0.750000  0.483728  1
  Au  Au29  1  0.090846  0.750000  0.983728  1
  Au  Au30  1  0.590846  0.250000  0.516272  1
  Au  Au31  1  0.909154  0.250000  0.016272  1
