# generated using pymatgen
data_SrYPt10
_symmetry_space_group_name_H-M   'P 1'
_cell_length_a   4.42945200
_cell_length_b   5.44851200
_cell_length_c   9.38149400
_cell_angle_alpha   89.99998948
_cell_angle_beta   90.00000000
_cell_angle_gamma   90.00000000
_symmetry_Int_Tables_number   1
_chemical_formula_structural   SrYPt10
_chemical_formula_sum   'Sr1 Y1 Pt10'
_cell_volume   226.41224796
_cell_formula_units_Z   1
loop_
 _symmetry_equiv_pos_site_id
 _symmetry_equiv_pos_as_xyz
  1  'x, y, z'
loop_
 _atom_site_type_symbol
 _atom_site_label
 _atom_site_symmetry_multiplicity
 _atom_site_fract_x
 _atom_site_fract_y
 _atom_site_fract_z
 _atom_site_occupancy
  Sr  Sr0  1  0.000000  0.999979  0.000000  1
  Y  Y1  1  0.000000  0.499975  0.500000  1
  Pt  Pt2  1  0.000000  0.999982  0.339100  1
  Pt  Pt3  1  0.000000  0.499981  0.825895  1
  Pt  Pt4  1  0.000000  0.499981  0.174105  1
  Pt  Pt5  1  0.000000  0.999982  0.660900  1
  Pt  Pt6  1  0.500000  0.999988  0.500000  1
  Pt  Pt7  1  0.500000  0.499989  0.000000  1
  Pt  Pt8  1  0.500000  0.253611  0.255768  1
  Pt  Pt9  1  0.500000  0.746360  0.744232  1
  Pt  Pt10  1  0.500000  0.746360  0.255768  1
  Pt  Pt11  1  0.500000  0.253611  0.744232  1
