# generated using pymatgen
data_Ba4Sr2Sm2Cr(FeO5)3
_symmetry_space_group_name_H-M   'P 1'
_cell_length_a   11.77619396
_cell_length_b   11.77619401
_cell_length_c   7.02102600
_cell_angle_alpha   89.85840727
_cell_angle_beta   89.85840727
_cell_angle_gamma   119.83010414
_symmetry_Int_Tables_number   1
_chemical_formula_structural   Ba4Sr2Sm2Cr(FeO5)3
_chemical_formula_sum   'Ba8 Sr4 Sm4 Cr2 Fe6 O30'
_cell_volume   844.65002593
_cell_formula_units_Z   2
loop_
 _symmetry_equiv_pos_site_id
 _symmetry_equiv_pos_as_xyz
  1  'x, y, z'
loop_
 _atom_site_type_symbol
 _atom_site_label
 _atom_site_symmetry_multiplicity
 _atom_site_fract_x
 _atom_site_fract_y
 _atom_site_fract_z
 _atom_site_occupancy
  Ba  Ba0  1  0.826062  0.173491  0.333822  1
  Ba  Ba1  1  0.830212  0.655584  0.329283  1
  Ba  Ba2  1  0.344316  0.170256  0.336368  1
  Ba  Ba3  1  0.173491  0.826062  0.833822  1
  Ba  Ba4  1  0.170256  0.344316  0.836368  1
  Ba  Ba5  1  0.655584  0.830212  0.829283  1
  Ba  Ba6  1  0.668944  0.334471  0.022665  1
  Ba  Ba7  1  0.334471  0.668944  0.522665  1
  Sr  Sr8  1  0.000061  0.999937  0.511973  1
  Sr  Sr9  1  0.999937  0.000061  0.011973  1
  Sr  Sr10  1  0.521289  0.044503  0.666496  1
  Sr  Sr11  1  0.044503  0.521289  0.166496  1
  Sm  Sm12  1  0.520243  0.478696  0.662169  1
  Sm  Sm13  1  0.958513  0.479004  0.666890  1
  Sm  Sm14  1  0.478696  0.520243  0.162169  1
  Sm  Sm15  1  0.479004  0.958513  0.166890  1
  Cr  Cr16  1  0.665069  0.334217  0.483573  1
  Cr  Cr17  1  0.334217  0.665069  0.983573  1
  Fe  Fe18  1  0.820475  0.175115  0.837034  1
  Fe  Fe19  1  0.820612  0.646983  0.832187  1
  Fe  Fe20  1  0.354480  0.178200  0.842761  1
  Fe  Fe21  1  0.175115  0.820475  0.337034  1
  Fe  Fe22  1  0.178200  0.354480  0.342761  1
  Fe  Fe23  1  0.646983  0.820612  0.332187  1
  O  O24  1  0.062946  0.671558  0.488081  1
  O  O25  1  0.334820  0.396473  0.474902  1
  O  O26  1  0.602096  0.933597  0.455513  1
  O  O27  1  0.065442  0.392467  0.488080  1
  O  O28  1  0.329127  0.937147  0.463279  1
  O  O29  1  0.602623  0.664231  0.469987  1
  O  O30  1  0.937147  0.329127  0.963279  1
  O  O31  1  0.664231  0.602623  0.969987  1
  O  O32  1  0.392467  0.065442  0.988080  1
  O  O33  1  0.933597  0.602096  0.955513  1
  O  O34  1  0.671558  0.062946  0.988081  1
  O  O35  1  0.396473  0.334820  0.974902  1
  O  O36  1  0.580669  0.418536  0.330840  1
  O  O37  1  0.583723  0.169930  0.325117  1
  O  O38  1  0.830940  0.417179  0.340273  1
  O  O39  1  0.418536  0.580669  0.830840  1
  O  O40  1  0.417179  0.830940  0.840273  1
  O  O41  1  0.169930  0.583723  0.825117  1
  O  O42  1  0.085581  0.902359  0.243278  1
  O  O43  1  0.093345  0.183948  0.247810  1
  O  O44  1  0.819660  0.905256  0.247284  1
  O  O45  1  0.902359  0.085581  0.743278  1
  O  O46  1  0.905256  0.819660  0.747284  1
  O  O47  1  0.183948  0.093345  0.747810  1
  O  O48  1  0.755466  0.256702  0.660639  1
  O  O49  1  0.746240  0.503540  0.653497  1
  O  O50  1  0.496154  0.257509  0.660400  1
  O  O51  1  0.256702  0.755466  0.160639  1
  O  O52  1  0.257509  0.496154  0.160400  1
  O  O53  1  0.503540  0.746240  0.153497  1
