# generated using pymatgen
data_HoTm5Al24Os5Pt3
_symmetry_space_group_name_H-M   'P 1'
_cell_length_a   8.79323157
_cell_length_b   8.81099429
_cell_length_c   9.52217357
_cell_angle_alpha   90.15289667
_cell_angle_beta   89.68621304
_cell_angle_gamma   119.50446850
_symmetry_Int_Tables_number   1
_chemical_formula_structural   HoTm5Al24Os5Pt3
_chemical_formula_sum   'Ho1 Tm5 Al24 Os5 Pt3'
_cell_volume   642.06740285
_cell_formula_units_Z   1
loop_
 _symmetry_equiv_pos_site_id
 _symmetry_equiv_pos_as_xyz
  1  'x, y, z'
loop_
 _atom_site_type_symbol
 _atom_site_label
 _atom_site_symmetry_multiplicity
 _atom_site_fract_x
 _atom_site_fract_y
 _atom_site_fract_z
 _atom_site_occupancy
  Ho  Ho0  1  0.187765  0.383099  0.250603  1
  Tm  Tm1  1  0.811795  0.614545  0.748914  1
  Tm  Tm2  1  0.610853  0.813902  0.252342  1
  Tm  Tm3  1  0.388673  0.186077  0.747676  1
  Tm  Tm4  1  0.196429  0.808848  0.251922  1
  Tm  Tm5  1  0.803954  0.191580  0.747998  1
  Al  Al6  1  0.335200  0.671317  0.031269  1
  Al  Al7  1  0.665006  0.328826  0.968057  1
  Al  Al8  1  0.669119  0.331613  0.529843  1
  Al  Al9  1  0.330445  0.668525  0.470547  1
  Al  Al10  1  0.158193  0.325674  0.575764  1
  Al  Al11  1  0.841868  0.674717  0.424838  1
  Al  Al12  1  0.673501  0.840671  0.575899  1
  Al  Al13  1  0.836798  0.676354  0.078378  1
  Al  Al14  1  0.326685  0.159433  0.424379  1
  Al  Al15  1  0.163376  0.323786  0.920972  1
  Al  Al16  1  0.163581  0.834998  0.577098  1
  Al  Al17  1  0.325750  0.158837  0.076502  1
  Al  Al18  1  0.836028  0.165098  0.423427  1
  Al  Al19  1  0.674661  0.841108  0.923038  1
  Al  Al20  1  0.831458  0.159411  0.078062  1
  Al  Al21  1  0.168355  0.840658  0.921607  1
  Al  Al22  1  0.560622  0.125386  0.249926  1
  Al  Al23  1  0.439617  0.874906  0.750160  1
  Al  Al24  1  0.874237  0.438548  0.252804  1
  Al  Al25  1  0.125985  0.561922  0.747610  1
  Al  Al26  1  0.562760  0.437270  0.249686  1
  Al  Al27  1  0.438004  0.563055  0.750224  1
  Al  Al28  1  0.997127  0.000809  0.250254  1
  Al  Al29  1  0.001601  0.997092  0.749799  1
  Os  Os30  1  0.500112  0.000152  0.999999  1
  Os  Os31  1  0.499967  0.000120  0.500064  1
  Os  Os32  1  0.999581  0.500216  0.500621  1
  Os  Os33  1  0.000126  0.000225  0.999999  1
  Os  Os34  1  0.000113  0.000316  0.500034  1
  Pt  Pt35  1  0.999882  0.500290  0.999891  1
  Pt  Pt36  1  0.500439  0.500144  0.999693  1
  Pt  Pt37  1  0.500335  0.500469  0.500102  1
