# generated using pymatgen
data_Er6Zn21GeRh2
_symmetry_space_group_name_H-M   'P 1'
_cell_length_a   9.03930455
_cell_length_b   8.93981657
_cell_length_c   9.03931295
_cell_angle_alpha   60.36306586
_cell_angle_beta   59.26824657
_cell_angle_gamma   60.36475862
_symmetry_Int_Tables_number   1
_chemical_formula_structural   Er6Zn21GeRh2
_chemical_formula_sum   'Er6 Zn21 Ge1 Rh2'
_cell_volume   516.37597975
_cell_formula_units_Z   1
loop_
 _symmetry_equiv_pos_site_id
 _symmetry_equiv_pos_as_xyz
  1  'x, y, z'
loop_
 _atom_site_type_symbol
 _atom_site_label
 _atom_site_symmetry_multiplicity
 _atom_site_fract_x
 _atom_site_fract_y
 _atom_site_fract_z
 _atom_site_occupancy
  Er  Er0  1  0.720342  0.279596  0.279652  1
  Er  Er1  1  0.720585  0.279418  0.720583  1
  Er  Er2  1  0.720326  0.720398  0.279673  1
  Er  Er3  1  0.279663  0.720412  0.720334  1
  Er  Er4  1  0.279415  0.720593  0.279415  1
  Er  Er5  1  0.279673  0.279597  0.720332  1
  Zn  Zn6  1  0.621227  0.124710  0.129350  1
  Zn  Zn7  1  0.124735  0.621221  0.124733  1
  Zn  Zn8  1  0.129352  0.124711  0.621231  1
  Zn  Zn9  1  0.124737  0.129314  0.124740  1
  Zn  Zn10  1  0.378768  0.875291  0.870657  1
  Zn  Zn11  1  0.875263  0.378786  0.875263  1
  Zn  Zn12  1  0.870653  0.875290  0.378766  1
  Zn  Zn13  1  0.875269  0.870683  0.875267  1
  Zn  Zn14  1  0.499994  0.000000  0.000007  1
  Zn  Zn15  1  0.500001  0.499993  0.000001  1
  Zn  Zn16  1  0.999990  0.499998  0.500010  1
  Zn  Zn17  1  0.000002  0.999994  0.499998  1
  Zn  Zn18  1  0.999998  0.999996  0.000006  1
  Zn  Zn19  1  0.001061  0.334034  0.330883  1
  Zn  Zn20  1  0.334060  0.001044  0.334031  1
  Zn  Zn21  1  0.330883  0.334024  0.001057  1
  Zn  Zn22  1  0.334040  0.330863  0.334050  1
  Zn  Zn23  1  0.998945  0.665963  0.669118  1
  Zn  Zn24  1  0.665942  0.998961  0.665968  1
  Zn  Zn25  1  0.669118  0.665978  0.998948  1
  Zn  Zn26  1  0.665968  0.669126  0.665945  1
  Ge  Ge27  1  0.499994  0.500002  0.500003  1
  Rh  Rh28  1  0.499996  0.000005  0.499990  1
  Rh  Rh29  1  0.000000  0.500000  0.999989  1
