# generated using pymatgen
data_Dy8Tm12Ga13Si3
_symmetry_space_group_name_H-M   'P 1'
_cell_length_a   7.43465402
_cell_length_b   7.77544100
_cell_length_c   14.92290400
_cell_angle_alpha   90.00000000
_cell_angle_beta   90.00000000
_cell_angle_gamma   90.10828223
_symmetry_Int_Tables_number   1
_chemical_formula_structural   Dy8Tm12Ga13Si3
_chemical_formula_sum   'Dy8 Tm12 Ga13 Si3'
_cell_volume   862.65742134
_cell_formula_units_Z   1
loop_
 _symmetry_equiv_pos_site_id
 _symmetry_equiv_pos_as_xyz
  1  'x, y, z'
loop_
 _atom_site_type_symbol
 _atom_site_label
 _atom_site_symmetry_multiplicity
 _atom_site_fract_x
 _atom_site_fract_y
 _atom_site_fract_z
 _atom_site_occupancy
  Dy  Dy0  1  0.015184  0.181921  0.096685  1
  Dy  Dy1  1  0.984534  0.817666  0.905377  1
  Dy  Dy2  1  0.485461  0.680298  0.905025  1
  Dy  Dy3  1  0.984534  0.817666  0.594623  1
  Dy  Dy4  1  0.514852  0.317788  0.096282  1
  Dy  Dy5  1  0.015184  0.181921  0.403315  1
  Dy  Dy6  1  0.514852  0.317788  0.403718  1
  Dy  Dy7  1  0.485461  0.680298  0.594975  1
  Tm  Tm8  1  0.163699  0.511184  0.750000  1
  Tm  Tm9  1  0.837138  0.488577  0.250000  1
  Tm  Tm10  1  0.337727  0.011962  0.250000  1
  Tm  Tm11  1  0.666226  0.986912  0.750000  1
  Tm  Tm12  1  0.328390  0.175792  0.620646  1
  Tm  Tm13  1  0.672109  0.826315  0.379116  1
  Tm  Tm14  1  0.172267  0.673531  0.378635  1
  Tm  Tm15  1  0.672109  0.826315  0.120884  1
  Tm  Tm16  1  0.826513  0.327417  0.621234  1
  Tm  Tm17  1  0.328390  0.175792  0.879354  1
  Tm  Tm18  1  0.826513  0.327417  0.878766  1
  Tm  Tm19  1  0.172267  0.673531  0.121365  1
  Ga  Ga20  1  0.035552  0.112320  0.750000  1
  Ga  Ga21  1  0.964834  0.895164  0.250000  1
  Ga  Ga22  1  0.464921  0.605122  0.250000  1
  Ga  Ga23  1  0.535093  0.393704  0.750000  1
  Ga  Ga24  1  0.278458  0.871843  0.750000  1
  Ga  Ga25  1  0.158689  0.468989  0.540202  1
  Ga  Ga26  1  0.839977  0.529852  0.458185  1
  Ga  Ga27  1  0.340003  0.969398  0.458193  1
  Ga  Ga28  1  0.839977  0.529852  0.041815  1
  Ga  Ga29  1  0.660305  0.030587  0.540804  1
  Ga  Ga30  1  0.158689  0.468989  0.959798  1
  Ga  Ga31  1  0.660305  0.030587  0.959196  1
  Ga  Ga32  1  0.340003  0.969398  0.041807  1
  Si  Si33  1  0.720286  0.125826  0.250000  1
  Si  Si34  1  0.219973  0.373664  0.250000  1
  Si  Si35  1  0.779528  0.624621  0.750000  1
