# generated using pymatgen
data_Sc2GaIr3Pt2
_symmetry_space_group_name_H-M   'P 1'
_cell_length_a   5.54445759
_cell_length_b   5.54445760
_cell_length_c   4.08773200
_cell_angle_alpha   90.00000000
_cell_angle_beta   90.00000000
_cell_angle_gamma   95.22388016
_symmetry_Int_Tables_number   1
_chemical_formula_structural   Sc2GaIr3Pt2
_chemical_formula_sum   'Sc2 Ga1 Ir3 Pt2'
_cell_volume   125.13908214
_cell_formula_units_Z   1
loop_
 _symmetry_equiv_pos_site_id
 _symmetry_equiv_pos_as_xyz
  1  'x, y, z'
loop_
 _atom_site_type_symbol
 _atom_site_label
 _atom_site_symmetry_multiplicity
 _atom_site_fract_x
 _atom_site_fract_y
 _atom_site_fract_z
 _atom_site_occupancy
  Sc  Sc0  1  0.724171  0.275829  0.500000  1
  Sc  Sc1  1  0.275829  0.724171  0.500000  1
  Ga  Ga2  1  0.000000  0.000000  0.000000  1
  Ir  Ir3  1  0.500000  0.500000  0.000000  1
  Ir  Ir4  1  0.224902  0.224902  0.500000  1
  Ir  Ir5  1  0.775098  0.775098  0.500000  1
  Pt  Pt6  1  0.000000  0.500000  0.000000  1
  Pt  Pt7  1  0.500000  0.000000  0.000000  1
