# generated using pymatgen
data_Dy10AlGa2Sb3
_symmetry_space_group_name_H-M   'P 1'
_cell_length_a   6.50479300
_cell_length_b   8.81619352
_cell_length_c   8.79185573
_cell_angle_alpha   119.99941783
_cell_angle_beta   90.00017759
_cell_angle_gamma   90.00036838
_symmetry_Int_Tables_number   1
_chemical_formula_structural   Dy10AlGa2Sb3
_chemical_formula_sum   'Dy10 Al1 Ga2 Sb3'
_cell_volume   436.64483525
_cell_formula_units_Z   1
loop_
 _symmetry_equiv_pos_site_id
 _symmetry_equiv_pos_as_xyz
  1  'x, y, z'
loop_
 _atom_site_type_symbol
 _atom_site_label
 _atom_site_symmetry_multiplicity
 _atom_site_fract_x
 _atom_site_fract_y
 _atom_site_fract_z
 _atom_site_occupancy
  Dy  Dy0  1  0.503636  0.342458  0.674406  1
  Dy  Dy1  1  0.504028  0.652249  0.319658  1
  Dy  Dy2  1  0.995970  0.652242  0.319657  1
  Dy  Dy3  1  0.996364  0.342465  0.674405  1
  Dy  Dy4  1  0.750000  0.247861  0.013082  1
  Dy  Dy5  1  0.749993  0.750736  0.764610  1
  Dy  Dy6  1  0.749999  0.000407  0.236601  1
  Dy  Dy7  1  0.250003  0.756500  0.998305  1
  Dy  Dy8  1  0.250005  0.243402  0.231823  1
  Dy  Dy9  1  0.250006  0.009143  0.766750  1
  Al  Al10  1  0.250001  0.398175  0.995909  1
  Ga  Ga11  1  0.749999  0.603437  0.000859  1
  Ga  Ga12  1  0.749993  0.392525  0.396728  1
  Sb  Sb13  1  0.749997  0.997416  0.608360  1
  Sb  Sb14  1  0.250007  0.609540  0.604687  1
  Sb  Sb15  1  0.250003  0.001447  0.394159  1
