# generated using pymatgen
data_BaDyCr4N7
_symmetry_space_group_name_H-M   'P 1'
_cell_length_a   6.26722400
_cell_length_b   6.26722383
_cell_length_c   10.28654100
_cell_angle_alpha   90.00000000
_cell_angle_beta   90.00000000
_cell_angle_gamma   120.00000089
_symmetry_Int_Tables_number   1
_chemical_formula_structural   BaDyCr4N7
_chemical_formula_sum   'Ba2 Dy2 Cr8 N14'
_cell_volume   349.90521248
_cell_formula_units_Z   2
loop_
 _symmetry_equiv_pos_site_id
 _symmetry_equiv_pos_as_xyz
  1  'x, y, z'
loop_
 _atom_site_type_symbol
 _atom_site_label
 _atom_site_symmetry_multiplicity
 _atom_site_fract_x
 _atom_site_fract_y
 _atom_site_fract_z
 _atom_site_occupancy
  Ba  Ba0  1  0.333333  0.666667  0.363984  1
  Ba  Ba1  1  0.666667  0.333333  0.863984  1
  Dy  Dy2  1  0.333333  0.666667  0.736110  1
  Dy  Dy3  1  0.666667  0.333333  0.236110  1
  Cr  Cr4  1  0.830403  0.660806  0.548872  1
  Cr  Cr5  1  0.169597  0.830403  0.048872  1
  Cr  Cr6  1  0.660806  0.830403  0.048872  1
  Cr  Cr7  1  0.339194  0.169597  0.548872  1
  Cr  Cr8  1  0.830403  0.169597  0.548872  1
  Cr  Cr9  1  0.169597  0.339194  0.048872  1
  Cr  Cr10  1  0.000000  0.000000  0.808121  1
  Cr  Cr11  1  0.000000  0.000000  0.308121  1
  N  N12  1  0.000000  0.000000  0.619299  1
  N  N13  1  0.000000  0.000000  0.119299  1
  N  N14  1  0.156726  0.313451  0.870277  1
  N  N15  1  0.843274  0.156726  0.370277  1
  N  N16  1  0.313451  0.156726  0.370277  1
  N  N17  1  0.686549  0.843274  0.870277  1
  N  N18  1  0.156726  0.843274  0.870277  1
  N  N19  1  0.843274  0.686549  0.370277  1
  N  N20  1  0.981572  0.490787  0.602981  1
  N  N21  1  0.490787  0.981572  0.102981  1
  N  N22  1  0.490787  0.509213  0.102981  1
  N  N23  1  0.509213  0.490787  0.602981  1
  N  N24  1  0.018428  0.509213  0.102981  1
  N  N25  1  0.509213  0.018428  0.602981  1
