# generated using pymatgen
data_Tm2Ga(BIr2)3
_symmetry_space_group_name_H-M   'P 1'
_cell_length_a   5.53855200
_cell_length_b   5.53855050
_cell_length_c   13.06868300
_cell_angle_alpha   90.00000000
_cell_angle_beta   90.00000000
_cell_angle_gamma   120.00000896
_symmetry_Int_Tables_number   1
_chemical_formula_structural   Tm2Ga(BIr2)3
_chemical_formula_sum   'Tm4 Ga2 B6 Ir12'
_cell_volume   347.18005977
_cell_formula_units_Z   2
loop_
 _symmetry_equiv_pos_site_id
 _symmetry_equiv_pos_as_xyz
  1  'x, y, z'
loop_
 _atom_site_type_symbol
 _atom_site_label
 _atom_site_symmetry_multiplicity
 _atom_site_fract_x
 _atom_site_fract_y
 _atom_site_fract_z
 _atom_site_occupancy
  Tm  Tm0  1  0.000000  0.000000  0.000000  1
  Tm  Tm1  1  0.000000  0.000000  0.500000  1
  Tm  Tm2  1  0.000000  0.000000  0.742218  1
  Tm  Tm3  1  0.000000  0.000000  0.257782  1
  Ga  Ga4  1  0.666667  0.333333  0.000000  1
  Ga  Ga5  1  0.333333  0.666667  0.000000  1
  B  B6  1  0.666667  0.333333  0.500000  1
  B  B7  1  0.333333  0.666667  0.500000  1
  B  B8  1  0.666667  0.333333  0.734223  1
  B  B9  1  0.333333  0.666667  0.734223  1
  B  B10  1  0.333333  0.666667  0.265777  1
  B  B11  1  0.666667  0.333333  0.265777  1
  Ir  Ir12  1  0.500000  0.500000  0.842252  1
  Ir  Ir13  1  0.500000  0.000000  0.842252  1
  Ir  Ir14  1  0.000000  0.500000  0.842252  1
  Ir  Ir15  1  0.500000  0.500000  0.157748  1
  Ir  Ir16  1  0.500000  0.000000  0.157748  1
  Ir  Ir17  1  0.000000  0.500000  0.157748  1
  Ir  Ir18  1  0.500000  0.500000  0.614195  1
  Ir  Ir19  1  0.500000  0.000000  0.614195  1
  Ir  Ir20  1  0.000000  0.500000  0.614195  1
  Ir  Ir21  1  0.500000  0.500000  0.385805  1
  Ir  Ir22  1  0.500000  0.000000  0.385805  1
  Ir  Ir23  1  0.000000  0.500000  0.385805  1
