# generated using pymatgen
data_Tb3MgZrInIr3
_symmetry_space_group_name_H-M   'P 1'
_cell_length_a   7.36991686
_cell_length_b   7.21086539
_cell_length_c   4.22899200
_cell_angle_alpha   90.00000000
_cell_angle_beta   90.00000000
_cell_angle_gamma   118.76396429
_symmetry_Int_Tables_number   1
_chemical_formula_structural   Tb3MgZrInIr3
_chemical_formula_sum   'Tb3 Mg1 Zr1 In1 Ir3'
_cell_volume   197.01215165
_cell_formula_units_Z   1
loop_
 _symmetry_equiv_pos_site_id
 _symmetry_equiv_pos_as_xyz
  1  'x, y, z'
loop_
 _atom_site_type_symbol
 _atom_site_label
 _atom_site_symmetry_multiplicity
 _atom_site_fract_x
 _atom_site_fract_y
 _atom_site_fract_z
 _atom_site_occupancy
  Tb  Tb0  1  0.419797  0.410015  0.000000  1
  Tb  Tb1  1  0.579410  0.995181  0.000000  1
  Tb  Tb2  1  0.003494  0.606658  0.000000  1
  Mg  Mg3  1  0.751901  0.751952  0.500000  1
  Zr  Zr4  1  0.998867  0.246876  0.500000  1
  In  In5  1  0.249673  0.999048  0.500000  1
  Ir  Ir6  1  0.992669  0.016437  0.000000  1
  Ir  Ir7  1  0.325665  0.644686  0.500000  1
  Ir  Ir8  1  0.678523  0.329147  0.500000  1
