# generated using pymatgen
data_Nb4V4As3P
_symmetry_space_group_name_H-M   'P 1'
_cell_length_a   3.47978400
_cell_length_b   6.61803048
_cell_length_c   7.89396900
_cell_angle_alpha   90.03725267
_cell_angle_beta   90.00000000
_cell_angle_gamma   90.00000000
_symmetry_Int_Tables_number   1
_chemical_formula_structural   Nb4V4As3P
_chemical_formula_sum   'Nb4 V4 As3 P1'
_cell_volume   181.79267267
_cell_formula_units_Z   1
loop_
 _symmetry_equiv_pos_site_id
 _symmetry_equiv_pos_as_xyz
  1  'x, y, z'
loop_
 _atom_site_type_symbol
 _atom_site_label
 _atom_site_symmetry_multiplicity
 _atom_site_fract_x
 _atom_site_fract_y
 _atom_site_fract_z
 _atom_site_occupancy
  Nb  Nb0  1  0.250000  0.024385  0.835325  1
  Nb  Nb1  1  0.250000  0.555170  0.673838  1
  Nb  Nb2  1  0.750000  0.953473  0.159708  1
  Nb  Nb3  1  0.750000  0.457044  0.334806  1
  V  V4  1  0.250000  0.132896  0.441539  1
  V  V5  1  0.250000  0.636052  0.051682  1
  V  V6  1  0.750000  0.864923  0.563392  1
  V  V7  1  0.750000  0.375991  0.939915  1
  As  As8  1  0.250000  0.757109  0.359232  1
  As  As9  1  0.250000  0.257247  0.136557  1
  As  As10  1  0.750000  0.244006  0.642393  1
  P  P11  1  0.750000  0.741702  0.861613  1
