# generated using pymatgen
data_Be6VCo7
_symmetry_space_group_name_H-M   'P 1'
_cell_length_a   3.74774819
_cell_length_b   6.46925187
_cell_length_c   7.92095068
_cell_angle_alpha   132.81943474
_cell_angle_beta   89.95495791
_cell_angle_gamma   106.86561641
_symmetry_Int_Tables_number   1
_chemical_formula_structural   Be6VCo7
_chemical_formula_sum   'Be6 V1 Co7'
_cell_volume   129.42093755
_cell_formula_units_Z   1
loop_
 _symmetry_equiv_pos_site_id
 _symmetry_equiv_pos_as_xyz
  1  'x, y, z'
loop_
 _atom_site_type_symbol
 _atom_site_label
 _atom_site_symmetry_multiplicity
 _atom_site_fract_x
 _atom_site_fract_y
 _atom_site_fract_z
 _atom_site_occupancy
  Be  Be0  1  0.110508  0.240783  0.650765  1
  Be  Be1  1  0.680179  0.383004  0.505482  1
  Be  Be2  1  0.540228  0.098044  0.790798  1
  Be  Be3  1  0.833992  0.685696  0.221885  1
  Be  Be4  1  0.262137  0.542762  0.367364  1
  Be  Be5  1  0.403301  0.829392  0.082684  1
  V  V6  1  0.971454  0.963374  0.936354  1
  Co  Co7  1  0.045565  0.113753  0.302534  1
  Co  Co8  1  0.897405  0.812739  0.570278  1
  Co  Co9  1  0.319212  0.659263  0.710136  1
  Co  Co10  1  0.192544  0.403245  0.011049  1
  Co  Co11  1  0.471967  0.962964  0.436506  1
  Co  Co12  1  0.623896  0.267720  0.163080  1
  Co  Co13  1  0.751362  0.523556  0.861901  1
