# generated using pymatgen
data_Dy5Y3(TmRu2)2
_symmetry_space_group_name_H-M   'P 1'
_cell_length_a   6.34893844
_cell_length_b   7.26419170
_cell_length_c   8.46636833
_cell_angle_alpha   96.67049529
_cell_angle_beta   112.11980925
_cell_angle_gamma   90.01338346
_symmetry_Int_Tables_number   1
_chemical_formula_structural   Dy5Y3(TmRu2)2
_chemical_formula_sum   'Dy5 Y3 Tm2 Ru4'
_cell_volume   358.86987412
_cell_formula_units_Z   1
loop_
 _symmetry_equiv_pos_site_id
 _symmetry_equiv_pos_as_xyz
  1  'x, y, z'
loop_
 _atom_site_type_symbol
 _atom_site_label
 _atom_site_symmetry_multiplicity
 _atom_site_fract_x
 _atom_site_fract_y
 _atom_site_fract_z
 _atom_site_occupancy
  Dy  Dy0  1  0.022602  0.584243  0.814438  1
  Dy  Dy1  1  0.206627  0.185265  0.567211  1
  Dy  Dy2  1  0.639927  0.315223  0.433182  1
  Dy  Dy3  1  0.793430  0.814785  0.432968  1
  Dy  Dy4  1  0.360148  0.684805  0.566914  1
  Y  Y5  1  0.791836  0.083578  0.814303  1
  Y  Y6  1  0.977085  0.416289  0.185501  1
  Y  Y7  1  0.208064  0.916296  0.185611  1
  Tm  Tm8  1  0.422086  0.249849  0.999710  1
  Tm  Tm9  1  0.577690  0.750161  0.000090  1
  Ru  Ru10  1  0.602459  0.425900  0.781284  1
  Ru  Ru11  1  0.819870  0.075168  0.218636  1
  Ru  Ru12  1  0.398702  0.574603  0.218719  1
  Ru  Ru13  1  0.179474  0.923837  0.781435  1
