# generated using pymatgen
data_AcZnGa2Ag
_symmetry_space_group_name_H-M   'P 1'
_cell_length_a   4.53121136
_cell_length_b   4.53121141
_cell_length_c   6.24019834
_cell_angle_alpha   68.71136662
_cell_angle_beta   68.71136203
_cell_angle_gamma   89.99998874
_symmetry_Int_Tables_number   1
_chemical_formula_structural   AcZnGa2Ag
_chemical_formula_sum   'Ac1 Zn1 Ga2 Ag1'
_cell_volume   109.94456940
_cell_formula_units_Z   1
loop_
 _symmetry_equiv_pos_site_id
 _symmetry_equiv_pos_as_xyz
  1  'x, y, z'
loop_
 _atom_site_type_symbol
 _atom_site_label
 _atom_site_symmetry_multiplicity
 _atom_site_fract_x
 _atom_site_fract_y
 _atom_site_fract_z
 _atom_site_occupancy
  Ac  Ac0  1  0.000000  0.000000  0.000000  1
  Zn  Zn1  1  0.750000  0.250000  0.500000  1
  Ga  Ga2  1  0.379966  0.379966  0.240069  1
  Ga  Ga3  1  0.620034  0.620034  0.759931  1
  Ag  Ag4  1  0.250000  0.750000  0.500000  1
