# generated using pymatgen
data_Dy7Tm(HgRh)2
_symmetry_space_group_name_H-M   'P 1'
_cell_length_a   9.57785554
_cell_length_b   9.58388358
_cell_length_c   9.58089643
_cell_angle_alpha   59.98968749
_cell_angle_beta   60.03825421
_cell_angle_gamma   59.97917937
_symmetry_Int_Tables_number   1
_chemical_formula_structural   Dy7Tm(HgRh)2
_chemical_formula_sum   'Dy14 Tm2 Hg4 Rh4'
_cell_volume   621.90502785
_cell_formula_units_Z   2
loop_
 _symmetry_equiv_pos_site_id
 _symmetry_equiv_pos_as_xyz
  1  'x, y, z'
loop_
 _atom_site_type_symbol
 _atom_site_label
 _atom_site_symmetry_multiplicity
 _atom_site_fract_x
 _atom_site_fract_y
 _atom_site_fract_z
 _atom_site_occupancy
  Dy  Dy0  1  0.312257  0.688586  0.310572  1
  Dy  Dy1  1  0.936337  0.937253  0.562832  1
  Dy  Dy2  1  0.148672  0.148886  0.553556  1
  Dy  Dy3  1  0.563842  0.936921  0.562316  1
  Dy  Dy4  1  0.147807  0.148826  0.149089  1
  Dy  Dy5  1  0.311399  0.310632  0.688722  1
  Dy  Dy6  1  0.936337  0.563579  0.562832  1
  Dy  Dy7  1  0.563398  0.562647  0.937418  1
  Dy  Dy8  1  0.563398  0.936537  0.937418  1
  Dy  Dy9  1  0.936055  0.563050  0.937845  1
  Dy  Dy10  1  0.147807  0.554278  0.149089  1
  Dy  Dy11  1  0.311399  0.689247  0.688722  1
  Dy  Dy12  1  0.689111  0.311443  0.688004  1
  Dy  Dy13  1  0.554997  0.147981  0.149041  1
  Tm  Tm14  1  0.688944  0.311757  0.310928  1
  Tm  Tm15  1  0.688944  0.688371  0.310928  1
  Hg  Hg16  1  0.914867  0.915335  0.254463  1
  Hg  Hg17  1  0.254313  0.915230  0.915227  1
  Hg  Hg18  1  0.914994  0.254425  0.915479  1
  Hg  Hg19  1  0.914994  0.915101  0.915479  1
  Rh  Rh20  1  0.358417  0.356813  0.357119  1
  Rh  Rh21  1  0.926445  0.358348  0.356862  1
  Rh  Rh22  1  0.356852  0.357105  0.928940  1
  Rh  Rh23  1  0.358417  0.927652  0.357119  1
