# generated using pymatgen
data_MnInCu(Sb6Os)2
_symmetry_space_group_name_H-M   'P 1'
_cell_length_a   8.20535944
_cell_length_b   8.17546378
_cell_length_c   8.17271645
_cell_angle_alpha   109.30987871
_cell_angle_beta   109.47787293
_cell_angle_gamma   109.71877724
_symmetry_Int_Tables_number   1
_chemical_formula_structural   MnInCu(Sb6Os)2
_chemical_formula_sum   'Mn1 In1 Cu1 Sb12 Os2'
_cell_volume   421.55244436
_cell_formula_units_Z   1
loop_
 _symmetry_equiv_pos_site_id
 _symmetry_equiv_pos_as_xyz
  1  'x, y, z'
loop_
 _atom_site_type_symbol
 _atom_site_label
 _atom_site_symmetry_multiplicity
 _atom_site_fract_x
 _atom_site_fract_y
 _atom_site_fract_z
 _atom_site_occupancy
  Mn  Mn0  1  0.500000  0.500000  0.500000  1
  In  In1  1  0.000000  0.000000  0.000000  1
  Cu  Cu2  1  0.000000  0.500000  0.000000  1
  Sb  Sb3  1  0.840391  0.660354  0.503309  1
  Sb  Sb4  1  0.159609  0.339646  0.496691  1
  Sb  Sb5  1  0.157321  0.661118  0.813617  1
  Sb  Sb6  1  0.842679  0.338882  0.186383  1
  Sb  Sb7  1  0.651847  0.502061  0.839259  1
  Sb  Sb8  1  0.348153  0.497939  0.160741  1
  Sb  Sb9  1  0.662978  0.819633  0.155819  1
  Sb  Sb10  1  0.337022  0.180367  0.844181  1
  Sb  Sb11  1  0.503432  0.841009  0.661063  1
  Sb  Sb12  1  0.496568  0.158991  0.338937  1
  Sb  Sb13  1  0.186132  0.848365  0.344548  1
  Sb  Sb14  1  0.813868  0.151635  0.655452  1
  Os  Os15  1  0.500000  0.000000  0.000000  1
  Os  Os16  1  0.000000  0.000000  0.500000  1
