# generated using pymatgen
data_Dy12Tc2RuPt
_symmetry_space_group_name_H-M   'P 1'
_cell_length_a   6.33002198
_cell_length_b   7.34157303
_cell_length_c   9.20760700
_cell_angle_alpha   90.00000000
_cell_angle_beta   90.00000000
_cell_angle_gamma   89.98513149
_symmetry_Int_Tables_number   1
_chemical_formula_structural   Dy12Tc2RuPt
_chemical_formula_sum   'Dy12 Tc2 Ru1 Pt1'
_cell_volume   427.89883196
_cell_formula_units_Z   1
loop_
 _symmetry_equiv_pos_site_id
 _symmetry_equiv_pos_as_xyz
  1  'x, y, z'
loop_
 _atom_site_type_symbol
 _atom_site_label
 _atom_site_symmetry_multiplicity
 _atom_site_fract_x
 _atom_site_fract_y
 _atom_site_fract_z
 _atom_site_occupancy
  Dy  Dy0  1  0.327763  0.676712  0.067615  1
  Dy  Dy1  1  0.169771  0.179043  0.434111  1
  Dy  Dy2  1  0.668234  0.318151  0.558691  1
  Dy  Dy3  1  0.837089  0.826959  0.939483  1
  Dy  Dy4  1  0.668234  0.318151  0.941309  1
  Dy  Dy5  1  0.837089  0.826959  0.560517  1
  Dy  Dy6  1  0.327763  0.676712  0.432385  1
  Dy  Dy7  1  0.169771  0.179043  0.065889  1
  Dy  Dy8  1  0.869969  0.540026  0.250000  1
  Dy  Dy9  1  0.625330  0.037635  0.250000  1
  Dy  Dy10  1  0.129827  0.454782  0.750000  1
  Dy  Dy11  1  0.365903  0.964919  0.750000  1
  Tc  Tc12  1  0.036224  0.887345  0.250000  1
  Tc  Tc13  1  0.463862  0.386721  0.250000  1
  Ru  Ru14  1  0.954929  0.113844  0.750000  1
  Pt  Pt15  1  0.548240  0.612997  0.750000  1
