# generated using pymatgen
data_ErPaB6Mo
_symmetry_space_group_name_H-M   'P 1'
_cell_length_a   3.74550900
_cell_length_b   9.16412700
_cell_length_c   11.52661700
_cell_angle_alpha   90.00000000
_cell_angle_beta   90.00000000
_cell_angle_gamma   90.00000000
_symmetry_Int_Tables_number   1
_chemical_formula_structural   ErPaB6Mo
_chemical_formula_sum   'Er4 Pa4 B24 Mo4'
_cell_volume   395.64329222
_cell_formula_units_Z   4
loop_
 _symmetry_equiv_pos_site_id
 _symmetry_equiv_pos_as_xyz
  1  'x, y, z'
loop_
 _atom_site_type_symbol
 _atom_site_label
 _atom_site_symmetry_multiplicity
 _atom_site_fract_x
 _atom_site_fract_y
 _atom_site_fract_z
 _atom_site_occupancy
  Er  Er0  1  0.000000  0.945010  0.373756  1
  Er  Er1  1  0.000000  0.054990  0.626244  1
  Er  Er2  1  0.000000  0.445010  0.126244  1
  Er  Er3  1  0.000000  0.554990  0.873756  1
  Pa  Pa4  1  0.000000  0.322322  0.413464  1
  Pa  Pa5  1  0.000000  0.677678  0.586536  1
  Pa  Pa6  1  0.000000  0.822322  0.086536  1
  Pa  Pa7  1  0.000000  0.177678  0.913464  1
  B  B8  1  0.500000  0.553153  0.433139  1
  B  B9  1  0.500000  0.446847  0.566861  1
  B  B10  1  0.500000  0.053153  0.066861  1
  B  B11  1  0.500000  0.946847  0.933139  1
  B  B12  1  0.500000  0.749143  0.420285  1
  B  B13  1  0.500000  0.250857  0.579715  1
  B  B14  1  0.500000  0.249143  0.079715  1
  B  B15  1  0.500000  0.750857  0.920285  1
  B  B16  1  0.500000  0.793284  0.265054  1
  B  B17  1  0.500000  0.206716  0.734946  1
  B  B18  1  0.500000  0.293284  0.234946  1
  B  B19  1  0.500000  0.706716  0.765054  1
  B  B20  1  0.500000  0.632412  0.184837  1
  B  B21  1  0.500000  0.367588  0.815163  1
  B  B22  1  0.500000  0.132412  0.315163  1
  B  B23  1  0.500000  0.867588  0.684837  1
  B  B24  1  0.500000  0.981906  0.213021  1
  B  B25  1  0.500000  0.018094  0.786979  1
  B  B26  1  0.500000  0.481906  0.286979  1
  B  B27  1  0.500000  0.518094  0.713021  1
  B  B28  1  0.500000  0.609025  0.030197  1
  B  B29  1  0.500000  0.390975  0.969803  1
  B  B30  1  0.500000  0.109025  0.469803  1
  B  B31  1  0.500000  0.890975  0.530197  1
  Mo  Mo32  1  0.000000  0.638581  0.321361  1
  Mo  Mo33  1  0.000000  0.361419  0.678639  1
  Mo  Mo34  1  0.000000  0.138581  0.178639  1
  Mo  Mo35  1  0.000000  0.861419  0.821361  1
