# generated using pymatgen
data_Ho2ErLu17Bi12
_symmetry_space_group_name_H-M   'P 1'
_cell_length_a   8.14516327
_cell_length_b   9.39327300
_cell_length_c   11.80475600
_cell_angle_alpha   90.00000000
_cell_angle_beta   90.03186327
_cell_angle_gamma   90.00000000
_symmetry_Int_Tables_number   1
_chemical_formula_structural   Ho2ErLu17Bi12
_chemical_formula_sum   'Ho2 Er1 Lu17 Bi12'
_cell_volume   903.17869896
_cell_formula_units_Z   1
loop_
 _symmetry_equiv_pos_site_id
 _symmetry_equiv_pos_as_xyz
  1  'x, y, z'
loop_
 _atom_site_type_symbol
 _atom_site_label
 _atom_site_symmetry_multiplicity
 _atom_site_fract_x
 _atom_site_fract_y
 _atom_site_fract_z
 _atom_site_occupancy
  Ho  Ho0  1  0.812714  0.250000  0.282797  1
  Ho  Ho1  1  0.687134  0.750000  0.782683  1
  Er  Er2  1  0.187043  0.750000  0.717144  1
  Lu  Lu3  1  0.352692  0.750000  0.217997  1
  Lu  Lu4  1  0.852563  0.750000  0.282015  1
  Lu  Lu5  1  0.647319  0.250000  0.782159  1
  Lu  Lu6  1  0.147538  0.250000  0.718021  1
  Lu  Lu7  1  0.692144  0.567187  0.059239  1
  Lu  Lu8  1  0.191871  0.932788  0.440735  1
  Lu  Lu9  1  0.307957  0.067165  0.940937  1
  Lu  Lu10  1  0.808135  0.432892  0.559167  1
  Lu  Lu11  1  0.307957  0.432835  0.940937  1
  Lu  Lu12  1  0.808135  0.067108  0.559167  1
  Lu  Lu13  1  0.692144  0.932813  0.059239  1
  Lu  Lu14  1  0.191871  0.567212  0.440735  1
  Lu  Lu15  1  0.477558  0.250000  0.489131  1
  Lu  Lu16  1  0.977987  0.250000  0.010813  1
  Lu  Lu17  1  0.522093  0.750000  0.510489  1
  Lu  Lu18  1  0.022375  0.750000  0.989569  1
  Lu  Lu19  1  0.312546  0.250000  0.216640  1
  Bi  Bi20  1  0.402441  0.750000  0.957984  1
  Bi  Bi21  1  0.902535  0.750000  0.542112  1
  Bi  Bi22  1  0.596827  0.250000  0.042760  1
  Bi  Bi23  1  0.098122  0.250000  0.457715  1
  Bi  Bi24  1  0.564631  0.995570  0.325015  1
  Bi  Bi25  1  0.066107  0.504241  0.174752  1
  Bi  Bi26  1  0.434693  0.495289  0.674722  1
  Bi  Bi27  1  0.934720  0.004812  0.825420  1
  Bi  Bi28  1  0.434693  0.004711  0.674722  1
  Bi  Bi29  1  0.934720  0.495188  0.825420  1
  Bi  Bi30  1  0.564631  0.504430  0.325015  1
  Bi  Bi31  1  0.066107  0.995759  0.174752  1
