# generated using pymatgen
data_CsSb12Ru3Pt
_symmetry_space_group_name_H-M   'P 1'
_cell_length_a   8.20394218
_cell_length_b   8.22077107
_cell_length_c   8.22077195
_cell_angle_alpha   109.51265302
_cell_angle_beta   109.42975469
_cell_angle_gamma   109.42975865
_symmetry_Int_Tables_number   1
_chemical_formula_structural   CsSb12Ru3Pt
_chemical_formula_sum   'Cs1 Sb12 Ru3 Pt1'
_cell_volume   427.01962518
_cell_formula_units_Z   1
loop_
 _symmetry_equiv_pos_site_id
 _symmetry_equiv_pos_as_xyz
  1  'x, y, z'
loop_
 _atom_site_type_symbol
 _atom_site_label
 _atom_site_symmetry_multiplicity
 _atom_site_fract_x
 _atom_site_fract_y
 _atom_site_fract_z
 _atom_site_occupancy
  Cs  Cs0  1  0.000000  0.000000  0.000000  1
  Sb  Sb1  1  0.151622  0.810617  0.648472  1
  Sb  Sb2  1  0.159722  0.502673  0.342646  1
  Sb  Sb3  1  0.496851  0.648472  0.837855  1
  Sb  Sb4  1  0.341005  0.837855  0.189383  1
  Sb  Sb5  1  0.817075  0.657354  0.160026  1
  Sb  Sb6  1  0.657049  0.839974  0.497327  1
  Sb  Sb7  1  0.182925  0.342646  0.839974  1
  Sb  Sb8  1  0.658995  0.162145  0.810617  1
  Sb  Sb9  1  0.342951  0.160026  0.502673  1
  Sb  Sb10  1  0.503149  0.351528  0.162145  1
  Sb  Sb11  1  0.840278  0.497327  0.657354  1
  Sb  Sb12  1  0.848378  0.189383  0.351528  1
  Ru  Ru13  1  0.500000  0.500000  0.500000  1
  Ru  Ru14  1  0.000000  0.000000  0.500000  1
  Ru  Ru15  1  0.000000  0.500000  0.000000  1
  Pt  Pt16  1  0.500000  0.000000  0.000000  1
