# generated using pymatgen
data_Ta2Br7ClF2
_symmetry_space_group_name_H-M   'P 1'
_cell_length_a   9.16014257
_cell_length_b   10.60487754
_cell_length_c   10.65265984
_cell_angle_alpha   100.49945809
_cell_angle_beta   115.47033692
_cell_angle_gamma   64.63119396
_symmetry_Int_Tables_number   1
_chemical_formula_structural   Ta2Br7ClF2
_chemical_formula_sum   'Ta4 Br14 Cl2 F4'
_cell_volume   844.15307792
_cell_formula_units_Z   2
loop_
 _symmetry_equiv_pos_site_id
 _symmetry_equiv_pos_as_xyz
  1  'x, y, z'
loop_
 _atom_site_type_symbol
 _atom_site_label
 _atom_site_symmetry_multiplicity
 _atom_site_fract_x
 _atom_site_fract_y
 _atom_site_fract_z
 _atom_site_occupancy
  Ta  Ta0  1  0.940411  0.261286  0.168682  1
  Ta  Ta1  1  0.228328  0.829842  0.260878  1
  Ta  Ta2  1  0.798177  0.169632  0.739796  1
  Ta  Ta3  1  0.031663  0.738075  0.832183  1
  Br  Br4  1  0.773869  0.504346  0.097621  1
  Br  Br5  1  0.680331  0.219548  0.138198  1
  Br  Br6  1  0.215502  0.250621  0.166948  1
  Br  Br7  1  0.457262  0.860449  0.218441  1
  Br  Br8  1  0.950816  0.831118  0.248335  1
  Br  Br9  1  0.389146  0.579262  0.297805  1
  Br  Br10  1  0.030196  0.297355  0.418469  1
  Br  Br11  1  0.722947  0.098448  0.497827  1
  Br  Br12  1  0.324602  0.900030  0.502927  1
  Br  Br13  1  0.907247  0.700013  0.582838  1
  Br  Br14  1  0.671630  0.420179  0.702238  1
  Br  Br15  1  0.534766  0.166975  0.751553  1
  Br  Br16  1  0.099615  0.139135  0.781572  1
  Br  Br17  1  0.297280  0.748165  0.832602  1
  Cl  Cl18  1  0.778440  0.777574  0.861100  1
  Cl  Cl19  1  0.168132  0.510601  0.899587  1
  F  F20  1  0.122241  0.800530  0.042389  1
  F  F21  1  0.076143  0.041581  0.198324  1
  F  F22  1  0.919612  0.956839  0.801801  1
  F  F23  1  0.881649  0.198396  0.957890  1
