# generated using pymatgen
data_K8Li4Ho3AlSb8
_symmetry_space_group_name_H-M   'P 1'
_cell_length_a   10.79943466
_cell_length_b   10.79943392
_cell_length_c   7.02636217
_cell_angle_alpha   90.04876253
_cell_angle_beta   89.95123885
_cell_angle_gamma   99.09901698
_symmetry_Int_Tables_number   1
_chemical_formula_structural   K8Li4Ho3AlSb8
_chemical_formula_sum   'K8 Li4 Ho3 Al1 Sb8'
_cell_volume   809.15675035
_cell_formula_units_Z   1
loop_
 _symmetry_equiv_pos_site_id
 _symmetry_equiv_pos_as_xyz
  1  'x, y, z'
loop_
 _atom_site_type_symbol
 _atom_site_label
 _atom_site_symmetry_multiplicity
 _atom_site_fract_x
 _atom_site_fract_y
 _atom_site_fract_z
 _atom_site_occupancy
  K  K0  1  0.570276  0.929557  0.746422  1
  K  K1  1  0.929557  0.570276  0.253578  1
  K  K2  1  0.428873  0.079811  0.256841  1
  K  K3  1  0.079811  0.428873  0.743159  1
  K  K4  1  0.668789  0.322722  0.772910  1
  K  K5  1  0.824667  0.175882  0.280366  1
  K  K6  1  0.322722  0.668789  0.227090  1
  K  K7  1  0.175882  0.824667  0.719634  1
  Li  Li8  1  0.617240  0.617240  0.000000  1
  Li  Li9  1  0.878395  0.878395  0.500000  1
  Li  Li10  1  0.378565  0.378565  0.000000  1
  Li  Li11  1  0.125327  0.125327  0.500000  1
  Ho  Ho12  1  0.869597  0.869597  0.000000  1
  Ho  Ho13  1  0.624323  0.624323  0.500000  1
  Ho  Ho14  1  0.133184  0.133184  0.000000  1
  Al  Al15  1  0.375118  0.375118  0.500000  1
  Sb  Sb16  1  0.353461  0.163582  0.734823  1
  Sb  Sb17  1  0.163582  0.353461  0.265177  1
  Sb  Sb18  1  0.644825  0.850220  0.249062  1
  Sb  Sb19  1  0.850220  0.644825  0.750938  1
  Sb  Sb20  1  0.900747  0.102560  0.758887  1
  Sb  Sb21  1  0.588129  0.394148  0.266317  1
  Sb  Sb22  1  0.102560  0.900747  0.241113  1
  Sb  Sb23  1  0.394148  0.588129  0.733683  1
