# generated using pymatgen
data_CeSm3Se3N2
_symmetry_space_group_name_H-M   'P 1'
_cell_length_a   7.10248369
_cell_length_b   7.10248270
_cell_length_c   10.48431300
_cell_angle_alpha   52.18712220
_cell_angle_beta   52.18712841
_cell_angle_gamma   32.81431105
_symmetry_Int_Tables_number   1
_chemical_formula_structural   CeSm3Se3N2
_chemical_formula_sum   'Ce1 Sm3 Se3 N2'
_cell_volume   220.43755536
_cell_formula_units_Z   1
loop_
 _symmetry_equiv_pos_site_id
 _symmetry_equiv_pos_as_xyz
  1  'x, y, z'
loop_
 _atom_site_type_symbol
 _atom_site_label
 _atom_site_symmetry_multiplicity
 _atom_site_fract_x
 _atom_site_fract_y
 _atom_site_fract_z
 _atom_site_occupancy
  Ce  Ce0  1  0.245943  0.245943  0.639464  1
  Sm  Sm1  1  0.439505  0.439505  0.855091  1
  Sm  Sm2  1  0.559034  0.559034  0.145693  1
  Sm  Sm3  1  0.754573  0.754573  0.356079  1
  Se  Se4  1  0.834460  0.834460  0.770300  1
  Se  Se5  1  0.999370  0.999370  0.001415  1
  Se  Se6  1  0.166178  0.166178  0.228256  1
  N  N7  1  0.348795  0.348795  0.367363  1
  N  N8  1  0.652142  0.652142  0.636340  1
