# generated using pymatgen
data_Sm2GaTc16C3
_symmetry_space_group_name_H-M   'P 1'
_cell_length_a   7.02730051
_cell_length_b   6.96953118
_cell_length_c   6.96953241
_cell_angle_alpha   82.75494172
_cell_angle_beta   82.56483203
_cell_angle_gamma   82.56484260
_symmetry_Int_Tables_number   1
_chemical_formula_structural   Sm2GaTc16C3
_chemical_formula_sum   'Sm2 Ga1 Tc16 C3'
_cell_volume   333.54800468
_cell_formula_units_Z   1
loop_
 _symmetry_equiv_pos_site_id
 _symmetry_equiv_pos_as_xyz
  1  'x, y, z'
loop_
 _atom_site_type_symbol
 _atom_site_label
 _atom_site_symmetry_multiplicity
 _atom_site_fract_x
 _atom_site_fract_y
 _atom_site_fract_z
 _atom_site_occupancy
  Sm  Sm0  1  0.654457  0.652309  0.652309  1
  Sm  Sm1  1  0.345543  0.347691  0.347691  1
  Ga  Ga2  1  0.500000  0.000000  0.000000  1
  Tc  Tc3  1  0.000000  0.000000  0.500000  1
  Tc  Tc4  1  0.000000  0.500000  0.000000  1
  Tc  Tc5  1  0.721792  0.275612  0.003230  1
  Tc  Tc6  1  0.000000  0.723921  0.276079  1
  Tc  Tc7  1  0.278208  0.996770  0.724388  1
  Tc  Tc8  1  0.000000  0.276079  0.723921  1
  Tc  Tc9  1  0.721792  0.003230  0.275612  1
  Tc  Tc10  1  0.278208  0.724388  0.996770  1
  Tc  Tc11  1  0.348366  0.350697  0.857088  1
  Tc  Tc12  1  0.859097  0.353041  0.353041  1
  Tc  Tc13  1  0.348366  0.857088  0.350697  1
  Tc  Tc14  1  0.651634  0.649303  0.142912  1
  Tc  Tc15  1  0.140903  0.646959  0.646959  1
  Tc  Tc16  1  0.651634  0.142912  0.649303  1
  Tc  Tc17  1  0.907981  0.900378  0.900378  1
  Tc  Tc18  1  0.092019  0.099622  0.099622  1
  C  C19  1  0.500000  0.500000  0.000000  1
  C  C20  1  0.000000  0.500000  0.500000  1
  C  C21  1  0.500000  0.000000  0.500000  1
