# generated using pymatgen
data_Li4FeNi8As7Pd
_symmetry_space_group_name_H-M   'P 1'
_cell_length_a   9.41516264
_cell_length_b   9.45736015
_cell_length_c   3.76326000
_cell_angle_alpha   90.00000000
_cell_angle_beta   90.00000000
_cell_angle_gamma   120.05347104
_symmetry_Int_Tables_number   1
_chemical_formula_structural   Li4FeNi8As7Pd
_chemical_formula_sum   'Li4 Fe1 Ni8 As7 Pd1'
_cell_volume   290.04030696
_cell_formula_units_Z   1
loop_
 _symmetry_equiv_pos_site_id
 _symmetry_equiv_pos_as_xyz
  1  'x, y, z'
loop_
 _atom_site_type_symbol
 _atom_site_label
 _atom_site_symmetry_multiplicity
 _atom_site_fract_x
 _atom_site_fract_y
 _atom_site_fract_z
 _atom_site_occupancy
  Li  Li0  1  0.440567  0.211857  0.500000  1
  Li  Li1  1  0.787104  0.231287  0.500000  1
  Li  Li2  1  0.332848  0.669395  0.000000  1
  Li  Li3  1  0.999558  0.004021  0.500000  1
  Fe  Fe4  1  0.499347  0.452517  0.000000  1
  Ni  Ni5  1  0.276834  0.374718  0.500000  1
  Ni  Ni6  1  0.624364  0.902252  0.500000  1
  Ni  Ni7  1  0.102605  0.721649  0.500000  1
  Ni  Ni8  1  0.550555  0.048691  0.000000  1
  Ni  Ni9  1  0.952657  0.500739  0.000000  1
  Ni  Ni10  1  0.721873  0.763252  0.000000  1
  Ni  Ni11  1  0.240701  0.955114  0.000000  1
  Ni  Ni12  1  0.046652  0.285290  0.000000  1
  As  As13  1  0.965900  0.760109  0.000000  1
  As  As14  1  0.246141  0.207845  0.000000  1
  As  As15  1  0.795721  0.035798  0.000000  1
  As  As16  1  0.659271  0.332503  0.000000  1
  As  As17  1  0.533761  0.620070  0.500000  1
  As  As18  1  0.379423  0.916771  0.500000  1
  As  As19  1  0.085426  0.462176  0.500000  1
  Pd  Pd20  1  0.758697  0.543946  0.500000  1
