# generated using pymatgen
data_Dy7LuC10
_symmetry_space_group_name_H-M   'P 1'
_cell_length_a   3.66911800
_cell_length_b   6.57185842
_cell_length_c   11.87294647
_cell_angle_alpha   90.17238383
_cell_angle_beta   90.00000000
_cell_angle_gamma   90.00000000
_symmetry_Int_Tables_number   1
_chemical_formula_structural   Dy7LuC10
_chemical_formula_sum   'Dy7 Lu1 C10'
_cell_volume   286.29016023
_cell_formula_units_Z   1
loop_
 _symmetry_equiv_pos_site_id
 _symmetry_equiv_pos_as_xyz
  1  'x, y, z'
loop_
 _atom_site_type_symbol
 _atom_site_label
 _atom_site_symmetry_multiplicity
 _atom_site_fract_x
 _atom_site_fract_y
 _atom_site_fract_z
 _atom_site_occupancy
  Dy  Dy0  1  0.500000  0.391562  0.302410  1
  Dy  Dy1  1  0.500000  0.606282  0.697379  1
  Dy  Dy2  1  0.500000  0.109099  0.804477  1
  Dy  Dy3  1  0.500000  0.895425  0.197435  1
  Dy  Dy4  1  0.000000  0.750101  0.957306  1
  Dy  Dy5  1  0.000000  0.262096  0.542047  1
  Dy  Dy6  1  0.000000  0.751339  0.455491  1
  Lu  Lu7  1  0.000000  0.234484  0.042129  1
  C  C8  1  0.500000  0.993206  0.001847  1
  C  C9  1  0.500000  0.512002  0.500635  1
  C  C10  1  0.000000  0.137479  0.231975  1
  C  C11  1  0.000000  0.855871  0.762680  1
  C  C12  1  0.000000  0.364996  0.737941  1
  C  C13  1  0.000000  0.642259  0.259812  1
  C  C14  1  0.000000  0.114152  0.343976  1
  C  C15  1  0.000000  0.925242  0.657497  1
  C  C16  1  0.000000  0.384195  0.850253  1
  C  C17  1  0.000000  0.570210  0.154709  1
