# generated using pymatgen
data_Sr12Zn12Te5(IrO16)3
_symmetry_space_group_name_H-M   'P 1'
_cell_length_a   11.24886255
_cell_length_b   11.24886174
_cell_length_c   11.27458600
_cell_angle_alpha   109.51755009
_cell_angle_beta   109.51754863
_cell_angle_gamma   109.42485135
_symmetry_Int_Tables_number   1
_chemical_formula_structural   Sr12Zn12Te5(IrO16)3
_chemical_formula_sum   'Sr12 Zn12 Te5 Ir3 O48'
_cell_volume   1097.60802955
_cell_formula_units_Z   1
loop_
 _symmetry_equiv_pos_site_id
 _symmetry_equiv_pos_as_xyz
  1  'x, y, z'
loop_
 _atom_site_type_symbol
 _atom_site_label
 _atom_site_symmetry_multiplicity
 _atom_site_fract_x
 _atom_site_fract_y
 _atom_site_fract_z
 _atom_site_occupancy
  Sr  Sr0  1  0.376633  0.748500  0.124184  1
  Sr  Sr1  1  0.249989  0.373249  0.123025  1
  Sr  Sr2  1  0.873249  0.623261  0.250223  1
  Sr  Sr3  1  0.371867  0.123366  0.247552  1
  Sr  Sr4  1  0.123262  0.250011  0.373036  1
  Sr  Sr5  1  0.751500  0.128132  0.375684  1
  Sr  Sr6  1  0.876740  0.749989  0.626965  1
  Sr  Sr7  1  0.248499  0.871867  0.624315  1
  Sr  Sr8  1  0.126750  0.376738  0.749776  1
  Sr  Sr9  1  0.628134  0.876635  0.752448  1
  Sr  Sr10  1  0.623366  0.251499  0.875815  1
  Sr  Sr11  1  0.750011  0.626752  0.876976  1
  Zn  Zn12  1  0.750265  0.875168  0.125222  1
  Zn  Zn13  1  0.875098  0.250265  0.125045  1
  Zn  Zn14  1  0.624833  0.375099  0.250054  1
  Zn  Zn15  1  0.124996  0.875178  0.250599  1
  Zn  Zn16  1  0.624823  0.749818  0.375422  1
  Zn  Zn17  1  0.249819  0.624996  0.374398  1
  Zn  Zn18  1  0.375178  0.250181  0.624578  1
  Zn  Zn19  1  0.750181  0.375003  0.625603  1
  Zn  Zn20  1  0.875004  0.124823  0.749400  1
  Zn  Zn21  1  0.375168  0.624902  0.749945  1
  Zn  Zn22  1  0.124902  0.749734  0.874956  1
  Zn  Zn23  1  0.249735  0.124833  0.874778  1
  Te  Te24  1  0.500000  0.000000  0.000000  1
  Te  Te25  1  0.000000  0.500000  0.000000  1
  Te  Te26  1  0.000000  0.000000  0.500000  1
  Te  Te27  1  0.500000  0.500000  0.500000  1
  Te  Te28  1  0.500000  0.000000  0.500000  1
  Ir  Ir29  1  0.000000  0.000000  0.000000  1
  Ir  Ir30  1  0.500000  0.500000  0.000000  1
  Ir  Ir31  1  0.000000  0.500000  0.500000  1
  O  O32  1  0.330151  0.906442  0.018140  1
  O  O33  1  0.187980  0.109944  0.016746  1
  O  O34  1  0.688297  0.670991  0.078223  1
  O  O35  1  0.888171  0.406705  0.076363  1
  O  O36  1  0.981344  0.669823  0.093724  1
  O  O37  1  0.609944  0.421965  0.093198  1
  O  O38  1  0.593558  0.923708  0.111699  1
  O  O39  1  0.017306  0.188298  0.110075  1
  O  O40  1  0.188320  0.575938  0.169381  1
  O  O41  1  0.483024  0.592862  0.170762  1
  O  O42  1  0.576291  0.169850  0.187991  1
  O  O43  1  0.109838  0.016976  0.187737  1
  O  O44  1  0.329988  0.923061  0.311657  1
  O  O45  1  0.481466  0.388171  0.311808  1
  O  O46  1  0.906704  0.018534  0.330342  1
  O  O47  1  0.921965  0.312020  0.328766  1
  O  O48  1  0.576939  0.906928  0.388597  1
  O  O49  1  0.311521  0.481345  0.387622  1
  O  O50  1  0.829009  0.517306  0.407231  1
  O  O51  1  0.075938  0.887619  0.406558  1
  O  O52  1  0.830176  0.811521  0.423899  1
  O  O53  1  0.092863  0.609838  0.422101  1
  O  O54  1  0.593072  0.170012  0.481668  1
  O  O55  1  0.387619  0.311680  0.481062  1
  O  O56  1  0.612381  0.688319  0.518938  1
  O  O57  1  0.406928  0.829988  0.518332  1
  O  O58  1  0.169824  0.188478  0.576100  1
  O  O59  1  0.907137  0.390162  0.577899  1
  O  O60  1  0.924062  0.112381  0.593442  1
  O  O61  1  0.170991  0.482694  0.592769  1
  O  O62  1  0.688478  0.518655  0.612378  1
  O  O63  1  0.423061  0.093072  0.611403  1
  O  O64  1  0.093295  0.981465  0.669657  1
  O  O65  1  0.078035  0.687979  0.671233  1
  O  O66  1  0.518534  0.611829  0.688192  1
  O  O67  1  0.670011  0.076939  0.688342  1
  O  O68  1  0.890162  0.983024  0.812263  1
  O  O69  1  0.423708  0.830151  0.812009  1
  O  O70  1  0.516976  0.407138  0.829238  1
  O  O71  1  0.811680  0.424062  0.830619  1
  O  O72  1  0.982694  0.811702  0.889925  1
  O  O73  1  0.406442  0.076292  0.888301  1
  O  O74  1  0.018655  0.330176  0.906276  1
  O  O75  1  0.390056  0.578035  0.906802  1
  O  O76  1  0.111829  0.593295  0.923637  1
  O  O77  1  0.311702  0.329008  0.921777  1
  O  O78  1  0.669849  0.093558  0.981858  1
  O  O79  1  0.812020  0.890056  0.983254  1
