# generated using pymatgen
data_ReTc3(OsRh)2
_symmetry_space_group_name_H-M   'P 1'
_cell_length_a   5.52088000
_cell_length_b   5.51141330
_cell_length_c   4.38022700
_cell_angle_alpha   90.00000000
_cell_angle_beta   90.00000000
_cell_angle_gamma   120.05683580
_symmetry_Int_Tables_number   1
_chemical_formula_structural   ReTc3(OsRh)2
_chemical_formula_sum   'Re1 Tc3 Os2 Rh2'
_cell_volume   115.35848006
_cell_formula_units_Z   1
loop_
 _symmetry_equiv_pos_site_id
 _symmetry_equiv_pos_as_xyz
  1  'x, y, z'
loop_
 _atom_site_type_symbol
 _atom_site_label
 _atom_site_symmetry_multiplicity
 _atom_site_fract_x
 _atom_site_fract_y
 _atom_site_fract_z
 _atom_site_occupancy
  Re  Re0  1  0.162987  0.325974  0.250000  1
  Tc  Tc1  1  0.838170  0.676341  0.750000  1
  Tc  Tc2  1  0.323726  0.160301  0.750000  1
  Tc  Tc3  1  0.836574  0.160301  0.750000  1
  Os  Os4  1  0.673649  0.836598  0.250000  1
  Os  Os5  1  0.162950  0.836598  0.250000  1
  Rh  Rh6  1  0.334476  0.668952  0.750000  1
  Rh  Rh7  1  0.667468  0.334935  0.250000  1
