# generated using pymatgen
data_Dy4Y16Ir5Pt7
_symmetry_space_group_name_H-M   'P 1'
_cell_length_a   11.10235341
_cell_length_b   11.10235341
_cell_length_c   6.34423605
_cell_angle_alpha   90.04651159
_cell_angle_beta   90.04651159
_cell_angle_gamma   90.18516643
_symmetry_Int_Tables_number   1
_chemical_formula_structural   Dy4Y16Ir5Pt7
_chemical_formula_sum   'Dy4 Y16 Ir5 Pt7'
_cell_volume   782.00021709
_cell_formula_units_Z   1
loop_
 _symmetry_equiv_pos_site_id
 _symmetry_equiv_pos_as_xyz
  1  'x, y, z'
loop_
 _atom_site_type_symbol
 _atom_site_label
 _atom_site_symmetry_multiplicity
 _atom_site_fract_x
 _atom_site_fract_y
 _atom_site_fract_z
 _atom_site_occupancy
  Dy  Dy0  1  0.999700  0.999814  0.500221  1
  Dy  Dy1  1  0.000186  0.000300  0.999779  1
  Dy  Dy2  1  0.498004  0.501186  0.999768  1
  Dy  Dy3  1  0.498814  0.501996  0.500232  1
  Y  Y4  1  0.295107  0.087073  0.373300  1
  Y  Y5  1  0.295528  0.908221  0.873765  1
  Y  Y6  1  0.704805  0.087437  0.873129  1
  Y  Y7  1  0.704632  0.911771  0.372493  1
  Y  Y8  1  0.584545  0.792926  0.872452  1
  Y  Y9  1  0.587834  0.206038  0.374309  1
  Y  Y10  1  0.410377  0.792263  0.378127  1
  Y  Y11  1  0.411897  0.204436  0.874066  1
  Y  Y12  1  0.207074  0.415455  0.627548  1
  Y  Y13  1  0.207737  0.589623  0.121873  1
  Y  Y14  1  0.793962  0.412166  0.125691  1
  Y  Y15  1  0.795564  0.588103  0.625934  1
  Y  Y16  1  0.912927  0.704893  0.126700  1
  Y  Y17  1  0.912563  0.295195  0.626871  1
  Y  Y18  1  0.091779  0.704472  0.626235  1
  Y  Y19  1  0.088229  0.295368  0.127507  1
  Ir  Ir20  1  0.347650  0.652350  0.750000  1
  Ir  Ir21  1  0.500155  0.000255  0.122988  1
  Ir  Ir22  1  0.500041  0.000486  0.621408  1
  Ir  Ir23  1  0.999514  0.499959  0.878592  1
  Ir  Ir24  1  0.999745  0.499845  0.377012  1
  Pt  Pt25  1  0.846905  0.153095  0.250000  1
  Pt  Pt26  1  0.846386  0.847047  0.750356  1
  Pt  Pt27  1  0.152953  0.153614  0.749644  1
  Pt  Pt28  1  0.152358  0.847642  0.250000  1
  Pt  Pt29  1  0.652580  0.347420  0.750000  1
  Pt  Pt30  1  0.654192  0.653743  0.249880  1
  Pt  Pt31  1  0.346257  0.345808  0.250120  1
