# generated using pymatgen
data_Sc2Nb3Zn(B2Ru5)2
_symmetry_space_group_name_H-M   'P 1'
_cell_length_a   9.39330520
_cell_length_b   9.39889214
_cell_length_c   3.06295400
_cell_angle_alpha   90.00000000
_cell_angle_beta   90.00000000
_cell_angle_gamma   89.92211838
_symmetry_Int_Tables_number   1
_chemical_formula_structural   Sc2Nb3Zn(B2Ru5)2
_chemical_formula_sum   'Sc2 Nb3 Zn1 B4 Ru10'
_cell_volume   270.41773598
_cell_formula_units_Z   1
loop_
 _symmetry_equiv_pos_site_id
 _symmetry_equiv_pos_as_xyz
  1  'x, y, z'
loop_
 _atom_site_type_symbol
 _atom_site_label
 _atom_site_symmetry_multiplicity
 _atom_site_fract_x
 _atom_site_fract_y
 _atom_site_fract_z
 _atom_site_occupancy
  Sc  Sc0  1  0.824730  0.672612  0.000000  1
  Sc  Sc1  1  0.175270  0.327388  0.000000  1
  Nb  Nb2  1  0.325374  0.822584  0.000000  1
  Nb  Nb3  1  0.674626  0.177416  0.000000  1
  Nb  Nb4  1  0.000000  0.000000  0.000000  1
  Zn  Zn5  1  0.500000  0.500000  0.000000  1
  B  B6  1  0.619693  0.869260  0.000000  1
  B  B7  1  0.380307  0.130740  0.000000  1
  B  B8  1  0.127748  0.616402  0.000000  1
  B  B9  1  0.872252  0.383598  0.000000  1
  Ru  Ru10  1  0.562603  0.717703  0.500000  1
  Ru  Ru11  1  0.437397  0.282297  0.500000  1
  Ru  Ru12  1  0.078973  0.783145  0.500000  1
  Ru  Ru13  1  0.921027  0.216855  0.500000  1
  Ru  Ru14  1  0.287793  0.577512  0.500000  1
  Ru  Ru15  1  0.712207  0.422488  0.500000  1
  Ru  Ru16  1  0.220514  0.068335  0.500000  1
  Ru  Ru17  1  0.779486  0.931665  0.500000  1
  Ru  Ru18  1  0.500000  0.000000  0.500000  1
  Ru  Ru19  1  0.000000  0.500000  0.500000  1
