# generated using pymatgen
data_NdSm3Co16(P3Ru)4
_symmetry_space_group_name_H-M   'P 1'
_cell_length_a   3.72787500
_cell_length_b   10.49228230
_cell_length_c   11.87989434
_cell_angle_alpha   89.97258585
_cell_angle_beta   90.00000000
_cell_angle_gamma   90.00000000
_symmetry_Int_Tables_number   1
_chemical_formula_structural   NdSm3Co16(P3Ru)4
_chemical_formula_sum   'Nd1 Sm3 Co16 P12 Ru4'
_cell_volume   464.66914657
_cell_formula_units_Z   1
loop_
 _symmetry_equiv_pos_site_id
 _symmetry_equiv_pos_as_xyz
  1  'x, y, z'
loop_
 _atom_site_type_symbol
 _atom_site_label
 _atom_site_symmetry_multiplicity
 _atom_site_fract_x
 _atom_site_fract_y
 _atom_site_fract_z
 _atom_site_occupancy
  Nd  Nd0  1  0.750000  0.086427  0.796643  1
  Sm  Sm1  1  0.250000  0.586459  0.703128  1
  Sm  Sm2  1  0.250000  0.913483  0.203161  1
  Sm  Sm3  1  0.750000  0.413497  0.296685  1
  Co  Co4  1  0.250000  0.408231  0.490680  1
  Co  Co5  1  0.250000  0.091601  0.992458  1
  Co  Co6  1  0.750000  0.591906  0.509158  1
  Co  Co7  1  0.750000  0.907442  0.009614  1
  Co  Co8  1  0.250000  0.221017  0.176344  1
  Co  Co9  1  0.250000  0.280319  0.675557  1
  Co  Co10  1  0.750000  0.778756  0.824172  1
  Co  Co11  1  0.750000  0.720684  0.323885  1
  Co  Co12  1  0.250000  0.885858  0.701757  1
  Co  Co13  1  0.250000  0.612758  0.202402  1
  Co  Co14  1  0.750000  0.112910  0.297541  1
  Co  Co15  1  0.750000  0.387879  0.797886  1
  Co  Co16  1  0.250000  0.466509  0.931537  1
  Co  Co17  1  0.250000  0.034127  0.430413  1
  Co  Co18  1  0.750000  0.534360  0.068961  1
  Co  Co19  1  0.750000  0.965196  0.567850  1
  P  P20  1  0.250000  0.419720  0.110647  1
  P  P21  1  0.250000  0.080423  0.609036  1
  P  P22  1  0.750000  0.580407  0.889567  1
  P  P23  1  0.750000  0.919523  0.389018  1
  P  P24  1  0.250000  0.276704  0.867195  1
  P  P25  1  0.250000  0.225231  0.366664  1
  P  P26  1  0.750000  0.725165  0.133362  1
  P  P27  1  0.750000  0.774853  0.633216  1
  P  P28  1  0.250000  0.597606  0.391347  1
  P  P29  1  0.250000  0.901012  0.891897  1
  P  P30  1  0.750000  0.402373  0.608593  1
  P  P31  1  0.750000  0.097657  0.108664  1
  Ru  Ru32  1  0.250000  0.715417  0.992789  1
  Ru  Ru33  1  0.250000  0.783874  0.492101  1
  Ru  Ru34  1  0.750000  0.284559  0.008443  1
  Ru  Ru35  1  0.750000  0.216057  0.507631  1
