# generated using pymatgen
data_Ca20Zn8Cd3Bi
_symmetry_space_group_name_H-M   'P 1'
_cell_length_a   8.05247600
_cell_length_b   8.05247600
_cell_length_c   15.13583700
_cell_angle_alpha   90.00000000
_cell_angle_beta   90.00000000
_cell_angle_gamma   90.00000000
_symmetry_Int_Tables_number   1
_chemical_formula_structural   Ca20Zn8Cd3Bi
_chemical_formula_sum   'Ca20 Zn8 Cd3 Bi1'
_cell_volume   981.44353894
_cell_formula_units_Z   1
loop_
 _symmetry_equiv_pos_site_id
 _symmetry_equiv_pos_as_xyz
  1  'x, y, z'
loop_
 _atom_site_type_symbol
 _atom_site_label
 _atom_site_symmetry_multiplicity
 _atom_site_fract_x
 _atom_site_fract_y
 _atom_site_fract_z
 _atom_site_occupancy
  Ca  Ca0  1  0.666456  0.169000  0.103349  1
  Ca  Ca1  1  0.168029  0.669054  0.605599  1
  Ca  Ca2  1  0.333544  0.831000  0.103349  1
  Ca  Ca3  1  0.831971  0.330946  0.605599  1
  Ca  Ca4  1  0.831000  0.666456  0.103349  1
  Ca  Ca5  1  0.330946  0.168029  0.605599  1
  Ca  Ca6  1  0.169000  0.333544  0.103349  1
  Ca  Ca7  1  0.669054  0.831971  0.605599  1
  Ca  Ca8  1  0.831000  0.333544  0.896651  1
  Ca  Ca9  1  0.330946  0.831971  0.394401  1
  Ca  Ca10  1  0.169000  0.666456  0.896651  1
  Ca  Ca11  1  0.669054  0.168029  0.394401  1
  Ca  Ca12  1  0.666456  0.831000  0.896651  1
  Ca  Ca13  1  0.168029  0.330946  0.394401  1
  Ca  Ca14  1  0.333544  0.169000  0.896651  1
  Ca  Ca15  1  0.831971  0.669054  0.394401  1
  Ca  Ca16  1  0.500000  0.500000  0.753301  1
  Ca  Ca17  1  0.000000  0.000000  0.250273  1
  Ca  Ca18  1  0.000000  0.000000  0.749727  1
  Ca  Ca19  1  0.500000  0.500000  0.246699  1
  Zn  Zn20  1  0.618748  0.117163  0.750975  1
  Zn  Zn21  1  0.117163  0.618748  0.249025  1
  Zn  Zn22  1  0.882837  0.381252  0.249025  1
  Zn  Zn23  1  0.381252  0.882837  0.750975  1
  Zn  Zn24  1  0.882837  0.618748  0.750975  1
  Zn  Zn25  1  0.381252  0.117163  0.249025  1
  Zn  Zn26  1  0.117163  0.381252  0.750975  1
  Zn  Zn27  1  0.618748  0.882837  0.249025  1
  Cd  Cd28  1  0.500000  0.500000  0.500000  1
  Cd  Cd29  1  0.500000  0.500000  0.000000  1
  Cd  Cd30  1  0.000000  0.000000  0.500000  1
  Bi  Bi31  1  0.000000  0.000000  0.000000  1
