# generated using pymatgen
data_Ho2Re2TcB6
_symmetry_space_group_name_H-M   'P 1'
_cell_length_a   6.19935955
_cell_length_b   6.19935935
_cell_length_c   7.50249287
_cell_angle_alpha   90.63381773
_cell_angle_beta   90.63382357
_cell_angle_gamma   113.63834072
_symmetry_Int_Tables_number   1
_chemical_formula_structural   Ho2Re2TcB6
_chemical_formula_sum   'Ho4 Re4 Tc2 B12'
_cell_volume   264.08931349
_cell_formula_units_Z   2
loop_
 _symmetry_equiv_pos_site_id
 _symmetry_equiv_pos_as_xyz
  1  'x, y, z'
loop_
 _atom_site_type_symbol
 _atom_site_label
 _atom_site_symmetry_multiplicity
 _atom_site_fract_x
 _atom_site_fract_y
 _atom_site_fract_z
 _atom_site_occupancy
  Ho  Ho0  1  0.101412  0.443807  0.322009  1
  Ho  Ho1  1  0.556193  0.898588  0.177991  1
  Ho  Ho2  1  0.898588  0.556193  0.677991  1
  Ho  Ho3  1  0.443807  0.101412  0.822009  1
  Re  Re4  1  0.990540  0.806495  0.088969  1
  Re  Re5  1  0.193505  0.009460  0.411031  1
  Re  Re6  1  0.009460  0.193505  0.911031  1
  Re  Re7  1  0.806495  0.990540  0.588969  1
  Tc  Tc8  1  0.588182  0.411818  0.250000  1
  Tc  Tc9  1  0.411818  0.588182  0.750000  1
  B  B10  1  0.248229  0.152977  0.130166  1
  B  B11  1  0.847023  0.751771  0.369834  1
  B  B12  1  0.751771  0.847023  0.869834  1
  B  B13  1  0.152977  0.248229  0.630166  1
  B  B14  1  0.586484  0.159282  0.481477  1
  B  B15  1  0.840718  0.413516  0.018523  1
  B  B16  1  0.413516  0.840718  0.518523  1
  B  B17  1  0.159282  0.586484  0.981477  1
  B  B18  1  0.443753  0.350391  0.535266  1
  B  B19  1  0.649609  0.556247  0.964734  1
  B  B20  1  0.556247  0.649609  0.464734  1
  B  B21  1  0.350391  0.443753  0.035266  1
