# generated using pymatgen
data_Hf2CrSi2Ir
_symmetry_space_group_name_H-M   'P 1'
_cell_length_a   3.92103000
_cell_length_b   6.42232700
_cell_length_c   7.52398100
_cell_angle_alpha   90.00000000
_cell_angle_beta   90.00000000
_cell_angle_gamma   90.00000000
_symmetry_Int_Tables_number   1
_chemical_formula_structural   Hf2CrSi2Ir
_chemical_formula_sum   'Hf4 Cr2 Si4 Ir2'
_cell_volume   189.46991910
_cell_formula_units_Z   2
loop_
 _symmetry_equiv_pos_site_id
 _symmetry_equiv_pos_as_xyz
  1  'x, y, z'
loop_
 _atom_site_type_symbol
 _atom_site_label
 _atom_site_symmetry_multiplicity
 _atom_site_fract_x
 _atom_site_fract_y
 _atom_site_fract_z
 _atom_site_occupancy
  Hf  Hf0  1  0.250000  0.975749  0.317446  1
  Hf  Hf1  1  0.250000  0.475749  0.182554  1
  Hf  Hf2  1  0.750000  0.017554  0.681519  1
  Hf  Hf3  1  0.750000  0.517554  0.818481  1
  Cr  Cr4  1  0.750000  0.657176  0.439229  1
  Cr  Cr5  1  0.750000  0.157176  0.060771  1
  Si  Si6  1  0.250000  0.723950  0.624679  1
  Si  Si7  1  0.250000  0.223950  0.875321  1
  Si  Si8  1  0.750000  0.275133  0.376526  1
  Si  Si9  1  0.750000  0.775133  0.123474  1
  Ir  Ir10  1  0.250000  0.350437  0.561815  1
  Ir  Ir11  1  0.250000  0.850437  0.938185  1
