# generated using pymatgen
data_Nd4Ga16Co2Pd
_symmetry_space_group_name_H-M   'P 1'
_cell_length_a   6.17111300
_cell_length_b   6.17111300
_cell_length_c   11.36465400
_cell_angle_alpha   90.00000000
_cell_angle_beta   90.00000000
_cell_angle_gamma   90.00000000
_symmetry_Int_Tables_number   1
_chemical_formula_structural   Nd4Ga16Co2Pd
_chemical_formula_sum   'Nd4 Ga16 Co2 Pd1'
_cell_volume   432.79597767
_cell_formula_units_Z   1
loop_
 _symmetry_equiv_pos_site_id
 _symmetry_equiv_pos_as_xyz
  1  'x, y, z'
loop_
 _atom_site_type_symbol
 _atom_site_label
 _atom_site_symmetry_multiplicity
 _atom_site_fract_x
 _atom_site_fract_y
 _atom_site_fract_z
 _atom_site_occupancy
  Nd  Nd0  1  0.500000  0.000000  0.803246  1
  Nd  Nd1  1  0.000000  0.500000  0.196754  1
  Nd  Nd2  1  0.000000  0.500000  0.803246  1
  Nd  Nd3  1  0.500000  0.000000  0.196754  1
  Ga  Ga4  1  0.000000  0.000000  0.769576  1
  Ga  Ga5  1  0.289970  0.289970  0.000000  1
  Ga  Ga6  1  0.500000  0.500000  0.804962  1
  Ga  Ga7  1  0.710030  0.289970  0.000000  1
  Ga  Ga8  1  0.500000  0.500000  0.195038  1
  Ga  Ga9  1  0.710030  0.710030  0.000000  1
  Ga  Ga10  1  0.000000  0.000000  0.230424  1
  Ga  Ga11  1  0.749335  0.749335  0.611890  1
  Ga  Ga12  1  0.749335  0.250665  0.388110  1
  Ga  Ga13  1  0.250665  0.250665  0.611890  1
  Ga  Ga14  1  0.250665  0.749335  0.388110  1
  Ga  Ga15  1  0.289970  0.710030  0.000000  1
  Ga  Ga16  1  0.749335  0.749335  0.388110  1
  Ga  Ga17  1  0.749335  0.250665  0.611890  1
  Ga  Ga18  1  0.250665  0.250665  0.388110  1
  Ga  Ga19  1  0.250665  0.749335  0.611890  1
  Co  Co20  1  0.000000  0.500000  0.500000  1
  Co  Co21  1  0.500000  0.000000  0.500000  1
  Pd  Pd22  1  0.000000  0.000000  0.000000  1
