# generated using pymatgen
data_TbScB2Ru5W
_symmetry_space_group_name_H-M   'P 1'
_cell_length_a   9.56399835
_cell_length_b   9.56399968
_cell_length_c   3.08470800
_cell_angle_alpha   90.00000000
_cell_angle_beta   90.00000000
_cell_angle_gamma   89.24650282
_symmetry_Int_Tables_number   1
_chemical_formula_structural   TbScB2Ru5W
_chemical_formula_sum   'Tb2 Sc2 B4 Ru10 W2'
_cell_volume   282.13407952
_cell_formula_units_Z   2
loop_
 _symmetry_equiv_pos_site_id
 _symmetry_equiv_pos_as_xyz
  1  'x, y, z'
loop_
 _atom_site_type_symbol
 _atom_site_label
 _atom_site_symmetry_multiplicity
 _atom_site_fract_x
 _atom_site_fract_y
 _atom_site_fract_z
 _atom_site_occupancy
  Tb  Tb0  1  0.323702  0.823702  0.000000  1
  Tb  Tb1  1  0.676298  0.176298  0.000000  1
  Sc  Sc2  1  0.826257  0.673743  0.000000  1
  Sc  Sc3  1  0.173743  0.326257  0.000000  1
  B  B4  1  0.622340  0.877660  0.000000  1
  B  B5  1  0.377660  0.122340  0.000000  1
  B  B6  1  0.118148  0.618148  0.000000  1
  B  B7  1  0.881852  0.381852  0.000000  1
  Ru  Ru8  1  0.575467  0.714013  0.500000  1
  Ru  Ru9  1  0.424533  0.285987  0.500000  1
  Ru  Ru10  1  0.064550  0.781483  0.500000  1
  Ru  Ru11  1  0.935450  0.218517  0.500000  1
  Ru  Ru12  1  0.281483  0.564550  0.500000  1
  Ru  Ru13  1  0.718517  0.435450  0.500000  1
  Ru  Ru14  1  0.214013  0.075467  0.500000  1
  Ru  Ru15  1  0.785987  0.924533  0.500000  1
  Ru  Ru16  1  0.500000  0.000000  0.500000  1
  Ru  Ru17  1  0.000000  0.500000  0.500000  1
  W  W18  1  0.500000  0.500000  0.000000  1
  W  W19  1  0.000000  0.000000  0.000000  1
