# generated using pymatgen
data_Ti11V8Si16Pt
_symmetry_space_group_name_H-M   'P 1'
_cell_length_a   6.53941546
_cell_length_b   6.53941599
_cell_length_c   12.00768053
_cell_angle_alpha   89.71548457
_cell_angle_beta   90.28451647
_cell_angle_gamma   89.81793962
_symmetry_Int_Tables_number   1
_chemical_formula_structural   Ti11V8Si16Pt
_chemical_formula_sum   'Ti11 V8 Si16 Pt1'
_cell_volume   513.48065160
_cell_formula_units_Z   1
loop_
 _symmetry_equiv_pos_site_id
 _symmetry_equiv_pos_as_xyz
  1  'x, y, z'
loop_
 _atom_site_type_symbol
 _atom_site_label
 _atom_site_symmetry_multiplicity
 _atom_site_fract_x
 _atom_site_fract_y
 _atom_site_fract_z
 _atom_site_occupancy
  Ti  Ti0  1  0.999518  0.343901  0.220181  1
  Ti  Ti1  1  0.159878  0.503196  0.469204  1
  Ti  Ti2  1  0.834471  0.498556  0.970194  1
  Ti  Ti3  1  0.503196  0.159878  0.530796  1
  Ti  Ti4  1  0.498556  0.834471  0.029806  1
  Ti  Ti5  1  0.997845  0.658658  0.719990  1
  Ti  Ti6  1  0.343901  0.999518  0.779819  1
  Ti  Ti7  1  0.658658  0.997845  0.280010  1
  Ti  Ti8  1  0.333279  0.667456  0.248845  1
  Ti  Ti9  1  0.667456  0.333279  0.751155  1
  Ti  Ti10  1  0.834151  0.834151  0.500000  1
  V  V11  1  0.995330  0.153641  0.622764  1
  V  V12  1  0.347037  0.500637  0.869794  1
  V  V13  1  0.653525  0.506154  0.371441  1
  V  V14  1  0.500637  0.347037  0.130206  1
  V  V15  1  0.506154  0.653525  0.628559  1
  V  V16  1  0.004286  0.836607  0.121060  1
  V  V17  1  0.153641  0.995330  0.377236  1
  V  V18  1  0.836607  0.004286  0.878940  1
  Si  Si19  1  0.043414  0.296501  0.814248  1
  Si  Si20  1  0.209147  0.543558  0.060012  1
  Si  Si21  1  0.798527  0.457638  0.562648  1
  Si  Si22  1  0.543558  0.209147  0.939988  1
  Si  Si23  1  0.457638  0.798527  0.437352  1
  Si  Si24  1  0.958008  0.702766  0.312752  1
  Si  Si25  1  0.296501  0.043414  0.185752  1
  Si  Si26  1  0.702766  0.958008  0.687248  1
  Si  Si27  1  0.291057  0.364899  0.673383  1
  Si  Si28  1  0.126357  0.788653  0.922106  1
  Si  Si29  1  0.866348  0.209380  0.422938  1
  Si  Si30  1  0.788653  0.126357  0.077894  1
  Si  Si31  1  0.209380  0.866348  0.577062  1
  Si  Si32  1  0.708609  0.634734  0.173770  1
  Si  Si33  1  0.364899  0.291057  0.326617  1
  Si  Si34  1  0.634734  0.708609  0.826230  1
  Pt  Pt35  1  0.172278  0.172278  0.000000  1
