# generated using pymatgen
data_Eu5Hg3Pt2Pb
_symmetry_space_group_name_H-M   'P 1'
_cell_length_a   3.76945200
_cell_length_b   8.24012266
_cell_length_c   18.84148500
_cell_angle_alpha   90.60452832
_cell_angle_beta   90.00000000
_cell_angle_gamma   90.00000000
_symmetry_Int_Tables_number   1
_chemical_formula_structural   Eu5Hg3Pt2Pb
_chemical_formula_sum   'Eu10 Hg6 Pt4 Pb2'
_cell_volume   585.19802071
_cell_formula_units_Z   2
loop_
 _symmetry_equiv_pos_site_id
 _symmetry_equiv_pos_as_xyz
  1  'x, y, z'
loop_
 _atom_site_type_symbol
 _atom_site_label
 _atom_site_symmetry_multiplicity
 _atom_site_fract_x
 _atom_site_fract_y
 _atom_site_fract_z
 _atom_site_occupancy
  Eu  Eu0  1  0.000000  0.111155  0.415237  1
  Eu  Eu1  1  0.000000  0.888845  0.584763  1
  Eu  Eu2  1  0.000000  0.383368  0.915832  1
  Eu  Eu3  1  0.000000  0.616632  0.084168  1
  Eu  Eu4  1  0.000000  0.234347  0.214068  1
  Eu  Eu5  1  0.000000  0.765653  0.785932  1
  Eu  Eu6  1  0.000000  0.259371  0.719846  1
  Eu  Eu7  1  0.000000  0.740629  0.280154  1
  Eu  Eu8  1  0.000000  0.000000  0.000000  1
  Eu  Eu9  1  0.000000  0.500000  0.500000  1
  Hg  Hg10  1  0.500000  0.080473  0.852647  1
  Hg  Hg11  1  0.500000  0.919527  0.147353  1
  Hg  Hg12  1  0.500000  0.294188  0.063434  1
  Hg  Hg13  1  0.500000  0.705812  0.936566  1
  Hg  Hg14  1  0.500000  0.208249  0.565786  1
  Hg  Hg15  1  0.500000  0.791751  0.434214  1
  Pt  Pt16  1  0.500000  0.023485  0.300682  1
  Pt  Pt17  1  0.500000  0.976515  0.699318  1
  Pt  Pt18  1  0.500000  0.480920  0.802702  1
  Pt  Pt19  1  0.500000  0.519080  0.197298  1
  Pb  Pb20  1  0.500000  0.422204  0.350557  1
  Pb  Pb21  1  0.500000  0.577796  0.649443  1
