# generated using pymatgen
data_Tm4Ga4Pd3Ru
_symmetry_space_group_name_H-M   'P 1'
_cell_length_a   4.39968600
_cell_length_b   6.82600552
_cell_length_c   7.65794606
_cell_angle_alpha   89.63978959
_cell_angle_beta   90.00000000
_cell_angle_gamma   90.00000000
_symmetry_Int_Tables_number   1
_chemical_formula_structural   Tm4Ga4Pd3Ru
_chemical_formula_sum   'Tm4 Ga4 Pd3 Ru1'
_cell_volume   229.98104247
_cell_formula_units_Z   1
loop_
 _symmetry_equiv_pos_site_id
 _symmetry_equiv_pos_as_xyz
  1  'x, y, z'
loop_
 _atom_site_type_symbol
 _atom_site_label
 _atom_site_symmetry_multiplicity
 _atom_site_fract_x
 _atom_site_fract_y
 _atom_site_fract_z
 _atom_site_occupancy
  Tm  Tm0  1  0.250000  0.981754  0.305038  1
  Tm  Tm1  1  0.250000  0.476933  0.190437  1
  Tm  Tm2  1  0.750000  0.019309  0.701226  1
  Tm  Tm3  1  0.750000  0.510449  0.804436  1
  Ga  Ga4  1  0.250000  0.325739  0.575731  1
  Ga  Ga5  1  0.250000  0.833672  0.925531  1
  Ga  Ga6  1  0.750000  0.672623  0.426988  1
  Ga  Ga7  1  0.750000  0.174871  0.072290  1
  Pd  Pd8  1  0.250000  0.721867  0.600395  1
  Pd  Pd9  1  0.750000  0.777564  0.099905  1
  Pd  Pd10  1  0.750000  0.277201  0.398869  1
  Ru  Ru11  1  0.250000  0.228017  0.899155  1
