# generated using pymatgen
data_HfZr13(Pd9Au)2
_symmetry_space_group_name_H-M   'P 1'
_cell_length_a   8.18842472
_cell_length_b   8.18842489
_cell_length_c   9.75382508
_cell_angle_alpha   90.09494185
_cell_angle_beta   90.09494622
_cell_angle_gamma   106.91782425
_symmetry_Int_Tables_number   1
_chemical_formula_structural   HfZr13(Pd9Au)2
_chemical_formula_sum   'Hf1 Zr13 Pd18 Au2'
_cell_volume   625.69152528
_cell_formula_units_Z   1
loop_
 _symmetry_equiv_pos_site_id
 _symmetry_equiv_pos_as_xyz
  1  'x, y, z'
loop_
 _atom_site_type_symbol
 _atom_site_label
 _atom_site_symmetry_multiplicity
 _atom_site_fract_x
 _atom_site_fract_y
 _atom_site_fract_z
 _atom_site_occupancy
  Hf  Hf0  1  0.500000  0.500000  0.500000  1
  Zr  Zr1  1  0.695928  0.304072  0.000000  1
  Zr  Zr2  1  0.304072  0.695928  0.000000  1
  Zr  Zr3  1  0.808973  0.191027  0.500000  1
  Zr  Zr4  1  0.191027  0.808973  0.500000  1
  Zr  Zr5  1  0.000000  0.000000  0.000000  1
  Zr  Zr6  1  0.001257  0.502028  0.251035  1
  Zr  Zr7  1  0.998743  0.497972  0.748965  1
  Zr  Zr8  1  0.497972  0.998743  0.748965  1
  Zr  Zr9  1  0.502028  0.001257  0.251035  1
  Zr  Zr10  1  0.310616  0.310616  0.191244  1
  Zr  Zr11  1  0.689384  0.689384  0.808756  1
  Zr  Zr12  1  0.182123  0.182123  0.681017  1
  Zr  Zr13  1  0.817877  0.817877  0.318983  1
  Pd  Pd14  1  0.856377  0.149605  0.207942  1
  Pd  Pd15  1  0.143623  0.850395  0.792058  1
  Pd  Pd16  1  0.643008  0.352200  0.705737  1
  Pd  Pd17  1  0.647800  0.356992  0.294263  1
  Pd  Pd18  1  0.356992  0.647800  0.294263  1
  Pd  Pd19  1  0.352200  0.643008  0.705737  1
  Pd  Pd20  1  0.850395  0.143623  0.792058  1
  Pd  Pd21  1  0.149605  0.856377  0.207942  1
  Pd  Pd22  1  0.939336  0.645738  0.001004  1
  Pd  Pd23  1  0.060664  0.354262  0.998996  1
  Pd  Pd24  1  0.561912  0.852461  0.503342  1
  Pd  Pd25  1  0.147539  0.438088  0.496658  1
  Pd  Pd26  1  0.438088  0.147539  0.496658  1
  Pd  Pd27  1  0.852461  0.561912  0.503342  1
  Pd  Pd28  1  0.354262  0.060664  0.998996  1
  Pd  Pd29  1  0.645738  0.939336  0.001004  1
  Pd  Pd30  1  0.103443  0.103443  0.396062  1
  Pd  Pd31  1  0.896557  0.896557  0.603938  1
  Au  Au32  1  0.392452  0.392452  0.894701  1
  Au  Au33  1  0.607548  0.607548  0.105299  1
