# generated using pymatgen
data_CsYb(AgTe2)4
_symmetry_space_group_name_H-M   'P 1'
_cell_length_a   12.41210523
_cell_length_b   12.41210507
_cell_length_c   10.91317852
_cell_angle_alpha   93.51932713
_cell_angle_beta   93.51932723
_cell_angle_gamma   14.65877720
_symmetry_Int_Tables_number   1
_chemical_formula_structural   CsYb(AgTe2)4
_chemical_formula_sum   'Cs1 Yb1 Ag4 Te8'
_cell_volume   424.65440574
_cell_formula_units_Z   1
loop_
 _symmetry_equiv_pos_site_id
 _symmetry_equiv_pos_as_xyz
  1  'x, y, z'
loop_
 _atom_site_type_symbol
 _atom_site_label
 _atom_site_symmetry_multiplicity
 _atom_site_fract_x
 _atom_site_fract_y
 _atom_site_fract_z
 _atom_site_occupancy
  Cs  Cs0  1  0.000000  0.000000  0.000000  1
  Yb  Yb1  1  0.500000  0.500000  0.500000  1
  Ag  Ag2  1  0.245227  0.245227  0.118365  1
  Ag  Ag3  1  0.841229  0.841229  0.464313  1
  Ag  Ag4  1  0.158771  0.158771  0.535687  1
  Ag  Ag5  1  0.754773  0.754773  0.881635  1
  Te  Te6  1  0.921251  0.921251  0.661853  1
  Te  Te7  1  0.078749  0.078749  0.338147  1
  Te  Te8  1  0.591471  0.591471  0.720529  1
  Te  Te9  1  0.408529  0.408529  0.279471  1
  Te  Te10  1  0.650885  0.650885  0.990438  1
  Te  Te11  1  0.349115  0.349115  0.009562  1
  Te  Te12  1  0.737832  0.737832  0.338925  1
  Te  Te13  1  0.262168  0.262168  0.661075  1
