# generated using pymatgen
data_TbYb3As6Rh7
_symmetry_space_group_name_H-M   'P 1'
_cell_length_a   7.24975644
_cell_length_b   7.24975656
_cell_length_c   7.23431200
_cell_angle_alpha   109.42806871
_cell_angle_beta   109.42806906
_cell_angle_gamma   109.51433737
_symmetry_Int_Tables_number   1
_chemical_formula_structural   TbYb3As6Rh7
_chemical_formula_sum   'Tb1 Yb3 As6 Rh7'
_cell_volume   292.85537113
_cell_formula_units_Z   1
loop_
 _symmetry_equiv_pos_site_id
 _symmetry_equiv_pos_as_xyz
  1  'x, y, z'
loop_
 _atom_site_type_symbol
 _atom_site_label
 _atom_site_symmetry_multiplicity
 _atom_site_fract_x
 _atom_site_fract_y
 _atom_site_fract_z
 _atom_site_occupancy
  Tb  Tb0  1  0.000000  0.000000  0.500000  1
  Yb  Yb1  1  0.500000  0.500000  0.500000  1
  Yb  Yb2  1  0.000000  0.500000  0.000000  1
  Yb  Yb3  1  0.500000  0.000000  0.000000  1
  As  As4  1  0.679243  0.000000  0.681434  1
  As  As5  1  0.679243  0.679243  0.997809  1
  As  As6  1  0.320757  0.320757  0.002191  1
  As  As7  1  0.000000  0.679243  0.681434  1
  As  As8  1  0.000000  0.320757  0.318566  1
  As  As9  1  0.320757  0.000000  0.318566  1
  Rh  Rh10  1  0.499903  0.749952  0.249952  1
  Rh  Rh11  1  0.749952  0.250048  0.500000  1
  Rh  Rh12  1  0.250048  0.749952  0.500000  1
  Rh  Rh13  1  0.250048  0.500097  0.750048  1
  Rh  Rh14  1  0.000000  0.000000  0.000000  1
  Rh  Rh15  1  0.500097  0.250048  0.750048  1
  Rh  Rh16  1  0.749952  0.499903  0.249952  1
