# generated using pymatgen
data_Zr10TlZnSiBi3Pb2
_symmetry_space_group_name_H-M   'P 1'
_cell_length_a   8.80480521
_cell_length_b   8.80481444
_cell_length_c   5.97541900
_cell_angle_alpha   90.04052762
_cell_angle_beta   90.04060575
_cell_angle_gamma   119.93662647
_symmetry_Int_Tables_number   1
_chemical_formula_structural   Zr10TlZnSiBi3Pb2
_chemical_formula_sum   'Zr10 Tl1 Zn1 Si1 Bi3 Pb2'
_cell_volume   401.43524970
_cell_formula_units_Z   1
loop_
 _symmetry_equiv_pos_site_id
 _symmetry_equiv_pos_as_xyz
  1  'x, y, z'
loop_
 _atom_site_type_symbol
 _atom_site_label
 _atom_site_symmetry_multiplicity
 _atom_site_fract_x
 _atom_site_fract_y
 _atom_site_fract_z
 _atom_site_occupancy
  Zr  Zr0  1  0.666076  0.333621  0.500415  1
  Zr  Zr1  1  0.333622  0.666077  0.500415  1
  Zr  Zr2  1  0.333285  0.666323  0.999567  1
  Zr  Zr3  1  0.666322  0.333284  0.999567  1
  Zr  Zr4  1  0.739381  0.739381  0.242218  1
  Zr  Zr5  1  0.260511  0.001862  0.242947  1
  Zr  Zr6  1  0.001862  0.260510  0.242948  1
  Zr  Zr7  1  0.259603  0.259603  0.757477  1
  Zr  Zr8  1  0.740636  0.000854  0.757489  1
  Zr  Zr9  1  0.000854  0.740636  0.757488  1
  Tl  Tl10  1  0.387973  0.387973  0.253639  1
  Zn  Zn11  1  0.001253  0.001253  0.499577  1
  Si  Si12  1  0.000414  0.000414  0.000423  1
  Bi  Bi13  1  0.609138  0.000837  0.254042  1
  Bi  Bi14  1  0.000837  0.609138  0.254042  1
  Bi  Bi15  1  0.608363  0.608363  0.745272  1
  Pb  Pb16  1  0.389669  0.000199  0.746235  1
  Pb  Pb17  1  0.000199  0.389669  0.746236  1
