# generated using pymatgen
data_Ba4TeP2
_symmetry_space_group_name_H-M   'P 1'
_cell_length_a   8.71756124
_cell_length_b   8.70342255
_cell_length_c   8.71756200
_cell_angle_alpha   109.46583131
_cell_angle_beta   109.47677152
_cell_angle_gamma   109.46582676
_symmetry_Int_Tables_number   1
_chemical_formula_structural   Ba4TeP2
_chemical_formula_sum   'Ba8 Te2 P4'
_cell_volume   509.19750492
_cell_formula_units_Z   2
loop_
 _symmetry_equiv_pos_site_id
 _symmetry_equiv_pos_as_xyz
  1  'x, y, z'
loop_
 _atom_site_type_symbol
 _atom_site_label
 _atom_site_symmetry_multiplicity
 _atom_site_fract_x
 _atom_site_fract_y
 _atom_site_fract_z
 _atom_site_occupancy
  Ba  Ba0  1  0.335888  0.491641  0.984914  1
  Ba  Ba1  1  0.886337  0.500276  0.997817  1
  Ba  Ba2  1  0.133232  0.123848  0.119817  1
  Ba  Ba3  1  0.497816  0.000276  0.386337  1
  Ba  Ba4  1  0.025398  0.383515  0.509723  1
  Ba  Ba5  1  0.009724  0.883515  0.525398  1
  Ba  Ba6  1  0.619816  0.623847  0.633231  1
  Ba  Ba7  1  0.484914  0.991642  0.835888  1
  Te  Te8  1  0.745543  0.875619  0.126770  1
  Te  Te9  1  0.626769  0.375619  0.245543  1
  P  P10  1  0.255439  0.623259  0.374289  1
  P  P11  1  0.373047  0.251841  0.631781  1
  P  P12  1  0.874289  0.123260  0.755439  1
  P  P13  1  0.131782  0.751841  0.873047  1
