# generated using pymatgen
data_Rb4Ga2Au7
_symmetry_space_group_name_H-M   'P 1'
_cell_length_a   6.72130500
_cell_length_b   6.72130576
_cell_length_c   10.43800872
_cell_angle_alpha   108.78168115
_cell_angle_beta   90.00000000
_cell_angle_gamma   59.99999881
_symmetry_Int_Tables_number   1
_chemical_formula_structural   Rb4Ga2Au7
_chemical_formula_sum   'Rb4 Ga2 Au7'
_cell_volume   379.10137629
_cell_formula_units_Z   1
loop_
 _symmetry_equiv_pos_site_id
 _symmetry_equiv_pos_as_xyz
  1  'x, y, z'
loop_
 _atom_site_type_symbol
 _atom_site_label
 _atom_site_symmetry_multiplicity
 _atom_site_fract_x
 _atom_site_fract_y
 _atom_site_fract_z
 _atom_site_occupancy
  Rb  Rb0  1  0.315746  0.368507  0.052763  1
  Rb  Rb1  1  0.188334  0.623330  0.434997  1
  Rb  Rb2  1  0.811665  0.376670  0.565004  1
  Rb  Rb3  1  0.684254  0.631493  0.947238  1
  Ga  Ga4  1  0.545914  0.908173  0.362257  1
  Ga  Ga5  1  0.454084  0.091829  0.637743  1
  Au  Au6  1  0.000000  0.000000  0.000000  1
  Au  Au7  1  0.777762  0.444477  0.238561  1
  Au  Au8  1  0.205913  0.016323  0.238561  1
  Au  Au9  1  0.777761  0.016323  0.238561  1
  Au  Au10  1  0.222238  0.983678  0.761439  1
  Au  Au11  1  0.794086  0.983678  0.761439  1
  Au  Au12  1  0.222237  0.555524  0.761439  1
