# generated using pymatgen
data_CsAlAsH
_symmetry_space_group_name_H-M   'P 1'
_cell_length_a   4.17998200
_cell_length_b   4.17998185
_cell_length_c   6.72828400
_cell_angle_alpha   90.00000000
_cell_angle_beta   90.00000000
_cell_angle_gamma   119.99998538
_symmetry_Int_Tables_number   1
_chemical_formula_structural   CsAlAsH
_chemical_formula_sum   'Cs1 Al1 As1 H1'
_cell_volume   101.80844816
_cell_formula_units_Z   1
loop_
 _symmetry_equiv_pos_site_id
 _symmetry_equiv_pos_as_xyz
  1  'x, y, z'
loop_
 _atom_site_type_symbol
 _atom_site_label
 _atom_site_symmetry_multiplicity
 _atom_site_fract_x
 _atom_site_fract_y
 _atom_site_fract_z
 _atom_site_occupancy
  Cs  Cs0  1  0.000000  0.000000  0.032443  1
  Al  Al1  1  0.666667  0.333333  0.563809  1
  As  As2  1  0.333333  0.666667  0.450781  1
  H  H3  1  0.666667  0.333333  0.810066  1
