# generated using pymatgen
data_DyHoTm4(Co3P2)6
_symmetry_space_group_name_H-M   'P 1'
_cell_length_a   3.67719500
_cell_length_b   10.48355200
_cell_length_c   12.13290100
_cell_angle_alpha   90.00000000
_cell_angle_beta   90.00000000
_cell_angle_gamma   90.00000000
_symmetry_Int_Tables_number   1
_chemical_formula_structural   DyHoTm4(Co3P2)6
_chemical_formula_sum   'Dy1 Ho1 Tm4 Co18 P12'
_cell_volume   467.72412215
_cell_formula_units_Z   1
loop_
 _symmetry_equiv_pos_site_id
 _symmetry_equiv_pos_as_xyz
  1  'x, y, z'
loop_
 _atom_site_type_symbol
 _atom_site_label
 _atom_site_symmetry_multiplicity
 _atom_site_fract_x
 _atom_site_fract_y
 _atom_site_fract_z
 _atom_site_occupancy
  Dy  Dy0  1  0.500000  0.000000  0.477331  1
  Ho  Ho1  1  0.000000  0.500000  0.522608  1
  Tm  Tm2  1  0.500000  0.817762  0.205592  1
  Tm  Tm3  1  0.500000  0.182238  0.205592  1
  Tm  Tm4  1  0.000000  0.682140  0.794314  1
  Tm  Tm5  1  0.000000  0.317860  0.794314  1
  Co  Co6  1  0.500000  0.500000  0.159013  1
  Co  Co7  1  0.000000  0.000000  0.841265  1
  Co  Co8  1  0.500000  0.500000  0.704050  1
  Co  Co9  1  0.000000  0.000000  0.295702  1
  Co  Co10  1  0.000000  0.500000  0.986193  1
  Co  Co11  1  0.500000  0.000000  0.013819  1
  Co  Co12  1  0.500000  0.333292  0.994517  1
  Co  Co13  1  0.500000  0.666708  0.994517  1
  Co  Co14  1  0.000000  0.166698  0.005472  1
  Co  Co15  1  0.000000  0.833302  0.005472  1
  Co  Co16  1  0.500000  0.297389  0.430393  1
  Co  Co17  1  0.500000  0.702611  0.430393  1
  Co  Co18  1  0.000000  0.203266  0.569648  1
  Co  Co19  1  0.000000  0.796734  0.569648  1
  Co  Co20  1  0.500000  0.878428  0.710111  1
  Co  Co21  1  0.500000  0.121572  0.710111  1
  Co  Co22  1  0.000000  0.621364  0.290023  1
  Co  Co23  1  0.000000  0.378636  0.290023  1
  P  P24  1  0.500000  0.500000  0.882118  1
  P  P25  1  0.000000  0.000000  0.117552  1
  P  P26  1  0.500000  0.500000  0.344425  1
  P  P27  1  0.000000  0.000000  0.655966  1
  P  P28  1  0.500000  0.311129  0.616782  1
  P  P29  1  0.500000  0.688871  0.616782  1
  P  P30  1  0.000000  0.189306  0.383052  1
  P  P31  1  0.000000  0.810694  0.383052  1
  P  P32  1  0.500000  0.846770  0.892549  1
  P  P33  1  0.500000  0.153230  0.892549  1
  P  P34  1  0.000000  0.653128  0.107526  1
  P  P35  1  0.000000  0.346872  0.107526  1
