# generated using pymatgen
data_Nd3In4NiRu
_symmetry_space_group_name_H-M   'P 1'
_cell_length_a   7.94743300
_cell_length_b   7.94743386
_cell_length_c   3.92970400
_cell_angle_alpha   90.00000000
_cell_angle_beta   90.00000000
_cell_angle_gamma   120.00000891
_symmetry_Int_Tables_number   1
_chemical_formula_structural   Nd3In4NiRu
_chemical_formula_sum   'Nd3 In4 Ni1 Ru1'
_cell_volume   214.95335565
_cell_formula_units_Z   1
loop_
 _symmetry_equiv_pos_site_id
 _symmetry_equiv_pos_as_xyz
  1  'x, y, z'
loop_
 _atom_site_type_symbol
 _atom_site_label
 _atom_site_symmetry_multiplicity
 _atom_site_fract_x
 _atom_site_fract_y
 _atom_site_fract_z
 _atom_site_occupancy
  Nd  Nd0  1  0.053280  0.299993  0.500000  1
  Nd  Nd1  1  0.700007  0.753286  0.500000  1
  Nd  Nd2  1  0.246714  0.946720  0.500000  1
  In  In3  1  0.668349  0.088607  0.000000  1
  In  In4  1  0.911393  0.579743  0.000000  1
  In  In5  1  0.420257  0.331651  0.000000  1
  In  In6  1  0.333333  0.666667  0.000000  1
  Ni  Ni7  1  0.666667  0.333333  0.500000  1
  Ru  Ru8  1  0.000000  0.000000  0.000000  1
