# generated using pymatgen
data_Cs4In11GaS20
_symmetry_space_group_name_H-M   'P 1'
_cell_length_a   13.83291863
_cell_length_b   7.77186682
_cell_length_c   11.38214900
_cell_angle_alpha   76.29630100
_cell_angle_beta   89.91955429
_cell_angle_gamma   89.93547063
_symmetry_Int_Tables_number   1
_chemical_formula_structural   Cs4In11GaS20
_chemical_formula_sum   'Cs4 In11 Ga1 S20'
_cell_volume   1188.83283780
_cell_formula_units_Z   1
loop_
 _symmetry_equiv_pos_site_id
 _symmetry_equiv_pos_as_xyz
  1  'x, y, z'
loop_
 _atom_site_type_symbol
 _atom_site_label
 _atom_site_symmetry_multiplicity
 _atom_site_fract_x
 _atom_site_fract_y
 _atom_site_fract_z
 _atom_site_occupancy
  Cs  Cs0  1  0.618512  0.837653  0.390819  1
  Cs  Cs1  1  0.116325  0.164087  0.110366  1
  Cs  Cs2  1  0.381663  0.162817  0.610514  1
  Cs  Cs3  1  0.882878  0.835427  0.888404  1
  In  In4  1  0.916911  0.805631  0.402303  1
  In  In5  1  0.579930  0.804200  0.900984  1
  In  In6  1  0.420351  0.196388  0.099920  1
  In  In7  1  0.395091  0.560977  0.804400  1
  In  In8  1  0.101975  0.556981  0.305120  1
  In  In9  1  0.336067  0.706560  0.125796  1
  In  In10  1  0.609793  0.436321  0.196840  1
  In  In11  1  0.078398  0.196229  0.595144  1
  In  In12  1  0.663603  0.291562  0.875072  1
  In  In13  1  0.893365  0.438982  0.691351  1
  In  In14  1  0.161854  0.707196  0.622970  1
  Ga  Ga15  1  0.839436  0.293211  0.377902  1
  S  S16  1  0.826751  0.726227  0.591548  1
  S  S17  1  0.100498  0.812071  0.408480  1
  S  S18  1  0.672009  0.723699  0.088435  1
  S  S19  1  0.396217  0.813558  0.910468  1
  S  S20  1  0.328041  0.277700  0.912457  1
  S  S21  1  0.677900  0.341302  0.401808  1
  S  S22  1  0.578576  0.575626  0.770608  1
  S  S23  1  0.603769  0.184367  0.090135  1
  S  S24  1  0.894412  0.192615  0.578734  1
  S  S25  1  0.632440  0.072469  0.754914  1
  S  S26  1  0.366977  0.927314  0.244867  1
  S  S27  1  0.174356  0.277576  0.410808  1
  S  S28  1  0.076635  0.423220  0.726400  1
  S  S29  1  0.916986  0.563162  0.279667  1
  S  S30  1  0.867547  0.088645  0.266131  1
  S  S31  1  0.130070  0.927869  0.741719  1
  S  S32  1  0.837779  0.338548  0.900972  1
  S  S33  1  0.336008  0.658151  0.596221  1
  S  S34  1  0.425036  0.424829  0.230438  1
  S  S35  1  0.161841  0.656828  0.097286  1
