# generated using pymatgen
data_Nb4Si3AsRu4
_symmetry_space_group_name_H-M   'P 1'
_cell_length_a   3.87383700
_cell_length_b   6.41041344
_cell_length_c   7.34379480
_cell_angle_alpha   89.61505733
_cell_angle_beta   90.00000000
_cell_angle_gamma   90.00000000
_symmetry_Int_Tables_number   1
_chemical_formula_structural   Nb4Si3AsRu4
_chemical_formula_sum   'Nb4 Si3 As1 Ru4'
_cell_volume   182.36358251
_cell_formula_units_Z   1
loop_
 _symmetry_equiv_pos_site_id
 _symmetry_equiv_pos_as_xyz
  1  'x, y, z'
loop_
 _atom_site_type_symbol
 _atom_site_label
 _atom_site_symmetry_multiplicity
 _atom_site_fract_x
 _atom_site_fract_y
 _atom_site_fract_z
 _atom_site_occupancy
  Nb  Nb0  1  0.250000  0.018285  0.823080  1
  Nb  Nb1  1  0.250000  0.528170  0.681748  1
  Nb  Nb2  1  0.750000  0.976970  0.177720  1
  Nb  Nb3  1  0.750000  0.480393  0.317407  1
  Si  Si4  1  0.250000  0.272333  0.122875  1
  Si  Si5  1  0.250000  0.773616  0.375454  1
  Si  Si6  1  0.750000  0.725690  0.878112  1
  As  As7  1  0.750000  0.231007  0.623983  1
  Ru  Ru8  1  0.250000  0.146768  0.433916  1
  Ru  Ru9  1  0.250000  0.649689  0.062491  1
  Ru  Ru10  1  0.750000  0.845716  0.560146  1
  Ru  Ru11  1  0.750000  0.351365  0.943066  1
