# generated using pymatgen
data_Yb4Al6SeO16
_symmetry_space_group_name_H-M   'P 1'
_cell_length_a   8.06433364
_cell_length_b   8.06433396
_cell_length_c   8.06433344
_cell_angle_alpha   109.93567726
_cell_angle_beta   109.93567613
_cell_angle_gamma   108.54625027
_symmetry_Int_Tables_number   1
_chemical_formula_structural   Yb4Al6SeO16
_chemical_formula_sum   'Yb4 Al6 Se1 O16'
_cell_volume   403.64431433
_cell_formula_units_Z   1
loop_
 _symmetry_equiv_pos_site_id
 _symmetry_equiv_pos_as_xyz
  1  'x, y, z'
loop_
 _atom_site_type_symbol
 _atom_site_label
 _atom_site_symmetry_multiplicity
 _atom_site_fract_x
 _atom_site_fract_y
 _atom_site_fract_z
 _atom_site_occupancy
  Yb  Yb0  1  0.464393  0.019574  0.032997  1
  Yb  Yb1  1  0.980426  0.013423  0.444819  1
  Yb  Yb2  1  0.986577  0.431396  0.967003  1
  Yb  Yb3  1  0.568604  0.535607  0.555181  1
  Al  Al4  1  0.509211  0.746319  0.266101  1
  Al  Al5  1  0.250000  0.750000  0.500000  1
  Al  Al6  1  0.756890  0.490789  0.237108  1
  Al  Al7  1  0.750000  0.250000  0.500000  1
  Al  Al8  1  0.480218  0.243110  0.733899  1
  Al  Al9  1  0.253681  0.519782  0.762892  1
  Se  Se10  1  0.000000  0.000000  0.000000  1
  O  O11  1  0.631065  0.995994  0.315065  1
  O  O12  1  0.302446  0.726902  0.721251  1
  O  O13  1  0.599066  0.285191  0.983041  1
  O  O14  1  0.273098  0.994349  0.575545  1
  O  O15  1  0.004006  0.319071  0.635071  1
  O  O16  1  0.714809  0.697850  0.313876  1
  O  O17  1  0.680929  0.316000  0.684935  1
  O  O18  1  0.005651  0.581195  0.278749  1
  O  O19  1  0.302150  0.616026  0.016959  1
  O  O20  1  0.418805  0.697554  0.424455  1
  O  O21  1  0.684000  0.368935  0.364929  1
  O  O22  1  0.383974  0.400934  0.686124  1
  O  O23  1  0.911222  0.044430  0.160723  1
  O  O24  1  0.955570  0.116292  0.866791  1
  O  O25  1  0.883708  0.750498  0.839277  1
  O  O26  1  0.249502  0.088778  0.133209  1
