# generated using pymatgen
data_Tb5Yb2Er(B6Os)4
_symmetry_space_group_name_H-M   'P 1'
_cell_length_a   3.65737300
_cell_length_b   9.17348971
_cell_length_c   11.56472304
_cell_angle_alpha   89.82690833
_cell_angle_beta   90.00000000
_cell_angle_gamma   90.00000000
_symmetry_Int_Tables_number   1
_chemical_formula_structural   Tb5Yb2Er(B6Os)4
_chemical_formula_sum   'Tb5 Yb2 Er1 B24 Os4'
_cell_volume   388.00479014
_cell_formula_units_Z   1
loop_
 _symmetry_equiv_pos_site_id
 _symmetry_equiv_pos_as_xyz
  1  'x, y, z'
loop_
 _atom_site_type_symbol
 _atom_site_label
 _atom_site_symmetry_multiplicity
 _atom_site_fract_x
 _atom_site_fract_y
 _atom_site_fract_z
 _atom_site_occupancy
  Tb  Tb0  1  0.000000  0.822051  0.086056  1
  Tb  Tb1  1  0.000000  0.177925  0.913459  1
  Tb  Tb2  1  0.000000  0.941685  0.370381  1
  Tb  Tb3  1  0.000000  0.058454  0.630041  1
  Tb  Tb4  1  0.000000  0.442874  0.129982  1
  Yb  Yb5  1  0.000000  0.325150  0.414761  1
  Yb  Yb6  1  0.000000  0.674941  0.585622  1
  Er  Er7  1  0.000000  0.557350  0.869165  1
  B  B8  1  0.500000  0.553551  0.432934  1
  B  B9  1  0.500000  0.446756  0.567590  1
  B  B10  1  0.500000  0.053420  0.066890  1
  B  B11  1  0.500000  0.945680  0.932835  1
  B  B12  1  0.500000  0.746711  0.418115  1
  B  B13  1  0.500000  0.253679  0.582195  1
  B  B14  1  0.500000  0.247557  0.081501  1
  B  B15  1  0.500000  0.751166  0.918207  1
  B  B16  1  0.500000  0.789893  0.265371  1
  B  B17  1  0.500000  0.210727  0.734817  1
  B  B18  1  0.500000  0.289570  0.234266  1
  B  B19  1  0.500000  0.709259  0.765829  1
  B  B20  1  0.500000  0.631262  0.186000  1
  B  B21  1  0.500000  0.369768  0.814300  1
  B  B22  1  0.500000  0.131208  0.313529  1
  B  B23  1  0.500000  0.868368  0.686667  1
  B  B24  1  0.500000  0.983737  0.211537  1
  B  B25  1  0.500000  0.015783  0.788588  1
  B  B26  1  0.500000  0.484004  0.288728  1
  B  B27  1  0.500000  0.516850  0.712007  1
  B  B28  1  0.500000  0.603776  0.027614  1
  B  B29  1  0.500000  0.397224  0.970376  1
  B  B30  1  0.500000  0.100861  0.472072  1
  B  B31  1  0.500000  0.899160  0.528225  1
  Os  Os32  1  0.000000  0.638676  0.319841  1
  Os  Os33  1  0.000000  0.362152  0.680698  1
  Os  Os34  1  0.000000  0.136657  0.177517  1
  Os  Os35  1  0.000000  0.862115  0.822285  1
