# generated using pymatgen
data_LuTh3Al13Ga5Ir6
_symmetry_space_group_name_H-M   'P 1'
_cell_length_a   7.63002632
_cell_length_b   7.63651219
_cell_length_c   9.52374490
_cell_angle_alpha   90.05175409
_cell_angle_beta   89.91084148
_cell_angle_gamma   119.55016838
_symmetry_Int_Tables_number   1
_chemical_formula_structural   LuTh3Al13Ga5Ir6
_chemical_formula_sum   'Lu1 Th3 Al13 Ga5 Ir6'
_cell_volume   482.73603369
_cell_formula_units_Z   1
loop_
 _symmetry_equiv_pos_site_id
 _symmetry_equiv_pos_as_xyz
  1  'x, y, z'
loop_
 _atom_site_type_symbol
 _atom_site_label
 _atom_site_symmetry_multiplicity
 _atom_site_fract_x
 _atom_site_fract_y
 _atom_site_fract_z
 _atom_site_occupancy
  Lu  Lu0  1  0.326383  0.005582  0.749964  1
  Th  Th1  1  0.994907  0.669833  0.248486  1
  Th  Th2  1  0.002775  0.326658  0.754090  1
  Th  Th3  1  0.671920  0.995806  0.248394  1
  Al  Al4  1  0.001088  0.671549  0.920450  1
  Al  Al5  1  0.001188  0.669456  0.577872  1
  Al  Al6  1  0.335083  0.003452  0.433277  1
  Al  Al7  1  0.006180  0.335764  0.429008  1
  Al  Al8  1  0.658670  0.996511  0.577384  1
  Al  Al9  1  0.656322  0.993909  0.920899  1
  Al  Al10  1  0.335151  0.004340  0.066854  1
  Al  Al11  1  0.336499  0.332468  0.559040  1
  Al  Al12  1  0.664098  0.664035  0.455026  1
  Al  Al13  1  0.663216  0.663052  0.044703  1
  Al  Al14  1  0.336684  0.332515  0.941942  1
  Al  Al15  1  0.657978  0.449527  0.749115  1
  Al  Al16  1  0.452214  0.663868  0.749314  1
  Ga  Ga17  1  0.139211  0.133011  0.250084  1
  Ga  Ga18  1  0.866513  0.864716  0.749124  1
  Ga  Ga19  1  0.004207  0.336044  0.079724  1
  Ga  Ga20  1  0.346891  0.545685  0.250176  1
  Ga  Ga21  1  0.543100  0.339670  0.249692  1
  Ir  Ir22  1  0.670329  0.328240  0.995693  1
  Ir  Ir23  1  0.328777  0.672977  0.996731  1
  Ir  Ir24  1  0.327279  0.671070  0.502150  1
  Ir  Ir25  1  0.673540  0.328786  0.501729  1
  Ir  Ir26  1  0.999753  0.999410  0.999328  1
  Ir  Ir27  1  0.000046  0.002070  0.499753  1
