# generated using pymatgen
data_HfSc5(TiP)6
_symmetry_space_group_name_H-M   'P 1'
_cell_length_a   7.74060018
_cell_length_b   7.76068136
_cell_length_c   7.74060041
_cell_angle_alpha   127.87161956
_cell_angle_beta   123.20926288
_cell_angle_gamma   80.63268852
_symmetry_Int_Tables_number   1
_chemical_formula_structural   HfSc5(TiP)6
_chemical_formula_sum   'Hf1 Sc5 Ti6 P6'
_cell_volume   296.33036792
_cell_formula_units_Z   1
loop_
 _symmetry_equiv_pos_site_id
 _symmetry_equiv_pos_as_xyz
  1  'x, y, z'
loop_
 _atom_site_type_symbol
 _atom_site_label
 _atom_site_symmetry_multiplicity
 _atom_site_fract_x
 _atom_site_fract_y
 _atom_site_fract_z
 _atom_site_occupancy
  Hf  Hf0  1  0.951579  0.656915  0.205336  1
  Sc  Sc1  1  0.451879  0.657035  0.705157  1
  Sc  Sc2  1  0.547646  0.252569  0.204922  1
  Sc  Sc3  1  0.749619  0.847706  0.598087  1
  Sc  Sc4  1  0.250572  0.849571  0.098997  1
  Sc  Sc5  1  0.048252  0.255021  0.706770  1
  Ti  Ti6  1  0.501249  0.499086  0.000275  1
  Ti  Ti7  1  0.998811  0.499086  0.497836  1
  Ti  Ti8  1  0.122189  0.253496  0.129423  1
  Ti  Ti9  1  0.879081  0.008964  0.132636  1
  Ti  Ti10  1  0.376328  0.008964  0.629883  1
  Ti  Ti11  1  0.624073  0.253496  0.631307  1
  P  P12  1  0.251216  0.255869  0.504655  1
  P  P13  1  0.749713  0.251872  0.002159  1
  P  P14  1  0.331242  0.587071  0.253647  1
  P  P15  1  0.668028  0.917904  0.252803  1
  P  P16  1  0.165101  0.917904  0.749875  1
  P  P17  1  0.833424  0.587071  0.755830  1
