# generated using pymatgen
data_Ho5Pt8Au
_symmetry_space_group_name_H-M   'P 1'
_cell_length_a   9.79587400
_cell_length_b   9.79587400
_cell_length_c   5.78142300
_cell_angle_alpha   90.00000000
_cell_angle_beta   90.00000000
_cell_angle_gamma   90.00000000
_symmetry_Int_Tables_number   1
_chemical_formula_structural   Ho5Pt8Au
_chemical_formula_sum   'Ho10 Pt16 Au2'
_cell_volume   554.78042198
_cell_formula_units_Z   2
loop_
 _symmetry_equiv_pos_site_id
 _symmetry_equiv_pos_as_xyz
  1  'x, y, z'
loop_
 _atom_site_type_symbol
 _atom_site_label
 _atom_site_symmetry_multiplicity
 _atom_site_fract_x
 _atom_site_fract_y
 _atom_site_fract_z
 _atom_site_occupancy
  Ho  Ho0  1  0.452772  0.814329  0.000000  1
  Ho  Ho1  1  0.547228  0.185671  0.000000  1
  Ho  Ho2  1  0.185671  0.547228  0.000000  1
  Ho  Ho3  1  0.814329  0.452772  0.000000  1
  Ho  Ho4  1  0.500000  0.500000  0.500000  1
  Ho  Ho5  1  0.314329  0.047228  0.500000  1
  Ho  Ho6  1  0.685671  0.952772  0.500000  1
  Ho  Ho7  1  0.952772  0.685671  0.500000  1
  Ho  Ho8  1  0.047228  0.314329  0.500000  1
  Ho  Ho9  1  0.000000  0.000000  0.000000  1
  Pt  Pt10  1  0.193570  0.806430  0.249663  1
  Pt  Pt11  1  0.806430  0.193570  0.750337  1
  Pt  Pt12  1  0.806430  0.193570  0.249663  1
  Pt  Pt13  1  0.193570  0.806430  0.750337  1
  Pt  Pt14  1  0.441010  0.780298  0.500000  1
  Pt  Pt15  1  0.558990  0.219702  0.500000  1
  Pt  Pt16  1  0.219702  0.558990  0.500000  1
  Pt  Pt17  1  0.780298  0.441010  0.500000  1
  Pt  Pt18  1  0.306430  0.306430  0.250337  1
  Pt  Pt19  1  0.693570  0.693570  0.749663  1
  Pt  Pt20  1  0.693570  0.693570  0.250337  1
  Pt  Pt21  1  0.306430  0.306430  0.749663  1
  Pt  Pt22  1  0.280298  0.058990  0.000000  1
  Pt  Pt23  1  0.719702  0.941010  0.000000  1
  Pt  Pt24  1  0.941010  0.719702  0.000000  1
  Pt  Pt25  1  0.058990  0.280298  0.000000  1
  Au  Au26  1  0.000000  0.000000  0.500000  1
  Au  Au27  1  0.500000  0.500000  0.000000  1
