# generated using pymatgen
data_SrAc(Al5Ru)4
_symmetry_space_group_name_H-M   'P 1'
_cell_length_a   6.94826255
_cell_length_b   6.94826395
_cell_length_c   9.27293000
_cell_angle_alpha   90.00000000
_cell_angle_beta   90.00000000
_cell_angle_gamma   96.77458354
_symmetry_Int_Tables_number   1
_chemical_formula_structural   SrAc(Al5Ru)4
_chemical_formula_sum   'Sr1 Ac1 Al20 Ru4'
_cell_volume   444.55612892
_cell_formula_units_Z   1
loop_
 _symmetry_equiv_pos_site_id
 _symmetry_equiv_pos_as_xyz
  1  'x, y, z'
loop_
 _atom_site_type_symbol
 _atom_site_label
 _atom_site_symmetry_multiplicity
 _atom_site_fract_x
 _atom_site_fract_y
 _atom_site_fract_z
 _atom_site_occupancy
  Sr  Sr0  1  0.879435  0.120565  0.750000  1
  Ac  Ac1  1  0.120062  0.879938  0.250000  1
  Al  Al2  1  0.622197  0.377803  0.547107  1
  Al  Al3  1  0.379404  0.620596  0.449056  1
  Al  Al4  1  0.379404  0.620596  0.050944  1
  Al  Al5  1  0.622197  0.377803  0.952893  1
  Al  Al6  1  0.227834  0.230379  0.502268  1
  Al  Al7  1  0.769621  0.772166  0.502268  1
  Al  Al8  1  0.769621  0.772166  0.997732  1
  Al  Al9  1  0.227834  0.230379  0.997732  1
  Al  Al10  1  0.836827  0.163173  0.099554  1
  Al  Al11  1  0.165119  0.834881  0.896614  1
  Al  Al12  1  0.165119  0.834881  0.603386  1
  Al  Al13  1  0.836827  0.163173  0.400446  1
  Al  Al14  1  0.860509  0.587693  0.750000  1
  Al  Al15  1  0.138029  0.408076  0.250000  1
  Al  Al16  1  0.412307  0.139491  0.750000  1
  Al  Al17  1  0.591924  0.861971  0.250000  1
  Al  Al18  1  0.220922  0.479128  0.750000  1
  Al  Al19  1  0.776525  0.517486  0.250000  1
  Al  Al20  1  0.520872  0.779078  0.750000  1
  Al  Al21  1  0.482514  0.223475  0.250000  1
  Ru  Ru22  1  0.999675  0.502227  0.499642  1
  Ru  Ru23  1  0.999675  0.502227  0.000358  1
  Ru  Ru24  1  0.497773  0.000325  0.000358  1
  Ru  Ru25  1  0.497773  0.000325  0.499642  1
