# generated using pymatgen
data_Nb2GaB2Ir2Ru3
_symmetry_space_group_name_H-M   'P 1'
_cell_length_a   9.48109900
_cell_length_b   9.39401300
_cell_length_c   2.96525900
_cell_angle_alpha   90.00000000
_cell_angle_beta   90.00000000
_cell_angle_gamma   90.00000000
_symmetry_Int_Tables_number   1
_chemical_formula_structural   Nb2GaB2Ir2Ru3
_chemical_formula_sum   'Nb4 Ga2 B4 Ir4 Ru6'
_cell_volume   264.10247491
_cell_formula_units_Z   2
loop_
 _symmetry_equiv_pos_site_id
 _symmetry_equiv_pos_as_xyz
  1  'x, y, z'
loop_
 _atom_site_type_symbol
 _atom_site_label
 _atom_site_symmetry_multiplicity
 _atom_site_fract_x
 _atom_site_fract_y
 _atom_site_fract_z
 _atom_site_occupancy
  Nb  Nb0  1  0.822819  0.675128  0.000000  1
  Nb  Nb1  1  0.177181  0.324872  0.000000  1
  Nb  Nb2  1  0.322819  0.824872  0.000000  1
  Nb  Nb3  1  0.677181  0.175128  0.000000  1
  Ga  Ga4  1  0.500000  0.500000  0.000000  1
  Ga  Ga5  1  0.000000  0.000000  0.000000  1
  B  B6  1  0.626987  0.880065  0.000000  1
  B  B7  1  0.373013  0.119935  0.000000  1
  B  B8  1  0.126987  0.619935  0.000000  1
  B  B9  1  0.873013  0.380065  0.000000  1
  Ir  Ir10  1  0.569428  0.717541  0.500000  1
  Ir  Ir11  1  0.430572  0.282459  0.500000  1
  Ir  Ir12  1  0.069428  0.782459  0.500000  1
  Ir  Ir13  1  0.930572  0.217541  0.500000  1
  Ru  Ru14  1  0.284394  0.569098  0.500000  1
  Ru  Ru15  1  0.715606  0.430902  0.500000  1
  Ru  Ru16  1  0.215606  0.069098  0.500000  1
  Ru  Ru17  1  0.784394  0.930902  0.500000  1
  Ru  Ru18  1  0.500000  0.000000  0.500000  1
  Ru  Ru19  1  0.000000  0.500000  0.500000  1
