# generated using pymatgen
data_Nd7Dy9Cd4RuPt3
_symmetry_space_group_name_H-M   'P 1'
_cell_length_a   9.80413310
_cell_length_b   9.80413372
_cell_length_c   9.80764900
_cell_angle_alpha   59.75632882
_cell_angle_beta   59.75633576
_cell_angle_gamma   60.03404413
_symmetry_Int_Tables_number   1
_chemical_formula_structural   Nd7Dy9Cd4RuPt3
_chemical_formula_sum   'Nd7 Dy9 Cd4 Ru1 Pt3'
_cell_volume   664.30840100
_cell_formula_units_Z   1
loop_
 _symmetry_equiv_pos_site_id
 _symmetry_equiv_pos_as_xyz
  1  'x, y, z'
loop_
 _atom_site_type_symbol
 _atom_site_label
 _atom_site_symmetry_multiplicity
 _atom_site_fract_x
 _atom_site_fract_y
 _atom_site_fract_z
 _atom_site_occupancy
  Nd  Nd0  1  0.810769  0.810769  0.186441  1
  Nd  Nd1  1  0.938927  0.561622  0.563668  1
  Nd  Nd2  1  0.557419  0.939218  0.938603  1
  Nd  Nd3  1  0.561622  0.938927  0.563668  1
  Nd  Nd4  1  0.939218  0.557419  0.938603  1
  Nd  Nd5  1  0.561840  0.561840  0.937783  1
  Nd  Nd6  1  0.938468  0.938468  0.558300  1
  Dy  Dy7  1  0.350457  0.350457  0.352066  1
  Dy  Dy8  1  0.346933  0.346933  0.953311  1
  Dy  Dy9  1  0.344633  0.955822  0.347840  1
  Dy  Dy10  1  0.955822  0.344633  0.347840  1
  Dy  Dy11  1  0.816535  0.189445  0.186378  1
  Dy  Dy12  1  0.188754  0.810963  0.809583  1
  Dy  Dy13  1  0.189445  0.816535  0.186378  1
  Dy  Dy14  1  0.810963  0.188754  0.809583  1
  Dy  Dy15  1  0.187363  0.187363  0.816431  1
  Cd  Cd16  1  0.578534  0.578534  0.580841  1
  Cd  Cd17  1  0.578976  0.578976  0.260116  1
  Cd  Cd18  1  0.579971  0.259488  0.579601  1
  Cd  Cd19  1  0.259488  0.579971  0.579601  1
  Ru  Ru20  1  0.141624  0.141624  0.143498  1
  Pt  Pt21  1  0.143117  0.143117  0.574429  1
  Pt  Pt22  1  0.148972  0.570150  0.142719  1
  Pt  Pt23  1  0.570150  0.148972  0.142719  1
