# generated using pymatgen
data_Er4Ga4Ni3Ru
_symmetry_space_group_name_H-M   'P 1'
_cell_length_a   4.27284300
_cell_length_b   6.75739211
_cell_length_c   7.45148832
_cell_angle_alpha   90.10908642
_cell_angle_beta   90.00000000
_cell_angle_gamma   90.00000000
_symmetry_Int_Tables_number   1
_chemical_formula_structural   Er4Ga4Ni3Ru
_chemical_formula_sum   'Er4 Ga4 Ni3 Ru1'
_cell_volume   215.14848587
_cell_formula_units_Z   1
loop_
 _symmetry_equiv_pos_site_id
 _symmetry_equiv_pos_as_xyz
  1  'x, y, z'
loop_
 _atom_site_type_symbol
 _atom_site_label
 _atom_site_symmetry_multiplicity
 _atom_site_fract_x
 _atom_site_fract_y
 _atom_site_fract_z
 _atom_site_occupancy
  Er  Er0  1  0.250000  0.976396  0.309626  1
  Er  Er1  1  0.250000  0.481619  0.191497  1
  Er  Er2  1  0.750000  0.016613  0.695781  1
  Er  Er3  1  0.750000  0.516416  0.804659  1
  Ga  Ga4  1  0.250000  0.331388  0.565794  1
  Ga  Ga5  1  0.250000  0.824022  0.927039  1
  Ga  Ga6  1  0.750000  0.671655  0.425489  1
  Ga  Ga7  1  0.750000  0.170502  0.083549  1
  Ni  Ni8  1  0.250000  0.713070  0.599749  1
  Ni  Ni9  1  0.750000  0.787271  0.101960  1
  Ni  Ni10  1  0.750000  0.288363  0.399102  1
  Ru  Ru11  1  0.250000  0.222685  0.895756  1
