# generated using pymatgen
data_HoEr3V4F28
_symmetry_space_group_name_H-M   'P 1'
_cell_length_a   5.48016303
_cell_length_b   8.75448736
_cell_length_c   11.73376105
_cell_angle_alpha   63.49553277
_cell_angle_beta   89.98973453
_cell_angle_gamma   89.99122175
_symmetry_Int_Tables_number   1
_chemical_formula_structural   HoEr3V4F28
_chemical_formula_sum   'Ho1 Er3 V4 F28'
_cell_volume   503.77397621
_cell_formula_units_Z   1
loop_
 _symmetry_equiv_pos_site_id
 _symmetry_equiv_pos_as_xyz
  1  'x, y, z'
loop_
 _atom_site_type_symbol
 _atom_site_label
 _atom_site_symmetry_multiplicity
 _atom_site_fract_x
 _atom_site_fract_y
 _atom_site_fract_z
 _atom_site_occupancy
  Ho  Ho0  1  0.758250  0.808229  0.770479  1
  Er  Er1  1  0.258282  0.192517  0.729360  1
  Er  Er2  1  0.241697  0.191908  0.229456  1
  Er  Er3  1  0.741707  0.808171  0.270551  1
  V  V4  1  0.754455  0.272942  0.954720  1
  V  V5  1  0.254464  0.726678  0.545038  1
  V  V6  1  0.245558  0.726703  0.045744  1
  V  V7  1  0.745489  0.273451  0.454492  1
  F  F8  1  0.449895  0.704680  0.923921  1
  F  F9  1  0.950506  0.295054  0.576311  1
  F  F10  1  0.549319  0.294946  0.076419  1
  F  F11  1  0.049167  0.704988  0.423364  1
  F  F12  1  0.459070  0.283482  0.544926  1
  F  F13  1  0.959431  0.716209  0.955693  1
  F  F14  1  0.541252  0.716641  0.454815  1
  F  F15  1  0.040983  0.283311  0.045086  1
  F  F16  1  0.769087  0.506900  0.862153  1
  F  F17  1  0.268986  0.492460  0.637946  1
  F  F18  1  0.231078  0.492405  0.138138  1
  F  F19  1  0.731016  0.507576  0.361952  1
  F  F20  1  0.756278  0.041343  0.045260  1
  F  F21  1  0.256251  0.958385  0.454781  1
  F  F22  1  0.243723  0.958274  0.954978  1
  F  F23  1  0.743749  0.041762  0.544897  1
  F  F24  1  0.977995  0.730313  0.641322  1
  F  F25  1  0.477721  0.269371  0.858291  1
  F  F26  1  0.022292  0.269360  0.358173  1
  F  F27  1  0.522570  0.730673  0.141925  1
  F  F28  1  0.041560  0.747921  0.170663  1
  F  F29  1  0.541668  0.252124  0.329500  1
  F  F30  1  0.958262  0.252041  0.829575  1
  F  F31  1  0.457154  0.747574  0.670198  1
  F  F32  1  0.422490  0.973338  0.231480  1
  F  F33  1  0.922460  0.026608  0.268515  1
  F  F34  1  0.577022  0.027749  0.768612  1
  F  F35  1  0.079118  0.973913  0.731267  1
