# generated using pymatgen
data_AcLa8Nd11Sn16
_symmetry_space_group_name_H-M   'P 1'
_cell_length_a   8.38557691
_cell_length_b   8.53592759
_cell_length_c   16.20663800
_cell_angle_alpha   90.01817022
_cell_angle_beta   90.04774662
_cell_angle_gamma   90.05657632
_symmetry_Int_Tables_number   1
_chemical_formula_structural   AcLa8Nd11Sn16
_chemical_formula_sum   'Ac1 La8 Nd11 Sn16'
_cell_volume   1160.04868523
_cell_formula_units_Z   1
loop_
 _symmetry_equiv_pos_site_id
 _symmetry_equiv_pos_as_xyz
  1  'x, y, z'
loop_
 _atom_site_type_symbol
 _atom_site_label
 _atom_site_symmetry_multiplicity
 _atom_site_fract_x
 _atom_site_fract_y
 _atom_site_fract_z
 _atom_site_occupancy
  Ac  Ac0  1  0.018364  0.181179  0.902310  1
  La  La1  1  0.868316  0.663250  0.880738  1
  La  La2  1  0.517693  0.318826  0.901148  1
  La  La3  1  0.017604  0.181074  0.598355  1
  La  La4  1  0.482448  0.680917  0.401012  1
  La  La5  1  0.981995  0.818823  0.099772  1
  La  La6  1  0.482257  0.680593  0.099356  1
  La  La7  1  0.982278  0.819222  0.400841  1
  La  La8  1  0.517377  0.318869  0.598289  1
  Nd  Nd9  1  0.367220  0.837302  0.879562  1
  Nd  Nd10  1  0.867121  0.662620  0.619847  1
  Nd  Nd11  1  0.633053  0.162374  0.379463  1
  Nd  Nd12  1  0.132623  0.338216  0.120989  1
  Nd  Nd13  1  0.632040  0.162240  0.121481  1
  Nd  Nd14  1  0.132812  0.337295  0.379413  1
  Nd  Nd15  1  0.367289  0.837465  0.619783  1
  Nd  Nd16  1  0.199209  0.502454  0.749695  1
  Nd  Nd17  1  0.698105  0.997836  0.749242  1
  Nd  Nd18  1  0.801281  0.498238  0.250314  1
  Nd  Nd19  1  0.301175  0.001925  0.250106  1
  Sn  Sn20  1  0.295016  0.036112  0.043135  1
  Sn  Sn21  1  0.793788  0.462791  0.457636  1
  Sn  Sn22  1  0.706521  0.962873  0.542166  1
  Sn  Sn23  1  0.211086  0.537617  0.958346  1
  Sn  Sn24  1  0.701639  0.963864  0.958591  1
  Sn  Sn25  1  0.206187  0.537050  0.542212  1
  Sn  Sn26  1  0.293675  0.037222  0.457609  1
  Sn  Sn27  1  0.792570  0.461824  0.044085  1
  Sn  Sn28  1  0.565631  0.619657  0.748895  1
  Sn  Sn29  1  0.067977  0.880841  0.748651  1
  Sn  Sn30  1  0.433066  0.380469  0.250020  1
  Sn  Sn31  1  0.933262  0.119310  0.249942  1
  Sn  Sn32  1  0.323971  0.141308  0.748960  1
  Sn  Sn33  1  0.820526  0.358358  0.747820  1
  Sn  Sn34  1  0.677392  0.858385  0.250143  1
  Sn  Sn35  1  0.177429  0.641594  0.250069  1
