# generated using pymatgen
data_Th4MgSiRh11
_symmetry_space_group_name_H-M   'P 1'
_cell_length_a   7.33729760
_cell_length_b   7.33725500
_cell_length_c   7.33729973
_cell_angle_alpha   108.13014570
_cell_angle_beta   108.11272454
_cell_angle_gamma   112.20614577
_symmetry_Int_Tables_number   1
_chemical_formula_structural   Th4MgSiRh11
_chemical_formula_sum   'Th4 Mg1 Si1 Rh11'
_cell_volume   303.55413127
_cell_formula_units_Z   1
loop_
 _symmetry_equiv_pos_site_id
 _symmetry_equiv_pos_as_xyz
  1  'x, y, z'
loop_
 _atom_site_type_symbol
 _atom_site_label
 _atom_site_symmetry_multiplicity
 _atom_site_fract_x
 _atom_site_fract_y
 _atom_site_fract_z
 _atom_site_occupancy
  Th  Th0  1  0.012700  0.987272  0.499963  1
  Th  Th1  1  0.012700  0.512737  0.025434  1
  Th  Th2  1  0.487309  0.987272  0.974573  1
  Th  Th3  1  0.487302  0.512737  0.500037  1
  Mg  Mg4  1  0.749996  0.249995  0.499999  1
  Si  Si5  1  0.999988  0.999984  0.999996  1
  Rh  Rh6  1  0.746075  0.491509  0.254555  1
  Rh  Rh7  1  0.508431  0.253869  0.745437  1
  Rh  Rh8  1  0.236955  0.491509  0.745433  1
  Rh  Rh9  1  0.250037  0.750032  0.499995  1
  Rh  Rh10  1  0.508441  0.763007  0.254566  1
  Rh  Rh11  1  0.718527  0.718540  0.000013  1
  Rh  Rh12  1  0.284681  0.011856  0.272825  1
  Rh  Rh13  1  0.988218  0.261065  0.272847  1
  Rh  Rh14  1  0.281386  0.281400  0.000014  1
  Rh  Rh15  1  0.739031  0.011856  0.727176  1
  Rh  Rh16  1  0.988222  0.715359  0.727137  1
