# generated using pymatgen
data_Yb2Ce(SiIr)2
_symmetry_space_group_name_H-M   'P 1'
_cell_length_a   5.68358224
_cell_length_b   5.68358142
_cell_length_c   13.12774135
_cell_angle_alpha   92.03072568
_cell_angle_beta   87.96927308
_cell_angle_gamma   137.07698685
_symmetry_Int_Tables_number   1
_chemical_formula_structural   Yb2Ce(SiIr)2
_chemical_formula_sum   'Yb4 Ce2 Si4 Ir4'
_cell_volume   288.58643686
_cell_formula_units_Z   2
loop_
 _symmetry_equiv_pos_site_id
 _symmetry_equiv_pos_as_xyz
  1  'x, y, z'
loop_
 _atom_site_type_symbol
 _atom_site_label
 _atom_site_symmetry_multiplicity
 _atom_site_fract_x
 _atom_site_fract_y
 _atom_site_fract_z
 _atom_site_occupancy
  Yb  Yb0  1  0.523759  0.476241  0.246790  1
  Yb  Yb1  1  0.771052  0.228948  0.896099  1
  Yb  Yb2  1  0.476241  0.523759  0.753210  1
  Yb  Yb3  1  0.228948  0.771052  0.103901  1
  Ce  Ce4  1  0.766316  0.233684  0.606193  1
  Ce  Ce5  1  0.233684  0.766316  0.393807  1
  Si  Si6  1  0.059671  0.940329  0.588073  1
  Si  Si7  1  0.061586  0.938414  0.912665  1
  Si  Si8  1  0.940329  0.059671  0.411927  1
  Si  Si9  1  0.938414  0.061586  0.087335  1
  Ir  Ir10  1  0.823764  0.176236  0.251615  1
  Ir  Ir11  1  0.176236  0.823764  0.748385  1
  Ir  Ir12  1  0.500000  0.500000  0.000000  1
  Ir  Ir13  1  0.500000  0.500000  0.500000  1
