# generated using pymatgen
data_Pr12IrRu(PtBr6)2
_symmetry_space_group_name_H-M   'P 1'
_cell_length_a   10.54454721
_cell_length_b   10.54453725
_cell_length_c   10.67884278
_cell_angle_alpha   109.54369469
_cell_angle_beta   109.54384497
_cell_angle_gamma   109.13390879
_symmetry_Int_Tables_number   1
_chemical_formula_structural   Pr12IrRu(PtBr6)2
_chemical_formula_sum   'Pr12 Ir1 Ru1 Pt2 Br12'
_cell_volume   916.17443563
_cell_formula_units_Z   1
loop_
 _symmetry_equiv_pos_site_id
 _symmetry_equiv_pos_as_xyz
  1  'x, y, z'
loop_
 _atom_site_type_symbol
 _atom_site_label
 _atom_site_symmetry_multiplicity
 _atom_site_fract_x
 _atom_site_fract_y
 _atom_site_fract_z
 _atom_site_occupancy
  Pr  Pr0  1  0.470485  0.482070  0.238012  1
  Pr  Pr1  1  0.741034  0.230801  0.260805  1
  Pr  Pr2  1  0.742130  0.010535  0.479279  1
  Pr  Pr3  1  0.236178  0.469137  0.481075  1
  Pr  Pr4  1  0.269200  0.758966  0.239196  1
  Pr  Pr5  1  0.030863  0.263821  0.018925  1
  Pr  Pr6  1  0.017930  0.029515  0.261988  1
  Pr  Pr7  1  0.489464  0.757869  0.020721  1
  Pr  Pr8  1  0.486083  0.233588  0.469414  1
  Pr  Pr9  1  0.014807  0.485194  0.750001  1
  Pr  Pr10  1  0.266412  0.013918  0.030587  1
  Pr  Pr11  1  0.235365  0.264633  0.749999  1
  Ir  Ir12  1  0.250165  0.249835  0.250000  1
  Ru  Ru13  1  0.499928  0.000073  0.250000  1
  Pt  Pt14  1  0.999141  0.249399  0.499039  1
  Pt  Pt15  1  0.250601  0.500859  0.000962  1
  Br  Br16  1  0.250374  0.752899  0.746860  1
  Br  Br17  1  0.505527  0.503048  0.752748  1
  Br  Br18  1  0.990974  0.744439  0.994743  1
  Br  Br19  1  0.747100  0.249627  0.753139  1
  Br  Br20  1  0.996952  0.994471  0.747251  1
  Br  Br21  1  0.249805  0.996417  0.505353  1
  Br  Br22  1  0.755561  0.509026  0.505257  1
  Br  Br23  1  0.503583  0.250195  0.994647  1
  Br  Br24  1  0.753951  0.746048  0.250000  1
  Br  Br25  1  0.745706  0.995790  0.991431  1
  Br  Br26  1  0.996471  0.503530  0.250000  1
  Br  Br27  1  0.504210  0.754294  0.508569  1
