# generated using pymatgen
data_Nd4Ga5(Ir2Pt)3
_symmetry_space_group_name_H-M   'P 1'
_cell_length_a   12.50071966
_cell_length_b   12.50072011
_cell_length_c   12.50072015
_cell_angle_alpha   26.04587424
_cell_angle_beta   26.04588186
_cell_angle_gamma   26.04587563
_symmetry_Int_Tables_number   1
_chemical_formula_structural   Nd4Ga5(Ir2Pt)3
_chemical_formula_sum   'Nd4 Ga5 Ir6 Pt3'
_cell_volume   331.78240755
_cell_formula_units_Z   1
loop_
 _symmetry_equiv_pos_site_id
 _symmetry_equiv_pos_as_xyz
  1  'x, y, z'
loop_
 _atom_site_type_symbol
 _atom_site_label
 _atom_site_symmetry_multiplicity
 _atom_site_fract_x
 _atom_site_fract_y
 _atom_site_fract_z
 _atom_site_occupancy
  Nd  Nd0  1  0.954438  0.954438  0.954438  1
  Nd  Nd1  1  0.049525  0.049525  0.049525  1
  Nd  Nd2  1  0.851416  0.851416  0.851416  1
  Nd  Nd3  1  0.145289  0.145289  0.145289  1
  Ga  Ga4  1  0.498055  0.498055  0.498055  1
  Ga  Ga5  1  0.721165  0.721165  0.721165  1
  Ga  Ga6  1  0.278834  0.278834  0.278834  1
  Ga  Ga7  1  0.612841  0.612841  0.612841  1
  Ga  Ga8  1  0.389082  0.389082  0.389082  1
  Ir  Ir9  1  0.499222  0.499222  0.002183  1
  Ir  Ir10  1  0.002183  0.499222  0.499222  1
  Ir  Ir11  1  0.499222  0.002183  0.499222  1
  Ir  Ir12  1  0.612673  0.104012  0.612673  1
  Ir  Ir13  1  0.612673  0.612673  0.104012  1
  Ir  Ir14  1  0.104012  0.612673  0.612673  1
  Pt  Pt15  1  0.388870  0.891629  0.388870  1
  Pt  Pt16  1  0.388870  0.388870  0.891629  1
  Pt  Pt17  1  0.891629  0.388870  0.388870  1
