# generated using pymatgen
data_Nd4Ga23Cu3
_symmetry_space_group_name_H-M   'P 1'
_cell_length_a   6.13883200
_cell_length_b   6.13883200
_cell_length_c   15.26251900
_cell_angle_alpha   90.00000000
_cell_angle_beta   90.00000000
_cell_angle_gamma   90.00000000
_symmetry_Int_Tables_number   1
_chemical_formula_structural   Nd4Ga23Cu3
_chemical_formula_sum   'Nd4 Ga23 Cu3'
_cell_volume   575.17197119
_cell_formula_units_Z   1
loop_
 _symmetry_equiv_pos_site_id
 _symmetry_equiv_pos_as_xyz
  1  'x, y, z'
loop_
 _atom_site_type_symbol
 _atom_site_label
 _atom_site_symmetry_multiplicity
 _atom_site_fract_x
 _atom_site_fract_y
 _atom_site_fract_z
 _atom_site_occupancy
  Nd  Nd0  1  0.750000  0.250000  0.243502  1
  Nd  Nd1  1  0.250000  0.750000  0.243502  1
  Nd  Nd2  1  0.250000  0.750000  0.757196  1
  Nd  Nd3  1  0.750000  0.250000  0.757196  1
  Ga  Ga4  1  0.750000  0.750000  0.177519  1
  Ga  Ga5  1  0.750000  0.750000  0.818431  1
  Ga  Ga6  1  0.250000  0.250000  0.818772  1
  Ga  Ga7  1  0.250000  0.250000  0.332990  1
  Ga  Ga8  1  0.750000  0.750000  0.341402  1
  Ga  Ga9  1  0.750000  0.750000  0.657008  1
  Ga  Ga10  1  0.250000  0.250000  0.656435  1
  Ga  Ga11  1  0.501493  0.998819  0.916351  1
  Ga  Ga12  1  0.998819  0.998507  0.916351  1
  Ga  Ga13  1  0.501181  0.501493  0.916351  1
  Ga  Ga14  1  0.998507  0.501181  0.916351  1
  Ga  Ga15  1  0.488506  0.011483  0.087637  1
  Ga  Ga16  1  0.011483  0.011494  0.087637  1
  Ga  Ga17  1  0.488517  0.488506  0.087637  1
  Ga  Ga18  1  0.011494  0.488517  0.087637  1
  Ga  Ga19  1  0.568864  0.077403  0.429875  1
  Ga  Ga20  1  0.077403  0.931136  0.429875  1
  Ga  Ga21  1  0.422597  0.568864  0.429875  1
  Ga  Ga22  1  0.931136  0.422597  0.429875  1
  Ga  Ga23  1  0.416044  0.913258  0.570176  1
  Ga  Ga24  1  0.913258  0.083956  0.570176  1
  Ga  Ga25  1  0.586742  0.416044  0.570176  1
  Ga  Ga26  1  0.083956  0.586742  0.570176  1
  Cu  Cu27  1  0.250000  0.250000  0.178782  1
  Cu  Cu28  1  0.750000  0.250000  0.000555  1
  Cu  Cu29  1  0.250000  0.750000  0.000555  1
