# generated using pymatgen
data_La6As13Rh20
_symmetry_space_group_name_H-M   'P 1'
_cell_length_a   13.88412500
_cell_length_b   13.88412479
_cell_length_c   4.09487900
_cell_angle_alpha   90.00000000
_cell_angle_beta   90.00000000
_cell_angle_gamma   119.99999813
_symmetry_Int_Tables_number   1
_chemical_formula_structural   La6As13Rh20
_chemical_formula_sum   'La6 As13 Rh20'
_cell_volume   683.61051851
_cell_formula_units_Z   1
loop_
 _symmetry_equiv_pos_site_id
 _symmetry_equiv_pos_as_xyz
  1  'x, y, z'
loop_
 _atom_site_type_symbol
 _atom_site_label
 _atom_site_symmetry_multiplicity
 _atom_site_fract_x
 _atom_site_fract_y
 _atom_site_fract_z
 _atom_site_occupancy
  La  La0  1  0.530333  0.718887  0.246847  1
  La  La1  1  0.281113  0.811445  0.246847  1
  La  La2  1  0.188555  0.469667  0.246847  1
  La  La3  1  0.469667  0.281113  0.753153  1
  La  La4  1  0.718887  0.188555  0.753153  1
  La  La5  1  0.811445  0.530333  0.753153  1
  As  As6  1  0.522668  0.135242  0.251408  1
  As  As7  1  0.864758  0.387428  0.251408  1
  As  As8  1  0.612572  0.477332  0.251408  1
  As  As9  1  0.947897  0.719367  0.251495  1
  As  As10  1  0.280633  0.228531  0.251495  1
  As  As11  1  0.771469  0.052103  0.251495  1
  As  As12  1  0.387428  0.522668  0.748592  1
  As  As13  1  0.477332  0.864758  0.748592  1
  As  As14  1  0.135242  0.612572  0.748592  1
  As  As15  1  0.719367  0.771469  0.748505  1
  As  As16  1  0.228531  0.947897  0.748505  1
  As  As17  1  0.052103  0.280633  0.748505  1
  As  As18  1  0.000000  0.000000  0.000000  1
  Rh  Rh19  1  0.333333  0.666667  0.751243  1
  Rh  Rh20  1  0.924891  0.249926  0.255590  1
  Rh  Rh21  1  0.750074  0.674965  0.255590  1
  Rh  Rh22  1  0.325035  0.075109  0.255590  1
  Rh  Rh23  1  0.439177  0.024187  0.752302  1
  Rh  Rh24  1  0.975813  0.414990  0.752302  1
  Rh  Rh25  1  0.585010  0.560823  0.752302  1
  Rh  Rh26  1  0.666667  0.333333  0.248757  1
  Rh  Rh27  1  0.091012  0.187739  0.250776  1
  Rh  Rh28  1  0.812261  0.903273  0.250776  1
  Rh  Rh29  1  0.096727  0.908988  0.250776  1
  Rh  Rh30  1  0.024187  0.585010  0.247698  1
  Rh  Rh31  1  0.414990  0.439177  0.247698  1
  Rh  Rh32  1  0.560823  0.975813  0.247698  1
  Rh  Rh33  1  0.674965  0.924891  0.744410  1
  Rh  Rh34  1  0.075109  0.750074  0.744410  1
  Rh  Rh35  1  0.249926  0.325035  0.744410  1
  Rh  Rh36  1  0.908988  0.812261  0.749224  1
  Rh  Rh37  1  0.187739  0.096727  0.749224  1
  Rh  Rh38  1  0.903273  0.091012  0.749224  1
