# generated using pymatgen
data_SrYb2Ho(Al3Pd)6
_symmetry_space_group_name_H-M   'P 1'
_cell_length_a   7.68137622
_cell_length_b   7.66912497
_cell_length_c   9.54265100
_cell_angle_alpha   90.00000000
_cell_angle_beta   90.00000000
_cell_angle_gamma   119.48631072
_symmetry_Int_Tables_number   1
_chemical_formula_structural   SrYb2Ho(Al3Pd)6
_chemical_formula_sum   'Sr1 Yb2 Ho1 Al18 Pd6'
_cell_volume   489.33846828
_cell_formula_units_Z   1
loop_
 _symmetry_equiv_pos_site_id
 _symmetry_equiv_pos_as_xyz
  1  'x, y, z'
loop_
 _atom_site_type_symbol
 _atom_site_label
 _atom_site_symmetry_multiplicity
 _atom_site_fract_x
 _atom_site_fract_y
 _atom_site_fract_z
 _atom_site_occupancy
  Sr  Sr0  1  0.328529  0.003743  0.750000  1
  Yb  Yb1  1  0.996062  0.669945  0.250000  1
  Yb  Yb2  1  0.005523  0.330240  0.750000  1
  Ho  Ho3  1  0.670336  0.997687  0.250000  1
  Al  Al4  1  0.127157  0.130820  0.250000  1
  Al  Al5  1  0.863639  0.866527  0.750000  1
  Al  Al6  1  0.000102  0.335240  0.079141  1
  Al  Al7  1  0.995249  0.662029  0.928645  1
  Al  Al8  1  0.995249  0.662029  0.571355  1
  Al  Al9  1  0.334736  0.999836  0.417491  1
  Al  Al10  1  0.000102  0.335240  0.420859  1
  Al  Al11  1  0.668076  0.999193  0.571633  1
  Al  Al12  1  0.668076  0.999193  0.928367  1
  Al  Al13  1  0.334736  0.999836  0.082509  1
  Al  Al14  1  0.334168  0.336187  0.547920  1
  Al  Al15  1  0.667802  0.668705  0.438555  1
  Al  Al16  1  0.667802  0.668705  0.061445  1
  Al  Al17  1  0.334168  0.336187  0.952080  1
  Al  Al18  1  0.343583  0.548654  0.250000  1
  Al  Al19  1  0.664203  0.457024  0.750000  1
  Al  Al20  1  0.545898  0.337570  0.250000  1
  Al  Al21  1  0.455315  0.655584  0.750000  1
  Pd  Pd22  1  0.672365  0.328678  0.002573  1
  Pd  Pd23  1  0.328525  0.671851  0.001815  1
  Pd  Pd24  1  0.328525  0.671851  0.498185  1
  Pd  Pd25  1  0.672365  0.328678  0.497427  1
  Pd  Pd26  1  0.998855  0.999385  0.002237  1
  Pd  Pd27  1  0.998855  0.999385  0.497763  1
