# generated using pymatgen
data_Ti5Al16GaOsPt6
_symmetry_space_group_name_H-M   'P 1'
_cell_length_a   8.60952313
_cell_length_b   8.67614484
_cell_length_c   8.66664984
_cell_angle_alpha   59.52843955
_cell_angle_beta   60.34280004
_cell_angle_gamma   60.18093292
_symmetry_Int_Tables_number   1
_chemical_formula_structural   Ti5Al16GaOsPt6
_chemical_formula_sum   'Ti5 Al16 Ga1 Os1 Pt6'
_cell_volume   457.89340012
_cell_formula_units_Z   1
loop_
 _symmetry_equiv_pos_site_id
 _symmetry_equiv_pos_as_xyz
  1  'x, y, z'
loop_
 _atom_site_type_symbol
 _atom_site_label
 _atom_site_symmetry_multiplicity
 _atom_site_fract_x
 _atom_site_fract_y
 _atom_site_fract_z
 _atom_site_occupancy
  Ti  Ti0  1  0.816475  0.190625  0.183525  1
  Ti  Ti1  1  0.788833  0.210110  0.788546  1
  Ti  Ti2  1  0.792090  0.788102  0.207910  1
  Ti  Ti3  1  0.211454  0.787489  0.211167  1
  Ti  Ti4  1  0.204966  0.211644  0.795034  1
  Al  Al5  1  0.883262  0.837755  0.845195  1
  Al  Al6  1  0.854900  0.834162  0.457626  1
  Al  Al7  1  0.433369  0.843720  0.843533  1
  Al  Al8  1  0.850850  0.464468  0.831734  1
  Al  Al9  1  0.168266  0.147053  0.149150  1
  Al  Al10  1  0.156467  0.120621  0.566631  1
  Al  Al11  1  0.154805  0.566213  0.116738  1
  Al  Al12  1  0.542374  0.146688  0.145100  1
  Al  Al13  1  0.621162  0.616916  0.616431  1
  Al  Al14  1  0.636120  0.615076  0.120980  1
  Al  Al15  1  0.142167  0.615946  0.625147  1
  Al  Al16  1  0.630493  0.122418  0.617458  1
  Al  Al17  1  0.382542  0.370369  0.369507  1
  Al  Al18  1  0.374853  0.383259  0.857833  1
  Al  Al19  1  0.383569  0.854508  0.378838  1
  Al  Al20  1  0.879020  0.372175  0.363880  1
  Ga  Ga21  1  0.033437  0.966315  0.966563  1
  Os  Os22  1  0.003686  0.485489  0.996314  1
  Pt  Pt23  1  0.011378  0.488486  0.489110  1
  Pt  Pt24  1  0.510890  0.988973  0.988622  1
  Pt  Pt25  1  0.509957  0.996057  0.490043  1
  Pt  Pt26  1  0.508677  0.491289  0.995826  1
  Pt  Pt27  1  0.004174  0.995792  0.491323  1
  Pt  Pt28  1  0.509764  0.488282  0.490236  1
