# generated using pymatgen
data_LiSc2P2Rh
_symmetry_space_group_name_H-M   'P 1'
_cell_length_a   3.81060800
_cell_length_b   6.45509400
_cell_length_c   7.52116600
_cell_angle_alpha   90.00000000
_cell_angle_beta   90.00000000
_cell_angle_gamma   90.00000000
_symmetry_Int_Tables_number   1
_chemical_formula_structural   LiSc2P2Rh
_chemical_formula_sum   'Li2 Sc4 P4 Rh2'
_cell_volume   185.00438401
_cell_formula_units_Z   2
loop_
 _symmetry_equiv_pos_site_id
 _symmetry_equiv_pos_as_xyz
  1  'x, y, z'
loop_
 _atom_site_type_symbol
 _atom_site_label
 _atom_site_symmetry_multiplicity
 _atom_site_fract_x
 _atom_site_fract_y
 _atom_site_fract_z
 _atom_site_occupancy
  Li  Li0  1  0.250000  0.129982  0.445372  1
  Li  Li1  1  0.250000  0.629982  0.054628  1
  Sc  Sc2  1  0.250000  0.042426  0.819118  1
  Sc  Sc3  1  0.250000  0.542426  0.680882  1
  Sc  Sc4  1  0.750000  0.963086  0.178724  1
  Sc  Sc5  1  0.750000  0.463086  0.321276  1
  P  P6  1  0.250000  0.747061  0.372420  1
  P  P7  1  0.250000  0.247061  0.127580  1
  P  P8  1  0.750000  0.247528  0.629611  1
  P  P9  1  0.750000  0.747528  0.870389  1
  Rh  Rh10  1  0.750000  0.869916  0.556762  1
  Rh  Rh11  1  0.750000  0.369916  0.943238  1
