# generated using pymatgen
data_Pr2Th2AlZn10Ge
_symmetry_space_group_name_H-M   'P 1'
_cell_length_a   8.43579866
_cell_length_b   8.43579999
_cell_length_c   8.93837400
_cell_angle_alpha   90.00000000
_cell_angle_beta   90.00000000
_cell_angle_gamma   149.25598303
_symmetry_Int_Tables_number   1
_chemical_formula_structural   Pr2Th2AlZn10Ge
_chemical_formula_sum   'Pr2 Th2 Al1 Zn10 Ge1'
_cell_volume   325.16566833
_cell_formula_units_Z   1
loop_
 _symmetry_equiv_pos_site_id
 _symmetry_equiv_pos_as_xyz
  1  'x, y, z'
loop_
 _atom_site_type_symbol
 _atom_site_label
 _atom_site_symmetry_multiplicity
 _atom_site_fract_x
 _atom_site_fract_y
 _atom_site_fract_z
 _atom_site_occupancy
  Pr  Pr0  1  0.000631  0.999369  0.494431  1
  Pr  Pr1  1  0.000631  0.999369  0.005569  1
  Th  Th2  1  0.204575  0.795425  0.250000  1
  Th  Th3  1  0.795423  0.204577  0.750000  1
  Al  Al4  1  0.442095  0.557905  0.750000  1
  Zn  Zn5  1  0.813927  0.186073  0.393193  1
  Zn  Zn6  1  0.186004  0.813996  0.607536  1
  Zn  Zn7  1  0.813927  0.186073  0.106807  1
  Zn  Zn8  1  0.186004  0.813996  0.892464  1
  Zn  Zn9  1  0.653004  0.346996  0.480854  1
  Zn  Zn10  1  0.347627  0.652373  0.521272  1
  Zn  Zn11  1  0.653004  0.346996  0.019146  1
  Zn  Zn12  1  0.347627  0.652373  0.978728  1
  Zn  Zn13  1  0.401520  0.598480  0.250000  1
  Zn  Zn14  1  0.596210  0.403790  0.750000  1
  Ge  Ge15  1  0.557789  0.442211  0.250000  1
