# generated using pymatgen
data_Zr3SiRu2Pt2Rh
_symmetry_space_group_name_H-M   'P 1'
_cell_length_a   7.29097330
_cell_length_b   7.29097446
_cell_length_c   3.30885400
_cell_angle_alpha   90.00000000
_cell_angle_beta   90.00000000
_cell_angle_gamma   120.03294018
_symmetry_Int_Tables_number   1
_chemical_formula_structural   Zr3SiRu2Pt2Rh
_chemical_formula_sum   'Zr3 Si1 Ru2 Pt2 Rh1'
_cell_volume   152.27726630
_cell_formula_units_Z   1
loop_
 _symmetry_equiv_pos_site_id
 _symmetry_equiv_pos_as_xyz
  1  'x, y, z'
loop_
 _atom_site_type_symbol
 _atom_site_label
 _atom_site_symmetry_multiplicity
 _atom_site_fract_x
 _atom_site_fract_y
 _atom_site_fract_z
 _atom_site_occupancy
  Zr  Zr0  1  0.387480  0.387480  0.500000  1
  Zr  Zr1  1  0.605020  0.005257  0.500000  1
  Zr  Zr2  1  0.005257  0.605020  0.500000  1
  Si  Si3  1  0.997985  0.997985  0.500000  1
  Ru  Ru4  1  0.998865  0.237523  0.000000  1
  Ru  Ru5  1  0.237523  0.998865  0.000000  1
  Pt  Pt6  1  0.667432  0.337770  0.000000  1
  Pt  Pt7  1  0.337770  0.667432  0.000000  1
  Rh  Rh8  1  0.762667  0.762667  0.000000  1
