# generated using pymatgen
data_Tb8Ta4Ti3Ge16Mo5
_symmetry_space_group_name_H-M   'P 1'
_cell_length_a   6.94682534
_cell_length_b   7.13427634
_cell_length_c   13.47645195
_cell_angle_alpha   89.97637391
_cell_angle_beta   90.04618772
_cell_angle_gamma   89.93099014
_symmetry_Int_Tables_number   1
_chemical_formula_structural   Tb8Ta4Ti3Ge16Mo5
_chemical_formula_sum   'Tb8 Ta4 Ti3 Ge16 Mo5'
_cell_volume   667.89990427
_cell_formula_units_Z   1
loop_
 _symmetry_equiv_pos_site_id
 _symmetry_equiv_pos_as_xyz
  1  'x, y, z'
loop_
 _atom_site_type_symbol
 _atom_site_label
 _atom_site_symmetry_multiplicity
 _atom_site_fract_x
 _atom_site_fract_y
 _atom_site_fract_z
 _atom_site_occupancy
  Tb  Tb0  1  0.004389  0.173356  0.405386  1
  Tb  Tb1  1  0.503395  0.323888  0.094664  1
  Tb  Tb2  1  0.495276  0.672544  0.594256  1
  Tb  Tb3  1  0.995337  0.824948  0.905805  1
  Tb  Tb4  1  0.994482  0.826863  0.594699  1
  Tb  Tb5  1  0.494990  0.672748  0.907340  1
  Tb  Tb6  1  0.504412  0.328550  0.404514  1
  Tb  Tb7  1  0.005890  0.171001  0.094676  1
  Ta  Ta8  1  0.837913  0.669188  0.371183  1
  Ta  Ta9  1  0.660732  0.168809  0.626990  1
  Ta  Ta10  1  0.164072  0.333839  0.873952  1
  Ta  Ta11  1  0.162810  0.332044  0.627358  1
  Ti  Ti12  1  0.661119  0.166705  0.873412  1
  Ti  Ti13  1  0.839368  0.667457  0.127182  1
  Ti  Ti14  1  0.337666  0.831955  0.371848  1
  Ge  Ge15  1  0.324535  0.040169  0.541755  1
  Ge  Ge16  1  0.825381  0.455662  0.957305  1
  Ge  Ge17  1  0.672084  0.955351  0.045027  1
  Ge  Ge18  1  0.175929  0.545509  0.456059  1
  Ge  Ge19  1  0.173079  0.544734  0.045632  1
  Ge  Ge20  1  0.672249  0.959109  0.456490  1
  Ge  Ge21  1  0.826781  0.458961  0.542090  1
  Ge  Ge22  1  0.327437  0.041730  0.957282  1
  Ge  Ge23  1  0.806446  0.363399  0.248058  1
  Ge  Ge24  1  0.309483  0.133724  0.251147  1
  Ge  Ge25  1  0.691510  0.862082  0.750952  1
  Ge  Ge26  1  0.193413  0.639556  0.750043  1
  Ge  Ge27  1  0.039457  0.874570  0.248259  1
  Ge  Ge28  1  0.532750  0.628398  0.247940  1
  Ge  Ge29  1  0.466496  0.376622  0.752474  1
  Ge  Ge30  1  0.962403  0.123416  0.751654  1
  Mo  Mo31  1  0.336366  0.834656  0.125901  1
  Mo  Mo32  1  0.335713  0.014493  0.749316  1
  Mo  Mo33  1  0.667408  0.985199  0.249513  1
  Mo  Mo34  1  0.162884  0.513408  0.250140  1
  Mo  Mo35  1  0.836343  0.485356  0.749700  1
