# generated using pymatgen
data_HoThNi7
_symmetry_space_group_name_H-M   'P 1'
_cell_length_a   4.96592513
_cell_length_b   4.96592673
_cell_length_c   12.47391555
_cell_angle_alpha   78.51844977
_cell_angle_beta   78.51844604
_cell_angle_gamma   60.00000439
_symmetry_Int_Tables_number   1
_chemical_formula_structural   HoThNi7
_chemical_formula_sum   'Ho2 Th2 Ni14'
_cell_volume   259.26750368
_cell_formula_units_Z   2
loop_
 _symmetry_equiv_pos_site_id
 _symmetry_equiv_pos_as_xyz
  1  'x, y, z'
loop_
 _atom_site_type_symbol
 _atom_site_label
 _atom_site_symmetry_multiplicity
 _atom_site_fract_x
 _atom_site_fract_y
 _atom_site_fract_z
 _atom_site_occupancy
  Ho  Ho0  1  0.851833  0.851833  0.444501  1
  Ho  Ho1  1  0.148167  0.148167  0.555499  1
  Th  Th2  1  0.948262  0.948262  0.155212  1
  Th  Th3  1  0.051738  0.051738  0.844788  1
  Ni  Ni4  1  0.500000  0.500000  0.500000  1
  Ni  Ni5  1  0.722226  0.722226  0.833324  1
  Ni  Ni6  1  0.277774  0.277774  0.166676  1
  Ni  Ni7  1  0.611112  0.611112  0.166665  1
  Ni  Ni8  1  0.388888  0.388888  0.833335  1
  Ni  Ni9  1  0.000000  0.500000  0.000000  1
  Ni  Ni10  1  0.500000  0.000000  0.000000  1
  Ni  Ni11  1  0.500000  0.500000  0.000000  1
  Ni  Ni12  1  0.388510  0.388510  0.332513  1
  Ni  Ni13  1  0.890467  0.388510  0.332513  1
  Ni  Ni14  1  0.388510  0.890467  0.332513  1
  Ni  Ni15  1  0.611490  0.611490  0.667487  1
  Ni  Ni16  1  0.109533  0.611490  0.667487  1
  Ni  Ni17  1  0.611490  0.109533  0.667487  1
