# generated using pymatgen
data_Tb7Co3Sn23Os3
_symmetry_space_group_name_H-M   'P 1'
_cell_length_a   9.79015343
_cell_length_b   9.78673446
_cell_length_c   10.08040096
_cell_angle_alpha   90.13555701
_cell_angle_beta   89.67378739
_cell_angle_gamma   119.90151725
_symmetry_Int_Tables_number   1
_chemical_formula_structural   Tb7Co3Sn23Os3
_chemical_formula_sum   'Tb7 Co3 Sn23 Os3'
_cell_volume   837.25696256
_cell_formula_units_Z   1
loop_
 _symmetry_equiv_pos_site_id
 _symmetry_equiv_pos_as_xyz
  1  'x, y, z'
loop_
 _atom_site_type_symbol
 _atom_site_label
 _atom_site_symmetry_multiplicity
 _atom_site_fract_x
 _atom_site_fract_y
 _atom_site_fract_z
 _atom_site_occupancy
  Tb  Tb0  1  0.995043  0.990626  0.005895  1
  Tb  Tb1  1  0.482139  0.520458  0.305952  1
  Tb  Tb2  1  0.518891  0.479820  0.693659  1
  Tb  Tb3  1  0.483147  0.962549  0.305051  1
  Tb  Tb4  1  0.516992  0.039250  0.694452  1
  Tb  Tb5  1  0.037642  0.518236  0.303557  1
  Tb  Tb6  1  0.961002  0.482407  0.694807  1
  Co  Co7  1  0.170443  0.339205  0.801901  1
  Co  Co8  1  0.338360  0.169634  0.197137  1
  Co  Co9  1  0.662293  0.831485  0.801395  1
  Sn  Sn10  1  0.349321  0.002522  0.003610  1
  Sn  Sn11  1  0.650964  0.997409  0.995615  1
  Sn  Sn12  1  0.003273  0.347528  0.994730  1
  Sn  Sn13  1  0.001275  0.648259  0.999321  1
  Sn  Sn14  1  0.647617  0.651759  0.995993  1
  Sn  Sn15  1  0.344832  0.345198  0.999667  1
  Sn  Sn16  1  0.334439  0.665714  0.817569  1
  Sn  Sn17  1  0.663892  0.331756  0.179713  1
  Sn  Sn18  1  0.000080  0.000300  0.501572  1
  Sn  Sn19  1  0.781218  0.219338  0.458774  1
  Sn  Sn20  1  0.219263  0.781143  0.540374  1
  Sn  Sn21  1  0.780736  0.561453  0.457885  1
  Sn  Sn22  1  0.217341  0.434929  0.548186  1
  Sn  Sn23  1  0.436185  0.218370  0.451880  1
  Sn  Sn24  1  0.564123  0.782251  0.548444  1
  Sn  Sn25  1  0.334303  0.666835  0.118321  1
  Sn  Sn26  1  0.666231  0.333445  0.879848  1
  Sn  Sn27  1  0.122746  0.888790  0.274212  1
  Sn  Sn28  1  0.884732  0.116937  0.729554  1
  Sn  Sn29  1  0.123928  0.235710  0.273182  1
  Sn  Sn30  1  0.876817  0.765366  0.726537  1
  Sn  Sn31  1  0.763069  0.881665  0.280082  1
  Sn  Sn32  1  0.234802  0.124341  0.725061  1
  Os  Os33  1  0.832595  0.168537  0.198707  1
  Os  Os34  1  0.169104  0.833409  0.799222  1
  Os  Os35  1  0.831162  0.663363  0.198135  1
