# generated using pymatgen
data_Ce5Co16(TcP4)3
_symmetry_space_group_name_H-M   'P 1'
_cell_length_a   12.17335200
_cell_length_b   12.17335143
_cell_length_c   3.76321000
_cell_angle_alpha   90.00000000
_cell_angle_beta   90.00000000
_cell_angle_gamma   119.99999612
_symmetry_Int_Tables_number   1
_chemical_formula_structural   Ce5Co16(TcP4)3
_chemical_formula_sum   'Ce5 Co16 Tc3 P12'
_cell_volume   482.95808705
_cell_formula_units_Z   1
loop_
 _symmetry_equiv_pos_site_id
 _symmetry_equiv_pos_as_xyz
  1  'x, y, z'
loop_
 _atom_site_type_symbol
 _atom_site_label
 _atom_site_symmetry_multiplicity
 _atom_site_fract_x
 _atom_site_fract_y
 _atom_site_fract_z
 _atom_site_occupancy
  Ce  Ce0  1  0.666667  0.333333  0.000000  1
  Ce  Ce1  1  0.333333  0.666667  0.000000  1
  Ce  Ce2  1  0.185802  0.185802  0.500000  1
  Ce  Ce3  1  0.814198  0.000000  0.500000  1
  Ce  Ce4  1  0.000000  0.814198  0.500000  1
  Co  Co5  1  0.818765  0.195693  0.000000  1
  Co  Co6  1  0.804307  0.623072  0.000000  1
  Co  Co7  1  0.376928  0.181235  0.000000  1
  Co  Co8  1  0.195693  0.818765  0.000000  1
  Co  Co9  1  0.623072  0.804307  0.000000  1
  Co  Co10  1  0.181235  0.376928  0.000000  1
  Co  Co11  1  0.638961  0.123912  0.500000  1
  Co  Co12  1  0.876088  0.515047  0.500000  1
  Co  Co13  1  0.484953  0.361039  0.500000  1
  Co  Co14  1  0.123912  0.638961  0.500000  1
  Co  Co15  1  0.515047  0.876088  0.500000  1
  Co  Co16  1  0.361039  0.484953  0.500000  1
  Co  Co17  1  0.717914  0.717914  0.500000  1
  Co  Co18  1  0.282086  0.000000  0.500000  1
  Co  Co19  1  0.000000  0.282086  0.500000  1
  Co  Co20  1  0.000000  0.000000  0.000000  1
  Tc  Tc21  1  0.557700  0.557700  0.000000  1
  Tc  Tc22  1  0.442300  0.000000  0.000000  1
  Tc  Tc23  1  0.000000  0.442300  0.000000  1
  P  P24  1  0.368337  0.368337  0.000000  1
  P  P25  1  0.631663  0.000000  0.000000  1
  P  P26  1  0.000000  0.631663  0.000000  1
  P  P27  1  0.835397  0.311037  0.500000  1
  P  P28  1  0.688963  0.524360  0.500000  1
  P  P29  1  0.475640  0.164603  0.500000  1
  P  P30  1  0.311037  0.835397  0.500000  1
  P  P31  1  0.524360  0.688963  0.500000  1
  P  P32  1  0.164603  0.475640  0.500000  1
  P  P33  1  0.817184  0.817184  0.000000  1
  P  P34  1  0.182816  0.000000  0.000000  1
  P  P35  1  0.000000  0.182816  0.000000  1
