# generated using pymatgen
data_U4Al24Pt8Rh
_symmetry_space_group_name_H-M   'P 1'
_cell_length_a   7.57572765
_cell_length_b   7.57737255
_cell_length_c   13.14992307
_cell_angle_alpha   84.67103209
_cell_angle_beta   79.18781631
_cell_angle_gamma   59.84113382
_symmetry_Int_Tables_number   1
_chemical_formula_structural   U4Al24Pt8Rh
_chemical_formula_sum   'U4 Al24 Pt8 Rh1'
_cell_volume   641.09101058
_cell_formula_units_Z   1
loop_
 _symmetry_equiv_pos_site_id
 _symmetry_equiv_pos_as_xyz
  1  'x, y, z'
loop_
 _atom_site_type_symbol
 _atom_site_label
 _atom_site_symmetry_multiplicity
 _atom_site_fract_x
 _atom_site_fract_y
 _atom_site_fract_z
 _atom_site_occupancy
  U  U0  1  0.397655  0.166273  0.805468  1
  U  U1  1  0.602345  0.833727  0.194532  1
  U  U2  1  0.732232  0.500500  0.805492  1
  U  U3  1  0.267768  0.499500  0.194508  1
  Al  Al4  1  0.684723  0.830880  0.947700  1
  Al  Al5  1  0.315277  0.169120  0.052300  1
  Al  Al6  1  0.145704  0.833296  0.560779  1
  Al  Al7  1  0.854296  0.166704  0.439221  1
  Al  Al8  1  0.481494  0.166828  0.558030  1
  Al  Al9  1  0.518506  0.833172  0.441970  1
  Al  Al10  1  0.214564  0.165436  0.328878  1
  Al  Al11  1  0.785436  0.834564  0.671122  1
  Al  Al12  1  0.434871  0.508880  0.671652  1
  Al  Al13  1  0.565129  0.491120  0.328348  1
  Al  Al14  1  0.109625  0.159120  0.669590  1
  Al  Al15  1  0.890375  0.840880  0.330410  1
  Al  Al16  1  0.349856  0.497696  0.947493  1
  Al  Al17  1  0.650144  0.502304  0.052507  1
  Al  Al18  1  0.014506  0.172394  0.953745  1
  Al  Al19  1  0.985494  0.827606  0.046255  1
  Al  Al20  1  0.186179  0.500001  0.441494  1
  Al  Al21  1  0.813821  0.499999  0.558506  1
  Al  Al22  1  0.737270  0.163962  0.181187  1
  Al  Al23  1  0.262730  0.836038  0.818813  1
  Al  Al24  1  0.059938  0.629414  0.819181  1
  Al  Al25  1  0.940062  0.370586  0.180819  1
  Al  Al26  1  0.857057  0.039556  0.818225  1
  Al  Al27  1  0.142943  0.960444  0.181775  1
  Pt  Pt28  1  0.121321  0.492570  0.638507  1
  Pt  Pt29  1  0.878679  0.507430  0.361493  1
  Pt  Pt30  1  0.659460  0.170325  0.999734  1
  Pt  Pt31  1  0.340540  0.829675  0.000266  1
  Pt  Pt32  1  0.538140  0.166202  0.360358  1
  Pt  Pt33  1  0.461860  0.833798  0.639642  1
  Pt  Pt34  1  0.779766  0.174873  0.638090  1
  Pt  Pt35  1  0.220234  0.825127  0.361910  1
  Rh  Rh36  1  0.000000  0.500000  0.000000  1
