# generated using pymatgen
data_LuSc4(ReTc)12
_symmetry_space_group_name_H-M   'P 1'
_cell_length_a   8.44044403
_cell_length_b   8.44044426
_cell_length_c   8.44044400
_cell_angle_alpha   109.48726006
_cell_angle_beta   109.48726060
_cell_angle_gamma   109.48726361
_symmetry_Int_Tables_number   1
_chemical_formula_structural   LuSc4(ReTc)12
_chemical_formula_sum   'Lu1 Sc4 Re12 Tc12'
_cell_volume   462.61084412
_cell_formula_units_Z   1
loop_
 _symmetry_equiv_pos_site_id
 _symmetry_equiv_pos_as_xyz
  1  'x, y, z'
loop_
 _atom_site_type_symbol
 _atom_site_label
 _atom_site_symmetry_multiplicity
 _atom_site_fract_x
 _atom_site_fract_y
 _atom_site_fract_z
 _atom_site_occupancy
  Lu  Lu0  1  0.371084  0.371094  0.371046  1
  Sc  Sc1  1  0.998388  0.998385  0.998387  1
  Sc  Sc2  1  0.629157  0.000057  0.999997  1
  Sc  Sc3  1  0.999993  0.629155  0.000068  1
  Sc  Sc4  1  0.000024  0.999953  0.629103  1
  Re  Re5  1  0.377041  0.191311  0.998201  1
  Re  Re6  1  0.184834  0.808149  0.808119  1
  Re  Re7  1  0.377024  0.998177  0.191388  1
  Re  Re8  1  0.191378  0.377077  0.998228  1
  Re  Re9  1  0.998170  0.377002  0.191337  1
  Re  Re10  1  0.808103  0.184832  0.808165  1
  Re  Re11  1  0.808207  0.808161  0.184895  1
  Re  Re12  1  0.998218  0.191426  0.377055  1
  Re  Re13  1  0.191353  0.998204  0.377024  1
  Re  Re14  1  0.623482  0.623456  0.815845  1
  Re  Re15  1  0.815906  0.623513  0.623480  1
  Re  Re16  1  0.623498  0.815914  0.623511  1
  Tc  Tc17  1  0.398810  0.676671  0.999953  1
  Tc  Tc18  1  0.722136  0.323411  0.323300  1
  Tc  Tc19  1  0.398808  0.999949  0.676694  1
  Tc  Tc20  1  0.676683  0.398750  0.999970  1
  Tc  Tc21  1  0.999935  0.398868  0.676683  1
  Tc  Tc22  1  0.323346  0.722150  0.323384  1
  Tc  Tc23  1  0.323431  0.323352  0.722155  1
  Tc  Tc24  1  0.999882  0.676655  0.398752  1
  Tc  Tc25  1  0.676633  0.999864  0.398796  1
  Tc  Tc26  1  0.603764  0.603688  0.277143  1
  Tc  Tc27  1  0.277081  0.603699  0.603625  1
  Tc  Tc28  1  0.603627  0.277077  0.603693  1
