# generated using pymatgen
data_K2RbSbO4
_symmetry_space_group_name_H-M   'P 1'
_cell_length_a   6.14443923
_cell_length_b   6.14443928
_cell_length_c   6.14443896
_cell_angle_alpha   114.08263064
_cell_angle_beta   114.08262867
_cell_angle_gamma   100.59657621
_symmetry_Int_Tables_number   1
_chemical_formula_structural   K2RbSbO4
_chemical_formula_sum   'K2 Rb1 Sb1 O4'
_cell_volume   175.43559266
_cell_formula_units_Z   1
loop_
 _symmetry_equiv_pos_site_id
 _symmetry_equiv_pos_as_xyz
  1  'x, y, z'
loop_
 _atom_site_type_symbol
 _atom_site_label
 _atom_site_symmetry_multiplicity
 _atom_site_fract_x
 _atom_site_fract_y
 _atom_site_fract_z
 _atom_site_occupancy
  K  K0  1  0.749999  0.250000  0.499998  1
  K  K1  1  0.250000  0.749999  0.499998  1
  Rb  Rb2  1  0.500000  0.500000  0.000000  1
  Sb  Sb3  1  0.000000  0.000000  0.000000  1
  O  O4  1  0.694950  0.030343  0.000000  1
  O  O5  1  0.030343  0.694950  0.000000  1
  O  O6  1  0.305052  0.305052  0.335396  1
  O  O7  1  0.969656  0.969656  0.664603  1
