# generated using pymatgen
data_Er6Hf2Fe(Co5P4)3
_symmetry_space_group_name_H-M   'P 1'
_cell_length_a   3.71307500
_cell_length_b   10.67581700
_cell_length_c   12.33592000
_cell_angle_alpha   90.00000000
_cell_angle_beta   90.00000000
_cell_angle_gamma   90.00000000
_symmetry_Int_Tables_number   1
_chemical_formula_structural   Er6Hf2Fe(Co5P4)3
_chemical_formula_sum   'Er6 Hf2 Fe1 Co15 P12'
_cell_volume   488.99721597
_cell_formula_units_Z   1
loop_
 _symmetry_equiv_pos_site_id
 _symmetry_equiv_pos_as_xyz
  1  'x, y, z'
loop_
 _atom_site_type_symbol
 _atom_site_label
 _atom_site_symmetry_multiplicity
 _atom_site_fract_x
 _atom_site_fract_y
 _atom_site_fract_z
 _atom_site_occupancy
  Er  Er0  1  0.750000  0.250000  0.471041  1
  Er  Er1  1  0.250000  0.750000  0.529367  1
  Er  Er2  1  0.250000  0.927910  0.795481  1
  Er  Er3  1  0.250000  0.572090  0.795481  1
  Er  Er4  1  0.750000  0.073450  0.204187  1
  Er  Er5  1  0.750000  0.426550  0.204187  1
  Hf  Hf6  1  0.250000  0.250000  0.842482  1
  Hf  Hf7  1  0.750000  0.750000  0.158319  1
  Fe  Fe8  1  0.750000  0.250000  0.012335  1
  Co  Co9  1  0.250000  0.250000  0.296231  1
  Co  Co10  1  0.750000  0.750000  0.703309  1
  Co  Co11  1  0.250000  0.750000  0.987351  1
  Co  Co12  1  0.250000  0.420482  0.005501  1
  Co  Co13  1  0.250000  0.079518  0.005501  1
  Co  Co14  1  0.750000  0.583043  0.993691  1
  Co  Co15  1  0.750000  0.916957  0.993691  1
  Co  Co16  1  0.250000  0.454459  0.566397  1
  Co  Co17  1  0.250000  0.045541  0.566397  1
  Co  Co18  1  0.750000  0.545058  0.432976  1
  Co  Co19  1  0.750000  0.954942  0.432976  1
  Co  Co20  1  0.250000  0.872171  0.298076  1
  Co  Co21  1  0.250000  0.627829  0.298076  1
  Co  Co22  1  0.750000  0.127323  0.702472  1
  Co  Co23  1  0.750000  0.372677  0.702472  1
  P  P24  1  0.250000  0.250000  0.113870  1
  P  P25  1  0.750000  0.750000  0.883363  1
  P  P26  1  0.250000  0.250000  0.637283  1
  P  P27  1  0.750000  0.750000  0.363245  1
  P  P28  1  0.250000  0.439216  0.383588  1
  P  P29  1  0.250000  0.060784  0.383588  1
  P  P30  1  0.750000  0.560334  0.616040  1
  P  P31  1  0.750000  0.939666  0.616040  1
  P  P32  1  0.250000  0.911825  0.107962  1
  P  P33  1  0.250000  0.588175  0.107962  1
  P  P34  1  0.750000  0.088974  0.894532  1
  P  P35  1  0.750000  0.411026  0.894532  1
