# generated using pymatgen
data_YHo3Ru4F28
_symmetry_space_group_name_H-M   'P 1'
_cell_length_a   5.54931993
_cell_length_b   8.89195263
_cell_length_c   11.94304655
_cell_angle_alpha   63.48564642
_cell_angle_beta   89.95282850
_cell_angle_gamma   89.90157623
_symmetry_Int_Tables_number   1
_chemical_formula_structural   YHo3Ru4F28
_chemical_formula_sum   'Y1 Ho3 Ru4 F28'
_cell_volume   527.33707869
_cell_formula_units_Z   1
loop_
 _symmetry_equiv_pos_site_id
 _symmetry_equiv_pos_as_xyz
  1  'x, y, z'
loop_
 _atom_site_type_symbol
 _atom_site_label
 _atom_site_symmetry_multiplicity
 _atom_site_fract_x
 _atom_site_fract_y
 _atom_site_fract_z
 _atom_site_occupancy
  Y  Y0  1  0.241266  0.811127  0.768878  1
  Ho  Ho1  1  0.258306  0.811320  0.268940  1
  Ho  Ho2  1  0.741404  0.190255  0.730691  1
  Ho  Ho3  1  0.758612  0.189194  0.231039  1
  Ru  Ru4  1  0.755368  0.727081  0.045461  1
  Ru  Ru5  1  0.244645  0.271903  0.955680  1
  Ru  Ru6  1  0.255395  0.273446  0.454858  1
  Ru  Ru7  1  0.745122  0.727160  0.543814  1
  F  F8  1  0.948524  0.704581  0.417382  1
  F  F9  1  0.050914  0.295161  0.581463  1
  F  F10  1  0.448765  0.294786  0.081803  1
  F  F11  1  0.553139  0.704387  0.918764  1
  F  F12  1  0.467557  0.731041  0.141069  1
  F  F13  1  0.531934  0.268864  0.859710  1
  F  F14  1  0.968548  0.269217  0.358980  1
  F  F15  1  0.032789  0.730120  0.639259  1
  F  F16  1  0.955855  0.749773  0.173961  1
  F  F17  1  0.043559  0.249573  0.827263  1
  F  F18  1  0.456890  0.250576  0.326566  1
  F  F19  1  0.545920  0.749218  0.673006  1
  F  F20  1  0.767481  0.487168  0.141280  1
  F  F21  1  0.231622  0.511365  0.859906  1
  F  F22  1  0.267438  0.512941  0.359235  1
  F  F23  1  0.732933  0.487391  0.639773  1
  F  F24  1  0.950665  0.281532  0.046565  1
  F  F25  1  0.049941  0.717415  0.955391  1
  F  F26  1  0.450451  0.718549  0.453254  1
  F  F27  1  0.549021  0.282002  0.546211  1
  F  F28  1  0.744442  0.965579  0.451629  1
  F  F29  1  0.255709  0.034989  0.547362  1
  F  F30  1  0.244843  0.033732  0.048415  1
  F  F31  1  0.755265  0.965311  0.952329  1
  F  F32  1  0.576164  0.973458  0.232890  1
  F  F33  1  0.423168  0.029111  0.767537  1
  F  F34  1  0.075993  0.027228  0.266876  1
  F  F35  1  0.920352  0.973445  0.732758  1
