# generated using pymatgen
data_Li8Dy7TmSn7Bi
_symmetry_space_group_name_H-M   'P 1'
_cell_length_a   9.42105524
_cell_length_b   9.42105653
_cell_length_c   7.24126800
_cell_angle_alpha   90.07714716
_cell_angle_beta   89.92285523
_cell_angle_gamma   119.97699987
_symmetry_Int_Tables_number   1
_chemical_formula_structural   Li8Dy7TmSn7Bi
_chemical_formula_sum   'Li8 Dy7 Tm1 Sn7 Bi1'
_cell_volume   556.72983473
_cell_formula_units_Z   1
loop_
 _symmetry_equiv_pos_site_id
 _symmetry_equiv_pos_as_xyz
  1  'x, y, z'
loop_
 _atom_site_type_symbol
 _atom_site_label
 _atom_site_symmetry_multiplicity
 _atom_site_fract_x
 _atom_site_fract_y
 _atom_site_fract_z
 _atom_site_occupancy
  Li  Li0  1  0.829545  0.664642  0.711551  1
  Li  Li1  1  0.833263  0.166737  0.713149  1
  Li  Li2  1  0.335135  0.664865  0.821944  1
  Li  Li3  1  0.666363  0.333637  0.321284  1
  Li  Li4  1  0.666077  0.832721  0.213053  1
  Li  Li5  1  0.167279  0.333923  0.213053  1
  Li  Li6  1  0.166767  0.833233  0.214853  1
  Li  Li7  1  0.335358  0.170455  0.711551  1
  Dy  Dy8  1  0.997491  0.002509  0.003676  1
  Dy  Dy9  1  0.998069  0.001931  0.498495  1
  Dy  Dy10  1  0.511266  0.488734  0.006461  1
  Dy  Dy11  1  0.019633  0.506436  0.503577  1
  Dy  Dy12  1  0.493564  0.980367  0.503577  1
  Dy  Dy13  1  0.515811  0.024317  0.009118  1
  Dy  Dy14  1  0.975683  0.484189  0.009118  1
  Tm  Tm15  1  0.488673  0.511327  0.505934  1
  Sn  Sn16  1  0.666691  0.333309  0.739919  1
  Sn  Sn17  1  0.333061  0.666939  0.241097  1
  Sn  Sn18  1  0.833339  0.166661  0.269404  1
  Sn  Sn19  1  0.166689  0.333455  0.769406  1
  Sn  Sn20  1  0.333384  0.166405  0.270076  1
  Sn  Sn21  1  0.833595  0.666616  0.270076  1
  Sn  Sn22  1  0.666545  0.833311  0.769406  1
  Bi  Bi23  1  0.166716  0.833284  0.768224  1
