# generated using pymatgen
data_Tb12CeDy3(CdCo)4
_symmetry_space_group_name_H-M   'P 1'
_cell_length_a   9.48706905
_cell_length_b   9.56786435
_cell_length_c   9.48642962
_cell_angle_alpha   60.41008299
_cell_angle_beta   59.98238176
_cell_angle_gamma   60.39146426
_symmetry_Int_Tables_number   1
_chemical_formula_structural   Tb12CeDy3(CdCo)4
_chemical_formula_sum   'Tb12 Ce1 Dy3 Cd4 Co4'
_cell_volume   612.46421835
_cell_formula_units_Z   1
loop_
 _symmetry_equiv_pos_site_id
 _symmetry_equiv_pos_as_xyz
  1  'x, y, z'
loop_
 _atom_site_type_symbol
 _atom_site_label
 _atom_site_symmetry_multiplicity
 _atom_site_fract_x
 _atom_site_fract_y
 _atom_site_fract_z
 _atom_site_occupancy
  Tb  Tb0  1  0.686904  0.315291  0.687563  1
  Tb  Tb1  1  0.688565  0.312503  0.311993  1
  Tb  Tb2  1  0.939626  0.561241  0.560297  1
  Tb  Tb3  1  0.542780  0.149742  0.152646  1
  Tb  Tb4  1  0.152873  0.149383  0.543058  1
  Tb  Tb5  1  0.937862  0.937031  0.561738  1
  Tb  Tb6  1  0.310662  0.691269  0.311394  1
  Tb  Tb7  1  0.561695  0.937280  0.937553  1
  Tb  Tb8  1  0.561823  0.937586  0.562253  1
  Tb  Tb9  1  0.687330  0.690933  0.313844  1
  Tb  Tb10  1  0.560222  0.561516  0.939284  1
  Tb  Tb11  1  0.939047  0.561020  0.938519  1
  Ce  Ce12  1  0.159618  0.517355  0.158959  1
  Dy  Dy13  1  0.313369  0.690501  0.687720  1
  Dy  Dy14  1  0.154297  0.151380  0.153818  1
  Dy  Dy15  1  0.311528  0.312830  0.688977  1
  Cd  Cd16  1  0.919935  0.241788  0.919634  1
  Cd  Cd17  1  0.920923  0.918110  0.920656  1
  Cd  Cd18  1  0.920229  0.917918  0.242525  1
  Cd  Cd19  1  0.242576  0.918003  0.920057  1
  Co  Co20  1  0.349569  0.368223  0.929996  1
  Co  Co21  1  0.357706  0.922716  0.357755  1
  Co  Co22  1  0.930448  0.367878  0.349477  1
  Co  Co23  1  0.350418  0.368503  0.350287  1
