# generated using pymatgen
data_Sm2YSn6Ru
_symmetry_space_group_name_H-M   'P 1'
_cell_length_a   8.63201822
_cell_length_b   8.63201904
_cell_length_c   13.32876800
_cell_angle_alpha   90.00000000
_cell_angle_beta   90.00000000
_cell_angle_gamma   148.68409335
_symmetry_Int_Tables_number   1
_chemical_formula_structural   Sm2YSn6Ru
_chemical_formula_sum   'Sm4 Y2 Sn12 Ru2'
_cell_volume   516.19585976
_cell_formula_units_Z   2
loop_
 _symmetry_equiv_pos_site_id
 _symmetry_equiv_pos_as_xyz
  1  'x, y, z'
loop_
 _atom_site_type_symbol
 _atom_site_label
 _atom_site_symmetry_multiplicity
 _atom_site_fract_x
 _atom_site_fract_y
 _atom_site_fract_z
 _atom_site_occupancy
  Sm  Sm0  1  0.398516  0.601484  0.402620  1
  Sm  Sm1  1  0.601484  0.398516  0.597380  1
  Sm  Sm2  1  0.398516  0.601484  0.097380  1
  Sm  Sm3  1  0.601484  0.398516  0.902620  1
  Y  Y4  1  0.601491  0.398509  0.250000  1
  Y  Y5  1  0.398509  0.601491  0.750000  1
  Sn  Sn6  1  0.925924  0.074076  0.925203  1
  Sn  Sn7  1  0.074076  0.925924  0.074797  1
  Sn  Sn8  1  0.925924  0.074076  0.574797  1
  Sn  Sn9  1  0.074076  0.925924  0.425203  1
  Sn  Sn10  1  0.961093  0.038907  0.250000  1
  Sn  Sn11  1  0.038907  0.961093  0.750000  1
  Sn  Sn12  1  0.742724  0.257277  0.432131  1
  Sn  Sn13  1  0.257277  0.742723  0.567869  1
  Sn  Sn14  1  0.742724  0.257277  0.067869  1
  Sn  Sn15  1  0.257277  0.742723  0.932131  1
  Sn  Sn16  1  0.230971  0.769029  0.250000  1
  Sn  Sn17  1  0.769029  0.230971  0.750000  1
  Ru  Ru18  1  0.802262  0.197738  0.250000  1
  Ru  Ru19  1  0.197738  0.802262  0.750000  1
