# generated using pymatgen
data_Tb5Th(SnIr)6
_symmetry_space_group_name_H-M   'P 1'
_cell_length_a   7.53352851
_cell_length_b   7.57184169
_cell_length_c   7.93831500
_cell_angle_alpha   90.00000000
_cell_angle_beta   90.00000000
_cell_angle_gamma   120.17781102
_symmetry_Int_Tables_number   1
_chemical_formula_structural   Tb5Th(SnIr)6
_chemical_formula_sum   'Tb5 Th1 Sn6 Ir6'
_cell_volume   391.45152222
_cell_formula_units_Z   1
loop_
 _symmetry_equiv_pos_site_id
 _symmetry_equiv_pos_as_xyz
  1  'x, y, z'
loop_
 _atom_site_type_symbol
 _atom_site_label
 _atom_site_symmetry_multiplicity
 _atom_site_fract_x
 _atom_site_fract_y
 _atom_site_fract_z
 _atom_site_occupancy
  Tb  Tb0  1  0.404135  0.000288  0.250000  1
  Tb  Tb1  1  0.592582  0.592867  0.750000  1
  Tb  Tb2  1  0.596071  0.595905  0.250000  1
  Tb  Tb3  1  0.002756  0.405871  0.750000  1
  Tb  Tb4  1  0.406372  0.998378  0.750000  1
  Th  Th5  1  0.997674  0.412138  0.250000  1
  Sn  Sn6  1  0.264271  0.258022  0.500393  1
  Sn  Sn7  1  0.264271  0.258022  0.999607  1
  Sn  Sn8  1  0.736230  0.994355  0.998314  1
  Sn  Sn9  1  0.999624  0.747026  0.505792  1
  Sn  Sn10  1  0.736230  0.994355  0.501686  1
  Sn  Sn11  1  0.999624  0.747026  0.994208  1
  Ir  Ir12  1  0.673618  0.333792  0.500367  1
  Ir  Ir13  1  0.673618  0.333792  0.999633  1
  Ir  Ir14  1  0.326259  0.660302  0.004147  1
  Ir  Ir15  1  0.326259  0.660302  0.495853  1
  Ir  Ir16  1  0.001138  0.003783  0.750000  1
  Ir  Ir17  1  0.999268  0.003776  0.250000  1
