# generated using pymatgen
data_HoTm(Fe5P3)2
_symmetry_space_group_name_H-M   'P 1'
_cell_length_a   3.64167200
_cell_length_b   10.26665500
_cell_length_c   11.79121000
_cell_angle_alpha   90.00000000
_cell_angle_beta   90.00000000
_cell_angle_gamma   90.00000000
_symmetry_Int_Tables_number   1
_chemical_formula_structural   HoTm(Fe5P3)2
_chemical_formula_sum   'Ho2 Tm2 Fe20 P12'
_cell_volume   440.84728388
_cell_formula_units_Z   2
loop_
 _symmetry_equiv_pos_site_id
 _symmetry_equiv_pos_as_xyz
  1  'x, y, z'
loop_
 _atom_site_type_symbol
 _atom_site_label
 _atom_site_symmetry_multiplicity
 _atom_site_fract_x
 _atom_site_fract_y
 _atom_site_fract_z
 _atom_site_occupancy
  Ho  Ho0  1  0.250000  0.580583  0.704598  1
  Ho  Ho1  1  0.250000  0.919417  0.204598  1
  Tm  Tm2  1  0.750000  0.419451  0.295459  1
  Tm  Tm3  1  0.750000  0.080549  0.795459  1
  Fe  Fe4  1  0.250000  0.708175  0.988583  1
  Fe  Fe5  1  0.250000  0.791825  0.488583  1
  Fe  Fe6  1  0.750000  0.291773  0.011279  1
  Fe  Fe7  1  0.750000  0.208227  0.511279  1
  Fe  Fe8  1  0.250000  0.405398  0.489664  1
  Fe  Fe9  1  0.250000  0.094602  0.989664  1
  Fe  Fe10  1  0.750000  0.594472  0.509609  1
  Fe  Fe11  1  0.750000  0.905528  0.009609  1
  Fe  Fe12  1  0.250000  0.219590  0.176617  1
  Fe  Fe13  1  0.250000  0.280410  0.676617  1
  Fe  Fe14  1  0.750000  0.780997  0.823385  1
  Fe  Fe15  1  0.750000  0.719003  0.323385  1
  Fe  Fe16  1  0.250000  0.876345  0.701491  1
  Fe  Fe17  1  0.250000  0.623655  0.201491  1
  Fe  Fe18  1  0.750000  0.124533  0.298797  1
  Fe  Fe19  1  0.750000  0.375467  0.798797  1
  Fe  Fe20  1  0.250000  0.462841  0.932619  1
  Fe  Fe21  1  0.250000  0.037159  0.432619  1
  Fe  Fe22  1  0.750000  0.536553  0.067915  1
  Fe  Fe23  1  0.750000  0.963447  0.567915  1
  P  P24  1  0.250000  0.421682  0.113266  1
  P  P25  1  0.250000  0.078318  0.613266  1
  P  P26  1  0.750000  0.578150  0.887446  1
  P  P27  1  0.750000  0.921850  0.387446  1
  P  P28  1  0.250000  0.265189  0.871387  1
  P  P29  1  0.250000  0.234811  0.371387  1
  P  P30  1  0.750000  0.734144  0.128216  1
  P  P31  1  0.750000  0.765856  0.628216  1
  P  P32  1  0.250000  0.600085  0.395937  1
  P  P33  1  0.250000  0.899915  0.895937  1
  P  P34  1  0.750000  0.399169  0.603732  1
  P  P35  1  0.750000  0.100831  0.103732  1
