# generated using pymatgen
data_Rb2TaMnSe4
_symmetry_space_group_name_H-M   'P 1'
_cell_length_a   14.68491892
_cell_length_b   13.07940425
_cell_length_c   7.82439537
_cell_angle_alpha   85.33534150
_cell_angle_beta   62.58799742
_cell_angle_gamma   32.07666607
_symmetry_Int_Tables_number   1
_chemical_formula_structural   Rb2TaMnSe4
_chemical_formula_sum   'Rb4 Ta2 Mn2 Se8'
_cell_volume   535.35081124
_cell_formula_units_Z   2
loop_
 _symmetry_equiv_pos_site_id
 _symmetry_equiv_pos_as_xyz
  1  'x, y, z'
loop_
 _atom_site_type_symbol
 _atom_site_label
 _atom_site_symmetry_multiplicity
 _atom_site_fract_x
 _atom_site_fract_y
 _atom_site_fract_z
 _atom_site_occupancy
  Rb  Rb0  1  0.321302  0.321302  0.678698  1
  Rb  Rb1  1  0.678698  0.678698  0.321302  1
  Rb  Rb2  1  0.928698  0.928698  0.571302  1
  Rb  Rb3  1  0.571302  0.571302  0.928698  1
  Ta  Ta4  1  0.500000  0.500000  0.500000  1
  Ta  Ta5  1  0.750000  0.750000  0.750000  1
  Mn  Mn6  1  0.000000  0.000000  0.000000  1
  Mn  Mn7  1  0.250000  0.250000  0.250000  1
  Se  Se8  1  0.303628  0.585137  0.894997  1
  Se  Se9  1  0.216238  0.894997  0.585137  1
  Se  Se10  1  0.894997  0.216238  0.303628  1
  Se  Se11  1  0.585137  0.303628  0.216238  1
  Se  Se12  1  0.664863  0.946372  0.033762  1
  Se  Se13  1  0.355003  0.033762  0.946372  1
  Se  Se14  1  0.033762  0.355003  0.664863  1
  Se  Se15  1  0.946372  0.664863  0.355003  1
