# generated using pymatgen
data_Dy20Ir2Ru9Au
_symmetry_space_group_name_H-M   'P 1'
_cell_length_a   10.84956590
_cell_length_b   10.84956635
_cell_length_c   6.40102556
_cell_angle_alpha   90.01041579
_cell_angle_beta   90.01042318
_cell_angle_gamma   89.56621972
_symmetry_Int_Tables_number   1
_chemical_formula_structural   Dy20Ir2Ru9Au
_chemical_formula_sum   'Dy20 Ir2 Ru9 Au1'
_cell_volume   753.46284786
_cell_formula_units_Z   1
loop_
 _symmetry_equiv_pos_site_id
 _symmetry_equiv_pos_as_xyz
  1  'x, y, z'
loop_
 _atom_site_type_symbol
 _atom_site_label
 _atom_site_symmetry_multiplicity
 _atom_site_fract_x
 _atom_site_fract_y
 _atom_site_fract_z
 _atom_site_occupancy
  Dy  Dy0  1  0.286911  0.084936  0.377433  1
  Dy  Dy1  1  0.293177  0.912570  0.876763  1
  Dy  Dy2  1  0.701805  0.080352  0.863112  1
  Dy  Dy3  1  0.702272  0.905555  0.382187  1
  Dy  Dy4  1  0.586298  0.788818  0.878893  1
  Dy  Dy5  1  0.574740  0.205899  0.374575  1
  Dy  Dy6  1  0.411451  0.791028  0.377237  1
  Dy  Dy7  1  0.411407  0.206301  0.880423  1
  Dy  Dy8  1  0.211182  0.413702  0.621107  1
  Dy  Dy9  1  0.208972  0.588549  0.122763  1
  Dy  Dy10  1  0.794101  0.425260  0.125425  1
  Dy  Dy11  1  0.793699  0.588593  0.619577  1
  Dy  Dy12  1  0.915064  0.713089  0.122567  1
  Dy  Dy13  1  0.919648  0.298195  0.636888  1
  Dy  Dy14  1  0.087430  0.706823  0.623237  1
  Dy  Dy15  1  0.094445  0.297728  0.117813  1
  Dy  Dy16  1  0.000747  0.994783  0.503271  1
  Dy  Dy17  1  0.005217  0.999253  0.996729  1
  Dy  Dy18  1  0.501202  0.497920  0.000613  1
  Dy  Dy19  1  0.502080  0.498798  0.499387  1
  Ir  Ir20  1  0.656379  0.343621  0.750000  1
  Ir  Ir21  1  0.347584  0.652416  0.750000  1
  Ru  Ru22  1  0.848825  0.848019  0.750109  1
  Ru  Ru23  1  0.151981  0.151175  0.749891  1
  Ru  Ru24  1  0.153429  0.846571  0.250000  1
  Ru  Ru25  1  0.650118  0.652583  0.253094  1
  Ru  Ru26  1  0.347417  0.349882  0.246906  1
  Ru  Ru27  1  0.498446  0.997703  0.124783  1
  Ru  Ru28  1  0.497808  0.997725  0.623956  1
  Ru  Ru29  1  0.002275  0.502192  0.876044  1
  Ru  Ru30  1  0.002297  0.501554  0.375217  1
  Au  Au31  1  0.841591  0.158409  0.250000  1
