# generated using pymatgen
data_YbCeZnIr2
_symmetry_space_group_name_H-M   'P 1'
_cell_length_a   5.49445954
_cell_length_b   5.49445952
_cell_length_c   5.49445972
_cell_angle_alpha   135.14754833
_cell_angle_beta   116.18498946
_cell_angle_gamma   81.36170681
_symmetry_Int_Tables_number   1
_chemical_formula_structural   YbCeZnIr2
_chemical_formula_sum   'Yb1 Ce1 Zn1 Ir2'
_cell_volume   101.45624091
_cell_formula_units_Z   1
loop_
 _symmetry_equiv_pos_site_id
 _symmetry_equiv_pos_as_xyz
  1  'x, y, z'
loop_
 _atom_site_type_symbol
 _atom_site_label
 _atom_site_symmetry_multiplicity
 _atom_site_fract_x
 _atom_site_fract_y
 _atom_site_fract_z
 _atom_site_occupancy
  Yb  Yb0  1  0.298370  0.798371  0.500001  1
  Ce  Ce1  1  0.699275  0.199275  0.500000  1
  Zn  Zn2  1  0.002138  0.002138  0.000000  1
  Ir  Ir3  1  0.734629  0.500108  0.234522  1
  Ir  Ir4  1  0.265586  0.500109  0.765478  1
