# generated using pymatgen
data_Ho4Al2Co3B4Ir7
_symmetry_space_group_name_H-M   'P 1'
_cell_length_a   9.41108435
_cell_length_b   9.39877224
_cell_length_c   3.09375900
_cell_angle_alpha   90.00000000
_cell_angle_beta   90.00000000
_cell_angle_gamma   90.11303073
_symmetry_Int_Tables_number   1
_chemical_formula_structural   Ho4Al2Co3B4Ir7
_chemical_formula_sum   'Ho4 Al2 Co3 B4 Ir7'
_cell_volume   273.65061348
_cell_formula_units_Z   1
loop_
 _symmetry_equiv_pos_site_id
 _symmetry_equiv_pos_as_xyz
  1  'x, y, z'
loop_
 _atom_site_type_symbol
 _atom_site_label
 _atom_site_symmetry_multiplicity
 _atom_site_fract_x
 _atom_site_fract_y
 _atom_site_fract_z
 _atom_site_occupancy
  Ho  Ho0  1  0.175188  0.673568  0.000000  1
  Ho  Ho1  1  0.320002  0.175946  0.000000  1
  Ho  Ho2  1  0.676289  0.824000  0.000000  1
  Ho  Ho3  1  0.829215  0.322109  0.000000  1
  Al  Al4  1  0.002418  0.009142  0.000000  1
  Al  Al5  1  0.498918  0.499185  0.000000  1
  Co  Co6  1  0.000479  0.497166  0.500000  1
  Co  Co7  1  0.067346  0.229466  0.500000  1
  Co  Co8  1  0.499525  0.000126  0.500000  1
  B  B9  1  0.111211  0.379854  0.000000  1
  B  B10  1  0.387022  0.887562  0.000000  1
  B  B11  1  0.611515  0.113851  0.000000  1
  B  B12  1  0.887811  0.613214  0.000000  1
  Ir  Ir13  1  0.221205  0.935917  0.500000  1
  Ir  Ir14  1  0.274105  0.431555  0.500000  1
  Ir  Ir15  1  0.434592  0.722286  0.500000  1
  Ir  Ir16  1  0.565070  0.277452  0.500000  1
  Ir  Ir17  1  0.723172  0.563571  0.500000  1
  Ir  Ir18  1  0.778573  0.065517  0.500000  1
  Ir  Ir19  1  0.936343  0.778515  0.500000  1
