# generated using pymatgen
data_HoLu3Al23ZnPt9
_symmetry_space_group_name_H-M   'P 1'
_cell_length_a   7.51481343
_cell_length_b   7.53174872
_cell_length_c   13.11391403
_cell_angle_alpha   84.58578100
_cell_angle_beta   79.04218029
_cell_angle_gamma   59.90146248
_symmetry_Int_Tables_number   1
_chemical_formula_structural   HoLu3Al23ZnPt9
_chemical_formula_sum   'Ho1 Lu3 Al23 Zn1 Pt9'
_cell_volume   630.45374163
_cell_formula_units_Z   1
loop_
 _symmetry_equiv_pos_site_id
 _symmetry_equiv_pos_as_xyz
  1  'x, y, z'
loop_
 _atom_site_type_symbol
 _atom_site_label
 _atom_site_symmetry_multiplicity
 _atom_site_fract_x
 _atom_site_fract_y
 _atom_site_fract_z
 _atom_site_occupancy
  Ho  Ho0  1  0.266912  0.501771  0.190764  1
  Lu  Lu1  1  0.394086  0.167262  0.808403  1
  Lu  Lu2  1  0.607086  0.831566  0.190721  1
  Lu  Lu3  1  0.733406  0.499520  0.808360  1
  Al  Al4  1  0.322339  0.160620  0.054591  1
  Al  Al5  1  0.147098  0.831874  0.562054  1
  Al  Al6  1  0.853212  0.168035  0.438691  1
  Al  Al7  1  0.480029  0.166425  0.559490  1
  Al  Al8  1  0.519989  0.833631  0.440872  1
  Al  Al9  1  0.218693  0.164860  0.327631  1
  Al  Al10  1  0.781831  0.834480  0.672257  1
  Al  Al11  1  0.436007  0.506298  0.673520  1
  Al  Al12  1  0.563666  0.494238  0.327756  1
  Al  Al13  1  0.108496  0.160318  0.671689  1
  Al  Al14  1  0.890228  0.840016  0.329642  1
  Al  Al15  1  0.354634  0.498819  0.942793  1
  Al  Al16  1  0.648509  0.505865  0.054566  1
  Al  Al17  1  0.016711  0.168333  0.953015  1
  Al  Al18  1  0.980075  0.831946  0.043546  1
  Al  Al19  1  0.186588  0.499563  0.441205  1
  Al  Al20  1  0.813291  0.500403  0.559515  1
  Al  Al21  1  0.734292  0.163963  0.183270  1
  Al  Al22  1  0.265097  0.836207  0.817316  1
  Al  Al23  1  0.057481  0.631092  0.817666  1
  Al  Al24  1  0.939036  0.369232  0.184348  1
  Al  Al25  1  0.851272  0.042014  0.818592  1
  Al  Al26  1  0.145275  0.958135  0.183741  1
  Zn  Zn27  1  0.684091  0.833824  0.937507  1
  Pt  Pt28  1  0.120117  0.490963  0.639553  1
  Pt  Pt29  1  0.879690  0.508950  0.361442  1
  Pt  Pt30  1  0.656912  0.179457  0.001069  1
  Pt  Pt31  1  0.335944  0.827806  0.001694  1
  Pt  Pt32  1  0.537212  0.167010  0.361362  1
  Pt  Pt33  1  0.462561  0.832851  0.639284  1
  Pt  Pt34  1  0.777946  0.175481  0.638647  1
  Pt  Pt35  1  0.221884  0.824820  0.362522  1
  Pt  Pt36  1  0.008305  0.492353  0.000906  1
