# generated using pymatgen
data_NaSiGe2As3
_symmetry_space_group_name_H-M   'P 1'
_cell_length_a   3.77682000
_cell_length_b   8.75405800
_cell_length_c   10.67324400
_cell_angle_alpha   90.00000000
_cell_angle_beta   90.00000000
_cell_angle_gamma   90.00000000
_symmetry_Int_Tables_number   1
_chemical_formula_structural   NaSiGe2As3
_chemical_formula_sum   'Na2 Si2 Ge4 As6'
_cell_volume   352.88414400
_cell_formula_units_Z   2
loop_
 _symmetry_equiv_pos_site_id
 _symmetry_equiv_pos_as_xyz
  1  'x, y, z'
loop_
 _atom_site_type_symbol
 _atom_site_label
 _atom_site_symmetry_multiplicity
 _atom_site_fract_x
 _atom_site_fract_y
 _atom_site_fract_z
 _atom_site_occupancy
  Na  Na0  1  0.000000  0.631194  0.503069  1
  Na  Na1  1  0.000000  0.368806  0.003069  1
  Si  Si2  1  0.500000  0.819166  0.915207  1
  Si  Si3  1  0.500000  0.180834  0.415207  1
  Ge  Ge4  1  0.000000  0.288822  0.718934  1
  Ge  Ge5  1  0.000000  0.711178  0.218934  1
  Ge  Ge6  1  0.000000  0.006266  0.648259  1
  Ge  Ge7  1  0.000000  0.993734  0.148259  1
  As  As8  1  0.000000  0.769554  0.781031  1
  As  As9  1  0.000000  0.230446  0.281031  1
  As  As10  1  0.500000  0.933023  0.504875  1
  As  As11  1  0.500000  0.066977  0.004875  1
  As  As12  1  0.500000  0.370028  0.575054  1
  As  As13  1  0.500000  0.629972  0.075054  1
