# generated using pymatgen
data_Ta4TiGa3Os8
_symmetry_space_group_name_H-M   'P 1'
_cell_length_a   6.24911700
_cell_length_b   4.42577600
_cell_length_c   8.86047200
_cell_angle_alpha   90.00000000
_cell_angle_beta   90.00001564
_cell_angle_gamma   90.00000000
_symmetry_Int_Tables_number   1
_chemical_formula_structural   Ta4TiGa3Os8
_chemical_formula_sum   'Ta4 Ti1 Ga3 Os8'
_cell_volume   245.05577567
_cell_formula_units_Z   1
loop_
 _symmetry_equiv_pos_site_id
 _symmetry_equiv_pos_as_xyz
  1  'x, y, z'
loop_
 _atom_site_type_symbol
 _atom_site_label
 _atom_site_symmetry_multiplicity
 _atom_site_fract_x
 _atom_site_fract_y
 _atom_site_fract_z
 _atom_site_occupancy
  Ta  Ta0  1  0.749998  0.250000  0.127258  1
  Ta  Ta1  1  0.250001  0.749999  0.374993  1
  Ta  Ta2  1  0.750000  0.250000  0.622754  1
  Ta  Ta3  1  0.250001  0.749999  0.874991  1
  Ti  Ti4  1  0.750000  0.749999  0.874991  1
  Ga  Ga5  1  0.250000  0.250000  0.125531  1
  Ga  Ga6  1  0.749999  0.749999  0.374991  1
  Ga  Ga7  1  0.250001  0.250000  0.624498  1
  Os  Os8  1  0.500336  0.749999  0.124399  1
  Os  Os9  1  0.999668  0.749999  0.124400  1
  Os  Os10  1  0.499536  0.250000  0.375012  1
  Os  Os11  1  0.000461  0.250000  0.375013  1
  Os  Os12  1  0.999670  0.749999  0.625576  1
  Os  Os13  1  0.500334  0.749999  0.625576  1
  Os  Os14  1  0.998588  0.250000  0.875007  1
  Os  Os15  1  0.501407  0.250000  0.875008  1
