# generated using pymatgen
data_Li2AcSmSi4
_symmetry_space_group_name_H-M   'P 1'
_cell_length_a   3.91080600
_cell_length_b   7.82200831
_cell_length_c   10.63194600
_cell_angle_alpha   89.53616478
_cell_angle_beta   90.00000000
_cell_angle_gamma   90.00000000
_symmetry_Int_Tables_number   1
_chemical_formula_structural   Li2AcSmSi4
_chemical_formula_sum   'Li4 Ac2 Sm2 Si8'
_cell_volume   325.22436684
_cell_formula_units_Z   2
loop_
 _symmetry_equiv_pos_site_id
 _symmetry_equiv_pos_as_xyz
  1  'x, y, z'
loop_
 _atom_site_type_symbol
 _atom_site_label
 _atom_site_symmetry_multiplicity
 _atom_site_fract_x
 _atom_site_fract_y
 _atom_site_fract_z
 _atom_site_occupancy
  Li  Li0  1  0.250000  0.998647  0.385948  1
  Li  Li1  1  0.750000  0.001353  0.614052  1
  Li  Li2  1  0.250000  0.491271  0.104126  1
  Li  Li3  1  0.750000  0.508729  0.895874  1
  Ac  Ac4  1  0.250000  0.642302  0.636185  1
  Ac  Ac5  1  0.750000  0.357698  0.363815  1
  Sm  Sm6  1  0.250000  0.132803  0.867583  1
  Sm  Sm7  1  0.750000  0.867197  0.132417  1
  Si  Si8  1  0.750000  0.264855  0.063977  1
  Si  Si9  1  0.250000  0.735145  0.936023  1
  Si  Si10  1  0.750000  0.787235  0.417443  1
  Si  Si11  1  0.250000  0.212765  0.582557  1
  Si  Si12  1  0.750000  0.841972  0.830591  1
  Si  Si13  1  0.250000  0.158028  0.169409  1
  Si  Si14  1  0.750000  0.325005  0.686677  1
  Si  Si15  1  0.250000  0.674995  0.313323  1
