# generated using pymatgen
data_Yb6Dy13HoIr12
_symmetry_space_group_name_H-M   'P 1'
_cell_length_a   6.37121603
_cell_length_b   10.78391190
_cell_length_c   10.88335121
_cell_angle_alpha   90.02051728
_cell_angle_beta   90.19250790
_cell_angle_gamma   89.99485041
_symmetry_Int_Tables_number   1
_chemical_formula_structural   Yb6Dy13HoIr12
_chemical_formula_sum   'Yb6 Dy13 Ho1 Ir12'
_cell_volume   747.75413925
_cell_formula_units_Z   1
loop_
 _symmetry_equiv_pos_site_id
 _symmetry_equiv_pos_as_xyz
  1  'x, y, z'
loop_
 _atom_site_type_symbol
 _atom_site_label
 _atom_site_symmetry_multiplicity
 _atom_site_fract_x
 _atom_site_fract_y
 _atom_site_fract_z
 _atom_site_occupancy
  Yb  Yb0  1  0.623609  0.461685  0.339049  1
  Yb  Yb1  1  0.123233  0.039461  0.338793  1
  Yb  Yb2  1  0.500844  0.746548  0.250412  1
  Yb  Yb3  1  0.000643  0.754743  0.250201  1
  Yb  Yb4  1  0.006819  0.248982  0.751833  1
  Yb  Yb5  1  0.506637  0.251617  0.752158  1
  Dy  Dy6  1  0.375899  0.839856  0.539447  1
  Dy  Dy7  1  0.876503  0.660938  0.540031  1
  Dy  Dy8  1  0.878244  0.838445  0.957742  1
  Dy  Dy9  1  0.378863  0.660548  0.957745  1
  Dy  Dy10  1  0.880725  0.539492  0.837197  1
  Dy  Dy11  1  0.380215  0.960646  0.837000  1
  Dy  Dy12  1  0.377522  0.540527  0.659574  1
  Dy  Dy13  1  0.877971  0.959895  0.660610  1
  Dy  Dy14  1  0.617918  0.162703  0.457497  1
  Dy  Dy15  1  0.117587  0.337262  0.457480  1
  Dy  Dy16  1  0.119620  0.158239  0.045523  1
  Dy  Dy17  1  0.620790  0.341082  0.045047  1
  Dy  Dy18  1  0.117564  0.458837  0.162400  1
  Ho  Ho19  1  0.617023  0.041359  0.161243  1
  Ir  Ir20  1  0.258952  0.900422  0.084884  1
  Ir  Ir21  1  0.757691  0.599480  0.085373  1
  Ir  Ir22  1  0.742647  0.904991  0.410038  1
  Ir  Ir23  1  0.240611  0.594511  0.408493  1
  Ir  Ir24  1  0.752431  0.092184  0.908362  1
  Ir  Ir25  1  0.249713  0.405497  0.910919  1
  Ir  Ir26  1  0.255515  0.093710  0.598362  1
  Ir  Ir27  1  0.755354  0.407146  0.598942  1
  Ir  Ir28  1  0.119510  0.750127  0.748615  1
  Ir  Ir29  1  0.618281  0.749550  0.748467  1
  Ir  Ir30  1  0.874457  0.250298  0.248352  1
  Ir  Ir31  1  0.376611  0.249220  0.248212  1
