# generated using pymatgen
data_Er2CdSi2(PPd5)4
_symmetry_space_group_name_H-M   'P 1'
_cell_length_a   8.66818260
_cell_length_b   8.65986118
_cell_length_c   8.65764752
_cell_angle_alpha   59.99154007
_cell_angle_beta   59.93853145
_cell_angle_gamma   60.03174929
_symmetry_Int_Tables_number   1
_chemical_formula_structural   Er2CdSi2(PPd5)4
_chemical_formula_sum   'Er2 Cd1 Si2 P4 Pd20'
_cell_volume   459.40737903
_cell_formula_units_Z   1
loop_
 _symmetry_equiv_pos_site_id
 _symmetry_equiv_pos_as_xyz
  1  'x, y, z'
loop_
 _atom_site_type_symbol
 _atom_site_label
 _atom_site_symmetry_multiplicity
 _atom_site_fract_x
 _atom_site_fract_y
 _atom_site_fract_z
 _atom_site_occupancy
  Er  Er0  1  0.998788  0.999993  0.001226  1
  Er  Er1  1  0.250986  0.250041  0.248932  1
  Cd  Cd2  1  0.750333  0.750007  0.749653  1
  Si  Si3  1  0.732789  0.268979  0.267082  1
  Si  Si4  1  0.732789  0.731150  0.267082  1
  P  P5  1  0.735454  0.266371  0.731805  1
  P  P6  1  0.268502  0.733460  0.264577  1
  P  P7  1  0.266831  0.735262  0.733214  1
  P  P8  1  0.266831  0.264692  0.733214  1
  Pd  Pd9  1  0.341221  0.003156  0.002488  1
  Pd  Pd10  1  0.002169  0.654890  0.342994  1
  Pd  Pd11  1  0.343274  0.001771  0.653186  1
  Pd  Pd12  1  0.003211  0.653225  0.000377  1
  Pd  Pd13  1  0.653249  0.341918  0.001294  1
  Pd  Pd14  1  0.616892  0.619011  0.145086  1
  Pd  Pd15  1  0.382878  0.846108  0.385314  1
  Pd  Pd16  1  0.148053  0.617287  0.617373  1
  Pd  Pd17  1  0.653465  0.001607  0.343321  1
  Pd  Pd18  1  0.001040  0.343194  0.655344  1
  Pd  Pd19  1  0.653249  0.003539  0.001294  1
  Pd  Pd20  1  0.002169  0.999949  0.342994  1
  Pd  Pd21  1  0.617054  0.146601  0.619000  1
  Pd  Pd22  1  0.341221  0.653135  0.002488  1
  Pd  Pd23  1  0.382878  0.385701  0.385314  1
  Pd  Pd24  1  0.617054  0.617345  0.619000  1
  Pd  Pd25  1  0.385548  0.385014  0.844425  1
  Pd  Pd26  1  0.001040  0.000423  0.655344  1
  Pd  Pd27  1  0.847827  0.382983  0.386207  1
  Pd  Pd28  1  0.003211  0.343188  0.000377  1
