# generated using pymatgen
data_Tb4In2CoHg3
_symmetry_space_group_name_H-M   'P 1'
_cell_length_a   8.17421500
_cell_length_b   8.17421635
_cell_length_c   3.76704600
_cell_angle_alpha   90.00000000
_cell_angle_beta   90.00000000
_cell_angle_gamma   89.45238776
_symmetry_Int_Tables_number   1
_chemical_formula_structural   Tb4In2CoHg3
_chemical_formula_sum   'Tb4 In2 Co1 Hg3'
_cell_volume   251.69423695
_cell_formula_units_Z   1
loop_
 _symmetry_equiv_pos_site_id
 _symmetry_equiv_pos_as_xyz
  1  'x, y, z'
loop_
 _atom_site_type_symbol
 _atom_site_label
 _atom_site_symmetry_multiplicity
 _atom_site_fract_x
 _atom_site_fract_y
 _atom_site_fract_z
 _atom_site_occupancy
  Tb  Tb0  1  0.130552  0.316629  0.500000  1
  Tb  Tb1  1  0.699695  0.199695  0.500000  1
  Tb  Tb2  1  0.816629  0.630552  0.500000  1
  Tb  Tb3  1  0.331082  0.831082  0.500000  1
  In  In4  1  0.996511  0.007241  0.000000  1
  In  In5  1  0.507241  0.496511  0.000000  1
  Co  Co6  1  0.876792  0.376792  0.000000  1
  Hg  Hg7  1  0.121657  0.621657  0.000000  1
  Hg  Hg8  1  0.639894  0.879949  0.000000  1
  Hg  Hg9  1  0.379949  0.139894  0.000000  1
