# generated using pymatgen
data_Tb4TmLu3(B6Rh)4
_symmetry_space_group_name_H-M   'P 1'
_cell_length_a   3.63680000
_cell_length_b   9.12016204
_cell_length_c   11.47334405
_cell_angle_alpha   89.98890458
_cell_angle_beta   90.00000000
_cell_angle_gamma   90.00000000
_symmetry_Int_Tables_number   1
_chemical_formula_structural   Tb4TmLu3(B6Rh)4
_chemical_formula_sum   'Tb4 Tm1 Lu3 B24 Rh4'
_cell_volume   380.55022411
_cell_formula_units_Z   1
loop_
 _symmetry_equiv_pos_site_id
 _symmetry_equiv_pos_as_xyz
  1  'x, y, z'
loop_
 _atom_site_type_symbol
 _atom_site_label
 _atom_site_symmetry_multiplicity
 _atom_site_fract_x
 _atom_site_fract_y
 _atom_site_fract_z
 _atom_site_occupancy
  Tb  Tb0  1  0.500000  0.321557  0.414084  1
  Tb  Tb1  1  0.500000  0.678422  0.586037  1
  Tb  Tb2  1  0.500000  0.178253  0.913869  1
  Tb  Tb3  1  0.500000  0.821777  0.085957  1
  Tm  Tm4  1  0.500000  0.444289  0.126893  1
  Lu  Lu5  1  0.500000  0.555852  0.872875  1
  Lu  Lu6  1  0.500000  0.055707  0.626897  1
  Lu  Lu7  1  0.500000  0.944278  0.373186  1
  B  B8  1  0.000000  0.104808  0.471825  1
  B  B9  1  0.000000  0.895171  0.528196  1
  B  B10  1  0.000000  0.394923  0.971282  1
  B  B11  1  0.000000  0.605452  0.027907  1
  B  B12  1  0.000000  0.131673  0.317166  1
  B  B13  1  0.000000  0.868244  0.682920  1
  B  B14  1  0.000000  0.368211  0.816998  1
  B  B15  1  0.000000  0.632215  0.183089  1
  B  B16  1  0.000000  0.054481  0.065934  1
  B  B17  1  0.000000  0.945357  0.933989  1
  B  B18  1  0.000000  0.445438  0.566036  1
  B  B19  1  0.000000  0.554576  0.434094  1
  B  B20  1  0.000000  0.483232  0.286359  1
  B  B21  1  0.000000  0.516976  0.714025  1
  B  B22  1  0.000000  0.016970  0.785939  1
  B  B23  1  0.000000  0.982989  0.214076  1
  B  B24  1  0.000000  0.250836  0.080417  1
  B  B25  1  0.000000  0.748668  0.919443  1
  B  B26  1  0.000000  0.248586  0.580522  1
  B  B27  1  0.000000  0.751449  0.419523  1
  B  B28  1  0.000000  0.294234  0.235988  1
  B  B29  1  0.000000  0.705366  0.764203  1
  B  B30  1  0.000000  0.205344  0.735763  1
  B  B31  1  0.000000  0.794819  0.264248  1
  Rh  Rh32  1  0.500000  0.139885  0.180331  1
  Rh  Rh33  1  0.500000  0.859611  0.819673  1
  Rh  Rh34  1  0.500000  0.359572  0.680238  1
  Rh  Rh35  1  0.500000  0.640777  0.320013  1
