# generated using pymatgen
data_TlS8Br3
_symmetry_space_group_name_H-M   'P 1'
_cell_length_a   8.52590698
_cell_length_b   10.66770029
_cell_length_c   12.45787459
_cell_angle_alpha   97.44043961
_cell_angle_beta   113.08561158
_cell_angle_gamma   103.94018714
_symmetry_Int_Tables_number   1
_chemical_formula_structural   TlS8Br3
_chemical_formula_sum   'Tl2 S16 Br6'
_cell_volume   979.28789056
_cell_formula_units_Z   2
loop_
 _symmetry_equiv_pos_site_id
 _symmetry_equiv_pos_as_xyz
  1  'x, y, z'
loop_
 _atom_site_type_symbol
 _atom_site_label
 _atom_site_symmetry_multiplicity
 _atom_site_fract_x
 _atom_site_fract_y
 _atom_site_fract_z
 _atom_site_occupancy
  Tl  Tl0  1  0.799500  0.978206  0.842909  1
  Tl  Tl1  1  0.200500  0.021794  0.157091  1
  S  S2  1  0.850606  0.491816  0.799529  1
  S  S3  1  0.149394  0.508184  0.200471  1
  S  S4  1  0.708483  0.409908  0.616286  1
  S  S5  1  0.291517  0.590092  0.383714  1
  S  S6  1  0.741001  0.226955  0.575105  1
  S  S7  1  0.258999  0.773045  0.424895  1
  S  S8  1  0.942559  0.249991  0.520151  1
  S  S9  1  0.057441  0.750009  0.479849  1
  S  S10  1  0.903970  0.375680  0.163920  1
  S  S11  1  0.096030  0.624320  0.836080  1
  S  S12  1  0.710961  0.469488  0.111429  1
  S  S13  1  0.289039  0.530512  0.888571  1
  S  S14  1  0.668650  0.536394  0.257605  1
  S  S15  1  0.331350  0.463606  0.742395  1
  S  S16  1  0.819743  0.734790  0.336223  1
  S  S17  1  0.180257  0.265210  0.663777  1
  Br  Br18  1  0.571778  0.095542  0.838272  1
  Br  Br19  1  0.428222  0.904458  0.161728  1
  Br  Br20  1  0.850438  0.846880  0.025641  1
  Br  Br21  1  0.149562  0.153120  0.974359  1
  Br  Br22  1  0.795375  0.829134  0.664562  1
  Br  Br23  1  0.204625  0.170866  0.335438  1
