# generated using pymatgen
data_NaS4BrO14
_symmetry_space_group_name_H-M   'P 1'
_cell_length_a   5.94110410
_cell_length_b   7.15644687
_cell_length_c   9.19842500
_cell_angle_alpha   106.37679495
_cell_angle_beta   96.76385902
_cell_angle_gamma   99.95386675
_symmetry_Int_Tables_number   1
_chemical_formula_structural   NaS4BrO14
_chemical_formula_sum   'Na1 S4 Br1 O14'
_cell_volume   363.79302324
_cell_formula_units_Z   1
loop_
 _symmetry_equiv_pos_site_id
 _symmetry_equiv_pos_as_xyz
  1  'x, y, z'
loop_
 _atom_site_type_symbol
 _atom_site_label
 _atom_site_symmetry_multiplicity
 _atom_site_fract_x
 _atom_site_fract_y
 _atom_site_fract_z
 _atom_site_occupancy
  Na  Na0  1  0.500000  0.000000  0.000000  1
  S  S1  1  0.912186  0.723955  0.772306  1
  S  S2  1  0.087814  0.276045  0.227694  1
  S  S3  1  0.675874  0.317404  0.746929  1
  S  S4  1  0.324126  0.682596  0.253071  1
  Br  Br5  1  0.500000  0.500000  0.500000  1
  O  O6  1  0.841661  0.649462  0.595494  1
  O  O7  1  0.158339  0.350538  0.404506  1
  O  O8  1  0.475246  0.407949  0.691493  1
  O  O9  1  0.524754  0.592051  0.308507  1
  O  O10  1  0.156017  0.811124  0.807335  1
  O  O11  1  0.843983  0.188876  0.192665  1
  O  O12  1  0.753739  0.831188  0.847658  1
  O  O13  1  0.246261  0.168812  0.152342  1
  O  O14  1  0.621542  0.263119  0.879394  1
  O  O15  1  0.378458  0.736881  0.120606  1
  O  O16  1  0.895889  0.518057  0.820350  1
  O  O17  1  0.104111  0.481943  0.179650  1
  O  O18  1  0.751161  0.183978  0.624696  1
  O  O19  1  0.248839  0.816022  0.375304  1
