# generated using pymatgen
data_Y5Cu6
_symmetry_space_group_name_H-M   'P 1'
_cell_length_a   15.91201884
_cell_length_b   15.91201878
_cell_length_c   3.82743700
_cell_angle_alpha   90.00000000
_cell_angle_beta   90.00000000
_cell_angle_gamma   166.23323282
_symmetry_Int_Tables_number   1
_chemical_formula_structural   Y5Cu6
_chemical_formula_sum   'Y5 Cu6'
_cell_volume   230.61156377
_cell_formula_units_Z   1
loop_
 _symmetry_equiv_pos_site_id
 _symmetry_equiv_pos_as_xyz
  1  'x, y, z'
loop_
 _atom_site_type_symbol
 _atom_site_label
 _atom_site_symmetry_multiplicity
 _atom_site_fract_x
 _atom_site_fract_y
 _atom_site_fract_z
 _atom_site_occupancy
  Y  Y0  1  0.000000  0.000000  0.000000  1
  Y  Y1  1  0.615602  0.384396  0.000000  1
  Y  Y2  1  0.384396  0.615602  0.000000  1
  Y  Y3  1  0.804760  0.195238  0.500001  1
  Y  Y4  1  0.195238  0.804760  0.500001  1
  Cu  Cu5  1  0.724639  0.275359  0.000000  1
  Cu  Cu6  1  0.275359  0.724639  0.000000  1
  Cu  Cu7  1  0.911282  0.088717  0.500001  1
  Cu  Cu8  1  0.539754  0.460244  0.500001  1
  Cu  Cu9  1  0.460244  0.539754  0.500001  1
  Cu  Cu10  1  0.088717  0.911282  0.500001  1
