# generated using pymatgen
data_Cd15InO16
_symmetry_space_group_name_H-M   'P 1'
_cell_length_a   9.58624600
_cell_length_b   9.58624600
_cell_length_c   4.77228300
_cell_angle_alpha   90.00000000
_cell_angle_beta   90.00000000
_cell_angle_gamma   90.00000000
_symmetry_Int_Tables_number   1
_chemical_formula_structural   Cd15InO16
_chemical_formula_sum   'Cd15 In1 O16'
_cell_volume   438.55425484
_cell_formula_units_Z   1
loop_
 _symmetry_equiv_pos_site_id
 _symmetry_equiv_pos_as_xyz
  1  'x, y, z'
loop_
 _atom_site_type_symbol
 _atom_site_label
 _atom_site_symmetry_multiplicity
 _atom_site_fract_x
 _atom_site_fract_y
 _atom_site_fract_z
 _atom_site_occupancy
  Cd  Cd0  1  0.500000  0.000000  0.000000  1
  Cd  Cd1  1  0.000000  0.500000  0.000000  1
  Cd  Cd2  1  0.251921  0.000000  0.500000  1
  Cd  Cd3  1  0.748079  0.000000  0.500000  1
  Cd  Cd4  1  0.250879  0.500000  0.500000  1
  Cd  Cd5  1  0.749121  0.500000  0.500000  1
  Cd  Cd6  1  0.000000  0.251921  0.500000  1
  Cd  Cd7  1  0.500000  0.250879  0.500000  1
  Cd  Cd8  1  0.000000  0.748079  0.500000  1
  Cd  Cd9  1  0.500000  0.749121  0.500000  1
  Cd  Cd10  1  0.251243  0.251243  0.000000  1
  Cd  Cd11  1  0.748757  0.251243  0.000000  1
  Cd  Cd12  1  0.251243  0.748757  0.000000  1
  Cd  Cd13  1  0.748757  0.748757  0.000000  1
  Cd  Cd14  1  0.500000  0.500000  0.000000  1
  In  In15  1  0.000000  0.000000  0.000000  1
  O  O16  1  0.000000  0.231098  0.000000  1
  O  O17  1  0.500000  0.244523  0.000000  1
  O  O18  1  0.000000  0.768902  0.000000  1
  O  O19  1  0.500000  0.755477  0.000000  1
  O  O20  1  0.249011  0.249011  0.500000  1
  O  O21  1  0.750989  0.249011  0.500000  1
  O  O22  1  0.249011  0.750989  0.500000  1
  O  O23  1  0.750989  0.750989  0.500000  1
  O  O24  1  0.000000  0.000000  0.500000  1
  O  O25  1  0.500000  0.000000  0.500000  1
  O  O26  1  0.000000  0.500000  0.500000  1
  O  O27  1  0.500000  0.500000  0.500000  1
  O  O28  1  0.231098  0.000000  0.000000  1
  O  O29  1  0.768902  0.000000  0.000000  1
  O  O30  1  0.244523  0.500000  0.000000  1
  O  O31  1  0.755477  0.500000  0.000000  1
