# generated using pymatgen
data_Na4USe3O2
_symmetry_space_group_name_H-M   'P 1'
_cell_length_a   7.04925165
_cell_length_b   7.04925299
_cell_length_c   7.54276461
_cell_angle_alpha   101.53560595
_cell_angle_beta   95.95475706
_cell_angle_gamma   132.45546118
_symmetry_Int_Tables_number   1
_chemical_formula_structural   Na4USe3O2
_chemical_formula_sum   'Na4 U1 Se3 O2'
_cell_volume   255.75187628
_cell_formula_units_Z   1
loop_
 _symmetry_equiv_pos_site_id
 _symmetry_equiv_pos_as_xyz
  1  'x, y, z'
loop_
 _atom_site_type_symbol
 _atom_site_label
 _atom_site_symmetry_multiplicity
 _atom_site_fract_x
 _atom_site_fract_y
 _atom_site_fract_z
 _atom_site_occupancy
  Na  Na0  1  0.796419  0.355057  0.151477  1
  Na  Na1  1  0.203581  0.644943  0.848523  1
  Na  Na2  1  0.562641  0.795150  0.357791  1
  Na  Na3  1  0.437359  0.204850  0.642209  1
  U  U4  1  0.000000  0.000000  0.000000  1
  Se  Se5  1  0.500000  0.500000  0.000000  1
  Se  Se6  1  0.710101  0.048779  0.758880  1
  Se  Se7  1  0.289899  0.951221  0.241120  1
  O  O8  1  0.988848  0.799529  0.788376  1
  O  O9  1  0.011152  0.200471  0.211624  1
