# generated using pymatgen
data_Tb5Y12Tm3Pb16
_symmetry_space_group_name_H-M   'P 1'
_cell_length_a   8.19532931
_cell_length_b   8.28243972
_cell_length_c   15.66689200
_cell_angle_alpha   90.00625364
_cell_angle_beta   89.98417875
_cell_angle_gamma   89.93297571
_symmetry_Int_Tables_number   1
_chemical_formula_structural   Tb5Y12Tm3Pb16
_chemical_formula_sum   'Tb5 Y12 Tm3 Pb16'
_cell_volume   1063.42588264
_cell_formula_units_Z   1
loop_
 _symmetry_equiv_pos_site_id
 _symmetry_equiv_pos_as_xyz
  1  'x, y, z'
loop_
 _atom_site_type_symbol
 _atom_site_label
 _atom_site_symmetry_multiplicity
 _atom_site_fract_x
 _atom_site_fract_y
 _atom_site_fract_z
 _atom_site_occupancy
  Tb  Tb0  1  0.965412  0.823111  0.099800  1
  Tb  Tb1  1  0.466051  0.676001  0.099679  1
  Tb  Tb2  1  0.965480  0.823052  0.400253  1
  Tb  Tb3  1  0.534294  0.323426  0.599752  1
  Tb  Tb4  1  0.034271  0.176595  0.899966  1
  Y  Y5  1  0.376597  0.841556  0.878927  1
  Y  Y6  1  0.876532  0.658390  0.620780  1
  Y  Y7  1  0.623941  0.158950  0.379495  1
  Y  Y8  1  0.123060  0.341719  0.120533  1
  Y  Y9  1  0.624046  0.158793  0.120557  1
  Y  Y10  1  0.123123  0.341838  0.379407  1
  Y  Y11  1  0.376506  0.841679  0.621163  1
  Y  Y12  1  0.876398  0.658264  0.879207  1
  Y  Y13  1  0.534544  0.323565  0.900113  1
  Y  Y14  1  0.034592  0.176372  0.600194  1
  Y  Y15  1  0.465712  0.675846  0.400176  1
  Y  Y16  1  0.291520  0.003858  0.249982  1
  Tm  Tm17  1  0.208592  0.504139  0.750052  1
  Tm  Tm18  1  0.708603  0.995753  0.749930  1
  Tm  Tm19  1  0.791303  0.495763  0.250084  1
  Pb  Pb20  1  0.281783  0.033496  0.042700  1
  Pb  Pb21  1  0.781611  0.467298  0.456393  1
  Pb  Pb22  1  0.718394  0.967307  0.543921  1
  Pb  Pb23  1  0.218406  0.533006  0.956110  1
  Pb  Pb24  1  0.718061  0.967122  0.956209  1
  Pb  Pb25  1  0.218417  0.533335  0.543699  1
  Pb  Pb26  1  0.281602  0.033551  0.457483  1
  Pb  Pb27  1  0.781692  0.466693  0.043419  1
  Pb  Pb28  1  0.571254  0.625846  0.749899  1
  Pb  Pb29  1  0.071072  0.873756  0.750079  1
  Pb  Pb30  1  0.429139  0.374808  0.249899  1
  Pb  Pb31  1  0.927305  0.126958  0.250042  1
  Pb  Pb32  1  0.346728  0.154358  0.750116  1
  Pb  Pb33  1  0.846407  0.346101  0.749872  1
  Pb  Pb34  1  0.654384  0.845744  0.250121  1
  Pb  Pb35  1  0.153170  0.651948  0.249989  1
