# generated using pymatgen
data_Na2Hf4ZrSe10
_symmetry_space_group_name_H-M   'P 1'
_cell_length_a   6.50123437
_cell_length_b   10.60620116
_cell_length_c   8.33435984
_cell_angle_alpha   62.13370308
_cell_angle_beta   66.92763426
_cell_angle_gamma   89.99544129
_symmetry_Int_Tables_number   1
_chemical_formula_structural   Na2Hf4ZrSe10
_chemical_formula_sum   'Na2 Hf4 Zr1 Se10'
_cell_volume   455.40698867
_cell_formula_units_Z   1
loop_
 _symmetry_equiv_pos_site_id
 _symmetry_equiv_pos_as_xyz
  1  'x, y, z'
loop_
 _atom_site_type_symbol
 _atom_site_label
 _atom_site_symmetry_multiplicity
 _atom_site_fract_x
 _atom_site_fract_y
 _atom_site_fract_z
 _atom_site_occupancy
  Na  Na0  1  0.793866  0.087723  0.411628  1
  Na  Na1  1  0.006917  0.512274  0.987414  1
  Hf  Hf2  1  0.401283  0.801649  0.198558  1
  Hf  Hf3  1  0.802312  0.602561  0.398967  1
  Hf  Hf4  1  0.196623  0.399513  0.597858  1
  Hf  Hf5  1  0.601096  0.197645  0.805054  1
  Zr  Zr6  1  0.998644  0.998955  0.999455  1
  Se  Se7  1  0.980323  0.839458  0.377529  1
  Se  Se8  1  0.571911  0.042960  0.176378  1
  Se  Se9  1  0.182222  0.246951  0.970397  1
  Se  Se10  1  0.778617  0.442526  0.772366  1
  Se  Se11  1  0.383240  0.643369  0.568679  1
  Se  Se12  1  0.422830  0.955872  0.828615  1
  Se  Se13  1  0.022972  0.159255  0.622709  1
  Se  Se14  1  0.618681  0.356048  0.429747  1
  Se  Se15  1  0.221462  0.558277  0.226394  1
  Se  Se16  1  0.817001  0.754963  0.028252  1
