# generated using pymatgen
data_Hf3Zr3(Ti2Ge3)2
_symmetry_space_group_name_H-M   'P 1'
_cell_length_a   7.88820862
_cell_length_b   7.85971339
_cell_length_c   5.37609200
_cell_angle_alpha   90.00000000
_cell_angle_beta   90.00000000
_cell_angle_gamma   119.99561805
_symmetry_Int_Tables_number   1
_chemical_formula_structural   Hf3Zr3(Ti2Ge3)2
_chemical_formula_sum   'Hf3 Zr3 Ti4 Ge6'
_cell_volume   288.66996292
_cell_formula_units_Z   1
loop_
 _symmetry_equiv_pos_site_id
 _symmetry_equiv_pos_as_xyz
  1  'x, y, z'
loop_
 _atom_site_type_symbol
 _atom_site_label
 _atom_site_symmetry_multiplicity
 _atom_site_fract_x
 _atom_site_fract_y
 _atom_site_fract_z
 _atom_site_occupancy
  Hf  Hf0  1  0.747975  0.999309  0.750000  1
  Hf  Hf1  1  0.749510  0.750183  0.250000  1
  Hf  Hf2  1  0.251758  0.000030  0.250000  1
  Zr  Zr3  1  0.999928  0.751731  0.750000  1
  Zr  Zr4  1  0.250321  0.249543  0.750000  1
  Zr  Zr5  1  0.999208  0.247834  0.250000  1
  Ti  Ti6  1  0.333541  0.666904  0.499899  1
  Ti  Ti7  1  0.333541  0.666904  0.000101  1
  Ti  Ti8  1  0.666552  0.333221  0.499895  1
  Ti  Ti9  1  0.666552  0.333221  0.000105  1
  Ge  Ge10  1  0.603826  0.604610  0.750000  1
  Ge  Ge11  1  0.398087  0.000117  0.750000  1
  Ge  Ge12  1  0.999880  0.604810  0.250000  1
  Ge  Ge13  1  0.602489  0.999250  0.250000  1
  Ge  Ge14  1  0.998978  0.395478  0.750000  1
  Ge  Ge15  1  0.397853  0.396856  0.250000  1
