# generated using pymatgen
data_Tb5Sm(Co3P2)6
_symmetry_space_group_name_H-M   'P 1'
_cell_length_a   3.71612000
_cell_length_b   10.54311300
_cell_length_c   12.22623700
_cell_angle_alpha   90.00000000
_cell_angle_beta   90.00000000
_cell_angle_gamma   90.00000000
_symmetry_Int_Tables_number   1
_chemical_formula_structural   Tb5Sm(Co3P2)6
_chemical_formula_sum   'Tb5 Sm1 Co18 P12'
_cell_volume   479.01752343
_cell_formula_units_Z   1
loop_
 _symmetry_equiv_pos_site_id
 _symmetry_equiv_pos_as_xyz
  1  'x, y, z'
loop_
 _atom_site_type_symbol
 _atom_site_label
 _atom_site_symmetry_multiplicity
 _atom_site_fract_x
 _atom_site_fract_y
 _atom_site_fract_z
 _atom_site_occupancy
  Tb  Tb0  1  0.500000  0.000000  0.478626  1
  Tb  Tb1  1  0.500000  0.817160  0.205718  1
  Tb  Tb2  1  0.500000  0.182840  0.205718  1
  Tb  Tb3  1  0.000000  0.683316  0.794462  1
  Tb  Tb4  1  0.000000  0.316684  0.794462  1
  Sm  Sm5  1  0.000000  0.500000  0.521680  1
  Co  Co6  1  0.500000  0.500000  0.157403  1
  Co  Co7  1  0.000000  0.000000  0.841746  1
  Co  Co8  1  0.500000  0.500000  0.704450  1
  Co  Co9  1  0.000000  0.000000  0.296224  1
  Co  Co10  1  0.000000  0.500000  0.986150  1
  Co  Co11  1  0.500000  0.000000  0.014134  1
  Co  Co12  1  0.500000  0.333210  0.994841  1
  Co  Co13  1  0.500000  0.666790  0.994841  1
  Co  Co14  1  0.000000  0.166423  0.005062  1
  Co  Co15  1  0.000000  0.833577  0.005062  1
  Co  Co16  1  0.500000  0.295837  0.430044  1
  Co  Co17  1  0.500000  0.704163  0.430044  1
  Co  Co18  1  0.000000  0.201343  0.569920  1
  Co  Co19  1  0.000000  0.798657  0.569920  1
  Co  Co20  1  0.500000  0.880197  0.710749  1
  Co  Co21  1  0.500000  0.119803  0.710749  1
  Co  Co22  1  0.000000  0.620592  0.289240  1
  Co  Co23  1  0.000000  0.379408  0.289240  1
  P  P24  1  0.500000  0.500000  0.883266  1
  P  P25  1  0.000000  0.000000  0.116869  1
  P  P26  1  0.500000  0.500000  0.341276  1
  P  P27  1  0.000000  0.000000  0.657093  1
  P  P28  1  0.500000  0.307951  0.616150  1
  P  P29  1  0.500000  0.692049  0.616150  1
  P  P30  1  0.000000  0.189915  0.384391  1
  P  P31  1  0.000000  0.810085  0.384391  1
  P  P32  1  0.500000  0.847740  0.894004  1
  P  P33  1  0.500000  0.152260  0.894004  1
  P  P34  1  0.000000  0.652888  0.105959  1
  P  P35  1  0.000000  0.347112  0.105959  1
