# generated using pymatgen
data_LaDy(SeO3)3
_symmetry_space_group_name_H-M   'P 1'
_cell_length_a   7.29448333
_cell_length_b   8.34773968
_cell_length_c   9.29277550
_cell_angle_alpha   70.76219008
_cell_angle_beta   70.23913076
_cell_angle_gamma   66.13584830
_symmetry_Int_Tables_number   1
_chemical_formula_structural   LaDy(SeO3)3
_chemical_formula_sum   'La2 Dy2 Se6 O18'
_cell_volume   474.64438475
_cell_formula_units_Z   2
loop_
 _symmetry_equiv_pos_site_id
 _symmetry_equiv_pos_as_xyz
  1  'x, y, z'
loop_
 _atom_site_type_symbol
 _atom_site_label
 _atom_site_symmetry_multiplicity
 _atom_site_fract_x
 _atom_site_fract_y
 _atom_site_fract_z
 _atom_site_occupancy
  La  La0  1  0.331788  0.731550  0.592081  1
  La  La1  1  0.668212  0.268450  0.407919  1
  Dy  Dy2  1  0.739331  0.735577  0.804544  1
  Dy  Dy3  1  0.260669  0.264423  0.195456  1
  Se  Se4  1  0.424279  0.783862  0.192184  1
  Se  Se5  1  0.575721  0.216138  0.807816  1
  Se  Se6  1  0.149636  0.747086  0.969950  1
  Se  Se7  1  0.850364  0.252914  0.030050  1
  Se  Se8  1  0.887023  0.752367  0.423965  1
  Se  Se9  1  0.112977  0.247633  0.576035  1
  O  O10  1  0.642311  0.792801  0.048942  1
  O  O11  1  0.357689  0.207199  0.951058  1
  O  O12  1  0.364772  0.951062  0.290217  1
  O  O13  1  0.635228  0.048938  0.709783  1
  O  O14  1  0.511675  0.603977  0.342447  1
  O  O15  1  0.488325  0.396023  0.657553  1
  O  O16  1  0.172280  0.561698  0.119687  1
  O  O17  1  0.827720  0.438302  0.880313  1
  O  O18  1  0.402248  0.713204  0.855677  1
  O  O19  1  0.597752  0.286796  0.144323  1
  O  O20  1  0.341245  0.246239  0.431288  1
  O  O21  1  0.658755  0.753761  0.568712  1
  O  O22  1  0.975780  0.293369  0.436811  1
  O  O23  1  0.024220  0.706631  0.563189  1
  O  O24  1  0.146711  0.028110  0.658022  1
  O  O25  1  0.853289  0.971890  0.341978  1
  O  O26  1  0.942722  0.299401  0.157171  1
  O  O27  1  0.057278  0.700599  0.842829  1
