# generated using pymatgen
data_Y5Hf2Zr(As3Rh4)4
_symmetry_space_group_name_H-M   'P 1'
_cell_length_a   13.32655927
_cell_length_b   13.33120731
_cell_length_c   4.00930600
_cell_angle_alpha   90.00000000
_cell_angle_beta   90.00000000
_cell_angle_gamma   120.01154120
_symmetry_Int_Tables_number   1
_chemical_formula_structural   Y5Hf2Zr(As3Rh4)4
_chemical_formula_sum   'Y5 Hf2 Zr1 As12 Rh16'
_cell_volume   616.78930455
_cell_formula_units_Z   1
loop_
 _symmetry_equiv_pos_site_id
 _symmetry_equiv_pos_as_xyz
  1  'x, y, z'
loop_
 _atom_site_type_symbol
 _atom_site_label
 _atom_site_symmetry_multiplicity
 _atom_site_fract_x
 _atom_site_fract_y
 _atom_site_fract_z
 _atom_site_occupancy
  Y  Y0  1  0.187378  0.187443  0.500000  1
  Y  Y1  1  0.812622  0.000066  0.500000  1
  Y  Y2  1  0.000000  0.812489  0.500000  1
  Y  Y3  1  0.333275  0.666546  0.000000  1
  Y  Y4  1  0.666725  0.333270  0.000000  1
  Hf  Hf5  1  0.557128  0.557024  0.000000  1
  Hf  Hf6  1  0.442872  0.999896  0.000000  1
  Zr  Zr7  1  0.000000  0.443780  0.000000  1
  As  As8  1  0.825085  0.825185  0.000000  1
  As  As9  1  0.174915  0.000099  0.000000  1
  As  As10  1  0.000000  0.175231  0.000000  1
  As  As11  1  0.170626  0.485661  0.500000  1
  As  As12  1  0.514199  0.684503  0.500000  1
  As  As13  1  0.315579  0.829727  0.500000  1
  As  As14  1  0.684421  0.514147  0.500000  1
  As  As15  1  0.829374  0.315036  0.500000  1
  As  As16  1  0.485801  0.170305  0.500000  1
  As  As17  1  0.354629  0.354615  0.000000  1
  As  As18  1  0.645371  0.999986  0.000000  1
  As  As19  1  0.000000  0.645961  0.000000  1
  Rh  Rh20  1  0.717753  0.717706  0.500000  1
  Rh  Rh21  1  0.282247  0.999953  0.500000  1
  Rh  Rh22  1  0.000000  0.280600  0.500000  1
  Rh  Rh23  1  0.176631  0.374069  0.000000  1
  Rh  Rh24  1  0.625398  0.801216  0.000000  1
  Rh  Rh25  1  0.198956  0.824693  0.000000  1
  Rh  Rh26  1  0.801044  0.625737  0.000000  1
  Rh  Rh27  1  0.823369  0.197438  0.000000  1
  Rh  Rh28  1  0.374602  0.175818  0.000000  1
  Rh  Rh29  1  0.356276  0.482927  0.500000  1
  Rh  Rh30  1  0.517139  0.873049  0.500000  1
  Rh  Rh31  1  0.127635  0.645320  0.500000  1
  Rh  Rh32  1  0.872365  0.517683  0.500000  1
  Rh  Rh33  1  0.643724  0.126650  0.500000  1
  Rh  Rh34  1  0.482861  0.355909  0.500000  1
  Rh  Rh35  1  0.000000  0.000263  0.000000  1
