# generated using pymatgen
data_Y2ZnNiRu
_symmetry_space_group_name_H-M   'P 1'
_cell_length_a   5.48389760
_cell_length_b   5.48389817
_cell_length_c   5.48389800
_cell_angle_alpha   135.91912299
_cell_angle_beta   118.33036788
_cell_angle_gamma   78.87714580
_symmetry_Int_Tables_number   1
_chemical_formula_structural   Y2ZnNiRu
_chemical_formula_sum   'Y2 Zn1 Ni1 Ru1'
_cell_volume   97.99401513
_cell_formula_units_Z   1
loop_
 _symmetry_equiv_pos_site_id
 _symmetry_equiv_pos_as_xyz
  1  'x, y, z'
loop_
 _atom_site_type_symbol
 _atom_site_label
 _atom_site_symmetry_multiplicity
 _atom_site_fract_x
 _atom_site_fract_y
 _atom_site_fract_z
 _atom_site_occupancy
  Y  Y0  1  0.697707  0.205341  0.492367  1
  Y  Y1  1  0.287026  0.794659  0.492367  1
  Zn  Zn2  1  0.996701  0.000000  0.996701  1
  Ni  Ni3  1  0.731653  0.500000  0.231653  1
  Ru  Ru4  1  0.286911  0.500000  0.786911  1
