# generated using pymatgen
data_Ba4NaRu2O9
_symmetry_space_group_name_H-M   'P 1'
_cell_length_a   10.27123800
_cell_length_b   10.27124680
_cell_length_c   8.49342500
_cell_angle_alpha   90.00000000
_cell_angle_beta   89.99957047
_cell_angle_gamma   120.00002963
_symmetry_Int_Tables_number   1
_chemical_formula_structural   Ba4NaRu2O9
_chemical_formula_sum   'Ba12 Na3 Ru6 O27'
_cell_volume   775.99570118
_cell_formula_units_Z   3
loop_
 _symmetry_equiv_pos_site_id
 _symmetry_equiv_pos_as_xyz
  1  'x, y, z'
loop_
 _atom_site_type_symbol
 _atom_site_label
 _atom_site_symmetry_multiplicity
 _atom_site_fract_x
 _atom_site_fract_y
 _atom_site_fract_z
 _atom_site_occupancy
  Ba  Ba0  1  0.323924  0.997674  0.000440  1
  Ba  Ba1  1  0.002030  0.326316  0.000486  1
  Ba  Ba2  1  0.673947  0.675618  0.000683  1
  Ba  Ba3  1  0.021202  0.684796  0.246565  1
  Ba  Ba4  1  0.663084  0.977317  0.245636  1
  Ba  Ba5  1  0.314874  0.336843  0.246122  1
  Ba  Ba6  1  0.352772  0.999534  0.499862  1
  Ba  Ba7  1  0.647389  0.645038  0.499202  1
  Ba  Ba8  1  0.999526  0.354345  0.499616  1
  Ba  Ba9  1  0.335660  0.314070  0.753446  1
  Ba  Ba10  1  0.685128  0.021445  0.753989  1
  Ba  Ba11  1  0.979188  0.664696  0.753340  1
  Na  Na12  1  0.667194  0.334478  0.256200  1
  Na  Na13  1  0.999998  0.000065  0.500074  1
  Na  Na14  1  0.333391  0.666645  0.744544  1
  Ru  Ru15  1  0.333370  0.666695  0.085794  1
  Ru  Ru16  1  0.000031  0.999998  0.157348  1
  Ru  Ru17  1  0.333371  0.666667  0.402223  1
  Ru  Ru18  1  0.666708  0.333276  0.600121  1
  Ru  Ru19  1  0.999963  0.999964  0.843000  1
  Ru  Ru20  1  0.666152  0.332215  0.912231  1
  O  O21  1  0.845100  0.000226  0.000049  1
  O  O22  1  0.155089  0.154937  0.999987  1
  O  O23  1  0.999723  0.844848  0.000008  1
  O  O24  1  0.817754  0.492560  0.038062  1
  O  O25  1  0.506871  0.325083  0.038765  1
  O  O26  1  0.675116  0.181500  0.039826  1
  O  O27  1  0.346563  0.832061  0.244661  1
  O  O28  1  0.485655  0.653627  0.244584  1
  O  O29  1  0.168122  0.514418  0.244571  1
  O  O30  1  0.991076  0.156902  0.284069  1
  O  O31  1  0.165757  0.009022  0.284141  1
  O  O32  1  0.842695  0.834458  0.283977  1
  O  O33  1  0.500373  0.319055  0.467896  1
  O  O34  1  0.679377  0.182646  0.469719  1
  O  O35  1  0.820658  0.500727  0.467316  1
  O  O36  1  0.180989  0.681262  0.530459  1
  O  O37  1  0.319074  0.499926  0.530243  1
  O  O38  1  0.500412  0.819136  0.530227  1
  O  O39  1  0.156726  0.990528  0.716173  1
  O  O40  1  0.009072  0.165964  0.716234  1
  O  O41  1  0.833772  0.843522  0.716313  1
  O  O42  1  0.654529  0.483580  0.755725  1
  O  O43  1  0.831776  0.348090  0.757282  1
  O  O44  1  0.514276  0.168090  0.758669  1
  O  O45  1  0.495193  0.820302  0.960026  1
  O  O46  1  0.325549  0.505197  0.960054  1
  O  O47  1  0.179803  0.674639  0.960040  1
