# generated using pymatgen
data_CsP2RuO8
_symmetry_space_group_name_H-M   'P 1'
_cell_length_a   4.92416300
_cell_length_b   4.92416344
_cell_length_c   9.25000900
_cell_angle_alpha   89.99997620
_cell_angle_beta   89.99995815
_cell_angle_gamma   120.00021240
_symmetry_Int_Tables_number   1
_chemical_formula_structural   CsP2RuO8
_chemical_formula_sum   'Cs1 P2 Ru1 O8'
_cell_volume   194.23913570
_cell_formula_units_Z   1
loop_
 _symmetry_equiv_pos_site_id
 _symmetry_equiv_pos_as_xyz
  1  'x, y, z'
loop_
 _atom_site_type_symbol
 _atom_site_label
 _atom_site_symmetry_multiplicity
 _atom_site_fract_x
 _atom_site_fract_y
 _atom_site_fract_z
 _atom_site_occupancy
  Cs  Cs0  1  0.000000  0.000000  0.000000  1
  P  P1  1  0.333332  0.666666  0.684761  1
  P  P2  1  0.666668  0.333334  0.315239  1
  Ru  Ru3  1  0.000000  0.000000  0.500000  1
  O  O4  1  0.666669  0.333334  0.152963  1
  O  O5  1  0.650570  0.941558  0.624011  1
  O  O6  1  0.290989  0.349432  0.624011  1
  O  O7  1  0.333331  0.666666  0.847037  1
  O  O8  1  0.709011  0.650568  0.375989  1
  O  O9  1  0.349430  0.058442  0.375989  1
  O  O10  1  0.941559  0.290989  0.375989  1
  O  O11  1  0.058441  0.709011  0.624011  1
