# generated using pymatgen
data_Tb6ReTcB14
_symmetry_space_group_name_H-M   'P 1'
_cell_length_a   8.13799104
_cell_length_b   8.13799149
_cell_length_c   9.40147400
_cell_angle_alpha   90.00000000
_cell_angle_beta   90.00000000
_cell_angle_gamma   154.77532922
_symmetry_Int_Tables_number   1
_chemical_formula_structural   Tb6ReTcB14
_chemical_formula_sum   'Tb6 Re1 Tc1 B14'
_cell_volume   265.34572743
_cell_formula_units_Z   1
loop_
 _symmetry_equiv_pos_site_id
 _symmetry_equiv_pos_as_xyz
  1  'x, y, z'
loop_
 _atom_site_type_symbol
 _atom_site_label
 _atom_site_symmetry_multiplicity
 _atom_site_fract_x
 _atom_site_fract_y
 _atom_site_fract_z
 _atom_site_occupancy
  Tb  Tb0  1  0.895100  0.104900  0.060626  1
  Tb  Tb1  1  0.104999  0.895001  0.560105  1
  Tb  Tb2  1  0.104999  0.895001  0.939895  1
  Tb  Tb3  1  0.895100  0.104900  0.439374  1
  Tb  Tb4  1  0.241933  0.758067  0.250000  1
  Tb  Tb5  1  0.757840  0.242160  0.750000  1
  Re  Re6  1  0.946838  0.053162  0.750000  1
  Tc  Tc7  1  0.053322  0.946677  0.250000  1
  B  B8  1  0.459032  0.540968  0.250000  1
  B  B9  1  0.541159  0.458841  0.750000  1
  B  B10  1  0.726882  0.273118  0.032841  1
  B  B11  1  0.273109  0.726891  0.532929  1
  B  B12  1  0.273109  0.726891  0.967071  1
  B  B13  1  0.726882  0.273118  0.467159  1
  B  B14  1  0.631904  0.368096  0.348883  1
  B  B15  1  0.367916  0.632084  0.849080  1
  B  B16  1  0.367916  0.632084  0.650920  1
  B  B17  1  0.631904  0.368096  0.151117  1
  B  B18  1  0.521407  0.478593  0.403989  1
  B  B19  1  0.478621  0.521379  0.904276  1
  B  B20  1  0.478621  0.521379  0.595724  1
  B  B21  1  0.521407  0.478593  0.096011  1
