# generated using pymatgen
data_Ho5Th(SiPd5)2
_symmetry_space_group_name_H-M   'P 1'
_cell_length_a   8.24705733
_cell_length_b   8.24705707
_cell_length_c   8.24705791
_cell_angle_alpha   127.53337322
_cell_angle_beta   125.49853592
_cell_angle_gamma   79.05272660
_symmetry_Int_Tables_number   1
_chemical_formula_structural   Ho5Th(SiPd5)2
_chemical_formula_sum   'Ho5 Th1 Si2 Pd10'
_cell_volume   350.27104234
_cell_formula_units_Z   1
loop_
 _symmetry_equiv_pos_site_id
 _symmetry_equiv_pos_as_xyz
  1  'x, y, z'
loop_
 _atom_site_type_symbol
 _atom_site_label
 _atom_site_symmetry_multiplicity
 _atom_site_fract_x
 _atom_site_fract_y
 _atom_site_fract_z
 _atom_site_occupancy
  Ho  Ho0  1  0.225412  0.448091  0.777321  1
  Ho  Ho1  1  0.774951  0.549029  0.225922  1
  Ho  Ho2  1  0.829229  0.051909  0.777321  1
  Ho  Ho3  1  0.176894  0.950971  0.225922  1
  Ho  Ho4  1  0.390666  0.250000  0.140666  1
  Th  Th5  1  0.613581  0.750000  0.863581  1
  Si  Si6  1  0.785261  0.250000  0.535261  1
  Si  Si7  1  0.209793  0.750000  0.459793  1
  Pd  Pd8  1  0.168032  0.400536  0.356458  1
  Pd  Pd9  1  0.832881  0.188673  0.231647  1
  Pd  Pd10  1  0.455921  0.099464  0.767495  1
  Pd  Pd11  1  0.542974  0.311327  0.644208  1
  Pd  Pd12  1  0.997299  0.502008  0.999307  1
  Pd  Pd13  1  0.997299  0.997992  0.495292  1
  Pd  Pd14  1  0.455921  0.688426  0.356458  1
  Pd  Pd15  1  0.542974  0.898765  0.231647  1
  Pd  Pd16  1  0.168032  0.811574  0.767495  1
  Pd  Pd17  1  0.832881  0.601235  0.644208  1
