# generated using pymatgen
data_Y3CuIr7Rh
_symmetry_space_group_name_H-M   'P 1'
_cell_length_a   5.31618900
_cell_length_b   5.31618985
_cell_length_c   17.17528400
_cell_angle_alpha   90.00000000
_cell_angle_beta   90.00000000
_cell_angle_gamma   119.99998846
_symmetry_Int_Tables_number   1
_chemical_formula_structural   Y3CuIr7Rh
_chemical_formula_sum   'Y6 Cu2 Ir14 Rh2'
_cell_volume   420.37366773
_cell_formula_units_Z   2
loop_
 _symmetry_equiv_pos_site_id
 _symmetry_equiv_pos_as_xyz
  1  'x, y, z'
loop_
 _atom_site_type_symbol
 _atom_site_label
 _atom_site_symmetry_multiplicity
 _atom_site_fract_x
 _atom_site_fract_y
 _atom_site_fract_z
 _atom_site_occupancy
  Y  Y0  1  0.333333  0.666667  0.959181  1
  Y  Y1  1  0.666667  0.333333  0.040819  1
  Y  Y2  1  0.666667  0.333333  0.459181  1
  Y  Y3  1  0.333333  0.666667  0.540819  1
  Y  Y4  1  0.333333  0.666667  0.750000  1
  Y  Y5  1  0.666667  0.333333  0.250000  1
  Cu  Cu6  1  0.333333  0.666667  0.250000  1
  Cu  Cu7  1  0.666667  0.333333  0.750000  1
  Ir  Ir8  1  0.169008  0.830992  0.374296  1
  Ir  Ir9  1  0.169008  0.338017  0.374296  1
  Ir  Ir10  1  0.661983  0.830992  0.374296  1
  Ir  Ir11  1  0.830992  0.169008  0.625704  1
  Ir  Ir12  1  0.830992  0.661983  0.625704  1
  Ir  Ir13  1  0.338017  0.169008  0.625704  1
  Ir  Ir14  1  0.830992  0.169008  0.874296  1
  Ir  Ir15  1  0.830992  0.661983  0.874296  1
  Ir  Ir16  1  0.338017  0.169008  0.874296  1
  Ir  Ir17  1  0.169008  0.830992  0.125704  1
  Ir  Ir18  1  0.169008  0.338017  0.125704  1
  Ir  Ir19  1  0.661983  0.830992  0.125704  1
  Ir  Ir20  1  0.000000  0.000000  0.500000  1
  Ir  Ir21  1  0.000000  0.000000  0.000000  1
  Rh  Rh22  1  0.000000  0.000000  0.250000  1
  Rh  Rh23  1  0.000000  0.000000  0.750000  1
