# generated using pymatgen
data_Tb5Tm10Lu(Ga3Co)2
_symmetry_space_group_name_H-M   'P 1'
_cell_length_a   9.90284400
_cell_length_b   9.90206724
_cell_length_c   6.93405409
_cell_angle_alpha   90.01622282
_cell_angle_beta   90.00000000
_cell_angle_gamma   120.00258826
_symmetry_Int_Tables_number   1
_chemical_formula_structural   Tb5Tm10Lu(Ga3Co)2
_chemical_formula_sum   'Tb5 Tm10 Lu1 Ga6 Co2'
_cell_volume   588.83323569
_cell_formula_units_Z   1
loop_
 _symmetry_equiv_pos_site_id
 _symmetry_equiv_pos_as_xyz
  1  'x, y, z'
loop_
 _atom_site_type_symbol
 _atom_site_label
 _atom_site_symmetry_multiplicity
 _atom_site_fract_x
 _atom_site_fract_y
 _atom_site_fract_z
 _atom_site_occupancy
  Tb  Tb0  1  0.464309  0.928618  0.291687  1
  Tb  Tb1  1  0.071034  0.535770  0.291862  1
  Tb  Tb2  1  0.464736  0.535770  0.291862  1
  Tb  Tb3  1  0.999814  0.999629  0.768511  1
  Tb  Tb4  1  0.999928  0.999857  0.269640  1
  Tm  Tm5  1  0.347901  0.173918  0.489809  1
  Tm  Tm6  1  0.826017  0.173918  0.489809  1
  Tm  Tm7  1  0.173720  0.347439  0.985871  1
  Tm  Tm8  1  0.652617  0.826298  0.985810  1
  Tm  Tm9  1  0.173682  0.826298  0.985810  1
  Tm  Tm10  1  0.666854  0.333708  0.172703  1
  Tm  Tm11  1  0.333333  0.666666  0.673814  1
  Tm  Tm12  1  0.537398  0.074796  0.792689  1
  Tm  Tm13  1  0.925188  0.462898  0.792298  1
  Tm  Tm14  1  0.537709  0.462898  0.792298  1
  Lu  Lu15  1  0.825778  0.651557  0.489883  1
  Ga  Ga16  1  0.835797  0.671596  0.041840  1
  Ga  Ga17  1  0.328510  0.164259  0.041201  1
  Ga  Ga18  1  0.835747  0.164259  0.041201  1
  Ga  Ga19  1  0.163512  0.327022  0.542990  1
  Ga  Ga20  1  0.673358  0.836098  0.542912  1
  Ga  Ga21  1  0.162741  0.836098  0.542912  1
  Co  Co22  1  0.666985  0.333969  0.555514  1
  Co  Co23  1  0.333331  0.666663  0.053150  1
