# generated using pymatgen
data_Sc22TcRh7
_symmetry_space_group_name_H-M   'P 1'
_cell_length_a   9.50533698
_cell_length_b   9.50533699
_cell_length_c   9.50533700
_cell_angle_alpha   59.99999649
_cell_angle_beta   59.99999644
_cell_angle_gamma   59.99999969
_symmetry_Int_Tables_number   1
_chemical_formula_structural   Sc22TcRh7
_chemical_formula_sum   'Sc22 Tc1 Rh7'
_cell_volume   607.27797908
_cell_formula_units_Z   1
loop_
 _symmetry_equiv_pos_site_id
 _symmetry_equiv_pos_as_xyz
  1  'x, y, z'
loop_
 _atom_site_type_symbol
 _atom_site_label
 _atom_site_symmetry_multiplicity
 _atom_site_fract_x
 _atom_site_fract_y
 _atom_site_fract_z
 _atom_site_occupancy
  Sc  Sc0  1  0.802173  0.802173  0.197827  1
  Sc  Sc1  1  0.197827  0.802173  0.197827  1
  Sc  Sc2  1  0.802173  0.197827  0.197827  1
  Sc  Sc3  1  0.197827  0.197827  0.802173  1
  Sc  Sc4  1  0.802173  0.197827  0.802173  1
  Sc  Sc5  1  0.197827  0.802173  0.802173  1
  Sc  Sc6  1  0.616005  0.616005  0.151986  1
  Sc  Sc7  1  0.616005  0.151986  0.616005  1
  Sc  Sc8  1  0.151986  0.616005  0.616005  1
  Sc  Sc9  1  0.616005  0.616005  0.616005  1
  Sc  Sc10  1  0.383995  0.383995  0.848014  1
  Sc  Sc11  1  0.383995  0.848014  0.383995  1
  Sc  Sc12  1  0.848014  0.383995  0.383995  1
  Sc  Sc13  1  0.383995  0.383995  0.383995  1
  Sc  Sc14  1  0.842132  0.842132  0.473602  1
  Sc  Sc15  1  0.842132  0.473602  0.842132  1
  Sc  Sc16  1  0.473602  0.842132  0.842132  1
  Sc  Sc17  1  0.842132  0.842132  0.842132  1
  Sc  Sc18  1  0.157868  0.157868  0.526398  1
  Sc  Sc19  1  0.157868  0.526398  0.157868  1
  Sc  Sc20  1  0.526398  0.157868  0.157868  1
  Sc  Sc21  1  0.157868  0.157868  0.157868  1
  Tc  Tc22  1  0.500000  0.500000  0.500000  1
  Rh  Rh23  1  0.000000  0.000000  0.000000  1
  Rh  Rh24  1  0.000000  0.000000  0.500000  1
  Rh  Rh25  1  0.500000  0.000000  0.500000  1
  Rh  Rh26  1  0.000000  0.500000  0.500000  1
  Rh  Rh27  1  0.500000  0.500000  0.000000  1
  Rh  Rh28  1  0.000000  0.500000  0.000000  1
  Rh  Rh29  1  0.500000  0.000000  0.000000  1
