# generated using pymatgen
data_La2Ce2Zn8MoRu
_symmetry_space_group_name_H-M   'P 1'
_cell_length_a   7.31347900
_cell_length_b   7.31347900
_cell_length_c   5.20211300
_cell_angle_alpha   90.00000000
_cell_angle_beta   90.00000000
_cell_angle_gamma   90.00000000
_symmetry_Int_Tables_number   1
_chemical_formula_structural   La2Ce2Zn8MoRu
_chemical_formula_sum   'La2 Ce2 Zn8 Mo1 Ru1'
_cell_volume   278.24528841
_cell_formula_units_Z   1
loop_
 _symmetry_equiv_pos_site_id
 _symmetry_equiv_pos_as_xyz
  1  'x, y, z'
loop_
 _atom_site_type_symbol
 _atom_site_label
 _atom_site_symmetry_multiplicity
 _atom_site_fract_x
 _atom_site_fract_y
 _atom_site_fract_z
 _atom_site_occupancy
  La  La0  1  0.000000  0.500000  0.769165  1
  La  La1  1  0.500000  0.000000  0.230835  1
  Ce  Ce2  1  0.000000  0.000000  0.000000  1
  Ce  Ce3  1  0.500000  0.500000  0.000000  1
  Zn  Zn4  1  0.186291  0.686702  0.288880  1
  Zn  Zn5  1  0.813709  0.686702  0.288880  1
  Zn  Zn6  1  0.813709  0.313298  0.288880  1
  Zn  Zn7  1  0.313298  0.186291  0.711120  1
  Zn  Zn8  1  0.186291  0.313298  0.288880  1
  Zn  Zn9  1  0.686702  0.186291  0.711120  1
  Zn  Zn10  1  0.686702  0.813709  0.711120  1
  Zn  Zn11  1  0.313298  0.813709  0.711120  1
  Mo  Mo12  1  0.500000  0.500000  0.500000  1
  Ru  Ru13  1  0.000000  0.000000  0.500000  1
