# generated using pymatgen
data_KMg(AuF6)3
_symmetry_space_group_name_H-M   'P 1'
_cell_length_a   10.21419100
_cell_length_b   11.14103700
_cell_length_c   15.00965200
_cell_angle_alpha   90.00000000
_cell_angle_beta   90.00000000
_cell_angle_gamma   90.00000000
_symmetry_Int_Tables_number   1
_chemical_formula_structural   KMg(AuF6)3
_chemical_formula_sum   'K4 Mg4 Au12 F72'
_cell_volume   1708.04856339
_cell_formula_units_Z   4
loop_
 _symmetry_equiv_pos_site_id
 _symmetry_equiv_pos_as_xyz
  1  'x, y, z'
loop_
 _atom_site_type_symbol
 _atom_site_label
 _atom_site_symmetry_multiplicity
 _atom_site_fract_x
 _atom_site_fract_y
 _atom_site_fract_z
 _atom_site_occupancy
  K  K0  1  0.527041  0.926457  0.750000  1
  K  K1  1  0.972959  0.426457  0.750000  1
  K  K2  1  0.472959  0.073543  0.250000  1
  K  K3  1  0.027041  0.573543  0.250000  1
  Mg  Mg4  1  0.000000  0.000000  0.500000  1
  Mg  Mg5  1  0.500000  0.500000  0.000000  1
  Mg  Mg6  1  0.000000  0.000000  0.000000  1
  Mg  Mg7  1  0.500000  0.500000  0.500000  1
  Au  Au8  1  0.098470  0.021996  0.750000  1
  Au  Au9  1  0.401530  0.521996  0.750000  1
  Au  Au10  1  0.901530  0.978004  0.250000  1
  Au  Au11  1  0.598470  0.478004  0.250000  1
  Au  Au12  1  0.698051  0.206138  0.546711  1
  Au  Au13  1  0.801949  0.706138  0.953289  1
  Au  Au14  1  0.301949  0.793862  0.046711  1
  Au  Au15  1  0.198051  0.293862  0.453289  1
  Au  Au16  1  0.301949  0.793862  0.453289  1
  Au  Au17  1  0.198051  0.293862  0.046711  1
  Au  Au18  1  0.698051  0.206138  0.953289  1
  Au  Au19  1  0.801949  0.706138  0.546711  1
  F  F20  1  0.099330  0.022359  0.618802  1
  F  F21  1  0.400670  0.522359  0.881198  1
  F  F22  1  0.900670  0.977641  0.118802  1
  F  F23  1  0.599330  0.477641  0.381198  1
  F  F24  1  0.900670  0.977641  0.381198  1
  F  F25  1  0.599330  0.477641  0.118802  1
  F  F26  1  0.099330  0.022359  0.881198  1
  F  F27  1  0.400670  0.522359  0.618802  1
  F  F28  1  0.138301  0.852075  0.750000  1
  F  F29  1  0.361699  0.352075  0.750000  1
  F  F30  1  0.861699  0.147925  0.250000  1
  F  F31  1  0.638301  0.647925  0.250000  1
  F  F32  1  0.286469  0.054794  0.750000  1
  F  F33  1  0.213531  0.554794  0.750000  1
  F  F34  1  0.713531  0.945206  0.250000  1
  F  F35  1  0.786469  0.445206  0.250000  1
  F  F36  1  0.060582  0.194284  0.750000  1
  F  F37  1  0.439418  0.694284  0.750000  1
  F  F38  1  0.939418  0.805716  0.250000  1
  F  F39  1  0.560582  0.305716  0.250000  1
  F  F40  1  0.911991  0.987682  0.750000  1
  F  F41  1  0.588009  0.487682  0.750000  1
  F  F42  1  0.088009  0.012318  0.250000  1
  F  F43  1  0.411991  0.512318  0.250000  1
  F  F44  1  0.830242  0.077203  0.550381  1
  F  F45  1  0.669758  0.577203  0.949619  1
  F  F46  1  0.169758  0.922797  0.050381  1
  F  F47  1  0.330242  0.422797  0.449619  1
  F  F48  1  0.169758  0.922797  0.449619  1
  F  F49  1  0.330242  0.422797  0.050381  1
  F  F50  1  0.830242  0.077203  0.949619  1
  F  F51  1  0.669758  0.577203  0.550381  1
  F  F52  1  0.799782  0.293435  0.459066  1
  F  F53  1  0.700218  0.793435  0.040934  1
  F  F54  1  0.200218  0.706565  0.959066  1
  F  F55  1  0.299782  0.206565  0.540934  1
  F  F56  1  0.200218  0.706565  0.540934  1
  F  F57  1  0.299782  0.206565  0.959066  1
  F  F58  1  0.799782  0.293435  0.040934  1
  F  F59  1  0.700218  0.793435  0.459066  1
  F  F60  1  0.606091  0.122927  0.451528  1
  F  F61  1  0.893909  0.622927  0.048472  1
  F  F62  1  0.393909  0.877073  0.951528  1
  F  F63  1  0.106091  0.377073  0.548472  1
  F  F64  1  0.393909  0.877073  0.548472  1
  F  F65  1  0.106091  0.377073  0.951528  1
  F  F66  1  0.606091  0.122927  0.048472  1
  F  F67  1  0.893909  0.622927  0.451528  1
  F  F68  1  0.565147  0.334309  0.544910  1
  F  F69  1  0.934853  0.834309  0.955090  1
  F  F70  1  0.434853  0.665691  0.044910  1
  F  F71  1  0.065147  0.165691  0.455090  1
  F  F72  1  0.434853  0.665691  0.455090  1
  F  F73  1  0.065147  0.165691  0.044910  1
  F  F74  1  0.565147  0.334309  0.955090  1
  F  F75  1  0.934853  0.834309  0.544910  1
  F  F76  1  0.595348  0.117758  0.635120  1
  F  F77  1  0.904652  0.617758  0.864880  1
  F  F78  1  0.404652  0.882242  0.135120  1
  F  F79  1  0.095348  0.382242  0.364880  1
  F  F80  1  0.404652  0.882242  0.364880  1
  F  F81  1  0.095348  0.382242  0.135120  1
  F  F82  1  0.595348  0.117758  0.864880  1
  F  F83  1  0.904652  0.617758  0.635120  1
  F  F84  1  0.790496  0.289619  0.642243  1
  F  F85  1  0.709504  0.789619  0.857757  1
  F  F86  1  0.209504  0.710381  0.142243  1
  F  F87  1  0.290496  0.210381  0.357757  1
  F  F88  1  0.209504  0.710381  0.357757  1
  F  F89  1  0.290496  0.210381  0.142243  1
  F  F90  1  0.790496  0.289619  0.857757  1
  F  F91  1  0.709504  0.789619  0.642243  1
