# generated using pymatgen
data_Ca5SiAs11Rh19
_symmetry_space_group_name_H-M   'P 1'
_cell_length_a   13.20151880
_cell_length_b   13.17863469
_cell_length_c   4.00717800
_cell_angle_alpha   90.00000000
_cell_angle_beta   90.00000000
_cell_angle_gamma   120.13167227
_symmetry_Int_Tables_number   1
_chemical_formula_structural   Ca5SiAs11Rh19
_chemical_formula_sum   'Ca5 Si1 As11 Rh19'
_cell_volume   602.95628210
_cell_formula_units_Z   1
loop_
 _symmetry_equiv_pos_site_id
 _symmetry_equiv_pos_as_xyz
  1  'x, y, z'
loop_
 _atom_site_type_symbol
 _atom_site_label
 _atom_site_symmetry_multiplicity
 _atom_site_fract_x
 _atom_site_fract_y
 _atom_site_fract_z
 _atom_site_occupancy
  Ca  Ca0  1  0.000779  0.183942  0.500000  1
  Ca  Ca1  1  0.817121  0.816703  0.500000  1
  Ca  Ca2  1  0.185699  0.001929  0.500000  1
  Ca  Ca3  1  0.662567  0.332102  0.000000  1
  Ca  Ca4  1  0.333013  0.667806  0.000000  1
  Si  Si5  1  0.479240  0.317506  0.500000  1
  As  As6  1  0.820559  0.000098  0.000000  1
  As  As7  1  0.181659  0.181245  0.000000  1
  As  As8  1  0.999884  0.820071  0.000000  1
  As  As9  1  0.365874  0.002632  0.000000  1
  As  As10  1  0.680587  0.165467  0.500000  1
  As  As11  1  0.832756  0.515450  0.500000  1
  As  As12  1  0.515732  0.833124  0.500000  1
  As  As13  1  0.165920  0.682786  0.500000  1
  As  As14  1  0.316899  0.483460  0.500000  1
  As  As15  1  0.999752  0.365145  0.000000  1
  As  As16  1  0.634174  0.633111  0.000000  1
  Rh  Rh17  1  0.803264  0.179231  0.000000  1
  Rh  Rh18  1  0.379121  0.199610  0.000000  1
  Rh  Rh19  1  0.641020  0.510921  0.500000  1
  Rh  Rh20  1  0.870888  0.354976  0.500000  1
  Rh  Rh21  1  0.356937  0.873337  0.500000  1
  Rh  Rh22  1  0.517322  0.642741  0.500000  1
  Rh  Rh23  1  0.128135  0.484109  0.500000  1
  Rh  Rh24  1  0.818902  0.622950  0.000000  1
  Rh  Rh25  1  0.623088  0.819912  0.000000  1
  Rh  Rh26  1  0.180524  0.804769  0.000000  1
  Rh  Rh27  1  0.196949  0.376695  0.000000  1
  Rh  Rh28  1  0.999937  0.714987  0.500000  1
  Rh  Rh29  1  0.286712  0.285961  0.500000  1
  Rh  Rh30  1  0.715451  0.999731  0.500000  1
  Rh  Rh31  1  0.000458  0.549767  0.000000  1
  Rh  Rh32  1  0.455068  0.443934  0.000000  1
  Rh  Rh33  1  0.548919  0.000714  0.000000  1
  Rh  Rh34  1  0.000756  0.000479  0.000000  1
  Rh  Rh35  1  0.484333  0.132597  0.500000  1
