# generated using pymatgen
data_Dy5Ho5Os4
_symmetry_space_group_name_H-M   'P 1'
_cell_length_a   6.35342746
_cell_length_b   7.35528172
_cell_length_c   8.42043015
_cell_angle_alpha   96.94832042
_cell_angle_beta   112.18989500
_cell_angle_gamma   90.00370149
_symmetry_Int_Tables_number   1
_chemical_formula_structural   Dy5Ho5Os4
_chemical_formula_sum   'Dy5 Ho5 Os4'
_cell_volume   361.22939230
_cell_formula_units_Z   1
loop_
 _symmetry_equiv_pos_site_id
 _symmetry_equiv_pos_as_xyz
  1  'x, y, z'
loop_
 _atom_site_type_symbol
 _atom_site_label
 _atom_site_symmetry_multiplicity
 _atom_site_fract_x
 _atom_site_fract_y
 _atom_site_fract_z
 _atom_site_occupancy
  Dy  Dy0  1  0.976595  0.916025  0.183572  1
  Dy  Dy1  1  0.792992  0.583917  0.816344  1
  Dy  Dy2  1  0.023470  0.084031  0.816434  1
  Dy  Dy3  1  0.206960  0.416026  0.183665  1
  Dy  Dy4  1  0.639527  0.816304  0.435515  1
  Ho  Ho5  1  0.203995  0.683636  0.564650  1
  Ho  Ho6  1  0.360483  0.183698  0.564530  1
  Ho  Ho7  1  0.796065  0.316339  0.435389  1
  Ho  Ho8  1  0.421949  0.749904  0.999882  1
  Ho  Ho9  1  0.578017  0.250072  0.000030  1
  Os  Os10  1  0.822387  0.577001  0.219791  1
  Os  Os11  1  0.602449  0.923071  0.780196  1
  Os  Os12  1  0.177664  0.422925  0.780151  1
  Os  Os13  1  0.397448  0.077051  0.219853  1
