# generated using pymatgen
data_LuSc4Ga2Te
_symmetry_space_group_name_H-M   'P 1'
_cell_length_a   8.24620635
_cell_length_b   8.26797199
_cell_length_c   6.02983000
_cell_angle_alpha   90.00000000
_cell_angle_beta   90.00000000
_cell_angle_gamma   120.08735400
_symmetry_Int_Tables_number   1
_chemical_formula_structural   LuSc4Ga2Te
_chemical_formula_sum   'Lu2 Sc8 Ga4 Te2'
_cell_volume   355.71808004
_cell_formula_units_Z   2
loop_
 _symmetry_equiv_pos_site_id
 _symmetry_equiv_pos_as_xyz
  1  'x, y, z'
loop_
 _atom_site_type_symbol
 _atom_site_label
 _atom_site_symmetry_multiplicity
 _atom_site_fract_x
 _atom_site_fract_y
 _atom_site_fract_z
 _atom_site_occupancy
  Lu  Lu0  1  0.229832  0.998457  0.250000  1
  Lu  Lu1  1  0.229832  0.231375  0.750000  1
  Sc  Sc2  1  0.316046  0.658024  0.000000  1
  Sc  Sc3  1  0.672617  0.336307  0.500000  1
  Sc  Sc4  1  0.672617  0.336307  0.000000  1
  Sc  Sc5  1  0.316046  0.658024  0.500000  1
  Sc  Sc6  1  0.013122  0.762206  0.750000  1
  Sc  Sc7  1  0.013122  0.250916  0.250000  1
  Sc  Sc8  1  0.765313  0.749534  0.250000  1
  Sc  Sc9  1  0.765313  0.015779  0.750000  1
  Ga  Ga10  1  0.994094  0.397714  0.750000  1
  Ga  Ga11  1  0.994094  0.596380  0.250000  1
  Ga  Ga12  1  0.398956  0.399120  0.250000  1
  Ga  Ga13  1  0.398956  0.999836  0.750000  1
  Te  Te14  1  0.610021  0.995584  0.250000  1
  Te  Te15  1  0.610021  0.614437  0.750000  1
