# generated using pymatgen
data_Pr2Ho6Cd2RuPt
_symmetry_space_group_name_H-M   'P 1'
_cell_length_a   9.71240609
_cell_length_b   9.71279182
_cell_length_c   9.74324401
_cell_angle_alpha   59.89360019
_cell_angle_beta   59.89752396
_cell_angle_gamma   59.75161844
_symmetry_Int_Tables_number   1
_chemical_formula_structural   Pr2Ho6Cd2RuPt
_chemical_formula_sum   'Pr4 Ho12 Cd4 Ru2 Pt2'
_cell_volume   647.66856819
_cell_formula_units_Z   2
loop_
 _symmetry_equiv_pos_site_id
 _symmetry_equiv_pos_as_xyz
  1  'x, y, z'
loop_
 _atom_site_type_symbol
 _atom_site_label
 _atom_site_symmetry_multiplicity
 _atom_site_fract_x
 _atom_site_fract_y
 _atom_site_fract_z
 _atom_site_occupancy
  Pr  Pr0  1  0.558905  0.937716  0.565759  1
  Pr  Pr1  1  0.937716  0.558905  0.937619  1
  Pr  Pr2  1  0.563445  0.563445  0.936555  1
  Pr  Pr3  1  0.937597  0.937597  0.562403  1
  Ho  Ho4  1  0.348864  0.347929  0.350790  1
  Ho  Ho5  1  0.347929  0.348864  0.952417  1
  Ho  Ho6  1  0.344196  0.957855  0.349662  1
  Ho  Ho7  1  0.957855  0.344196  0.348287  1
  Ho  Ho8  1  0.818787  0.185031  0.186774  1
  Ho  Ho9  1  0.185031  0.818787  0.809408  1
  Ho  Ho10  1  0.186644  0.816641  0.188969  1
  Ho  Ho11  1  0.816641  0.186644  0.807745  1
  Ho  Ho12  1  0.187019  0.187019  0.812981  1
  Ho  Ho13  1  0.809945  0.809945  0.190055  1
  Ho  Ho14  1  0.943229  0.551354  0.560107  1
  Ho  Ho15  1  0.551354  0.943229  0.945311  1
  Cd  Cd16  1  0.582895  0.577322  0.578757  1
  Cd  Cd17  1  0.577322  0.582895  0.261025  1
  Cd  Cd18  1  0.578924  0.259379  0.582743  1
  Cd  Cd19  1  0.259379  0.578924  0.578954  1
  Ru  Ru20  1  0.148073  0.140944  0.135952  1
  Ru  Ru21  1  0.140944  0.148073  0.575031  1
  Pt  Pt22  1  0.142566  0.574740  0.143498  1
  Pt  Pt23  1  0.574740  0.142566  0.139196  1
