# generated using pymatgen
data_LaCeB4(OsRu)2
_symmetry_space_group_name_H-M   'P 1'
_cell_length_a   6.79361336
_cell_length_b   6.03716058
_cell_length_c   5.61835689
_cell_angle_alpha   71.20157010
_cell_angle_beta   57.27235121
_cell_angle_gamma   51.52607231
_symmetry_Int_Tables_number   1
_chemical_formula_structural   LaCeB4(OsRu)2
_chemical_formula_sum   'La1 Ce1 B4 Os2 Ru2'
_cell_volume   151.72931470
_cell_formula_units_Z   1
loop_
 _symmetry_equiv_pos_site_id
 _symmetry_equiv_pos_as_xyz
  1  'x, y, z'
loop_
 _atom_site_type_symbol
 _atom_site_label
 _atom_site_symmetry_multiplicity
 _atom_site_fract_x
 _atom_site_fract_y
 _atom_site_fract_z
 _atom_site_occupancy
  La  La0  1  0.250000  0.250000  0.250000  1
  Ce  Ce1  1  0.000000  0.000000  0.000000  1
  B  B2  1  0.568914  0.931086  0.568914  1
  B  B3  1  0.931086  0.568914  0.931086  1
  B  B4  1  0.314845  0.685155  0.314845  1
  B  B5  1  0.685155  0.314845  0.685155  1
  Os  Os6  1  0.611893  0.611893  0.888107  1
  Os  Os7  1  0.888107  0.888107  0.611893  1
  Ru  Ru8  1  0.363032  0.363032  0.636968  1
  Ru  Ru9  1  0.636968  0.636968  0.363032  1
