# generated using pymatgen
data_NpNb2Co9
_symmetry_space_group_name_H-M   'P 1'
_cell_length_a   7.00663254
_cell_length_b   7.00663224
_cell_length_c   7.00663223
_cell_angle_alpha   43.68096172
_cell_angle_beta   43.68096374
_cell_angle_gamma   43.68096030
_symmetry_Int_Tables_number   1
_chemical_formula_structural   NpNb2Co9
_chemical_formula_sum   'Np1 Nb2 Co9'
_cell_volume   148.92322769
_cell_formula_units_Z   1
loop_
 _symmetry_equiv_pos_site_id
 _symmetry_equiv_pos_as_xyz
  1  'x, y, z'
loop_
 _atom_site_type_symbol
 _atom_site_label
 _atom_site_symmetry_multiplicity
 _atom_site_fract_x
 _atom_site_fract_y
 _atom_site_fract_z
 _atom_site_occupancy
  Np  Np0  1  0.000000  0.000000  0.000000  1
  Nb  Nb1  1  0.218710  0.218710  0.218710  1
  Nb  Nb2  1  0.781290  0.781290  0.781290  1
  Co  Co3  1  0.500000  0.500000  0.000000  1
  Co  Co4  1  0.716235  0.716235  0.236914  1
  Co  Co5  1  0.283766  0.763086  0.283765  1
  Co  Co6  1  0.763086  0.283766  0.283765  1
  Co  Co7  1  0.500001  0.000000  0.500000  1
  Co  Co8  1  0.000000  0.500001  0.500000  1
  Co  Co9  1  0.236914  0.716234  0.716235  1
  Co  Co10  1  0.716234  0.236914  0.716235  1
  Co  Co11  1  0.283765  0.283765  0.763086  1
