# generated using pymatgen
data_Y3TmHf4F28
_symmetry_space_group_name_H-M   'P 1'
_cell_length_a   5.67168052
_cell_length_b   9.03168541
_cell_length_c   12.17354987
_cell_angle_alpha   62.41299181
_cell_angle_beta   90.00636294
_cell_angle_gamma   89.98105800
_symmetry_Int_Tables_number   1
_chemical_formula_structural   Y3TmHf4F28
_chemical_formula_sum   'Y3 Tm1 Hf4 F28'
_cell_volume   552.69142398
_cell_formula_units_Z   1
loop_
 _symmetry_equiv_pos_site_id
 _symmetry_equiv_pos_as_xyz
  1  'x, y, z'
loop_
 _atom_site_type_symbol
 _atom_site_label
 _atom_site_symmetry_multiplicity
 _atom_site_fract_x
 _atom_site_fract_y
 _atom_site_fract_z
 _atom_site_occupancy
  Y  Y0  1  0.743372  0.184418  0.734950  1
  Y  Y1  1  0.755872  0.183130  0.235043  1
  Y  Y2  1  0.243357  0.814718  0.764866  1
  Tm  Tm3  1  0.256635  0.815118  0.264900  1
  Hf  Hf4  1  0.757270  0.726111  0.045555  1
  Hf  Hf5  1  0.243880  0.272489  0.957372  1
  Hf  Hf6  1  0.256420  0.276349  0.455499  1
  Hf  Hf7  1  0.743536  0.725711  0.541573  1
  F  F8  1  0.960770  0.710755  0.417283  1
  F  F9  1  0.043291  0.291399  0.580965  1
  F  F10  1  0.456887  0.290362  0.081762  1
  F  F11  1  0.542737  0.710511  0.920625  1
  F  F12  1  0.483303  0.734404  0.147548  1
  F  F13  1  0.521104  0.267018  0.856977  1
  F  F14  1  0.980933  0.266789  0.355454  1
  F  F15  1  0.019126  0.732230  0.642785  1
  F  F16  1  0.966743  0.748099  0.172339  1
  F  F17  1  0.041086  0.252177  0.828470  1
  F  F18  1  0.460416  0.254550  0.327530  1
  F  F19  1  0.538842  0.746389  0.670106  1
  F  F20  1  0.775563  0.476507  0.140421  1
  F  F21  1  0.224209  0.522450  0.861483  1
  F  F22  1  0.273616  0.526551  0.359374  1
  F  F23  1  0.722488  0.476454  0.638476  1
  F  F24  1  0.947965  0.275222  0.048825  1
  F  F25  1  0.050492  0.724237  0.952034  1
  F  F26  1  0.448859  0.725169  0.447683  1
  F  F27  1  0.552133  0.276877  0.547647  1
  F  F28  1  0.738911  0.974715  0.441785  1
  F  F29  1  0.260175  0.027379  0.557377  1
  F  F30  1  0.240187  0.023677  0.060151  1
  F  F31  1  0.760979  0.974694  0.943028  1
  F  F32  1  0.570802  0.970053  0.233039  1
  F  F33  1  0.420430  0.029220  0.767937  1
  F  F34  1  0.077249  0.023869  0.267223  1
  F  F35  1  0.920360  0.970192  0.731919  1
