# generated using pymatgen
data_Ba3DyYWO9
_symmetry_space_group_name_H-M   'P 1'
_cell_length_a   6.11555500
_cell_length_b   6.11555563
_cell_length_c   7.47695600
_cell_angle_alpha   90.00000000
_cell_angle_beta   90.00000000
_cell_angle_gamma   119.99999120
_symmetry_Int_Tables_number   1
_chemical_formula_structural   Ba3DyYWO9
_chemical_formula_sum   'Ba3 Dy1 Y1 W1 O9'
_cell_volume   242.17387575
_cell_formula_units_Z   1
loop_
 _symmetry_equiv_pos_site_id
 _symmetry_equiv_pos_as_xyz
  1  'x, y, z'
loop_
 _atom_site_type_symbol
 _atom_site_label
 _atom_site_symmetry_multiplicity
 _atom_site_fract_x
 _atom_site_fract_y
 _atom_site_fract_z
 _atom_site_occupancy
  Ba  Ba0  1  0.000000  0.000000  0.499991  1
  Ba  Ba1  1  0.666667  0.333333  0.813296  1
  Ba  Ba2  1  0.333333  0.666667  0.186644  1
  Dy  Dy3  1  0.333333  0.666667  0.669947  1
  Y  Y4  1  0.666667  0.333333  0.329774  1
  W  W5  1  0.000000  0.000000  0.999976  1
  O  O6  1  0.695691  0.847845  0.849601  1
  O  O7  1  0.304281  0.152141  0.150327  1
  O  O8  1  0.000492  0.500246  0.500196  1
  O  O9  1  0.499754  0.999508  0.500196  1
  O  O10  1  0.152155  0.304309  0.849601  1
  O  O11  1  0.847859  0.695719  0.150327  1
  O  O12  1  0.499754  0.500246  0.500196  1
  O  O13  1  0.152155  0.847845  0.849601  1
  O  O14  1  0.847859  0.152141  0.150327  1
