# generated using pymatgen
data_Sr12Sn8Ir3Pd5
_symmetry_space_group_name_H-M   'P 1'
_cell_length_a   6.21712326
_cell_length_b   8.78243916
_cell_length_c   14.42992067
_cell_angle_alpha   90.16115735
_cell_angle_beta   90.10533538
_cell_angle_gamma   90.15913831
_symmetry_Int_Tables_number   1
_chemical_formula_structural   Sr12Sn8Ir3Pd5
_chemical_formula_sum   'Sr12 Sn8 Ir3 Pd5'
_cell_volume   787.88791313
_cell_formula_units_Z   1
loop_
 _symmetry_equiv_pos_site_id
 _symmetry_equiv_pos_as_xyz
  1  'x, y, z'
loop_
 _atom_site_type_symbol
 _atom_site_label
 _atom_site_symmetry_multiplicity
 _atom_site_fract_x
 _atom_site_fract_y
 _atom_site_fract_z
 _atom_site_occupancy
  Sr  Sr0  1  0.146731  0.391627  0.594336  1
  Sr  Sr1  1  0.853619  0.607697  0.097574  1
  Sr  Sr2  1  0.146546  0.107721  0.405411  1
  Sr  Sr3  1  0.854482  0.896389  0.904518  1
  Sr  Sr4  1  0.848816  0.601420  0.401969  1
  Sr  Sr5  1  0.148130  0.394171  0.901858  1
  Sr  Sr6  1  0.848562  0.899290  0.598019  1
  Sr  Sr7  1  0.151089  0.101095  0.099150  1
  Sr  Sr8  1  0.645000  0.245758  0.747247  1
  Sr  Sr9  1  0.357996  0.752874  0.251244  1
  Sr  Sr10  1  0.641891  0.251948  0.249908  1
  Sr  Sr11  1  0.358026  0.750934  0.748035  1
  Sn  Sn12  1  0.620262  0.249668  0.499567  1
  Sn  Sn13  1  0.373946  0.754534  0.002301  1
  Sn  Sn14  1  0.365962  0.749795  0.499610  1
  Sn  Sn15  1  0.633736  0.244021  0.002336  1
  Sn  Sn16  1  0.157007  0.098431  0.747063  1
  Sn  Sn17  1  0.843997  0.902803  0.247736  1
  Sn  Sn18  1  0.157101  0.404140  0.252468  1
  Sn  Sn19  1  0.848964  0.598363  0.750491  1
  Ir  Ir20  1  0.375405  0.030742  0.589127  1
  Ir  Ir21  1  0.624353  0.966286  0.089459  1
  Ir  Ir22  1  0.377171  0.468306  0.411295  1
  Pd  Pd23  1  0.622732  0.531213  0.911552  1
  Pd  Pd24  1  0.621768  0.965090  0.409308  1
  Pd  Pd25  1  0.378136  0.034261  0.909209  1
  Pd  Pd26  1  0.621356  0.534859  0.590529  1
  Pd  Pd27  1  0.377217  0.466564  0.088678  1
