# generated using pymatgen
data_YEr19(Ag3Pt)2
_symmetry_space_group_name_H-M   'P 1'
_cell_length_a   9.41655800
_cell_length_b   9.41757536
_cell_length_c   9.57816000
_cell_angle_alpha   90.00000000
_cell_angle_beta   90.00000000
_cell_angle_gamma   120.00357108
_symmetry_Int_Tables_number   1
_chemical_formula_structural   YEr19(Ag3Pt)2
_chemical_formula_sum   'Y1 Er19 Ag6 Pt2'
_cell_volume   735.57740417
_cell_formula_units_Z   1
loop_
 _symmetry_equiv_pos_site_id
 _symmetry_equiv_pos_as_xyz
  1  'x, y, z'
loop_
 _atom_site_type_symbol
 _atom_site_label
 _atom_site_symmetry_multiplicity
 _atom_site_fract_x
 _atom_site_fract_y
 _atom_site_fract_z
 _atom_site_occupancy
  Y  Y0  1  0.085280  0.542641  0.750000  1
  Er  Er1  1  0.999728  0.999864  0.499911  1
  Er  Er2  1  0.999728  0.999864  0.000089  1
  Er  Er3  1  0.208026  0.792929  0.444878  1
  Er  Er4  1  0.208026  0.415097  0.444878  1
  Er  Er5  1  0.584639  0.792320  0.445298  1
  Er  Er6  1  0.791722  0.207129  0.554305  1
  Er  Er7  1  0.791722  0.584594  0.554305  1
  Er  Er8  1  0.415298  0.207649  0.554625  1
  Er  Er9  1  0.791722  0.207129  0.945695  1
  Er  Er10  1  0.791722  0.584594  0.945695  1
  Er  Er11  1  0.415298  0.207649  0.945375  1
  Er  Er12  1  0.208026  0.792929  0.055122  1
  Er  Er13  1  0.208026  0.415097  0.055122  1
  Er  Er14  1  0.584639  0.792320  0.054702  1
  Er  Er15  1  0.542906  0.457296  0.250000  1
  Er  Er16  1  0.542906  0.085609  0.250000  1
  Er  Er17  1  0.914656  0.457327  0.250000  1
  Er  Er18  1  0.457901  0.542713  0.750000  1
  Er  Er19  1  0.457901  0.915188  0.750000  1
  Ag  Ag20  1  0.883657  0.116454  0.250000  1
  Ag  Ag21  1  0.883657  0.767206  0.250000  1
  Ag  Ag22  1  0.232679  0.116341  0.250000  1
  Ag  Ag23  1  0.116273  0.884681  0.750000  1
  Ag  Ag24  1  0.116273  0.231589  0.750000  1
  Ag  Ag25  1  0.767549  0.883774  0.750000  1
  Pt  Pt26  1  0.333162  0.666581  0.250000  1
  Pt  Pt27  1  0.666880  0.333439  0.750000  1
