# generated using pymatgen
data_LaPr6MnBr12
_symmetry_space_group_name_H-M   'P 1'
_cell_length_a   9.72961611
_cell_length_b   9.74576959
_cell_length_c   9.39766907
_cell_angle_alpha   106.21360004
_cell_angle_beta   106.76571549
_cell_angle_gamma   106.96804123
_symmetry_Int_Tables_number   1
_chemical_formula_structural   LaPr6MnBr12
_chemical_formula_sum   'La1 Pr6 Mn1 Br12'
_cell_volume   749.08894553
_cell_formula_units_Z   1
loop_
 _symmetry_equiv_pos_site_id
 _symmetry_equiv_pos_as_xyz
  1  'x, y, z'
loop_
 _atom_site_type_symbol
 _atom_site_label
 _atom_site_symmetry_multiplicity
 _atom_site_fract_x
 _atom_site_fract_y
 _atom_site_fract_z
 _atom_site_occupancy
  La  La0  1  0.592612  0.520898  0.783669  1
  Pr  Pr1  1  0.000506  0.003129  0.996562  1
  Pr  Pr2  1  0.520336  0.810074  0.604340  1
  Pr  Pr3  1  0.812427  0.601619  0.520640  1
  Pr  Pr4  1  0.403001  0.477982  0.206350  1
  Pr  Pr5  1  0.479746  0.188441  0.399488  1
  Pr  Pr6  1  0.187961  0.396440  0.484070  1
  Mn  Mn7  1  0.508099  0.500472  0.525174  1
  Br  Br8  1  0.570034  0.177875  0.720978  1
  Br  Br9  1  0.181064  0.715254  0.564286  1
  Br  Br10  1  0.712944  0.566241  0.176623  1
  Br  Br11  1  0.426820  0.809531  0.275379  1
  Br  Br12  1  0.814330  0.280438  0.423181  1
  Br  Br13  1  0.274266  0.427485  0.821570  1
  Br  Br14  1  0.673670  0.889466  0.965219  1
  Br  Br15  1  0.876503  0.955858  0.654953  1
  Br  Br16  1  0.965629  0.676650  0.884318  1
  Br  Br17  1  0.332577  0.125173  0.038204  1
  Br  Br18  1  0.121656  0.042496  0.335933  1
  Br  Br19  1  0.045819  0.334476  0.119063  1
