# generated using pymatgen
data_Np4SiAs5Ru7
_symmetry_space_group_name_H-M   'P 1'
_cell_length_a   7.21843681
_cell_length_b   7.21843652
_cell_length_c   7.21843612
_cell_angle_alpha   109.49405328
_cell_angle_beta   109.42558605
_cell_angle_gamma   109.49404034
_symmetry_Int_Tables_number   1
_chemical_formula_structural   Np4SiAs5Ru7
_chemical_formula_sum   'Np4 Si1 As5 Ru7'
_cell_volume   289.53913800
_cell_formula_units_Z   1
loop_
 _symmetry_equiv_pos_site_id
 _symmetry_equiv_pos_as_xyz
  1  'x, y, z'
loop_
 _atom_site_type_symbol
 _atom_site_label
 _atom_site_symmetry_multiplicity
 _atom_site_fract_x
 _atom_site_fract_y
 _atom_site_fract_z
 _atom_site_occupancy
  Np  Np0  1  0.000778  0.000000  0.498388  1
  Np  Np1  1  0.498388  0.000000  0.000778  1
  Np  Np2  1  0.000778  0.502391  0.000778  1
  Np  Np3  1  0.498388  0.497609  0.498388  1
  Si  Si4  1  0.317127  0.000000  0.317127  1
  As  As5  1  0.001313  0.309747  0.311061  1
  As  As6  1  0.001313  0.690253  0.691567  1
  As  As7  1  0.311061  0.309747  0.001313  1
  As  As8  1  0.691567  0.690253  0.001313  1
  As  As9  1  0.689006  0.000000  0.689006  1
  Ru  Ru10  1  0.749209  0.500000  0.249209  1
  Ru  Ru11  1  0.494336  0.751953  0.246290  1
  Ru  Ru12  1  0.494336  0.248047  0.742383  1
  Ru  Ru13  1  0.742383  0.248047  0.494336  1
  Ru  Ru14  1  0.246290  0.751953  0.494336  1
  Ru  Ru15  1  0.249209  0.500000  0.749209  1
  Ru  Ru16  1  0.014518  0.000000  0.014518  1
