# generated using pymatgen
data_Ho2Ga2Co2C
_symmetry_space_group_name_H-M   'P 1'
_cell_length_a   5.72656160
_cell_length_b   5.72656183
_cell_length_c   6.89152140
_cell_angle_alpha   125.73380213
_cell_angle_beta   125.73380565
_cell_angle_gamma   40.13156881
_symmetry_Int_Tables_number   1
_chemical_formula_structural   Ho2Ga2Co2C
_chemical_formula_sum   'Ho2 Ga2 Co2 C1'
_cell_volume   114.08605337
_cell_formula_units_Z   1
loop_
 _symmetry_equiv_pos_site_id
 _symmetry_equiv_pos_as_xyz
  1  'x, y, z'
loop_
 _atom_site_type_symbol
 _atom_site_label
 _atom_site_symmetry_multiplicity
 _atom_site_fract_x
 _atom_site_fract_y
 _atom_site_fract_z
 _atom_site_occupancy
  Ho  Ho0  1  0.554206  0.554206  0.283386  1
  Ho  Ho1  1  0.445794  0.445794  0.716616  1
  Ga  Ga2  1  0.840298  0.840298  0.295420  1
  Ga  Ga3  1  0.159703  0.159703  0.704580  1
  Co  Co4  1  0.193238  0.193238  0.087289  1
  Co  Co5  1  0.806762  0.806762  0.912710  1
  C  C6  1  0.000000  0.000000  0.000000  1
