# generated using pymatgen
data_Ho6Tm2Cd2IrRu
_symmetry_space_group_name_H-M   'P 1'
_cell_length_a   9.57500709
_cell_length_b   9.57500798
_cell_length_c   9.60926700
_cell_angle_alpha   59.88157465
_cell_angle_beta   59.88157157
_cell_angle_gamma   59.75892563
_symmetry_Int_Tables_number   1
_chemical_formula_structural   Ho6Tm2Cd2IrRu
_chemical_formula_sum   'Ho12 Tm4 Cd4 Ir2 Ru2'
_cell_volume   620.69625188
_cell_formula_units_Z   2
loop_
 _symmetry_equiv_pos_site_id
 _symmetry_equiv_pos_as_xyz
  1  'x, y, z'
loop_
 _atom_site_type_symbol
 _atom_site_label
 _atom_site_symmetry_multiplicity
 _atom_site_fract_x
 _atom_site_fract_y
 _atom_site_fract_z
 _atom_site_occupancy
  Ho  Ho0  1  0.061723  0.438375  0.439882  1
  Ho  Ho1  1  0.438375  0.061723  0.060020  1
  Ho  Ho2  1  0.438375  0.061723  0.439882  1
  Ho  Ho3  1  0.061723  0.438375  0.060020  1
  Ho  Ho4  1  0.438318  0.438318  0.061682  1
  Ho  Ho5  1  0.059611  0.059611  0.440389  1
  Ho  Ho6  1  0.188135  0.810283  0.813041  1
  Ho  Ho7  1  0.810283  0.188135  0.188542  1
  Ho  Ho8  1  0.810283  0.188135  0.813041  1
  Ho  Ho9  1  0.188135  0.810283  0.188542  1
  Ho  Ho10  1  0.811408  0.811408  0.188592  1
  Ho  Ho11  1  0.188359  0.188359  0.811641  1
  Tm  Tm12  1  0.597613  0.597613  0.597813  1
  Tm  Tm13  1  0.597613  0.597613  0.206964  1
  Tm  Tm14  1  0.596264  0.210589  0.596574  1
  Tm  Tm15  1  0.210589  0.596264  0.596574  1
  Cd  Cd16  1  0.830166  0.830166  0.830217  1
  Cd  Cd17  1  0.830166  0.830166  0.509451  1
  Cd  Cd18  1  0.830518  0.508192  0.830644  1
  Cd  Cd19  1  0.508192  0.830518  0.830644  1
  Ir  Ir20  1  0.394341  0.825158  0.390250  1
  Ir  Ir21  1  0.825158  0.394341  0.390250  1
  Ru  Ru22  1  0.392329  0.392329  0.388361  1
  Ru  Ru23  1  0.392329  0.392329  0.826981  1
