# generated using pymatgen
data_Hf16FeNi3Rh3W
_symmetry_space_group_name_H-M   'P 1'
_cell_length_a   8.66631793
_cell_length_b   8.60782790
_cell_length_c   8.60782900
_cell_angle_alpha   59.99999960
_cell_angle_beta   60.22300875
_cell_angle_gamma   60.22300712
_symmetry_Int_Tables_number   1
_chemical_formula_structural   Hf16FeNi3Rh3W
_chemical_formula_sum   'Hf16 Fe1 Ni3 Rh3 W1'
_cell_volume   455.57777967
_cell_formula_units_Z   1
loop_
 _symmetry_equiv_pos_site_id
 _symmetry_equiv_pos_as_xyz
  1  'x, y, z'
loop_
 _atom_site_type_symbol
 _atom_site_label
 _atom_site_symmetry_multiplicity
 _atom_site_fract_x
 _atom_site_fract_y
 _atom_site_fract_z
 _atom_site_occupancy
  Hf  Hf0  1  0.662254  0.112582  0.112582  1
  Hf  Hf1  1  0.106403  0.689317  0.102139  1
  Hf  Hf2  1  0.106403  0.102139  0.689317  1
  Hf  Hf3  1  0.106403  0.102139  0.102139  1
  Hf  Hf4  1  0.317284  0.311917  0.685399  1
  Hf  Hf5  1  0.694852  0.678253  0.313448  1
  Hf  Hf6  1  0.317284  0.685399  0.311917  1
  Hf  Hf7  1  0.694852  0.313448  0.678253  1
  Hf  Hf8  1  0.694852  0.313448  0.313448  1
  Hf  Hf9  1  0.317284  0.685399  0.685399  1
  Hf  Hf10  1  0.947600  0.950307  0.551048  1
  Hf  Hf11  1  0.551193  0.560194  0.944307  1
  Hf  Hf12  1  0.947600  0.551048  0.950307  1
  Hf  Hf13  1  0.551193  0.944307  0.560194  1
  Hf  Hf14  1  0.551193  0.944307  0.944307  1
  Hf  Hf15  1  0.947600  0.551048  0.551048  1
  Fe  Fe16  1  0.324638  0.891788  0.891788  1
  Ni  Ni17  1  0.886277  0.317695  0.898015  1
  Ni  Ni18  1  0.886277  0.898015  0.317695  1
  Ni  Ni19  1  0.886277  0.898015  0.898015  1
  Rh  Rh20  1  0.332010  0.993142  0.337423  1
  Rh  Rh21  1  0.332010  0.337423  0.993142  1
  Rh  Rh22  1  0.332010  0.337423  0.337423  1
  W  W23  1  0.006249  0.331250  0.331250  1
