# generated using pymatgen
data_PrCr3InO12
_symmetry_space_group_name_H-M   'P 1'
_cell_length_a   9.43165824
_cell_length_b   9.43165741
_cell_length_c   9.95239500
_cell_angle_alpha   118.28374902
_cell_angle_beta   61.71623300
_cell_angle_gamma   120.00000319
_symmetry_Int_Tables_number   1
_chemical_formula_structural   PrCr3InO12
_chemical_formula_sum   'Pr2 Cr6 In2 O24'
_cell_volume   641.77163231
_cell_formula_units_Z   2
loop_
 _symmetry_equiv_pos_site_id
 _symmetry_equiv_pos_as_xyz
  1  'x, y, z'
loop_
 _atom_site_type_symbol
 _atom_site_label
 _atom_site_symmetry_multiplicity
 _atom_site_fract_x
 _atom_site_fract_y
 _atom_site_fract_z
 _atom_site_occupancy
  Pr  Pr0  1  0.642607  0.357394  0.072183  1
  Pr  Pr1  1  0.860005  0.139996  0.419986  1
  Cr  Cr2  1  0.249430  0.021598  0.249702  1
  Cr  Cr3  1  0.978401  0.477534  0.249702  1
  Cr  Cr4  1  0.522466  0.750569  0.249702  1
  Cr  Cr5  1  0.450325  0.250139  0.750522  1
  Cr  Cr6  1  0.049293  0.549675  0.750522  1
  Cr  Cr7  1  0.749861  0.950707  0.750522  1
  In  In8  1  0.141478  0.858523  0.575567  1
  In  In9  1  0.353011  0.646990  0.940966  1
  O  O10  1  0.162206  0.493117  0.099170  1
  O  O11  1  0.506882  0.768258  0.099170  1
  O  O12  1  0.231742  0.837793  0.099170  1
  O  O13  1  0.452742  0.156026  0.217077  1
  O  O14  1  0.843974  0.513793  0.217077  1
  O  O15  1  0.486207  0.547258  0.217077  1
  O  O16  1  0.130535  0.110271  0.257737  1
  O  O17  1  0.889728  0.278000  0.257737  1
  O  O18  1  0.722000  0.869465  0.257737  1
  O  O19  1  0.178132  0.986318  0.423290  1
  O  O20  1  0.013683  0.615105  0.423290  1
  O  O21  1  0.384895  0.821868  0.423290  1
  O  O22  1  0.606927  0.210005  0.582287  1
  O  O23  1  0.020792  0.393073  0.582287  1
  O  O24  1  0.789994  0.979207  0.582287  1
  O  O25  1  0.260291  0.106836  0.726500  1
  O  O26  1  0.120043  0.739709  0.726500  1
  O  O27  1  0.893166  0.879957  0.726500  1
  O  O28  1  0.462154  0.449339  0.795890  1
  O  O29  1  0.191294  0.537846  0.795890  1
  O  O30  1  0.550660  0.808704  0.795890  1
  O  O31  1  0.765342  0.138708  0.894925  1
  O  O32  1  0.478441  0.234658  0.894925  1
  O  O33  1  0.861292  0.521560  0.894925  1
