# generated using pymatgen
data_Er3Tm5Re(B8Ru)3
_symmetry_space_group_name_H-M   'P 1'
_cell_length_a   3.63122100
_cell_length_b   9.07880804
_cell_length_c   11.45848600
_cell_angle_alpha   90.12027881
_cell_angle_beta   90.00000000
_cell_angle_gamma   90.00000000
_symmetry_Int_Tables_number   1
_chemical_formula_structural   Er3Tm5Re(B8Ru)3
_chemical_formula_sum   'Er3 Tm5 Re1 B24 Ru3'
_cell_volume   377.75289086
_cell_formula_units_Z   1
loop_
 _symmetry_equiv_pos_site_id
 _symmetry_equiv_pos_as_xyz
  1  'x, y, z'
loop_
 _atom_site_type_symbol
 _atom_site_label
 _atom_site_symmetry_multiplicity
 _atom_site_fract_x
 _atom_site_fract_y
 _atom_site_fract_z
 _atom_site_occupancy
  Er  Er0  1  0.000000  0.322275  0.415169  1
  Er  Er1  1  0.000000  0.680661  0.588042  1
  Er  Er2  1  0.000000  0.822257  0.083433  1
  Tm  Tm3  1  0.000000  0.176533  0.913439  1
  Tm  Tm4  1  0.000000  0.943280  0.371297  1
  Tm  Tm5  1  0.000000  0.056280  0.627654  1
  Tm  Tm6  1  0.000000  0.442713  0.128407  1
  Tm  Tm7  1  0.000000  0.555897  0.872520  1
  Re  Re8  1  0.000000  0.862415  0.821057  1
  B  B9  1  0.500000  0.554032  0.433523  1
  B  B10  1  0.500000  0.446252  0.566774  1
  B  B11  1  0.500000  0.053828  0.067102  1
  B  B12  1  0.500000  0.947332  0.933568  1
  B  B13  1  0.500000  0.749051  0.419614  1
  B  B14  1  0.500000  0.251249  0.580148  1
  B  B15  1  0.500000  0.248698  0.080409  1
  B  B16  1  0.500000  0.750580  0.919558  1
  B  B17  1  0.500000  0.790944  0.265473  1
  B  B18  1  0.500000  0.208666  0.733661  1
  B  B19  1  0.500000  0.291364  0.234560  1
  B  B20  1  0.500000  0.707744  0.765569  1
  B  B21  1  0.500000  0.630615  0.184783  1
  B  B22  1  0.500000  0.368547  0.814963  1
  B  B23  1  0.500000  0.131390  0.315347  1
  B  B24  1  0.500000  0.869179  0.684905  1
  B  B25  1  0.500000  0.982804  0.212592  1
  B  B26  1  0.500000  0.018767  0.787276  1
  B  B27  1  0.500000  0.482600  0.287867  1
  B  B28  1  0.500000  0.517281  0.712701  1
  B  B29  1  0.500000  0.604161  0.029585  1
  B  B30  1  0.500000  0.393530  0.971160  1
  B  B31  1  0.500000  0.106111  0.470264  1
  B  B32  1  0.500000  0.894750  0.528395  1
  Ru  Ru33  1  0.000000  0.637868  0.320889  1
  Ru  Ru34  1  0.000000  0.362188  0.678727  1
  Ru  Ru35  1  0.000000  0.138157  0.179567  1
