# generated using pymatgen
data_YbHo(Si7Ir3)2
_symmetry_space_group_name_H-M   'P 1'
_cell_length_a   8.02097538
_cell_length_b   8.02097531
_cell_length_c   8.02097502
_cell_angle_alpha   56.77518296
_cell_angle_beta   56.77518286
_cell_angle_gamma   56.77518425
_symmetry_Int_Tables_number   1
_chemical_formula_structural   YbHo(Si7Ir3)2
_chemical_formula_sum   'Yb1 Ho1 Si14 Ir6'
_cell_volume   337.73157264
_cell_formula_units_Z   1
loop_
 _symmetry_equiv_pos_site_id
 _symmetry_equiv_pos_as_xyz
  1  'x, y, z'
loop_
 _atom_site_type_symbol
 _atom_site_label
 _atom_site_symmetry_multiplicity
 _atom_site_fract_x
 _atom_site_fract_y
 _atom_site_fract_z
 _atom_site_occupancy
  Yb  Yb0  1  0.000000  0.000000  0.000000  1
  Ho  Ho1  1  0.500000  0.500000  0.500000  1
  Si  Si2  1  0.749999  0.749999  0.749999  1
  Si  Si3  1  0.250001  0.250001  0.250001  1
  Si  Si4  1  0.851579  0.065239  0.673079  1
  Si  Si5  1  0.673079  0.851579  0.065239  1
  Si  Si6  1  0.065239  0.673079  0.851579  1
  Si  Si7  1  0.650408  0.827829  0.434422  1
  Si  Si8  1  0.434422  0.650408  0.827829  1
  Si  Si9  1  0.827829  0.434422  0.650408  1
  Si  Si10  1  0.172171  0.565578  0.349592  1
  Si  Si11  1  0.565578  0.349592  0.172171  1
  Si  Si12  1  0.349592  0.172171  0.565578  1
  Si  Si13  1  0.934761  0.326921  0.148421  1
  Si  Si14  1  0.326921  0.148421  0.934761  1
  Si  Si15  1  0.148421  0.934761  0.326921  1
  Ir  Ir16  1  0.072492  0.430664  0.748233  1
  Ir  Ir17  1  0.251767  0.927508  0.569336  1
  Ir  Ir18  1  0.569336  0.251767  0.927508  1
  Ir  Ir19  1  0.927508  0.569336  0.251767  1
  Ir  Ir20  1  0.430664  0.748233  0.072492  1
  Ir  Ir21  1  0.748233  0.072492  0.430664  1
