# generated using pymatgen
data_Sm8Sc12Ga15Sb
_symmetry_space_group_name_H-M   'P 1'
_cell_length_a   7.39298700
_cell_length_b   7.63377143
_cell_length_c   14.65526436
_cell_angle_alpha   90.14002627
_cell_angle_beta   89.74213809
_cell_angle_gamma   89.91907560
_symmetry_Int_Tables_number   1
_chemical_formula_structural   Sm8Sc12Ga15Sb
_chemical_formula_sum   'Sm8 Sc12 Ga15 Sb1'
_cell_volume   827.07828061
_cell_formula_units_Z   1
loop_
 _symmetry_equiv_pos_site_id
 _symmetry_equiv_pos_as_xyz
  1  'x, y, z'
loop_
 _atom_site_type_symbol
 _atom_site_label
 _atom_site_symmetry_multiplicity
 _atom_site_fract_x
 _atom_site_fract_y
 _atom_site_fract_z
 _atom_site_occupancy
  Sm  Sm0  1  0.012412  0.177372  0.095751  1
  Sm  Sm1  1  0.988480  0.824147  0.904901  1
  Sm  Sm2  1  0.488526  0.675076  0.905349  1
  Sm  Sm3  1  0.987463  0.828544  0.597020  1
  Sm  Sm4  1  0.512288  0.323755  0.095471  1
  Sm  Sm5  1  0.006340  0.172005  0.401025  1
  Sm  Sm6  1  0.511612  0.319559  0.401541  1
  Sm  Sm7  1  0.500661  0.682174  0.598913  1
  Sc  Sc8  1  0.165109  0.500708  0.754524  1
  Sc  Sc9  1  0.835678  0.499942  0.248828  1
  Sc  Sc10  1  0.335380  0.001768  0.249142  1
  Sc  Sc11  1  0.666335  0.000765  0.752482  1
  Sc  Sc12  1  0.339742  0.160195  0.628525  1
  Sc  Sc13  1  0.664571  0.831404  0.373231  1
  Sc  Sc14  1  0.165357  0.680269  0.371503  1
  Sc  Sc15  1  0.669458  0.825720  0.123141  1
  Sc  Sc16  1  0.824952  0.325042  0.625698  1
  Sc  Sc17  1  0.329046  0.173754  0.876383  1
  Sc  Sc18  1  0.831780  0.326125  0.877109  1
  Sc  Sc19  1  0.169642  0.673542  0.123539  1
  Ga  Ga20  1  0.034165  0.121190  0.749244  1
  Ga  Ga21  1  0.964883  0.879969  0.247346  1
  Ga  Ga22  1  0.466115  0.620275  0.250109  1
  Ga  Ga23  1  0.533944  0.378917  0.751601  1
  Ga  Ga24  1  0.287237  0.872423  0.751314  1
  Ga  Ga25  1  0.712237  0.123195  0.248446  1
  Ga  Ga26  1  0.211449  0.377176  0.251024  1
  Ga  Ga27  1  0.790220  0.623636  0.750088  1
  Ga  Ga28  1  0.827077  0.540302  0.457045  1
  Ga  Ga29  1  0.339816  0.962323  0.460279  1
  Ga  Ga30  1  0.842141  0.536061  0.040757  1
  Ga  Ga31  1  0.660043  0.039051  0.538556  1
  Ga  Ga32  1  0.157522  0.463776  0.959945  1
  Ga  Ga33  1  0.656616  0.037406  0.959440  1
  Ga  Ga34  1  0.343094  0.962772  0.040808  1
  Sb  Sb35  1  0.168607  0.459662  0.539921  1
