# generated using pymatgen
data_Ho19Er(Sn5Bi3)2
_symmetry_space_group_name_H-M   'P 1'
_cell_length_a   8.17171650
_cell_length_b   8.18347854
_cell_length_c   15.53777300
_cell_angle_alpha   89.97022306
_cell_angle_beta   89.69935362
_cell_angle_gamma   90.26469688
_symmetry_Int_Tables_number   1
_chemical_formula_structural   Ho19Er(Sn5Bi3)2
_chemical_formula_sum   'Ho19 Er1 Sn10 Bi6'
_cell_volume   1039.03298233
_cell_formula_units_Z   1
loop_
 _symmetry_equiv_pos_site_id
 _symmetry_equiv_pos_as_xyz
  1  'x, y, z'
loop_
 _atom_site_type_symbol
 _atom_site_label
 _atom_site_symmetry_multiplicity
 _atom_site_fract_x
 _atom_site_fract_y
 _atom_site_fract_z
 _atom_site_occupancy
  Ho  Ho0  1  0.061054  0.165705  0.390597  1
  Ho  Ho1  1  0.394546  0.839221  0.122009  1
  Ho  Ho2  1  0.115287  0.334731  0.623415  1
  Ho  Ho3  1  0.445871  0.673278  0.888985  1
  Ho  Ho4  1  0.886481  0.665541  0.123155  1
  Ho  Ho5  1  0.109999  0.339024  0.876634  1
  Ho  Ho6  1  0.221703  0.498279  0.249779  1
  Ho  Ho7  1  0.721637  0.998947  0.246730  1
  Ho  Ho8  1  0.442367  0.676361  0.611063  1
  Ho  Ho9  1  0.278548  0.001143  0.746455  1
  Ho  Ho10  1  0.607787  0.160860  0.622521  1
  Ho  Ho11  1  0.778305  0.501612  0.749680  1
  Ho  Ho12  1  0.887585  0.660459  0.376236  1
  Ho  Ho13  1  0.050860  0.164765  0.110164  1
  Ho  Ho14  1  0.937088  0.834910  0.889964  1
  Ho  Ho15  1  0.612624  0.158491  0.879072  1
  Ho  Ho16  1  0.559946  0.325050  0.111713  1
  Ho  Ho17  1  0.386034  0.841403  0.378665  1
  Ho  Ho18  1  0.951867  0.834838  0.609231  1
  Er  Er19  1  0.550522  0.325039  0.390269  1
  Sn  Sn20  1  0.641015  0.857337  0.749439  1
  Sn  Sn21  1  0.860734  0.354784  0.251409  1
  Sn  Sn22  1  0.584488  0.626308  0.251468  1
  Sn  Sn23  1  0.415378  0.373277  0.751612  1
  Sn  Sn24  1  0.138845  0.645046  0.750881  1
  Sn  Sn25  1  0.912712  0.129165  0.750007  1
  Sn  Sn26  1  0.272525  0.023242  0.544162  1
  Sn  Sn27  1  0.729902  0.979521  0.044570  1
  Sn  Sn28  1  0.359513  0.142887  0.249889  1
  Sn  Sn29  1  0.087532  0.870568  0.249919  1
  Bi  Bi30  1  0.768894  0.481067  0.544218  1
  Bi  Bi31  1  0.730125  0.978817  0.455273  1
  Bi  Bi32  1  0.228620  0.520719  0.455884  1
  Bi  Bi33  1  0.268161  0.019117  0.954848  1
  Bi  Bi34  1  0.769390  0.481596  0.955557  1
  Bi  Bi35  1  0.232056  0.516892  0.044530  1
