# generated using pymatgen
data_Tm6Mn2Fe13(CoP4)3
_symmetry_space_group_name_H-M   'P 1'
_cell_length_a   3.70146000
_cell_length_b   10.48528343
_cell_length_c   12.12141479
_cell_angle_alpha   89.92212497
_cell_angle_beta   90.00000000
_cell_angle_gamma   90.00000000
_symmetry_Int_Tables_number   1
_chemical_formula_structural   Tm6Mn2Fe13(CoP4)3
_chemical_formula_sum   'Tm6 Mn2 Fe13 Co3 P12'
_cell_volume   470.44206396
_cell_formula_units_Z   1
loop_
 _symmetry_equiv_pos_site_id
 _symmetry_equiv_pos_as_xyz
  1  'x, y, z'
loop_
 _atom_site_type_symbol
 _atom_site_label
 _atom_site_symmetry_multiplicity
 _atom_site_fract_x
 _atom_site_fract_y
 _atom_site_fract_z
 _atom_site_occupancy
  Tm  Tm0  1  0.000000  0.499279  0.525995  1
  Tm  Tm1  1  0.500000  0.999896  0.473595  1
  Tm  Tm2  1  0.500000  0.821013  0.207101  1
  Tm  Tm3  1  0.500000  0.179037  0.206959  1
  Tm  Tm4  1  0.000000  0.678856  0.793054  1
  Tm  Tm5  1  0.000000  0.321142  0.793489  1
  Mn  Mn6  1  0.500000  0.499531  0.152890  1
  Mn  Mn7  1  0.000000  0.000175  0.848625  1
  Fe  Fe8  1  0.000000  0.500813  0.988527  1
  Fe  Fe9  1  0.500000  0.999580  0.011734  1
  Fe  Fe10  1  0.500000  0.328197  0.996829  1
  Fe  Fe11  1  0.500000  0.672523  0.997111  1
  Fe  Fe12  1  0.000000  0.171417  0.003092  1
  Fe  Fe13  1  0.000000  0.826752  0.003382  1
  Fe  Fe14  1  0.500000  0.299156  0.429227  1
  Fe  Fe15  1  0.500000  0.701973  0.430433  1
  Fe  Fe16  1  0.000000  0.201361  0.569904  1
  Fe  Fe17  1  0.000000  0.798847  0.570116  1
  Fe  Fe18  1  0.500000  0.881872  0.707700  1
  Fe  Fe19  1  0.500000  0.118266  0.707945  1
  Fe  Fe20  1  0.000000  0.618377  0.292920  1
  Co  Co21  1  0.500000  0.500036  0.699816  1
  Co  Co22  1  0.000000  0.000477  0.300063  1
  Co  Co23  1  0.000000  0.380354  0.290308  1
  P  P24  1  0.500000  0.500012  0.884251  1
  P  P25  1  0.000000  0.999818  0.115780  1
  P  P26  1  0.500000  0.501986  0.344315  1
  P  P27  1  0.000000  0.000191  0.655240  1
  P  P28  1  0.500000  0.307335  0.614871  1
  P  P29  1  0.500000  0.692636  0.615051  1
  P  P30  1  0.000000  0.192560  0.385552  1
  P  P31  1  0.000000  0.807331  0.385074  1
  P  P32  1  0.500000  0.848068  0.888502  1
  P  P33  1  0.500000  0.152502  0.889185  1
  P  P34  1  0.000000  0.650860  0.112195  1
  P  P35  1  0.000000  0.347771  0.109166  1
