# generated using pymatgen
data_Tb2Dy2ScOs7
_symmetry_space_group_name_H-M   'P 1'
_cell_length_a   5.40451700
_cell_length_b   5.40451860
_cell_length_c   8.92007400
_cell_angle_alpha   90.00000000
_cell_angle_beta   90.00000000
_cell_angle_gamma   120.00000856
_symmetry_Int_Tables_number   1
_chemical_formula_structural   Tb2Dy2ScOs7
_chemical_formula_sum   'Tb2 Dy2 Sc1 Os7'
_cell_volume   225.63837048
_cell_formula_units_Z   1
loop_
 _symmetry_equiv_pos_site_id
 _symmetry_equiv_pos_as_xyz
  1  'x, y, z'
loop_
 _atom_site_type_symbol
 _atom_site_label
 _atom_site_symmetry_multiplicity
 _atom_site_fract_x
 _atom_site_fract_y
 _atom_site_fract_z
 _atom_site_occupancy
  Tb  Tb0  1  0.333333  0.666667  0.422692  1
  Tb  Tb1  1  0.666667  0.333333  0.577308  1
  Dy  Dy2  1  0.666667  0.333333  0.939822  1
  Dy  Dy3  1  0.333333  0.666667  0.060178  1
  Sc  Sc4  1  0.000000  0.000000  0.500000  1
  Os  Os5  1  0.000000  0.000000  0.000000  1
  Os  Os6  1  0.827469  0.172531  0.244637  1
  Os  Os7  1  0.827469  0.654935  0.244637  1
  Os  Os8  1  0.345065  0.172531  0.244637  1
  Os  Os9  1  0.172531  0.827469  0.755363  1
  Os  Os10  1  0.172531  0.345065  0.755363  1
  Os  Os11  1  0.654935  0.827469  0.755363  1
