# generated using pymatgen
data_Tb3Nd(ZnIr)4
_symmetry_space_group_name_H-M   'P 1'
_cell_length_a   4.07798300
_cell_length_b   7.08690546
_cell_length_c   8.19483611
_cell_angle_alpha   89.71002288
_cell_angle_beta   90.00000000
_cell_angle_gamma   90.00000000
_symmetry_Int_Tables_number   1
_chemical_formula_structural   Tb3Nd(ZnIr)4
_chemical_formula_sum   'Tb3 Nd1 Zn4 Ir4'
_cell_volume   236.83002479
_cell_formula_units_Z   1
loop_
 _symmetry_equiv_pos_site_id
 _symmetry_equiv_pos_as_xyz
  1  'x, y, z'
loop_
 _atom_site_type_symbol
 _atom_site_label
 _atom_site_symmetry_multiplicity
 _atom_site_fract_x
 _atom_site_fract_y
 _atom_site_fract_z
 _atom_site_occupancy
  Tb  Tb0  1  0.750000  0.461172  0.815273  1
  Tb  Tb1  1  0.750000  0.962570  0.682476  1
  Tb  Tb2  1  0.250000  0.038550  0.318960  1
  Nd  Nd3  1  0.250000  0.536516  0.183969  1
  Zn  Zn4  1  0.250000  0.638135  0.566947  1
  Zn  Zn5  1  0.750000  0.361673  0.437243  1
  Zn  Zn6  1  0.750000  0.865530  0.062989  1
  Zn  Zn7  1  0.250000  0.133504  0.933165  1
  Ir  Ir8  1  0.250000  0.758746  0.873636  1
  Ir  Ir9  1  0.750000  0.236598  0.121633  1
  Ir  Ir10  1  0.750000  0.747598  0.380480  1
  Ir  Ir11  1  0.250000  0.259407  0.623231  1
