# generated using pymatgen
data_Ho5Er3(TcBr4)2
_symmetry_space_group_name_H-M   'P 1'
_cell_length_a   8.98362385
_cell_length_b   8.97233714
_cell_length_c   6.56078897
_cell_angle_alpha   89.44229289
_cell_angle_beta   89.52242071
_cell_angle_gamma   89.28808996
_symmetry_Int_Tables_number   1
_chemical_formula_structural   Ho5Er3(TcBr4)2
_chemical_formula_sum   'Ho5 Er3 Tc2 Br8'
_cell_volume   528.74278778
_cell_formula_units_Z   1
loop_
 _symmetry_equiv_pos_site_id
 _symmetry_equiv_pos_as_xyz
  1  'x, y, z'
loop_
 _atom_site_type_symbol
 _atom_site_label
 _atom_site_symmetry_multiplicity
 _atom_site_fract_x
 _atom_site_fract_y
 _atom_site_fract_z
 _atom_site_occupancy
  Ho  Ho0  1  0.247076  0.901733  0.010928  1
  Ho  Ho1  1  0.753244  0.098593  0.988778  1
  Ho  Ho2  1  0.098269  0.752943  0.489072  1
  Ho  Ho3  1  0.901881  0.247231  0.510756  1
  Ho  Ho4  1  0.753816  0.903364  0.507312  1
  Er  Er5  1  0.244837  0.096254  0.492234  1
  Er  Er6  1  0.096304  0.245031  0.992072  1
  Er  Er7  1  0.904225  0.755132  0.007597  1
  Tc  Tc8  1  0.994820  0.005453  0.249831  1
  Tc  Tc9  1  0.005410  0.994720  0.749884  1
  Br  Br10  1  0.417659  0.819158  0.411137  1
  Br  Br11  1  0.581559  0.181269  0.589511  1
  Br  Br12  1  0.180235  0.581467  0.089399  1
  Br  Br13  1  0.819925  0.418584  0.910125  1
  Br  Br14  1  0.411947  0.189120  0.092409  1
  Br  Br15  1  0.588157  0.810557  0.909665  1
  Br  Br16  1  0.811441  0.587257  0.406917  1
  Br  Br17  1  0.189195  0.412136  0.592372  1
