# generated using pymatgen
data_Sr3Tc2(P3Os2)2
_symmetry_space_group_name_H-M   'P 1'
_cell_length_a   8.56374271
_cell_length_b   8.56882247
_cell_length_c   8.56882269
_cell_angle_alpha   152.21741706
_cell_angle_beta   97.52122025
_cell_angle_gamma   89.10914098
_symmetry_Int_Tables_number   1
_chemical_formula_structural   Sr3Tc2(P3Os2)2
_chemical_formula_sum   'Sr3 Tc2 P6 Os4'
_cell_volume   283.64785255
_cell_formula_units_Z   1
loop_
 _symmetry_equiv_pos_site_id
 _symmetry_equiv_pos_as_xyz
  1  'x, y, z'
loop_
 _atom_site_type_symbol
 _atom_site_label
 _atom_site_symmetry_multiplicity
 _atom_site_fract_x
 _atom_site_fract_y
 _atom_site_fract_z
 _atom_site_occupancy
  Sr  Sr0  1  0.335310  0.334835  0.000475  1
  Sr  Sr1  1  0.667897  0.666904  0.000993  1
  Sr  Sr2  1  0.998881  0.998345  0.000536  1
  Tc  Tc3  1  0.584155  0.833534  0.750620  1
  Tc  Tc4  1  0.251038  0.499993  0.751044  1
  P  P5  1  0.312186  0.666672  0.645513  1
  P  P6  1  0.683184  0.333036  0.350148  1
  P  P7  1  0.980674  0.332217  0.648457  1
  P  P8  1  0.350937  0.000340  0.350597  1
  P  P9  1  0.021868  0.666456  0.355411  1
  P  P10  1  0.649239  0.001213  0.648027  1
  Os  Os11  1  0.749969  0.501187  0.248783  1
  Os  Os12  1  0.081373  0.832078  0.249295  1
  Os  Os13  1  0.411537  0.166570  0.244966  1
  Os  Os14  1  0.921753  0.166618  0.755136  1
