# generated using pymatgen
data_Zr3SiRu(PtRh)2
_symmetry_space_group_name_H-M   'P 1'
_cell_length_a   7.30749595
_cell_length_b   7.32222177
_cell_length_c   3.30314000
_cell_angle_alpha   90.00000000
_cell_angle_beta   90.00000000
_cell_angle_gamma   120.06667824
_symmetry_Int_Tables_number   1
_chemical_formula_structural   Zr3SiRu(PtRh)2
_chemical_formula_sum   'Zr3 Si1 Ru1 Pt2 Rh2'
_cell_volume   152.95965039
_cell_formula_units_Z   1
loop_
 _symmetry_equiv_pos_site_id
 _symmetry_equiv_pos_as_xyz
  1  'x, y, z'
loop_
 _atom_site_type_symbol
 _atom_site_label
 _atom_site_symmetry_multiplicity
 _atom_site_fract_x
 _atom_site_fract_y
 _atom_site_fract_z
 _atom_site_occupancy
  Zr  Zr0  1  0.389771  0.395449  0.500000  1
  Zr  Zr1  1  0.610229  0.005678  0.500000  1
  Zr  Zr2  1  0.000000  0.596515  0.500000  1
  Si  Si3  1  0.000000  0.997240  0.500000  1
  Ru  Ru4  1  0.000000  0.236952  0.000000  1
  Pt  Pt5  1  0.663453  0.335287  0.000000  1
  Pt  Pt6  1  0.336547  0.671835  0.000000  1
  Rh  Rh7  1  0.235733  0.998389  0.000000  1
  Rh  Rh8  1  0.764267  0.762656  0.000000  1
