# generated using pymatgen
data_Tl2GaF5
_symmetry_space_group_name_H-M   'P 1'
_cell_length_a   5.76885000
_cell_length_b   7.54350700
_cell_length_c   11.93661100
_cell_angle_alpha   90.00000000
_cell_angle_beta   90.00000000
_cell_angle_gamma   90.00000000
_symmetry_Int_Tables_number   1
_chemical_formula_structural   Tl2GaF5
_chemical_formula_sum   'Tl8 Ga4 F20'
_cell_volume   519.44980233
_cell_formula_units_Z   4
loop_
 _symmetry_equiv_pos_site_id
 _symmetry_equiv_pos_as_xyz
  1  'x, y, z'
loop_
 _atom_site_type_symbol
 _atom_site_label
 _atom_site_symmetry_multiplicity
 _atom_site_fract_x
 _atom_site_fract_y
 _atom_site_fract_z
 _atom_site_occupancy
  Tl  Tl0  1  0.250000  0.987237  0.773641  1
  Tl  Tl1  1  0.750000  0.012763  0.226359  1
  Tl  Tl2  1  0.250000  0.487237  0.726359  1
  Tl  Tl3  1  0.750000  0.512763  0.273641  1
  Tl  Tl4  1  0.250000  0.652512  0.084733  1
  Tl  Tl5  1  0.750000  0.347488  0.915267  1
  Tl  Tl6  1  0.250000  0.152512  0.415267  1
  Tl  Tl7  1  0.750000  0.847488  0.584733  1
  Ga  Ga8  1  0.250000  0.162354  0.062983  1
  Ga  Ga9  1  0.750000  0.837646  0.937017  1
  Ga  Ga10  1  0.250000  0.662354  0.437017  1
  Ga  Ga11  1  0.750000  0.337646  0.562983  1
  F  F12  1  0.990456  0.688936  0.885083  1
  F  F13  1  0.490456  0.311064  0.114917  1
  F  F14  1  0.509544  0.188936  0.614917  1
  F  F15  1  0.009544  0.811064  0.385083  1
  F  F16  1  0.009544  0.311064  0.114917  1
  F  F17  1  0.509544  0.688936  0.885083  1
  F  F18  1  0.490456  0.811064  0.385083  1
  F  F19  1  0.990456  0.188936  0.614917  1
  F  F20  1  0.250000  0.274172  0.920323  1
  F  F21  1  0.750000  0.725828  0.079677  1
  F  F22  1  0.250000  0.774172  0.579677  1
  F  F23  1  0.750000  0.225828  0.420323  1
  F  F24  1  0.000000  0.000000  0.000000  1
  F  F25  1  0.500000  0.000000  0.000000  1
  F  F26  1  0.500000  0.500000  0.500000  1
  F  F27  1  0.000000  0.500000  0.500000  1
  F  F28  1  0.750000  0.484062  0.689091  1
  F  F29  1  0.250000  0.515938  0.310909  1
  F  F30  1  0.750000  0.984062  0.810909  1
  F  F31  1  0.250000  0.015938  0.189091  1
