# generated using pymatgen
data_La2Tm3U(Co3P2)6
_symmetry_space_group_name_H-M   'P 1'
_cell_length_a   3.72100900
_cell_length_b   10.58593652
_cell_length_c   12.19185270
_cell_angle_alpha   90.06093035
_cell_angle_beta   90.00000000
_cell_angle_gamma   90.00000000
_symmetry_Int_Tables_number   1
_chemical_formula_structural   La2Tm3U(Co3P2)6
_chemical_formula_sum   'La2 Tm3 U1 Co18 P12'
_cell_volume   480.24125697
_cell_formula_units_Z   1
loop_
 _symmetry_equiv_pos_site_id
 _symmetry_equiv_pos_as_xyz
  1  'x, y, z'
loop_
 _atom_site_type_symbol
 _atom_site_label
 _atom_site_symmetry_multiplicity
 _atom_site_fract_x
 _atom_site_fract_y
 _atom_site_fract_z
 _atom_site_occupancy
  La  La0  1  0.500000  0.000430  0.474334  1
  La  La1  1  0.000000  0.682544  0.793931  1
  Tm  Tm2  1  0.500000  0.816097  0.203775  1
  Tm  Tm3  1  0.500000  0.184725  0.205982  1
  Tm  Tm4  1  0.000000  0.314136  0.795599  1
  U  U5  1  0.000000  0.497926  0.527483  1
  Co  Co6  1  0.500000  0.498511  0.159384  1
  Co  Co7  1  0.000000  0.002029  0.844356  1
  Co  Co8  1  0.500000  0.497038  0.691845  1
  Co  Co9  1  0.000000  0.000864  0.294054  1
  Co  Co10  1  0.000000  0.496930  0.988267  1
  Co  Co11  1  0.500000  0.002746  0.017159  1
  Co  Co12  1  0.500000  0.331629  0.995929  1
  Co  Co13  1  0.500000  0.665198  0.997765  1
  Co  Co14  1  0.000000  0.167362  0.006828  1
  Co  Co15  1  0.000000  0.835408  0.008402  1
  Co  Co16  1  0.500000  0.303087  0.430586  1
  Co  Co17  1  0.500000  0.697635  0.426359  1
  Co  Co18  1  0.000000  0.205557  0.570155  1
  Co  Co19  1  0.000000  0.795434  0.565287  1
  Co  Co20  1  0.500000  0.882269  0.710715  1
  Co  Co21  1  0.500000  0.122334  0.714009  1
  Co  Co22  1  0.000000  0.619135  0.287986  1
  Co  Co23  1  0.000000  0.380764  0.289995  1
  P  P24  1  0.500000  0.494270  0.882690  1
  P  P25  1  0.000000  0.001713  0.118903  1
  P  P26  1  0.500000  0.500193  0.345095  1
  P  P27  1  0.000000  0.000307  0.661136  1
  P  P28  1  0.500000  0.305378  0.616411  1
  P  P29  1  0.500000  0.693565  0.608479  1
  P  P30  1  0.000000  0.194825  0.381025  1
  P  P31  1  0.000000  0.806236  0.377936  1
  P  P32  1  0.500000  0.851283  0.898384  1
  P  P33  1  0.500000  0.153615  0.895161  1
  P  P34  1  0.000000  0.653010  0.106255  1
  P  P35  1  0.000000  0.345813  0.108340  1
