# generated using pymatgen
data_RbCuNiF5
_symmetry_space_group_name_H-M   'P 1'
_cell_length_a   7.15100404
_cell_length_b   7.15100353
_cell_length_c   7.15100348
_cell_angle_alpha   127.48827516
_cell_angle_beta   117.75407143
_cell_angle_gamma   85.74034873
_symmetry_Int_Tables_number   1
_chemical_formula_structural   RbCuNiF5
_chemical_formula_sum   'Rb2 Cu2 Ni2 F10'
_cell_volume   245.12450656
_cell_formula_units_Z   2
loop_
 _symmetry_equiv_pos_site_id
 _symmetry_equiv_pos_as_xyz
  1  'x, y, z'
loop_
 _atom_site_type_symbol
 _atom_site_label
 _atom_site_symmetry_multiplicity
 _atom_site_fract_x
 _atom_site_fract_y
 _atom_site_fract_z
 _atom_site_occupancy
  Rb  Rb0  1  0.868764  0.618764  0.250000  1
  Rb  Rb1  1  0.131236  0.381236  0.750000  1
  Cu  Cu2  1  0.500000  0.000000  0.000000  1
  Cu  Cu3  1  0.500000  0.500000  0.500000  1
  Ni  Ni4  1  0.000000  0.000000  0.000000  1
  Ni  Ni5  1  0.500000  0.000000  0.500000  1
  F  F6  1  0.444522  0.640849  0.332287  1
  F  F7  1  0.555478  0.887766  0.196327  1
  F  F8  1  0.191438  0.359151  0.303673  1
  F  F9  1  0.808562  0.112234  0.167713  1
  F  F10  1  0.555478  0.359151  0.667713  1
  F  F11  1  0.444522  0.112234  0.803673  1
  F  F12  1  0.828265  0.078265  0.750000  1
  F  F13  1  0.171735  0.921735  0.250000  1
  F  F14  1  0.191438  0.887766  0.832287  1
  F  F15  1  0.808562  0.640849  0.696327  1
