# generated using pymatgen
data_Nd12Si(RuBr4)3
_symmetry_space_group_name_H-M   'P 1'
_cell_length_a   10.58214056
_cell_length_b   10.58214011
_cell_length_c   10.24681200
_cell_angle_alpha   108.83056370
_cell_angle_beta   108.83056286
_cell_angle_gamma   110.10420818
_symmetry_Int_Tables_number   1
_chemical_formula_structural   Nd12Si(RuBr4)3
_chemical_formula_sum   'Nd12 Si1 Ru3 Br12'
_cell_volume   890.19832241
_cell_formula_units_Z   1
loop_
 _symmetry_equiv_pos_site_id
 _symmetry_equiv_pos_as_xyz
  1  'x, y, z'
loop_
 _atom_site_type_symbol
 _atom_site_label
 _atom_site_symmetry_multiplicity
 _atom_site_fract_x
 _atom_site_fract_y
 _atom_site_fract_z
 _atom_site_occupancy
  Nd  Nd0  1  0.258657  0.734674  0.230618  1
  Nd  Nd1  1  0.476017  0.734674  0.004056  1
  Nd  Nd2  1  0.235290  0.470579  0.485290  1
  Nd  Nd3  1  0.018177  0.036355  0.268177  1
  Nd  Nd4  1  0.235290  0.264710  0.750000  1
  Nd  Nd5  1  0.018177  0.481823  0.750000  1
  Nd  Nd6  1  0.476017  0.241343  0.471960  1
  Nd  Nd7  1  0.258657  0.023983  0.028040  1
  Nd  Nd8  1  0.765326  0.241343  0.269382  1
  Nd  Nd9  1  0.765326  0.023983  0.495944  1
  Nd  Nd10  1  0.463645  0.481823  0.231823  1
  Nd  Nd11  1  0.029421  0.264710  0.014710  1
  Si  Si12  1  0.500000  0.000000  0.250000  1
  Ru  Ru13  1  0.249330  0.498661  0.999330  1
  Ru  Ru14  1  0.001339  0.250670  0.500670  1
  Ru  Ru15  1  0.249330  0.250670  0.250000  1
  Br  Br16  1  0.251472  0.991544  0.499456  1
  Br  Br17  1  0.517613  0.508806  0.758806  1
  Br  Br18  1  0.251472  0.759928  0.752016  1
  Br  Br19  1  0.001710  0.750856  0.000856  1
  Br  Br20  1  0.991194  0.508806  0.250000  1
  Br  Br21  1  0.740072  0.991544  0.992086  1
  Br  Br22  1  0.749144  0.750856  0.250000  1
  Br  Br23  1  0.508456  0.759928  0.507914  1
  Br  Br24  1  0.508456  0.248528  0.000544  1
  Br  Br25  1  0.749144  0.498290  0.499144  1
  Br  Br26  1  0.740072  0.248528  0.747984  1
  Br  Br27  1  0.991194  0.982387  0.741194  1
