# generated using pymatgen
data_Th3AlIn2Rh3
_symmetry_space_group_name_H-M   'P 1'
_cell_length_a   7.58431500
_cell_length_b   7.55847563
_cell_length_c   4.05495400
_cell_angle_alpha   90.00000000
_cell_angle_beta   90.00000000
_cell_angle_gamma   120.11314641
_symmetry_Int_Tables_number   1
_chemical_formula_structural   Th3AlIn2Rh3
_chemical_formula_sum   'Th3 Al1 In2 Rh3'
_cell_volume   201.08091718
_cell_formula_units_Z   1
loop_
 _symmetry_equiv_pos_site_id
 _symmetry_equiv_pos_as_xyz
  1  'x, y, z'
loop_
 _atom_site_type_symbol
 _atom_site_label
 _atom_site_symmetry_multiplicity
 _atom_site_fract_x
 _atom_site_fract_y
 _atom_site_fract_z
 _atom_site_occupancy
  Th  Th0  1  0.998199  0.408494  0.500000  1
  Th  Th1  1  0.589705  0.591506  0.500000  1
  Th  Th2  1  0.427944  0.000000  0.500000  1
  Al  Al3  1  0.754877  0.000000  0.000000  1
  In  In4  1  0.004987  0.760646  0.000000  1
  In  In5  1  0.244341  0.239354  0.000000  1
  Rh  Rh6  1  0.347791  0.674167  0.000000  1
  Rh  Rh7  1  0.673625  0.325833  0.000000  1
  Rh  Rh8  1  0.958530  0.000000  0.500000  1
