# generated using pymatgen
data_SmMnSbO6
_symmetry_space_group_name_H-M   'P 1'
_cell_length_a   5.16273620
_cell_length_b   5.16273818
_cell_length_c   5.05565342
_cell_angle_alpha   90.04681028
_cell_angle_beta   90.04702111
_cell_angle_gamma   119.89057299
_symmetry_Int_Tables_number   1
_chemical_formula_structural   SmMnSbO6
_chemical_formula_sum   'Sm1 Mn1 Sb1 O6'
_cell_volume   116.82753275
_cell_formula_units_Z   1
loop_
 _symmetry_equiv_pos_site_id
 _symmetry_equiv_pos_as_xyz
  1  'x, y, z'
loop_
 _atom_site_type_symbol
 _atom_site_label
 _atom_site_symmetry_multiplicity
 _atom_site_fract_x
 _atom_site_fract_y
 _atom_site_fract_z
 _atom_site_occupancy
  Sm  Sm0  1  0.517579  0.482421  0.500004  1
  Mn  Mn1  1  0.850586  0.149439  0.000033  1
  Sb  Sb2  1  0.184276  0.815717  0.999999  1
  O  O3  1  0.146104  0.121070  0.216008  1
  O  O4  1  0.528075  0.855951  0.216944  1
  O  O5  1  0.880936  0.473820  0.216731  1
  O  O6  1  0.526190  0.119068  0.783266  1
  O  O7  1  0.144041  0.471922  0.783056  1
  O  O8  1  0.878927  0.853900  0.783988  1
