# generated using pymatgen
data_Tb15Ho5Sn16
_symmetry_space_group_name_H-M   'P 1'
_cell_length_a   8.04640311
_cell_length_b   8.19611211
_cell_length_c   15.50810004
_cell_angle_alpha   90.00640860
_cell_angle_beta   90.00498926
_cell_angle_gamma   90.01782123
_symmetry_Int_Tables_number   1
_chemical_formula_structural   Tb15Ho5Sn16
_chemical_formula_sum   'Tb15 Ho5 Sn16'
_cell_volume   1022.74707168
_cell_formula_units_Z   1
loop_
 _symmetry_equiv_pos_site_id
 _symmetry_equiv_pos_as_xyz
  1  'x, y, z'
loop_
 _atom_site_type_symbol
 _atom_site_label
 _atom_site_symmetry_multiplicity
 _atom_site_fract_x
 _atom_site_fract_y
 _atom_site_fract_z
 _atom_site_occupancy
  Tb  Tb0  1  0.867651  0.664339  0.621599  1
  Tb  Tb1  1  0.632265  0.164296  0.378471  1
  Tb  Tb2  1  0.132331  0.335659  0.121393  1
  Tb  Tb3  1  0.632312  0.164385  0.121572  1
  Tb  Tb4  1  0.132256  0.335679  0.378467  1
  Tb  Tb5  1  0.367733  0.835670  0.621588  1
  Tb  Tb6  1  0.867791  0.664315  0.878514  1
  Tb  Tb7  1  0.520135  0.319560  0.902245  1
  Tb  Tb8  1  0.020179  0.180313  0.597809  1
  Tb  Tb9  1  0.479850  0.680360  0.402233  1
  Tb  Tb10  1  0.979760  0.819599  0.097801  1
  Tb  Tb11  1  0.479767  0.680401  0.097620  1
  Tb  Tb12  1  0.979844  0.819677  0.402211  1
  Tb  Tb13  1  0.520146  0.319673  0.597827  1
  Tb  Tb14  1  0.020277  0.180279  0.902201  1
  Ho  Ho15  1  0.367621  0.835807  0.878343  1
  Ho  Ho16  1  0.198410  0.502386  0.750108  1
  Ho  Ho17  1  0.698142  0.997678  0.750065  1
  Ho  Ho18  1  0.801763  0.497798  0.250017  1
  Ho  Ho19  1  0.301765  0.002188  0.249968  1
  Sn  Sn20  1  0.292346  0.033700  0.041786  1
  Sn  Sn21  1  0.792250  0.465734  0.457720  1
  Sn  Sn22  1  0.707771  0.965682  0.542326  1
  Sn  Sn23  1  0.208345  0.535076  0.957512  1
  Sn  Sn24  1  0.706908  0.965534  0.957559  1
  Sn  Sn25  1  0.207738  0.534295  0.542315  1
  Sn  Sn26  1  0.292247  0.034306  0.457691  1
  Sn  Sn27  1  0.792202  0.465763  0.042320  1
  Sn  Sn28  1  0.564658  0.619142  0.750227  1
  Sn  Sn29  1  0.065429  0.881173  0.750281  1
  Sn  Sn30  1  0.435027  0.381257  0.249989  1
  Sn  Sn31  1  0.935046  0.118740  0.249995  1
  Sn  Sn32  1  0.328056  0.145782  0.750194  1
  Sn  Sn33  1  0.827958  0.353847  0.750019  1
  Sn  Sn34  1  0.672028  0.853778  0.250002  1
  Sn  Sn35  1  0.171992  0.646130  0.250012  1
