# generated using pymatgen
data_La3Dy2Tm15Pt16
_symmetry_space_group_name_H-M   'P 1'
_cell_length_a   7.48379122
_cell_length_b   7.56109529
_cell_length_c   14.64445600
_cell_angle_alpha   90.03439522
_cell_angle_beta   90.09921394
_cell_angle_gamma   89.97156954
_symmetry_Int_Tables_number   1
_chemical_formula_structural   La3Dy2Tm15Pt16
_chemical_formula_sum   'La3 Dy2 Tm15 Pt16'
_cell_volume   828.66469345
_cell_formula_units_Z   1
loop_
 _symmetry_equiv_pos_site_id
 _symmetry_equiv_pos_as_xyz
  1  'x, y, z'
loop_
 _atom_site_type_symbol
 _atom_site_label
 _atom_site_symmetry_multiplicity
 _atom_site_fract_x
 _atom_site_fract_y
 _atom_site_fract_z
 _atom_site_occupancy
  La  La0  1  0.000850  0.174281  0.407080  1
  La  La1  1  0.500711  0.325792  0.408318  1
  La  La2  1  0.000451  0.175919  0.090744  1
  Dy  Dy3  1  0.500834  0.678060  0.907151  1
  Dy  Dy4  1  0.000680  0.817674  0.596017  1
  Tm  Tm5  1  0.658595  0.164765  0.625591  1
  Tm  Tm6  1  0.159738  0.335401  0.875825  1
  Tm  Tm7  1  0.346049  0.832417  0.121228  1
  Tm  Tm8  1  0.846639  0.668306  0.376961  1
  Tm  Tm9  1  0.348285  0.830405  0.377513  1
  Tm  Tm10  1  0.843048  0.667045  0.119788  1
  Tm  Tm11  1  0.655504  0.167640  0.877305  1
  Tm  Tm12  1  0.157876  0.334104  0.624666  1
  Tm  Tm13  1  0.501581  0.683734  0.596286  1
  Tm  Tm14  1  0.003097  0.816694  0.903957  1
  Tm  Tm15  1  0.498142  0.323608  0.093247  1
  Tm  Tm16  1  0.818412  0.508654  0.750701  1
  Tm  Tm17  1  0.318279  0.990484  0.751034  1
  Tm  Tm18  1  0.181488  0.493273  0.247007  1
  Tm  Tm19  1  0.679068  0.007776  0.247843  1
  Pt  Pt20  1  0.678262  0.954904  0.462036  1
  Pt  Pt21  1  0.187916  0.538884  0.039639  1
  Pt  Pt22  1  0.316619  0.029944  0.954632  1
  Pt  Pt23  1  0.814169  0.473865  0.546780  1
  Pt  Pt24  1  0.317387  0.025478  0.547314  1
  Pt  Pt25  1  0.816282  0.470698  0.955342  1
  Pt  Pt26  1  0.675379  0.963415  0.040849  1
  Pt  Pt27  1  0.178966  0.545446  0.461996  1
  Pt  Pt28  1  0.453813  0.385378  0.749657  1
  Pt  Pt29  1  0.953406  0.115004  0.751149  1
  Pt  Pt30  1  0.546222  0.621878  0.247566  1
  Pt  Pt31  1  0.048103  0.875545  0.249317  1
  Pt  Pt32  1  0.680770  0.856345  0.750538  1
  Pt  Pt33  1  0.181509  0.643380  0.750873  1
  Pt  Pt34  1  0.319683  0.141438  0.246663  1
  Pt  Pt35  1  0.812187  0.362370  0.247388  1
