# generated using pymatgen
data_Li2La3Y2P12Ru17
_symmetry_space_group_name_H-M   'P 1'
_cell_length_a   12.84215600
_cell_length_b   12.60562817
_cell_length_c   4.00643900
_cell_angle_alpha   90.00000000
_cell_angle_beta   90.00000000
_cell_angle_gamma   120.62266279
_symmetry_Int_Tables_number   1
_chemical_formula_structural   Li2La3Y2P12Ru17
_chemical_formula_sum   'Li2 La3 Y2 P12 Ru17'
_cell_volume   558.12611054
_cell_formula_units_Z   1
loop_
 _symmetry_equiv_pos_site_id
 _symmetry_equiv_pos_as_xyz
  1  'x, y, z'
loop_
 _atom_site_type_symbol
 _atom_site_label
 _atom_site_symmetry_multiplicity
 _atom_site_fract_x
 _atom_site_fract_y
 _atom_site_fract_z
 _atom_site_occupancy
  Li  Li0  1  0.000286  0.562357  0.000000  1
  Li  Li1  1  0.437929  0.437643  0.000000  1
  La  La2  1  0.002602  0.182090  0.500000  1
  La  La3  1  0.820511  0.817910  0.500000  1
  La  La4  1  0.182699  0.000000  0.500000  1
  Y  Y5  1  0.663019  0.324467  0.000000  1
  Y  Y6  1  0.338551  0.675533  0.000000  1
  P  P7  1  0.998492  0.801834  0.000000  1
  P  P8  1  0.196658  0.198166  0.000000  1
  P  P9  1  0.812552  0.000000  0.000000  1
  P  P10  1  0.693217  0.171392  0.500000  1
  P  P11  1  0.813052  0.513562  0.500000  1
  P  P12  1  0.478405  0.299297  0.500000  1
  P  P13  1  0.179109  0.700703  0.500000  1
  P  P14  1  0.521825  0.828608  0.500000  1
  P  P15  1  0.299489  0.486438  0.500000  1
  P  P16  1  0.001558  0.373923  0.000000  1
  P  P17  1  0.627635  0.626077  0.000000  1
  P  P18  1  0.379042  0.000000  0.000000  1
  Ru  Ru19  1  0.556232  0.000000  0.000000  1
  Ru  Ru20  1  0.997620  0.704047  0.500000  1
  Ru  Ru21  1  0.293572  0.295953  0.500000  1
  Ru  Ru22  1  0.713595  0.000000  0.500000  1
  Ru  Ru23  1  0.805497  0.186882  0.000000  1
  Ru  Ru24  1  0.809920  0.610035  0.000000  1
  Ru  Ru25  1  0.381713  0.195023  0.000000  1
  Ru  Ru26  1  0.186689  0.804977  0.000000  1
  Ru  Ru27  1  0.618617  0.813118  0.000000  1
  Ru  Ru28  1  0.199888  0.389965  0.000000  1
  Ru  Ru29  1  0.873412  0.368784  0.500000  1
  Ru  Ru30  1  0.626514  0.507690  0.500000  1
  Ru  Ru31  1  0.493369  0.124110  0.500000  1
  Ru  Ru32  1  0.369259  0.875890  0.500000  1
  Ru  Ru33  1  0.504628  0.631216  0.500000  1
  Ru  Ru34  1  0.118823  0.492310  0.500000  1
  Ru  Ru35  1  0.004019  0.000000  0.000000  1
