# generated using pymatgen
data_La2Zn3Ga
_symmetry_space_group_name_H-M   'P 1'
_cell_length_a   5.90673807
_cell_length_b   5.84553896
_cell_length_c   5.84553936
_cell_angle_alpha   132.52334068
_cell_angle_beta   99.39656449
_cell_angle_gamma   99.06092461
_symmetry_Int_Tables_number   1
_chemical_formula_structural   La2Zn3Ga
_chemical_formula_sum   'La2 Zn3 Ga1'
_cell_volume   136.43782917
_cell_formula_units_Z   1
loop_
 _symmetry_equiv_pos_site_id
 _symmetry_equiv_pos_as_xyz
  1  'x, y, z'
loop_
 _atom_site_type_symbol
 _atom_site_label
 _atom_site_symmetry_multiplicity
 _atom_site_fract_x
 _atom_site_fract_y
 _atom_site_fract_z
 _atom_site_occupancy
  La  La0  1  0.207932  0.749991  0.457942  1
  La  La1  1  0.792681  0.251622  0.541058  1
  Zn  Zn2  1  0.603322  0.438959  0.164362  1
  Zn  Zn3  1  0.224638  0.061356  0.163282  1
  Zn  Zn4  1  0.774783  0.938973  0.835810  1
  Ga  Ga5  1  0.396645  0.559098  0.837546  1
