# generated using pymatgen
data_Ba6Li11In13
_symmetry_space_group_name_H-M   'P 1'
_cell_length_a   10.50233484
_cell_length_b   10.50270910
_cell_length_c   8.47536404
_cell_angle_alpha   90.00637967
_cell_angle_beta   89.99426695
_cell_angle_gamma   119.98823445
_symmetry_Int_Tables_number   1
_chemical_formula_structural   Ba6Li11In13
_chemical_formula_sum   'Ba6 Li11 In13'
_cell_volume   809.70657148
_cell_formula_units_Z   1
loop_
 _symmetry_equiv_pos_site_id
 _symmetry_equiv_pos_as_xyz
  1  'x, y, z'
loop_
 _atom_site_type_symbol
 _atom_site_label
 _atom_site_symmetry_multiplicity
 _atom_site_fract_x
 _atom_site_fract_y
 _atom_site_fract_z
 _atom_site_occupancy
  Ba  Ba0  1  0.477068  0.954119  0.245012  1
  Ba  Ba1  1  0.516433  0.032890  0.753939  1
  Ba  Ba2  1  0.045882  0.522940  0.245026  1
  Ba  Ba3  1  0.477052  0.522929  0.245010  1
  Ba  Ba4  1  0.516448  0.483548  0.753889  1
  Ba  Ba5  1  0.967143  0.483587  0.753937  1
  Li  Li6  1  0.099849  0.199720  0.251751  1
  Li  Li7  1  0.897739  0.795499  0.754301  1
  Li  Li8  1  0.800261  0.900132  0.251732  1
  Li  Li9  1  0.099840  0.900125  0.251718  1
  Li  Li10  1  0.897768  0.102234  0.754306  1
  Li  Li11  1  0.204505  0.102263  0.754322  1
  Li  Li12  1  0.999976  0.000035  0.000400  1
  Li  Li13  1  0.999984  0.999953  0.500575  1
  Li  Li14  1  0.666649  0.333313  0.067308  1
  Li  Li15  1  0.666706  0.333325  0.435284  1
  Li  Li16  1  0.333342  0.666716  0.914350  1
  In  In17  1  0.160256  0.320508  0.568601  1
  In  In18  1  0.834337  0.668725  0.061883  1
  In  In19  1  0.679464  0.839750  0.568586  1
  In  In20  1  0.160260  0.839720  0.568561  1
  In  In21  1  0.834277  0.165595  0.061899  1
  In  In22  1  0.331336  0.165635  0.061884  1
  In  In23  1  0.832321  0.664734  0.439167  1
  In  In24  1  0.832343  0.167597  0.439192  1
  In  In25  1  0.335287  0.167658  0.439206  1
  In  In26  1  0.670922  0.835466  0.944919  1
  In  In27  1  0.164524  0.835457  0.944878  1
  In  In28  1  0.164572  0.329134  0.944947  1
  In  In29  1  0.333360  0.666700  0.523419  1
