# generated using pymatgen
data_PBr10
_symmetry_space_group_name_H-M   'P 1'
_cell_length_a   8.37263841
_cell_length_b   11.12379641
_cell_length_c   11.18715300
_cell_angle_alpha   96.74650984
_cell_angle_beta   104.98452801
_cell_angle_gamma   98.56222129
_symmetry_Int_Tables_number   1
_chemical_formula_structural   PBr10
_chemical_formula_sum   'P2 Br20'
_cell_volume   981.91679629
_cell_formula_units_Z   2
loop_
 _symmetry_equiv_pos_site_id
 _symmetry_equiv_pos_as_xyz
  1  'x, y, z'
loop_
 _atom_site_type_symbol
 _atom_site_label
 _atom_site_symmetry_multiplicity
 _atom_site_fract_x
 _atom_site_fract_y
 _atom_site_fract_z
 _atom_site_occupancy
  P  P0  1  0.006884  0.217257  0.785535  1
  P  P1  1  0.993116  0.782743  0.214465  1
  Br  Br2  1  0.607046  0.683196  0.681838  1
  Br  Br3  1  0.392954  0.316804  0.318162  1
  Br  Br4  1  0.380550  0.496689  0.176406  1
  Br  Br5  1  0.619450  0.503311  0.823594  1
  Br  Br6  1  0.419761  0.154275  0.452638  1
  Br  Br7  1  0.580239  0.845725  0.547362  1
  Br  Br8  1  0.041215  0.313554  0.300104  1
  Br  Br9  1  0.958785  0.686446  0.699896  1
  Br  Br10  1  0.564173  0.089189  0.079357  1
  Br  Br11  1  0.435827  0.910811  0.920643  1
  Br  Br12  1  0.252903  0.687209  0.708847  1
  Br  Br13  1  0.747097  0.312791  0.291153  1
  Br  Br14  1  0.825640  0.651197  0.046572  1
  Br  Br15  1  0.174360  0.348803  0.953428  1
  Br  Br16  1  0.910595  0.301719  0.622695  1
  Br  Br17  1  0.089405  0.698281  0.377305  1
  Br  Br18  1  0.142568  0.078253  0.728362  1
  Br  Br19  1  0.857432  0.921747  0.271638  1
  Br  Br20  1  0.793284  0.122071  0.835947  1
  Br  Br21  1  0.206716  0.877929  0.164053  1
