# generated using pymatgen
data_Nd3Cd3IrPd2
_symmetry_space_group_name_H-M   'P 1'
_cell_length_a   7.73101100
_cell_length_b   7.73100945
_cell_length_c   4.04122500
_cell_angle_alpha   90.00000000
_cell_angle_beta   90.00000000
_cell_angle_gamma   119.99999379
_symmetry_Int_Tables_number   1
_chemical_formula_structural   Nd3Cd3IrPd2
_chemical_formula_sum   'Nd3 Cd3 Ir1 Pd2'
_cell_volume   209.17808618
_cell_formula_units_Z   1
loop_
 _symmetry_equiv_pos_site_id
 _symmetry_equiv_pos_as_xyz
  1  'x, y, z'
loop_
 _atom_site_type_symbol
 _atom_site_label
 _atom_site_symmetry_multiplicity
 _atom_site_fract_x
 _atom_site_fract_y
 _atom_site_fract_z
 _atom_site_occupancy
  Nd  Nd0  1  0.583348  0.984878  0.000000  1
  Nd  Nd1  1  0.015122  0.598470  0.000000  1
  Nd  Nd2  1  0.401530  0.416652  0.000000  1
  Cd  Cd3  1  0.254228  0.003287  0.500000  1
  Cd  Cd4  1  0.996713  0.250941  0.500000  1
  Cd  Cd5  1  0.749059  0.745772  0.500000  1
  Ir  Ir6  1  0.333333  0.666667  0.500000  1
  Pd  Pd7  1  0.666667  0.333333  0.500000  1
  Pd  Pd8  1  0.000000  0.000000  0.000000  1
