# generated using pymatgen
data_Tb2TcB8Rh
_symmetry_space_group_name_H-M   'P 1'
_cell_length_a   3.59704500
_cell_length_b   5.97592400
_cell_length_c   11.57936819
_cell_angle_alpha   89.73750979
_cell_angle_beta   90.00000000
_cell_angle_gamma   90.00000000
_symmetry_Int_Tables_number   1
_chemical_formula_structural   Tb2TcB8Rh
_chemical_formula_sum   'Tb4 Tc2 B16 Rh2'
_cell_volume   248.90363709
_cell_formula_units_Z   2
loop_
 _symmetry_equiv_pos_site_id
 _symmetry_equiv_pos_as_xyz
  1  'x, y, z'
loop_
 _atom_site_type_symbol
 _atom_site_label
 _atom_site_symmetry_multiplicity
 _atom_site_fract_x
 _atom_site_fract_y
 _atom_site_fract_z
 _atom_site_occupancy
  Tb  Tb0  1  0.500000  0.128715  0.148817  1
  Tb  Tb1  1  0.500000  0.871285  0.851183  1
  Tb  Tb2  1  0.500000  0.628487  0.350167  1
  Tb  Tb3  1  0.500000  0.371513  0.649833  1
  Tc  Tc4  1  0.500000  0.132907  0.411697  1
  Tc  Tc5  1  0.500000  0.867093  0.588303  1
  B  B6  1  0.000000  0.476062  0.192593  1
  B  B7  1  0.000000  0.523938  0.807407  1
  B  B8  1  0.000000  0.975554  0.308042  1
  B  B9  1  0.000000  0.024446  0.691958  1
  B  B10  1  0.000000  0.287688  0.314412  1
  B  B11  1  0.000000  0.712312  0.685588  1
  B  B12  1  0.000000  0.789153  0.185869  1
  B  B13  1  0.000000  0.210847  0.814131  1
  B  B14  1  0.000000  0.363639  0.469010  1
  B  B15  1  0.000000  0.636361  0.530990  1
  B  B16  1  0.000000  0.863381  0.031107  1
  B  B17  1  0.000000  0.136619  0.968893  1
  B  B18  1  0.000000  0.387286  0.047156  1
  B  B19  1  0.000000  0.612714  0.952844  1
  B  B20  1  0.000000  0.887483  0.453669  1
  B  B21  1  0.000000  0.112517  0.546331  1
  Rh  Rh22  1  0.500000  0.640818  0.094138  1
  Rh  Rh23  1  0.500000  0.359182  0.905862  1
