# generated using pymatgen
data_MgSc(Pa3Sb5)2
_symmetry_space_group_name_H-M   'P 1'
_cell_length_a   9.28363900
_cell_length_b   9.28363907
_cell_length_c   6.21987100
_cell_angle_alpha   90.00000000
_cell_angle_beta   90.00000000
_cell_angle_gamma   120.00000333
_symmetry_Int_Tables_number   1
_chemical_formula_structural   MgSc(Pa3Sb5)2
_chemical_formula_sum   'Mg1 Sc1 Pa6 Sb10'
_cell_volume   464.24633758
_cell_formula_units_Z   1
loop_
 _symmetry_equiv_pos_site_id
 _symmetry_equiv_pos_as_xyz
  1  'x, y, z'
loop_
 _atom_site_type_symbol
 _atom_site_label
 _atom_site_symmetry_multiplicity
 _atom_site_fract_x
 _atom_site_fract_y
 _atom_site_fract_z
 _atom_site_occupancy
  Mg  Mg0  1  0.000000  0.000000  0.000000  1
  Sc  Sc1  1  0.000000  0.000000  0.500000  1
  Pa  Pa2  1  0.387357  0.000000  0.750225  1
  Pa  Pa3  1  0.387357  0.387357  0.249775  1
  Pa  Pa4  1  0.000000  0.612643  0.249775  1
  Pa  Pa5  1  0.000000  0.387357  0.750225  1
  Pa  Pa6  1  0.612643  0.612643  0.750225  1
  Pa  Pa7  1  0.612643  0.000000  0.249775  1
  Sb  Sb8  1  0.666667  0.333333  0.500000  1
  Sb  Sb9  1  0.333333  0.666667  0.000000  1
  Sb  Sb10  1  0.731419  0.000000  0.749738  1
  Sb  Sb11  1  0.731419  0.731419  0.250262  1
  Sb  Sb12  1  0.333333  0.666667  0.500000  1
  Sb  Sb13  1  0.666667  0.333333  0.000000  1
  Sb  Sb14  1  0.268581  0.000000  0.250262  1
  Sb  Sb15  1  0.268581  0.268581  0.749738  1
  Sb  Sb16  1  0.000000  0.731419  0.749738  1
  Sb  Sb17  1  0.000000  0.268581  0.250262  1
