# generated using pymatgen
data_LiLa8Pt5Rh
_symmetry_space_group_name_H-M   'P 1'
_cell_length_a   7.81963544
_cell_length_b   7.85773756
_cell_length_c   7.80216860
_cell_angle_alpha   69.77874907
_cell_angle_beta   70.45058016
_cell_angle_gamma   70.21469180
_symmetry_Int_Tables_number   1
_chemical_formula_structural   LiLa8Pt5Rh
_chemical_formula_sum   'Li1 La8 Pt5 Rh1'
_cell_volume   410.23976650
_cell_formula_units_Z   1
loop_
 _symmetry_equiv_pos_site_id
 _symmetry_equiv_pos_as_xyz
  1  'x, y, z'
loop_
 _atom_site_type_symbol
 _atom_site_label
 _atom_site_symmetry_multiplicity
 _atom_site_fract_x
 _atom_site_fract_y
 _atom_site_fract_z
 _atom_site_occupancy
  Li  Li0  1  0.999969  0.000364  0.000529  1
  La  La1  1  0.814207  0.814651  0.813248  1
  La  La2  1  0.188871  0.185145  0.192849  1
  La  La3  1  0.315595  0.621487  0.849360  1
  La  La4  1  0.856570  0.316252  0.615801  1
  La  La5  1  0.614459  0.854439  0.319961  1
  La  La6  1  0.682984  0.384474  0.143327  1
  La  La7  1  0.145116  0.683939  0.386418  1
  La  La8  1  0.379755  0.140981  0.680632  1
  Pt  Pt9  1  0.577127  0.179023  0.953412  1
  Pt  Pt10  1  0.953482  0.577448  0.180930  1
  Pt  Pt11  1  0.821458  0.045834  0.422086  1
  Pt  Pt12  1  0.423586  0.820841  0.045440  1
  Pt  Pt13  1  0.046123  0.422475  0.820936  1
  Rh  Rh14  1  0.180697  0.952648  0.575071  1
