# generated using pymatgen
data_TmMg(TcSn4)2
_symmetry_space_group_name_H-M   'P 1'
_cell_length_a   7.57646882
_cell_length_b   7.57646855
_cell_length_c   7.57646911
_cell_angle_alpha   125.41061956
_cell_angle_beta   125.41062428
_cell_angle_gamma   80.85900261
_symmetry_Int_Tables_number   1
_chemical_formula_structural   TmMg(TcSn4)2
_chemical_formula_sum   'Tm1 Mg1 Tc2 Sn8'
_cell_volume   278.46319366
_cell_formula_units_Z   1
loop_
 _symmetry_equiv_pos_site_id
 _symmetry_equiv_pos_as_xyz
  1  'x, y, z'
loop_
 _atom_site_type_symbol
 _atom_site_label
 _atom_site_symmetry_multiplicity
 _atom_site_fract_x
 _atom_site_fract_y
 _atom_site_fract_z
 _atom_site_occupancy
  Tm  Tm0  1  0.500000  0.500000  0.000000  1
  Mg  Mg1  1  0.000000  0.000000  0.000000  1
  Tc  Tc2  1  0.755046  0.755046  0.000000  1
  Tc  Tc3  1  0.244954  0.244954  0.000000  1
  Sn  Sn4  1  0.704582  0.514626  0.504900  1
  Sn  Sn5  1  0.514626  0.009726  0.810044  1
  Sn  Sn6  1  0.199682  0.704582  0.189956  1
  Sn  Sn7  1  0.800318  0.295418  0.810044  1
  Sn  Sn8  1  0.485374  0.990274  0.189956  1
  Sn  Sn9  1  0.295418  0.485374  0.495100  1
  Sn  Sn10  1  0.990274  0.800318  0.504900  1
  Sn  Sn11  1  0.009726  0.199682  0.495100  1
