# generated using pymatgen
data_Pr6ErTmIn8
_symmetry_space_group_name_H-M   'P 1'
_cell_length_a   6.74594518
_cell_length_b   6.74594571
_cell_length_c   10.19893300
_cell_angle_alpha   90.00000000
_cell_angle_beta   90.00000000
_cell_angle_gamma   97.95644075
_symmetry_Int_Tables_number   1
_chemical_formula_structural   Pr6ErTmIn8
_chemical_formula_sum   'Pr6 Er1 Tm1 In8'
_cell_volume   459.66288485
_cell_formula_units_Z   1
loop_
 _symmetry_equiv_pos_site_id
 _symmetry_equiv_pos_as_xyz
  1  'x, y, z'
loop_
 _atom_site_type_symbol
 _atom_site_label
 _atom_site_symmetry_multiplicity
 _atom_site_fract_x
 _atom_site_fract_y
 _atom_site_fract_z
 _atom_site_occupancy
  Pr  Pr0  1  0.541718  0.541718  0.250000  1
  Pr  Pr1  1  0.458638  0.458638  0.750000  1
  Pr  Pr2  1  0.243922  0.755963  0.499871  1
  Pr  Pr3  1  0.243922  0.755963  0.000129  1
  Pr  Pr4  1  0.755963  0.243922  0.499871  1
  Pr  Pr5  1  0.755963  0.243922  0.000129  1
  Er  Er6  1  0.022606  0.022606  0.750000  1
  Tm  Tm7  1  0.977410  0.977410  0.250000  1
  In  In8  1  0.249942  0.249942  0.026638  1
  In  In9  1  0.750007  0.750007  0.973470  1
  In  In10  1  0.249942  0.249942  0.473362  1
  In  In11  1  0.750007  0.750007  0.526530  1
  In  In12  1  0.476057  0.030082  0.250000  1
  In  In13  1  0.969905  0.523917  0.750000  1
  In  In14  1  0.523917  0.969905  0.750000  1
  In  In15  1  0.030082  0.476057  0.250000  1
