# generated using pymatgen
data_K7Pr(US5)2
_symmetry_space_group_name_H-M   'P 1'
_cell_length_a   7.62956506
_cell_length_b   11.41738449
_cell_length_c   7.38316400
_cell_angle_alpha   102.01473126
_cell_angle_beta   100.47554692
_cell_angle_gamma   109.93379542
_symmetry_Int_Tables_number   1
_chemical_formula_structural   K7Pr(US5)2
_chemical_formula_sum   'K7 Pr1 U2 S10'
_cell_volume   568.58098857
_cell_formula_units_Z   1
loop_
 _symmetry_equiv_pos_site_id
 _symmetry_equiv_pos_as_xyz
  1  'x, y, z'
loop_
 _atom_site_type_symbol
 _atom_site_label
 _atom_site_symmetry_multiplicity
 _atom_site_fract_x
 _atom_site_fract_y
 _atom_site_fract_z
 _atom_site_occupancy
  K  K0  1  0.000236  0.500016  0.000067  1
  K  K1  1  0.415462  0.904321  0.203310  1
  K  K2  1  0.594649  0.593503  0.294150  1
  K  K3  1  0.792326  0.303163  0.420009  1
  K  K4  1  0.207777  0.696894  0.579873  1
  K  K5  1  0.405197  0.406361  0.705810  1
  K  K6  1  0.584763  0.096012  0.796845  1
  Pr  Pr7  1  0.000057  0.000084  0.500017  1
  U  U8  1  0.192393  0.198071  0.101190  1
  U  U9  1  0.807442  0.801769  0.898725  1
  S  S10  1  0.524350  0.314049  0.061119  1
  S  S11  1  0.843395  0.037838  0.139280  1
  S  S12  1  0.986033  0.775211  0.223446  1
  S  S13  1  0.179222  0.402126  0.307018  1
  S  S14  1  0.346254  0.144347  0.411716  1
  S  S15  1  0.653844  0.855731  0.588333  1
  S  S16  1  0.820740  0.597662  0.692954  1
  S  S17  1  0.013979  0.224859  0.776550  1
  S  S18  1  0.156491  0.962090  0.860658  1
  S  S19  1  0.475392  0.685891  0.938931  1
