# generated using pymatgen
data_Ho16In6FeIr
_symmetry_space_group_name_H-M   'P 1'
_cell_length_a   10.33556300
_cell_length_b   10.33556315
_cell_length_c   7.00213800
_cell_angle_alpha   90.00000000
_cell_angle_beta   90.00000000
_cell_angle_gamma   120.00000273
_symmetry_Int_Tables_number   1
_chemical_formula_structural   Ho16In6FeIr
_chemical_formula_sum   'Ho16 In6 Fe1 Ir1'
_cell_volume   647.78303307
_cell_formula_units_Z   1
loop_
 _symmetry_equiv_pos_site_id
 _symmetry_equiv_pos_as_xyz
  1  'x, y, z'
loop_
 _atom_site_type_symbol
 _atom_site_label
 _atom_site_symmetry_multiplicity
 _atom_site_fract_x
 _atom_site_fract_y
 _atom_site_fract_z
 _atom_site_occupancy
  Ho  Ho0  1  0.535975  0.071951  0.505142  1
  Ho  Ho1  1  0.928049  0.464025  0.505142  1
  Ho  Ho2  1  0.535975  0.464025  0.505142  1
  Ho  Ho3  1  0.467878  0.935756  0.006365  1
  Ho  Ho4  1  0.064244  0.532122  0.006365  1
  Ho  Ho5  1  0.467878  0.532122  0.006365  1
  Ho  Ho6  1  0.176580  0.353158  0.711994  1
  Ho  Ho7  1  0.646842  0.823420  0.711994  1
  Ho  Ho8  1  0.176580  0.823420  0.711994  1
  Ho  Ho9  1  0.821356  0.642715  0.213634  1
  Ho  Ho10  1  0.357285  0.178644  0.213634  1
  Ho  Ho11  1  0.821356  0.178644  0.213634  1
  Ho  Ho12  1  0.666667  0.333333  0.893035  1
  Ho  Ho13  1  0.333333  0.666667  0.385059  1
  Ho  Ho14  1  0.000000  0.000000  0.491905  1
  Ho  Ho15  1  0.000000  0.000000  0.993985  1
  In  In16  1  0.836814  0.673627  0.753556  1
  In  In17  1  0.326373  0.163186  0.753556  1
  In  In18  1  0.836814  0.163186  0.753556  1
  In  In19  1  0.162305  0.324610  0.252561  1
  In  In20  1  0.675390  0.837695  0.252561  1
  In  In21  1  0.162305  0.837695  0.252561  1
  Fe  Fe22  1  0.666667  0.333333  0.281004  1
  Ir  Ir23  1  0.333333  0.666667  0.783300  1
