# generated using pymatgen
data_Ho12CdFe4Sn
_symmetry_space_group_name_H-M   'P 1'
_cell_length_a   8.36628245
_cell_length_b   8.36628319
_cell_length_c   8.36628271
_cell_angle_alpha   111.20761573
_cell_angle_beta   110.47490643
_cell_angle_gamma   106.76544898
_symmetry_Int_Tables_number   1
_chemical_formula_structural   Ho12CdFe4Sn
_chemical_formula_sum   'Ho12 Cd1 Fe4 Sn1'
_cell_volume   450.02261654
_cell_formula_units_Z   1
loop_
 _symmetry_equiv_pos_site_id
 _symmetry_equiv_pos_as_xyz
  1  'x, y, z'
loop_
 _atom_site_type_symbol
 _atom_site_label
 _atom_site_symmetry_multiplicity
 _atom_site_fract_x
 _atom_site_fract_y
 _atom_site_fract_z
 _atom_site_occupancy
  Ho  Ho0  1  0.439367  0.228172  0.211195  1
  Ho  Ho1  1  0.560633  0.771828  0.788805  1
  Ho  Ho2  1  0.016976  0.228172  0.788805  1
  Ho  Ho3  1  0.983024  0.771828  0.211195  1
  Ho  Ho4  1  0.188192  0.288680  0.476870  1
  Ho  Ho5  1  0.811808  0.711320  0.523130  1
  Ho  Ho6  1  0.188192  0.711320  0.899512  1
  Ho  Ho7  1  0.811808  0.288680  0.100488  1
  Ho  Ho8  1  0.310782  0.610900  0.300118  1
  Ho  Ho9  1  0.689218  0.389100  0.699882  1
  Ho  Ho10  1  0.310782  0.010663  0.699882  1
  Ho  Ho11  1  0.689218  0.989337  0.300118  1
  Cd  Cd12  1  0.000000  0.000000  0.000000  1
  Fe  Fe13  1  0.385416  0.000000  0.385416  1
  Fe  Fe14  1  0.614584  0.000000  0.614584  1
  Fe  Fe15  1  0.107948  0.607948  0.500000  1
  Fe  Fe16  1  0.892052  0.392052  0.500000  1
  Sn  Sn17  1  0.500000  0.500000  0.000000  1
