# generated using pymatgen
data_Sr2SmAg5S6
_symmetry_space_group_name_H-M   'P 1'
_cell_length_a   4.11037600
_cell_length_b   7.25854700
_cell_length_c   11.26463126
_cell_angle_alpha   96.38404906
_cell_angle_beta   90.00000000
_cell_angle_gamma   106.44772418
_symmetry_Int_Tables_number   1
_chemical_formula_structural   Sr2SmAg5S6
_chemical_formula_sum   'Sr2 Sm1 Ag5 S6'
_cell_volume   320.15761262
_cell_formula_units_Z   1
loop_
 _symmetry_equiv_pos_site_id
 _symmetry_equiv_pos_as_xyz
  1  'x, y, z'
loop_
 _atom_site_type_symbol
 _atom_site_label
 _atom_site_symmetry_multiplicity
 _atom_site_fract_x
 _atom_site_fract_y
 _atom_site_fract_z
 _atom_site_occupancy
  Sr  Sr0  1  0.255002  0.510004  0.697427  1
  Sr  Sr1  1  0.744998  0.489996  0.302573  1
  Sm  Sm2  1  0.500000  0.000000  0.500000  1
  Ag  Ag3  1  0.012238  0.024476  0.255494  1
  Ag  Ag4  1  0.987762  0.975524  0.744506  1
  Ag  Ag5  1  0.345667  0.691335  0.037569  1
  Ag  Ag6  1  0.654333  0.308665  0.962431  1
  Ag  Ag7  1  0.000000  0.000000  0.000000  1
  S  S8  1  0.131731  0.263460  0.450145  1
  S  S9  1  0.868269  0.736540  0.549855  1
  S  S10  1  0.157289  0.314578  0.113776  1
  S  S11  1  0.842711  0.685422  0.886224  1
  S  S12  1  0.400112  0.800225  0.266056  1
  S  S13  1  0.599888  0.199775  0.733944  1
