# generated using pymatgen
data_Hf8Zr12Co(NiAs4)3
_symmetry_space_group_name_H-M   'P 1'
_cell_length_a   3.72345100
_cell_length_b   10.51382527
_cell_length_c   17.60509508
_cell_angle_alpha   89.89697461
_cell_angle_beta   90.00000000
_cell_angle_gamma   90.00000000
_symmetry_Int_Tables_number   1
_chemical_formula_structural   Hf8Zr12Co(NiAs4)3
_chemical_formula_sum   'Hf8 Zr12 Co1 Ni3 As12'
_cell_volume   689.19809916
_cell_formula_units_Z   1
loop_
 _symmetry_equiv_pos_site_id
 _symmetry_equiv_pos_as_xyz
  1  'x, y, z'
loop_
 _atom_site_type_symbol
 _atom_site_label
 _atom_site_symmetry_multiplicity
 _atom_site_fract_x
 _atom_site_fract_y
 _atom_site_fract_z
 _atom_site_occupancy
  Hf  Hf0  1  0.250000  0.242907  0.168663  1
  Hf  Hf1  1  0.750000  0.758317  0.832880  1
  Hf  Hf2  1  0.750000  0.743050  0.331591  1
  Hf  Hf3  1  0.250000  0.257360  0.668451  1
  Hf  Hf4  1  0.250000  0.514456  0.275120  1
  Hf  Hf5  1  0.750000  0.485777  0.724688  1
  Hf  Hf6  1  0.750000  0.013464  0.224818  1
  Hf  Hf7  1  0.250000  0.983923  0.776579  1
  Zr  Zr8  1  0.250000  0.185729  0.367132  1
  Zr  Zr9  1  0.750000  0.814324  0.633423  1
  Zr  Zr10  1  0.750000  0.685837  0.132513  1
  Zr  Zr11  1  0.250000  0.314726  0.867039  1
  Zr  Zr12  1  0.250000  0.880161  0.477653  1
  Zr  Zr13  1  0.750000  0.119377  0.522437  1
  Zr  Zr14  1  0.750000  0.381135  0.022260  1
  Zr  Zr15  1  0.250000  0.621093  0.976992  1
  Zr  Zr16  1  0.250000  0.939138  0.077661  1
  Zr  Zr17  1  0.750000  0.058637  0.922630  1
  Zr  Zr18  1  0.750000  0.438783  0.421760  1
  Zr  Zr19  1  0.250000  0.561279  0.578149  1
  Co  Co20  1  0.250000  0.868044  0.906277  1
  Ni  Ni21  1  0.250000  0.631988  0.408954  1
  Ni  Ni22  1  0.750000  0.367941  0.591021  1
  Ni  Ni23  1  0.750000  0.133139  0.091107  1
  As  As24  1  0.250000  0.490932  0.119420  1
  As  As25  1  0.750000  0.508156  0.880463  1
  As  As26  1  0.750000  0.991073  0.380558  1
  As  As27  1  0.250000  0.009181  0.619573  1
  As  As28  1  0.250000  0.814762  0.220839  1
  As  As29  1  0.750000  0.184960  0.779486  1
  As  As30  1  0.750000  0.315150  0.279087  1
  As  As31  1  0.250000  0.684033  0.720851  1
  As  As32  1  0.250000  0.188744  0.009141  1
  As  As33  1  0.750000  0.812547  0.990712  1
  As  As34  1  0.750000  0.688200  0.490998  1
  As  As35  1  0.250000  0.311676  0.509073  1
