# generated using pymatgen
data_LiEr12Fe4Sn
_symmetry_space_group_name_H-M   'P 1'
_cell_length_a   8.30406281
_cell_length_b   8.30395833
_cell_length_c   8.30406222
_cell_angle_alpha   110.57001394
_cell_angle_beta   111.04230342
_cell_angle_gamma   106.83394749
_symmetry_Int_Tables_number   1
_chemical_formula_structural   LiEr12Fe4Sn
_chemical_formula_sum   'Li1 Er12 Fe4 Sn1'
_cell_volume   440.09604845
_cell_formula_units_Z   1
loop_
 _symmetry_equiv_pos_site_id
 _symmetry_equiv_pos_as_xyz
  1  'x, y, z'
loop_
 _atom_site_type_symbol
 _atom_site_label
 _atom_site_symmetry_multiplicity
 _atom_site_fract_x
 _atom_site_fract_y
 _atom_site_fract_z
 _atom_site_occupancy
  Li  Li0  1  0.000000  0.000000  0.000000  1
  Er  Er1  1  0.310028  0.608956  0.298926  1
  Er  Er2  1  0.689972  0.391045  0.701074  1
  Er  Er3  1  0.310008  0.011103  0.701096  1
  Er  Er4  1  0.689992  0.988897  0.298904  1
  Er  Er5  1  0.429589  0.223441  0.206138  1
  Er  Er6  1  0.570411  0.776559  0.793862  1
  Er  Er7  1  0.017304  0.223441  0.793852  1
  Er  Er8  1  0.982696  0.776559  0.206148  1
  Er  Er9  1  0.188408  0.289773  0.478165  1
  Er  Er10  1  0.811592  0.710227  0.521835  1
  Er  Er11  1  0.188393  0.710227  0.898635  1
  Er  Er12  1  0.811607  0.289773  0.101365  1
  Fe  Fe13  1  0.109294  0.609289  0.499996  1
  Fe  Fe14  1  0.890707  0.390712  0.500004  1
  Fe  Fe15  1  0.382585  0.000000  0.382585  1
  Fe  Fe16  1  0.617415  0.000000  0.617415  1
  Sn  Sn17  1  0.500000  0.500000  0.000000  1
