# generated using pymatgen
data_YbU(Tl2S3)2
_symmetry_space_group_name_H-M   'P 1'
_cell_length_a   7.13897144
_cell_length_b   7.13897105
_cell_length_c   7.14745100
_cell_angle_alpha   80.31634749
_cell_angle_beta   80.31635617
_cell_angle_gamma   119.99495073
_symmetry_Int_Tables_number   1
_chemical_formula_structural   YbU(Tl2S3)2
_chemical_formula_sum   'Yb1 U1 Tl4 S6'
_cell_volume   297.09693688
_cell_formula_units_Z   1
loop_
 _symmetry_equiv_pos_site_id
 _symmetry_equiv_pos_as_xyz
  1  'x, y, z'
loop_
 _atom_site_type_symbol
 _atom_site_label
 _atom_site_symmetry_multiplicity
 _atom_site_fract_x
 _atom_site_fract_y
 _atom_site_fract_z
 _atom_site_occupancy
  Yb  Yb0  1  0.669543  0.330457  0.000000  1
  U  U1  1  0.332003  0.667997  0.000000  1
  Tl  Tl2  1  0.998262  0.001738  0.000000  1
  Tl  Tl3  1  0.506980  0.493020  0.500000  1
  Tl  Tl4  1  0.843470  0.156530  0.500000  1
  Tl  Tl5  1  0.151455  0.848545  0.500000  1
  S  S6  1  0.287084  0.313826  0.201898  1
  S  S7  1  0.427955  0.046291  0.788436  1
  S  S8  1  0.102349  0.458983  0.777514  1
  S  S9  1  0.686174  0.712916  0.798102  1
  S  S10  1  0.541017  0.897651  0.222486  1
  S  S11  1  0.953709  0.572045  0.211564  1
