# generated using pymatgen
data_Y3Tm7(SiBi2)2
_symmetry_space_group_name_H-M   'P 1'
_cell_length_a   7.97972100
_cell_length_b   9.14213300
_cell_length_c   11.92882800
_cell_angle_alpha   90.00000000
_cell_angle_beta   90.00000000
_cell_angle_gamma   89.99720045
_symmetry_Int_Tables_number   1
_chemical_formula_structural   Y3Tm7(SiBi2)2
_chemical_formula_sum   'Y6 Tm14 Si4 Bi8'
_cell_volume   870.22793139
_cell_formula_units_Z   2
loop_
 _symmetry_equiv_pos_site_id
 _symmetry_equiv_pos_as_xyz
  1  'x, y, z'
loop_
 _atom_site_type_symbol
 _atom_site_label
 _atom_site_symmetry_multiplicity
 _atom_site_fract_x
 _atom_site_fract_y
 _atom_site_fract_z
 _atom_site_occupancy
  Y  Y0  1  0.680724  0.948755  0.437496  1
  Y  Y1  1  0.819276  0.551245  0.937496  1
  Y  Y2  1  0.334965  0.749474  0.287444  1
  Y  Y3  1  0.165035  0.750526  0.787444  1
  Y  Y4  1  0.664553  0.250005  0.712004  1
  Y  Y5  1  0.835447  0.249995  0.212004  1
  Tm  Tm6  1  0.320476  0.445359  0.562132  1
  Tm  Tm7  1  0.179524  0.054641  0.062132  1
  Tm  Tm8  1  0.320744  0.055023  0.562344  1
  Tm  Tm9  1  0.179256  0.444977  0.062344  1
  Tm  Tm10  1  0.678938  0.555057  0.437925  1
  Tm  Tm11  1  0.821062  0.944943  0.937925  1
  Tm  Tm12  1  0.039610  0.749878  0.498453  1
  Tm  Tm13  1  0.460390  0.750122  0.998453  1
  Tm  Tm14  1  0.961825  0.250317  0.501534  1
  Tm  Tm15  1  0.538175  0.249683  0.001534  1
  Tm  Tm16  1  0.861879  0.749837  0.206269  1
  Tm  Tm17  1  0.638121  0.750163  0.706269  1
  Tm  Tm18  1  0.138795  0.249965  0.793598  1
  Tm  Tm19  1  0.361205  0.250035  0.293598  1
  Si  Si20  1  0.090403  0.750725  0.024932  1
  Si  Si21  1  0.409597  0.749275  0.524932  1
  Si  Si22  1  0.912608  0.246945  0.976199  1
  Si  Si23  1  0.587392  0.253055  0.476199  1
  Bi  Bi24  1  0.568001  0.989290  0.172582  1
  Bi  Bi25  1  0.931999  0.510710  0.672583  1
  Bi  Bi26  1  0.430677  0.489425  0.826905  1
  Bi  Bi27  1  0.069323  0.010575  0.326906  1
  Bi  Bi28  1  0.431392  0.010813  0.827047  1
  Bi  Bi29  1  0.068608  0.489187  0.327048  1
  Bi  Bi30  1  0.568592  0.510443  0.173134  1
  Bi  Bi31  1  0.931408  0.989557  0.673135  1
