# generated using pymatgen
data_Ce2FeCo(SiPd)2
_symmetry_space_group_name_H-M   'P 1'
_cell_length_a   9.30329170
_cell_length_b   9.30329193
_cell_length_c   3.98832800
_cell_angle_alpha   90.00000000
_cell_angle_beta   90.00000000
_cell_angle_gamma   155.74243376
_symmetry_Int_Tables_number   1
_chemical_formula_structural   Ce2FeCo(SiPd)2
_chemical_formula_sum   'Ce2 Fe1 Co1 Si2 Pd2'
_cell_volume   141.81954426
_cell_formula_units_Z   1
loop_
 _symmetry_equiv_pos_site_id
 _symmetry_equiv_pos_as_xyz
  1  'x, y, z'
loop_
 _atom_site_type_symbol
 _atom_site_label
 _atom_site_symmetry_multiplicity
 _atom_site_fract_x
 _atom_site_fract_y
 _atom_site_fract_z
 _atom_site_occupancy
  Ce  Ce0  1  0.615833  0.384167  0.250000  1
  Ce  Ce1  1  0.383885  0.616115  0.750000  1
  Fe  Fe2  1  0.750824  0.249176  0.750000  1
  Co  Co3  1  0.249344  0.750656  0.250000  1
  Si  Si4  1  0.812725  0.187275  0.250000  1
  Si  Si5  1  0.187328  0.812672  0.750000  1
  Pd  Pd6  1  0.948891  0.051109  0.250000  1
  Pd  Pd7  1  0.051172  0.948828  0.750000  1
