# generated using pymatgen
data_SrNd(ThIr4)2
_symmetry_space_group_name_H-M   'P 1'
_cell_length_a   9.44711156
_cell_length_b   9.44711148
_cell_length_c   9.44711085
_cell_angle_alpha   33.61433900
_cell_angle_beta   33.61433915
_cell_angle_gamma   33.61433946
_symmetry_Int_Tables_number   1
_chemical_formula_structural   SrNd(ThIr4)2
_chemical_formula_sum   'Sr1 Nd1 Th2 Ir8'
_cell_volume   230.18283060
_cell_formula_units_Z   1
loop_
 _symmetry_equiv_pos_site_id
 _symmetry_equiv_pos_as_xyz
  1  'x, y, z'
loop_
 _atom_site_type_symbol
 _atom_site_label
 _atom_site_symmetry_multiplicity
 _atom_site_fract_x
 _atom_site_fract_y
 _atom_site_fract_z
 _atom_site_occupancy
  Sr  Sr0  1  0.125674  0.125674  0.125674  1
  Nd  Nd1  1  0.624162  0.624162  0.624162  1
  Th  Th2  1  0.001489  0.001489  0.001489  1
  Th  Th3  1  0.498471  0.498471  0.498471  1
  Ir  Ir4  1  0.562998  0.562998  0.059028  1
  Ir  Ir5  1  0.062795  0.062795  0.564818  1
  Ir  Ir6  1  0.562998  0.059028  0.562998  1
  Ir  Ir7  1  0.062795  0.564818  0.062795  1
  Ir  Ir8  1  0.812370  0.812370  0.812370  1
  Ir  Ir9  1  0.312404  0.312404  0.312404  1
  Ir  Ir10  1  0.059028  0.562998  0.562998  1
  Ir  Ir11  1  0.564818  0.062795  0.062795  1
