# generated using pymatgen
data_YbErLu2(Ga2Ag)4
_symmetry_space_group_name_H-M   'P 1'
_cell_length_a   4.32648300
_cell_length_b   6.92290884
_cell_length_c   10.23843416
_cell_angle_alpha   90.41669481
_cell_angle_beta   90.00000000
_cell_angle_gamma   90.00000000
_symmetry_Int_Tables_number   1
_chemical_formula_structural   YbErLu2(Ga2Ag)4
_chemical_formula_sum   'Yb1 Er1 Lu2 Ga8 Ag4'
_cell_volume   306.65190777
_cell_formula_units_Z   1
loop_
 _symmetry_equiv_pos_site_id
 _symmetry_equiv_pos_as_xyz
  1  'x, y, z'
loop_
 _atom_site_type_symbol
 _atom_site_label
 _atom_site_symmetry_multiplicity
 _atom_site_fract_x
 _atom_site_fract_y
 _atom_site_fract_z
 _atom_site_occupancy
  Yb  Yb0  1  0.250000  0.274934  0.672736  1
  Er  Er1  1  0.750000  0.225199  0.173374  1
  Lu  Lu2  1  0.250000  0.777264  0.827088  1
  Lu  Lu3  1  0.750000  0.723756  0.327917  1
  Ga  Ga4  1  0.250000  0.705444  0.536131  1
  Ga  Ga5  1  0.750000  0.299068  0.463793  1
  Ga  Ga6  1  0.750000  0.794139  0.037564  1
  Ga  Ga7  1  0.250000  0.198154  0.964938  1
  Ga  Ga8  1  0.250000  0.927568  0.156189  1
  Ga  Ga9  1  0.750000  0.068059  0.847578  1
  Ga  Ga10  1  0.750000  0.571954  0.652186  1
  Ga  Ga11  1  0.250000  0.431517  0.344050  1
  Ag  Ag12  1  0.250000  0.544319  0.096389  1
  Ag  Ag13  1  0.750000  0.455838  0.901554  1
  Ag  Ag14  1  0.750000  0.957619  0.596754  1
  Ag  Ag15  1  0.250000  0.045167  0.401762  1
