# generated using pymatgen
data_Ce3Y(B4Os)4
_symmetry_space_group_name_H-M   'P 1'
_cell_length_a   3.61234000
_cell_length_b   6.01088583
_cell_length_c   11.65495953
_cell_angle_alpha   90.08923081
_cell_angle_beta   90.00000000
_cell_angle_gamma   90.00000000
_symmetry_Int_Tables_number   1
_chemical_formula_structural   Ce3Y(B4Os)4
_chemical_formula_sum   'Ce3 Y1 B16 Os4'
_cell_volume   253.06806360
_cell_formula_units_Z   1
loop_
 _symmetry_equiv_pos_site_id
 _symmetry_equiv_pos_as_xyz
  1  'x, y, z'
loop_
 _atom_site_type_symbol
 _atom_site_label
 _atom_site_symmetry_multiplicity
 _atom_site_fract_x
 _atom_site_fract_y
 _atom_site_fract_z
 _atom_site_occupancy
  Ce  Ce0  1  0.000000  0.629034  0.649791  1
  Ce  Ce1  1  0.000000  0.370964  0.349453  1
  Ce  Ce2  1  0.000000  0.128457  0.851538  1
  Y  Y3  1  0.000000  0.871778  0.148921  1
  B  B4  1  0.500000  0.974092  0.690597  1
  B  B5  1  0.500000  0.025907  0.308514  1
  B  B6  1  0.500000  0.472000  0.810241  1
  B  B7  1  0.500000  0.527521  0.190377  1
  B  B8  1  0.500000  0.787424  0.814844  1
  B  B9  1  0.500000  0.212698  0.185825  1
  B  B10  1  0.500000  0.285667  0.686805  1
  B  B11  1  0.500000  0.713987  0.313290  1
  B  B12  1  0.500000  0.863297  0.969441  1
  B  B13  1  0.500000  0.137262  0.031517  1
  B  B14  1  0.500000  0.362119  0.530547  1
  B  B15  1  0.500000  0.637194  0.468907  1
  B  B16  1  0.500000  0.888076  0.545407  1
  B  B17  1  0.500000  0.111216  0.453348  1
  B  B18  1  0.500000  0.388660  0.955218  1
  B  B19  1  0.500000  0.612990  0.046816  1
  Os  Os20  1  0.000000  0.640183  0.905558  1
  Os  Os21  1  0.000000  0.358674  0.093523  1
  Os  Os22  1  0.000000  0.141031  0.594031  1
  Os  Os23  1  0.000000  0.859770  0.405491  1
