# generated using pymatgen
data_Tb4Ho4Re(B8Ru)3
_symmetry_space_group_name_H-M   'P 1'
_cell_length_a   3.67067800
_cell_length_b   9.14705454
_cell_length_c   11.53838301
_cell_angle_alpha   90.12184972
_cell_angle_beta   90.00000000
_cell_angle_gamma   90.00000000
_symmetry_Int_Tables_number   1
_chemical_formula_structural   Tb4Ho4Re(B8Ru)3
_chemical_formula_sum   'Tb4 Ho4 Re1 B24 Ru3'
_cell_volume   387.41062411
_cell_formula_units_Z   1
loop_
 _symmetry_equiv_pos_site_id
 _symmetry_equiv_pos_as_xyz
  1  'x, y, z'
loop_
 _atom_site_type_symbol
 _atom_site_label
 _atom_site_symmetry_multiplicity
 _atom_site_fract_x
 _atom_site_fract_y
 _atom_site_fract_z
 _atom_site_occupancy
  Tb  Tb0  1  0.000000  0.323081  0.415037  1
  Tb  Tb1  1  0.000000  0.679818  0.587955  1
  Tb  Tb2  1  0.000000  0.822764  0.083636  1
  Tb  Tb3  1  0.000000  0.176187  0.913429  1
  Ho  Ho4  1  0.000000  0.943120  0.370965  1
  Ho  Ho5  1  0.000000  0.056439  0.627785  1
  Ho  Ho6  1  0.000000  0.442607  0.128706  1
  Ho  Ho7  1  0.000000  0.555997  0.872372  1
  Re  Re8  1  0.000000  0.862218  0.820993  1
  B  B9  1  0.500000  0.554272  0.432962  1
  B  B10  1  0.500000  0.446022  0.567393  1
  B  B11  1  0.500000  0.053991  0.067763  1
  B  B12  1  0.500000  0.946890  0.932938  1
  B  B13  1  0.500000  0.748456  0.419144  1
  B  B14  1  0.500000  0.251886  0.580612  1
  B  B15  1  0.500000  0.248178  0.081082  1
  B  B16  1  0.500000  0.751237  0.919031  1
  B  B17  1  0.500000  0.790130  0.265979  1
  B  B18  1  0.500000  0.209401  0.733054  1
  B  B19  1  0.500000  0.290624  0.234063  1
  B  B20  1  0.500000  0.708472  0.766054  1
  B  B21  1  0.500000  0.630771  0.185411  1
  B  B22  1  0.500000  0.368524  0.814252  1
  B  B23  1  0.500000  0.131551  0.314759  1
  B  B24  1  0.500000  0.868974  0.685503  1
  B  B25  1  0.500000  0.983786  0.212590  1
  B  B26  1  0.500000  0.017581  0.787198  1
  B  B27  1  0.500000  0.483571  0.287904  1
  B  B28  1  0.500000  0.516381  0.712733  1
  B  B29  1  0.500000  0.605017  0.029901  1
  B  B30  1  0.500000  0.392910  0.970990  1
  B  B31  1  0.500000  0.106855  0.469956  1
  B  B32  1  0.500000  0.894034  0.528610  1
  Ru  Ru33  1  0.000000  0.637880  0.320971  1
  Ru  Ru34  1  0.000000  0.362251  0.678677  1
  Ru  Ru35  1  0.000000  0.138121  0.179590  1
