# generated using pymatgen
data_Zn11IrAu2
_symmetry_space_group_name_H-M   'P 1'
_cell_length_a   6.80850615
_cell_length_b   6.80850695
_cell_length_c   5.12757287
_cell_angle_alpha   80.49254159
_cell_angle_beta   80.49254738
_cell_angle_gamma   70.14559821
_symmetry_Int_Tables_number   1
_chemical_formula_structural   Zn11IrAu2
_chemical_formula_sum   'Zn11 Ir1 Au2'
_cell_volume   218.96333340
_cell_formula_units_Z   1
loop_
 _symmetry_equiv_pos_site_id
 _symmetry_equiv_pos_as_xyz
  1  'x, y, z'
loop_
 _atom_site_type_symbol
 _atom_site_label
 _atom_site_symmetry_multiplicity
 _atom_site_fract_x
 _atom_site_fract_y
 _atom_site_fract_z
 _atom_site_occupancy
  Zn  Zn0  1  0.000000  0.000000  0.000000  1
  Zn  Zn1  1  0.774949  0.774949  0.386188  1
  Zn  Zn2  1  0.225051  0.225051  0.613812  1
  Zn  Zn3  1  0.222625  0.630806  0.312224  1
  Zn  Zn4  1  0.369194  0.777375  0.687776  1
  Zn  Zn5  1  0.777375  0.369194  0.687776  1
  Zn  Zn6  1  0.630806  0.222625  0.312224  1
  Zn  Zn7  1  0.004155  0.639154  0.796024  1
  Zn  Zn8  1  0.360846  0.995845  0.203976  1
  Zn  Zn9  1  0.995845  0.360846  0.203976  1
  Zn  Zn10  1  0.639154  0.004155  0.796024  1
  Ir  Ir11  1  0.000000  0.000000  0.500000  1
  Au  Au12  1  0.376548  0.376548  0.936655  1
  Au  Au13  1  0.623452  0.623452  0.063345  1
