# generated using pymatgen
data_Sm3Mn(Co4P3)2
_symmetry_space_group_name_H-M   'P 1'
_cell_length_a   3.73206500
_cell_length_b   10.61957200
_cell_length_c   12.30683800
_cell_angle_alpha   90.00000000
_cell_angle_beta   90.00000000
_cell_angle_gamma   90.00000000
_symmetry_Int_Tables_number   1
_chemical_formula_structural   Sm3Mn(Co4P3)2
_chemical_formula_sum   'Sm6 Mn2 Co16 P12'
_cell_volume   487.75608560
_cell_formula_units_Z   2
loop_
 _symmetry_equiv_pos_site_id
 _symmetry_equiv_pos_as_xyz
  1  'x, y, z'
loop_
 _atom_site_type_symbol
 _atom_site_label
 _atom_site_symmetry_multiplicity
 _atom_site_fract_x
 _atom_site_fract_y
 _atom_site_fract_z
 _atom_site_occupancy
  Sm  Sm0  1  0.000000  0.500000  0.522549  1
  Sm  Sm1  1  0.500000  0.000000  0.477451  1
  Sm  Sm2  1  0.500000  0.817580  0.205116  1
  Sm  Sm3  1  0.500000  0.182420  0.205116  1
  Sm  Sm4  1  0.000000  0.682420  0.794884  1
  Sm  Sm5  1  0.000000  0.317580  0.794884  1
  Mn  Mn6  1  0.500000  0.500000  0.158199  1
  Mn  Mn7  1  0.000000  0.000000  0.841801  1
  Co  Co8  1  0.500000  0.500000  0.703377  1
  Co  Co9  1  0.000000  0.000000  0.296623  1
  Co  Co10  1  0.000000  0.500000  0.986749  1
  Co  Co11  1  0.500000  0.000000  0.013251  1
  Co  Co12  1  0.500000  0.333499  0.994832  1
  Co  Co13  1  0.500000  0.666501  0.994832  1
  Co  Co14  1  0.000000  0.166501  0.005168  1
  Co  Co15  1  0.000000  0.833499  0.005168  1
  Co  Co16  1  0.500000  0.296425  0.430198  1
  Co  Co17  1  0.500000  0.703575  0.430198  1
  Co  Co18  1  0.000000  0.203575  0.569802  1
  Co  Co19  1  0.000000  0.796425  0.569802  1
  Co  Co20  1  0.500000  0.880938  0.709959  1
  Co  Co21  1  0.500000  0.119062  0.709959  1
  Co  Co22  1  0.000000  0.619062  0.290041  1
  Co  Co23  1  0.000000  0.380938  0.290041  1
  P  P24  1  0.500000  0.500000  0.884818  1
  P  P25  1  0.000000  0.000000  0.115182  1
  P  P26  1  0.500000  0.500000  0.343049  1
  P  P27  1  0.000000  0.000000  0.656951  1
  P  P28  1  0.500000  0.308469  0.614925  1
  P  P29  1  0.500000  0.691531  0.614925  1
  P  P30  1  0.000000  0.191531  0.385075  1
  P  P31  1  0.000000  0.808469  0.385075  1
  P  P32  1  0.500000  0.848043  0.894747  1
  P  P33  1  0.500000  0.151957  0.894747  1
  P  P34  1  0.000000  0.651957  0.105253  1
  P  P35  1  0.000000  0.348043  0.105253  1
