# generated using pymatgen
data_Cs2Te3PdO12
_symmetry_space_group_name_H-M   'P 1'
_cell_length_a   7.24350848
_cell_length_b   7.24350857
_cell_length_c   7.24350887
_cell_angle_alpha   61.07165134
_cell_angle_beta   61.07165434
_cell_angle_gamma   61.07164412
_symmetry_Int_Tables_number   1
_chemical_formula_structural   Cs2Te3PdO12
_chemical_formula_sum   'Cs2 Te3 Pd1 O12'
_cell_volume   275.22367251
_cell_formula_units_Z   1
loop_
 _symmetry_equiv_pos_site_id
 _symmetry_equiv_pos_as_xyz
  1  'x, y, z'
loop_
 _atom_site_type_symbol
 _atom_site_label
 _atom_site_symmetry_multiplicity
 _atom_site_fract_x
 _atom_site_fract_y
 _atom_site_fract_z
 _atom_site_occupancy
  Cs  Cs0  1  0.373799  0.373799  0.373799  1
  Cs  Cs1  1  0.626201  0.626201  0.626201  1
  Te  Te2  1  0.500000  0.000000  0.000000  1
  Te  Te3  1  0.000000  0.000000  0.500000  1
  Te  Te4  1  0.000000  0.500000  0.000000  1
  Pd  Pd5  1  0.000000  0.000000  0.000000  1
  O  O6  1  0.928728  0.321131  0.321131  1
  O  O7  1  0.332787  0.922907  0.922907  1
  O  O8  1  0.321131  0.321131  0.928728  1
  O  O9  1  0.922907  0.922907  0.332787  1
  O  O10  1  0.922907  0.332787  0.922907  1
  O  O11  1  0.321131  0.928728  0.321131  1
  O  O12  1  0.071272  0.678869  0.678869  1
  O  O13  1  0.667213  0.077093  0.077093  1
  O  O14  1  0.678869  0.678869  0.071272  1
  O  O15  1  0.077093  0.077093  0.667213  1
  O  O16  1  0.077093  0.667213  0.077093  1
  O  O17  1  0.678869  0.071272  0.678869  1
