# generated using pymatgen
data_Nd3Dy(MoO6)2
_symmetry_space_group_name_H-M   'P 1'
_cell_length_a   5.52447350
_cell_length_b   10.18244995
_cell_length_c   10.18245604
_cell_angle_alpha   68.58037571
_cell_angle_beta   75.08314842
_cell_angle_gamma   75.08325209
_symmetry_Int_Tables_number   1
_chemical_formula_structural   Nd3Dy(MoO6)2
_chemical_formula_sum   'Nd6 Dy2 Mo4 O24'
_cell_volume   506.68610674
_cell_formula_units_Z   2
loop_
 _symmetry_equiv_pos_site_id
 _symmetry_equiv_pos_as_xyz
  1  'x, y, z'
loop_
 _atom_site_type_symbol
 _atom_site_label
 _atom_site_symmetry_multiplicity
 _atom_site_fract_x
 _atom_site_fract_y
 _atom_site_fract_z
 _atom_site_occupancy
  Nd  Nd0  1  0.620325  0.786426  0.552996  1
  Nd  Nd1  1  0.120324  0.552996  0.786427  1
  Nd  Nd2  1  0.379676  0.213572  0.447005  1
  Nd  Nd3  1  0.879677  0.447005  0.213573  1
  Nd  Nd4  1  0.750001  0.863808  0.136192  1
  Nd  Nd5  1  0.249999  0.136191  0.863808  1
  Dy  Dy6  1  0.750002  0.397652  0.602349  1
  Dy  Dy7  1  0.249999  0.602349  0.397651  1
  Mo  Mo8  1  0.064799  0.007182  0.297605  1
  Mo  Mo9  1  0.435202  0.702395  0.992819  1
  Mo  Mo10  1  0.935201  0.992818  0.702395  1
  Mo  Mo11  1  0.564801  0.297605  0.007184  1
  O  O12  1  0.924306  0.570449  0.606017  1
  O  O13  1  0.575692  0.393984  0.429551  1
  O  O14  1  0.075694  0.429551  0.393983  1
  O  O15  1  0.424307  0.606017  0.570450  1
  O  O16  1  0.936642  0.806259  0.338038  1
  O  O17  1  0.563357  0.661962  0.193740  1
  O  O18  1  0.063357  0.193741  0.661962  1
  O  O19  1  0.436643  0.338038  0.806259  1
  O  O20  1  0.374223  0.888013  0.328749  1
  O  O21  1  0.125777  0.671251  0.111986  1
  O  O22  1  0.625777  0.111987  0.671250  1
  O  O23  1  0.874223  0.328749  0.888014  1
  O  O24  1  0.633857  0.289460  0.177129  1
  O  O25  1  0.866143  0.822871  0.710540  1
  O  O26  1  0.366143  0.710540  0.822872  1
  O  O27  1  0.133858  0.177128  0.289460  1
  O  O28  1  0.520810  0.115798  0.044518  1
  O  O29  1  0.979191  0.955482  0.884202  1
  O  O30  1  0.763433  0.023907  0.427306  1
  O  O31  1  0.020810  0.044517  0.115798  1
  O  O32  1  0.263434  0.427306  0.023908  1
  O  O33  1  0.236568  0.976093  0.572693  1
  O  O34  1  0.736567  0.572694  0.976092  1
  O  O35  1  0.479190  0.884202  0.955483  1
