# generated using pymatgen
data_Er4VRe(B8Rh)2
_symmetry_space_group_name_H-M   'P 1'
_cell_length_a   3.54070500
_cell_length_b   5.94837003
_cell_length_c   11.52007781
_cell_angle_alpha   89.63485180
_cell_angle_beta   90.00000000
_cell_angle_gamma   90.00000000
_symmetry_Int_Tables_number   1
_chemical_formula_structural   Er4VRe(B8Rh)2
_chemical_formula_sum   'Er4 V1 Re1 B16 Rh2'
_cell_volume   242.62431020
_cell_formula_units_Z   1
loop_
 _symmetry_equiv_pos_site_id
 _symmetry_equiv_pos_as_xyz
  1  'x, y, z'
loop_
 _atom_site_type_symbol
 _atom_site_label
 _atom_site_symmetry_multiplicity
 _atom_site_fract_x
 _atom_site_fract_y
 _atom_site_fract_z
 _atom_site_occupancy
  Er  Er0  1  0.500000  0.125966  0.851463  1
  Er  Er1  1  0.500000  0.874030  0.149465  1
  Er  Er2  1  0.500000  0.629824  0.649469  1
  Er  Er3  1  0.500000  0.370345  0.349061  1
  V  V4  1  0.500000  0.372435  0.083975  1
  Re  Re5  1  0.500000  0.626761  0.915241  1
  B  B6  1  0.000000  0.287638  0.687309  1
  B  B7  1  0.000000  0.712380  0.312723  1
  B  B8  1  0.000000  0.787743  0.814325  1
  B  B9  1  0.000000  0.212664  0.186002  1
  B  B10  1  0.000000  0.364592  0.530033  1
  B  B11  1  0.000000  0.635045  0.469303  1
  B  B12  1  0.000000  0.865549  0.967968  1
  B  B13  1  0.000000  0.134392  0.032236  1
  B  B14  1  0.000000  0.024264  0.306527  1
  B  B15  1  0.000000  0.975301  0.693125  1
  B  B16  1  0.000000  0.523554  0.192693  1
  B  B17  1  0.000000  0.475983  0.807292  1
  B  B18  1  0.000000  0.113809  0.452182  1
  B  B19  1  0.000000  0.886383  0.547472  1
  B  B20  1  0.000000  0.614134  0.046861  1
  B  B21  1  0.000000  0.385759  0.953341  1
  Rh  Rh22  1  0.500000  0.142805  0.594797  1
  Rh  Rh23  1  0.500000  0.858643  0.407138  1
