# generated using pymatgen
data_Dy11Y5Cd4(RuPt)2
_symmetry_space_group_name_H-M   'P 1'
_cell_length_a   9.66619803
_cell_length_b   9.66543033
_cell_length_c   9.70305608
_cell_angle_alpha   59.88475578
_cell_angle_beta   59.87359322
_cell_angle_gamma   59.79372488
_symmetry_Int_Tables_number   1
_chemical_formula_structural   Dy11Y5Cd4(RuPt)2
_chemical_formula_sum   'Dy11 Y5 Cd4 Ru2 Pt2'
_cell_volume   638.84532844
_cell_formula_units_Z   1
loop_
 _symmetry_equiv_pos_site_id
 _symmetry_equiv_pos_as_xyz
  1  'x, y, z'
loop_
 _atom_site_type_symbol
 _atom_site_label
 _atom_site_symmetry_multiplicity
 _atom_site_fract_x
 _atom_site_fract_y
 _atom_site_fract_z
 _atom_site_occupancy
  Dy  Dy0  1  0.349059  0.349284  0.352417  1
  Dy  Dy1  1  0.349260  0.349210  0.949135  1
  Dy  Dy2  1  0.346348  0.954631  0.349497  1
  Dy  Dy3  1  0.954746  0.346341  0.349512  1
  Dy  Dy4  1  0.814889  0.188189  0.190537  1
  Dy  Dy5  1  0.188124  0.815048  0.806390  1
  Dy  Dy6  1  0.187982  0.814931  0.190624  1
  Dy  Dy7  1  0.814981  0.188346  0.806388  1
  Dy  Dy8  1  0.187857  0.188161  0.811981  1
  Dy  Dy9  1  0.808294  0.808220  0.191924  1
  Dy  Dy10  1  0.937716  0.558786  0.566075  1
  Y  Y11  1  0.559040  0.937426  0.937382  1
  Y  Y12  1  0.559444  0.937168  0.566188  1
  Y  Y13  1  0.937304  0.559137  0.937138  1
  Y  Y14  1  0.563405  0.563175  0.936656  1
  Y  Y15  1  0.938077  0.937958  0.561841  1
  Cd  Cd16  1  0.579979  0.580013  0.581381  1
  Cd  Cd17  1  0.579981  0.579928  0.258746  1
  Cd  Cd18  1  0.581096  0.255389  0.581721  1
  Cd  Cd19  1  0.255245  0.581103  0.581803  1
  Ru  Ru20  1  0.144230  0.144128  0.137459  1
  Ru  Ru21  1  0.144034  0.144477  0.574148  1
  Pt  Pt22  1  0.144844  0.574082  0.140534  1
  Pt  Pt23  1  0.574069  0.144871  0.140525  1
