# generated using pymatgen
data_Nd3ZnAg3Sn4
_symmetry_space_group_name_H-M   'P 1'
_cell_length_a   8.88057787
_cell_length_b   8.91941794
_cell_length_c   8.91941788
_cell_angle_alpha   149.32479259
_cell_angle_beta   131.01028983
_cell_angle_gamma   58.95870561
_symmetry_Int_Tables_number   1
_chemical_formula_structural   Nd3ZnAg3Sn4
_chemical_formula_sum   'Nd3 Zn1 Ag3 Sn4'
_cell_volume   269.79626901
_cell_formula_units_Z   1
loop_
 _symmetry_equiv_pos_site_id
 _symmetry_equiv_pos_as_xyz
  1  'x, y, z'
loop_
 _atom_site_type_symbol
 _atom_site_label
 _atom_site_symmetry_multiplicity
 _atom_site_fract_x
 _atom_site_fract_y
 _atom_site_fract_z
 _atom_site_occupancy
  Nd  Nd0  1  0.502446  0.999759  0.502687  1
  Nd  Nd1  1  0.868098  0.872651  0.995446  1
  Nd  Nd2  1  0.134239  0.129226  0.005013  1
  Zn  Zn3  1  0.475954  0.667787  0.808169  1
  Ag  Ag4  1  0.859065  0.670762  0.188303  1
  Ag  Ag5  1  0.133706  0.328294  0.805412  1
  Ag  Ag6  1  0.525765  0.332371  0.193393  1
  Sn  Sn7  1  0.288813  0.782449  0.506364  1
  Sn  Sn8  1  0.705588  0.214710  0.490878  1
  Sn  Sn9  1  0.809330  0.501839  0.307491  1
  Sn  Sn10  1  0.196997  0.500153  0.696844  1
