# generated using pymatgen
data_SmNp3(B6Mo)2
_symmetry_space_group_name_H-M   'P 1'
_cell_length_a   3.67816100
_cell_length_b   9.32690091
_cell_length_c   11.38550810
_cell_angle_alpha   90.05053317
_cell_angle_beta   90.00000000
_cell_angle_gamma   90.00000000
_symmetry_Int_Tables_number   1
_chemical_formula_structural   SmNp3(B6Mo)2
_chemical_formula_sum   'Sm2 Np6 B24 Mo4'
_cell_volume   390.58930358
_cell_formula_units_Z   2
loop_
 _symmetry_equiv_pos_site_id
 _symmetry_equiv_pos_as_xyz
  1  'x, y, z'
loop_
 _atom_site_type_symbol
 _atom_site_label
 _atom_site_symmetry_multiplicity
 _atom_site_fract_x
 _atom_site_fract_y
 _atom_site_fract_z
 _atom_site_occupancy
  Sm  Sm0  1  0.000000  0.337811  0.407345  1
  Sm  Sm1  1  0.000000  0.662189  0.592655  1
  Np  Np2  1  0.000000  0.838543  0.092384  1
  Np  Np3  1  0.000000  0.161457  0.907616  1
  Np  Np4  1  0.000000  0.959011  0.399846  1
  Np  Np5  1  0.000000  0.040989  0.600154  1
  Np  Np6  1  0.000000  0.458932  0.099495  1
  Np  Np7  1  0.000000  0.541068  0.900505  1
  B  B8  1  0.500000  0.554213  0.430033  1
  B  B9  1  0.500000  0.445787  0.569967  1
  B  B10  1  0.500000  0.051260  0.067450  1
  B  B11  1  0.500000  0.948740  0.932550  1
  B  B12  1  0.500000  0.747605  0.422311  1
  B  B13  1  0.500000  0.252395  0.577689  1
  B  B14  1  0.500000  0.244808  0.075528  1
  B  B15  1  0.500000  0.755192  0.924472  1
  B  B16  1  0.500000  0.807456  0.273023  1
  B  B17  1  0.500000  0.192544  0.726977  1
  B  B18  1  0.500000  0.305179  0.223474  1
  B  B19  1  0.500000  0.694821  0.776526  1
  B  B20  1  0.500000  0.646501  0.185867  1
  B  B21  1  0.500000  0.353499  0.814133  1
  B  B22  1  0.500000  0.143247  0.312052  1
  B  B23  1  0.500000  0.856753  0.687948  1
  B  B24  1  0.500000  0.987512  0.220439  1
  B  B25  1  0.500000  0.012488  0.779561  1
  B  B26  1  0.500000  0.490146  0.277024  1
  B  B27  1  0.500000  0.509854  0.722976  1
  B  B28  1  0.500000  0.641746  0.038783  1
  B  B29  1  0.500000  0.358254  0.961217  1
  B  B30  1  0.500000  0.135652  0.461991  1
  B  B31  1  0.500000  0.864348  0.538009  1
  Mo  Mo32  1  0.000000  0.651025  0.314615  1
  Mo  Mo33  1  0.000000  0.348975  0.685385  1
  Mo  Mo34  1  0.000000  0.144404  0.178150  1
  Mo  Mo35  1  0.000000  0.855596  0.821850  1
