# generated using pymatgen
data_Y5Ho5Cd3In5Pd4
_symmetry_space_group_name_H-M   'P 1'
_cell_length_a   3.61466200
_cell_length_b   8.12024875
_cell_length_c   18.31319641
_cell_angle_alpha   89.91307684
_cell_angle_beta   90.00000000
_cell_angle_gamma   90.00000000
_symmetry_Int_Tables_number   1
_chemical_formula_structural   Y5Ho5Cd3In5Pd4
_chemical_formula_sum   'Y5 Ho5 Cd3 In5 Pd4'
_cell_volume   537.52749087
_cell_formula_units_Z   1
loop_
 _symmetry_equiv_pos_site_id
 _symmetry_equiv_pos_as_xyz
  1  'x, y, z'
loop_
 _atom_site_type_symbol
 _atom_site_label
 _atom_site_symmetry_multiplicity
 _atom_site_fract_x
 _atom_site_fract_y
 _atom_site_fract_z
 _atom_site_occupancy
  Y  Y0  1  0.000000  0.500146  0.499438  1
  Y  Y1  1  0.000000  0.999652  0.999972  1
  Y  Y2  1  0.000000  0.742506  0.281409  1
  Y  Y3  1  0.000000  0.260276  0.719636  1
  Y  Y4  1  0.000000  0.757089  0.781534  1
  Ho  Ho5  1  0.000000  0.242480  0.219000  1
  Ho  Ho6  1  0.000000  0.612004  0.084358  1
  Ho  Ho7  1  0.000000  0.387808  0.916770  1
  Ho  Ho8  1  0.000000  0.884557  0.584009  1
  Ho  Ho9  1  0.000000  0.113209  0.415233  1
  Cd  Cd10  1  0.500000  0.710041  0.932048  1
  Cd  Cd11  1  0.500000  0.289593  0.068330  1
  Cd  Cd12  1  0.500000  0.789603  0.431886  1
  In  In13  1  0.500000  0.207964  0.567524  1
  In  In14  1  0.500000  0.579388  0.648867  1
  In  In15  1  0.500000  0.423061  0.351180  1
  In  In16  1  0.500000  0.923376  0.147805  1
  In  In17  1  0.500000  0.077750  0.851748  1
  Pd  Pd18  1  0.500000  0.521534  0.196142  1
  Pd  Pd19  1  0.500000  0.474852  0.804329  1
  Pd  Pd20  1  0.500000  0.975674  0.695591  1
  Pd  Pd21  1  0.500000  0.027439  0.303189  1
