# generated using pymatgen
data_YbPrCuSe3
_symmetry_space_group_name_H-M   'P 1'
_cell_length_a   10.67860900
_cell_length_b   4.05096400
_cell_length_c   13.17595800
_cell_angle_alpha   90.00000000
_cell_angle_beta   90.00000000
_cell_angle_gamma   90.00000000
_symmetry_Int_Tables_number   1
_chemical_formula_structural   YbPrCuSe3
_chemical_formula_sum   'Yb4 Pr4 Cu4 Se12'
_cell_volume   569.97429558
_cell_formula_units_Z   4
loop_
 _symmetry_equiv_pos_site_id
 _symmetry_equiv_pos_as_xyz
  1  'x, y, z'
loop_
 _atom_site_type_symbol
 _atom_site_label
 _atom_site_symmetry_multiplicity
 _atom_site_fract_x
 _atom_site_fract_y
 _atom_site_fract_z
 _atom_site_occupancy
  Yb  Yb0  1  0.006933  0.250002  0.244960  1
  Yb  Yb1  1  0.506932  0.250002  0.255041  1
  Yb  Yb2  1  0.493068  0.750002  0.744959  1
  Yb  Yb3  1  0.993068  0.750002  0.755041  1
  Pr  Pr4  1  0.262824  0.250002  0.003699  1
  Pr  Pr5  1  0.762824  0.250002  0.496302  1
  Pr  Pr6  1  0.237177  0.750002  0.503699  1
  Pr  Pr7  1  0.737176  0.750002  0.996301  1
  Cu  Cu8  1  0.256027  0.750002  0.224153  1
  Cu  Cu9  1  0.756027  0.750002  0.275847  1
  Cu  Cu10  1  0.243973  0.250002  0.724153  1
  Cu  Cu11  1  0.743974  0.250002  0.775847  1
  Se  Se12  1  0.085808  0.750002  0.099026  1
  Se  Se13  1  0.435416  0.750002  0.104506  1
  Se  Se14  1  0.754061  0.250002  0.165233  1
  Se  Se15  1  0.254062  0.250002  0.334767  1
  Se  Se16  1  0.935417  0.750002  0.395493  1
  Se  Se17  1  0.585808  0.750002  0.400974  1
  Se  Se18  1  0.414191  0.250002  0.599026  1
  Se  Se19  1  0.064583  0.250002  0.604507  1
  Se  Se20  1  0.745939  0.750002  0.665233  1
  Se  Se21  1  0.245939  0.750002  0.834767  1
  Se  Se22  1  0.564584  0.250002  0.895494  1
  Se  Se23  1  0.914192  0.250002  0.900975  1
