# generated using pymatgen
data_Dy4MgCu2Bi
_symmetry_space_group_name_H-M   'P 1'
_cell_length_a   8.64063918
_cell_length_b   8.64063901
_cell_length_c   8.64063854
_cell_angle_alpha   127.30461176
_cell_angle_beta   127.30461052
_cell_angle_gamma   77.75427268
_symmetry_Int_Tables_number   1
_chemical_formula_structural   Dy4MgCu2Bi
_chemical_formula_sum   'Dy8 Mg2 Cu4 Bi2'
_cell_volume   395.69548222
_cell_formula_units_Z   2
loop_
 _symmetry_equiv_pos_site_id
 _symmetry_equiv_pos_as_xyz
  1  'x, y, z'
loop_
 _atom_site_type_symbol
 _atom_site_label
 _atom_site_symmetry_multiplicity
 _atom_site_fract_x
 _atom_site_fract_y
 _atom_site_fract_z
 _atom_site_occupancy
  Dy  Dy0  1  0.796414  0.296414  0.824391  1
  Dy  Dy1  1  0.203586  0.703586  0.175609  1
  Dy  Dy2  1  0.472023  0.972023  0.175609  1
  Dy  Dy3  1  0.296414  0.472023  0.500000  1
  Dy  Dy4  1  0.027977  0.203586  0.500000  1
  Dy  Dy5  1  0.527977  0.027977  0.824391  1
  Dy  Dy6  1  0.703586  0.527977  0.500000  1
  Dy  Dy7  1  0.972023  0.796414  0.500000  1
  Mg  Mg8  1  0.000000  0.000000  0.000000  1
  Mg  Mg9  1  0.500000  0.500000  0.000000  1
  Cu  Cu10  1  0.125504  0.625504  0.751007  1
  Cu  Cu11  1  0.874496  0.374496  0.248993  1
  Cu  Cu12  1  0.625504  0.874496  0.500000  1
  Cu  Cu13  1  0.374496  0.125504  0.500000  1
  Bi  Bi14  1  0.250000  0.250000  0.000000  1
  Bi  Bi15  1  0.750000  0.750000  0.000000  1
