# generated using pymatgen
data_YU(CoB4)2
_symmetry_space_group_name_H-M   'P 1'
_cell_length_a   3.37106500
_cell_length_b   5.90342146
_cell_length_c   11.43183801
_cell_angle_alpha   90.07311907
_cell_angle_beta   90.00000000
_cell_angle_gamma   90.00000000
_symmetry_Int_Tables_number   1
_chemical_formula_structural   YU(CoB4)2
_chemical_formula_sum   'Y2 U2 Co4 B16'
_cell_volume   227.50273637
_cell_formula_units_Z   2
loop_
 _symmetry_equiv_pos_site_id
 _symmetry_equiv_pos_as_xyz
  1  'x, y, z'
loop_
 _atom_site_type_symbol
 _atom_site_label
 _atom_site_symmetry_multiplicity
 _atom_site_fract_x
 _atom_site_fract_y
 _atom_site_fract_z
 _atom_site_occupancy
  Y  Y0  1  0.000000  0.627270  0.350654  1
  Y  Y1  1  0.000000  0.372730  0.649346  1
  U  U2  1  0.000000  0.126863  0.150355  1
  U  U3  1  0.000000  0.873137  0.849645  1
  Co  Co4  1  0.000000  0.633786  0.088627  1
  Co  Co5  1  0.000000  0.366214  0.911373  1
  Co  Co6  1  0.000000  0.133008  0.409522  1
  Co  Co7  1  0.000000  0.866992  0.590478  1
  B  B8  1  0.500000  0.783603  0.184662  1
  B  B9  1  0.500000  0.216397  0.815338  1
  B  B10  1  0.500000  0.281575  0.314186  1
  B  B11  1  0.500000  0.718425  0.685814  1
  B  B12  1  0.500000  0.864440  0.033850  1
  B  B13  1  0.500000  0.135560  0.966150  1
  B  B14  1  0.500000  0.360753  0.466821  1
  B  B15  1  0.500000  0.639247  0.533179  1
  B  B16  1  0.500000  0.887951  0.454358  1
  B  B17  1  0.500000  0.112049  0.545642  1
  B  B18  1  0.500000  0.386297  0.045904  1
  B  B19  1  0.500000  0.613703  0.954096  1
  B  B20  1  0.500000  0.976678  0.309150  1
  B  B21  1  0.500000  0.023322  0.690850  1
  B  B22  1  0.500000  0.476593  0.190088  1
  B  B23  1  0.500000  0.523407  0.809912  1
