# generated using pymatgen
data_Ho8Lu11ScSi15Bi
_symmetry_space_group_name_H-M   'P 1'
_cell_length_a   7.38114406
_cell_length_b   7.57425537
_cell_length_c   14.38467376
_cell_angle_alpha   90.16175931
_cell_angle_beta   86.97352889
_cell_angle_gamma   90.25435072
_symmetry_Int_Tables_number   1
_chemical_formula_structural   Ho8Lu11ScSi15Bi
_chemical_formula_sum   'Ho8 Lu11 Sc1 Si15 Bi1'
_cell_volume   803.06693871
_cell_formula_units_Z   1
loop_
 _symmetry_equiv_pos_site_id
 _symmetry_equiv_pos_as_xyz
  1  'x, y, z'
loop_
 _atom_site_type_symbol
 _atom_site_label
 _atom_site_symmetry_multiplicity
 _atom_site_fract_x
 _atom_site_fract_y
 _atom_site_fract_z
 _atom_site_occupancy
  Ho  Ho0  1  0.016704  0.179506  0.098110  1
  Ho  Ho1  1  0.985071  0.821964  0.904265  1
  Ho  Ho2  1  0.483744  0.680039  0.902192  1
  Ho  Ho3  1  0.003779  0.830410  0.600803  1
  Ho  Ho4  1  0.515179  0.320358  0.098491  1
  Ho  Ho5  1  0.990762  0.173969  0.396968  1
  Ho  Ho6  1  0.505797  0.313234  0.394916  1
  Ho  Ho7  1  0.520688  0.686866  0.603949  1
  Lu  Lu8  1  0.170517  0.504875  0.755308  1
  Lu  Lu9  1  0.827983  0.495779  0.251618  1
  Lu  Lu10  1  0.326794  0.005559  0.250528  1
  Lu  Lu11  1  0.675626  0.994885  0.750169  1
  Lu  Lu12  1  0.359721  0.150937  0.625864  1
  Lu  Lu13  1  0.644696  0.831217  0.376895  1
  Lu  Lu14  1  0.140138  0.680471  0.369411  1
  Lu  Lu15  1  0.667814  0.821144  0.121439  1
  Lu  Lu16  1  0.838930  0.330705  0.624030  1
  Lu  Lu17  1  0.329964  0.177628  0.878436  1
  Lu  Lu18  1  0.829062  0.324084  0.878646  1
  Sc  Sc19  1  0.168828  0.676737  0.125314  1
  Si  Si20  1  0.044676  0.116409  0.752424  1
  Si  Si21  1  0.953809  0.887645  0.243891  1
  Si  Si22  1  0.452331  0.611575  0.245660  1
  Si  Si23  1  0.541037  0.389165  0.752740  1
  Si  Si24  1  0.294313  0.865552  0.754844  1
  Si  Si25  1  0.708989  0.128311  0.244627  1
  Si  Si26  1  0.207409  0.372333  0.245859  1
  Si  Si27  1  0.796400  0.632598  0.753496  1
  Si  Si28  1  0.796663  0.535777  0.456196  1
  Si  Si29  1  0.300706  0.966934  0.455860  1
  Si  Si30  1  0.853342  0.531131  0.042258  1
  Si  Si31  1  0.699991  0.033867  0.542094  1
  Si  Si32  1  0.154273  0.471900  0.964086  1
  Si  Si33  1  0.650114  0.030132  0.960278  1
  Si  Si34  1  0.341633  0.964224  0.040944  1
  Bi  Bi35  1  0.202517  0.462076  0.537391  1
