# generated using pymatgen
data_Mn2(SiTc)3
_symmetry_space_group_name_H-M   'P 1'
_cell_length_a   6.96118600
_cell_length_b   6.96118607
_cell_length_c   4.79285900
_cell_angle_alpha   90.00000000
_cell_angle_beta   90.00000000
_cell_angle_gamma   119.99999966
_symmetry_Int_Tables_number   1
_chemical_formula_structural   Mn2(SiTc)3
_chemical_formula_sum   'Mn4 Si6 Tc6'
_cell_volume   201.13690663
_cell_formula_units_Z   2
loop_
 _symmetry_equiv_pos_site_id
 _symmetry_equiv_pos_as_xyz
  1  'x, y, z'
loop_
 _atom_site_type_symbol
 _atom_site_label
 _atom_site_symmetry_multiplicity
 _atom_site_fract_x
 _atom_site_fract_y
 _atom_site_fract_z
 _atom_site_occupancy
  Mn  Mn0  1  0.333333  0.666667  0.500000  1
  Mn  Mn1  1  0.666667  0.333333  0.000000  1
  Mn  Mn2  1  0.666667  0.333333  0.500000  1
  Mn  Mn3  1  0.333333  0.666667  0.000000  1
  Si  Si4  1  0.402199  0.000000  0.750000  1
  Si  Si5  1  0.402199  0.402199  0.250000  1
  Si  Si6  1  0.000000  0.597801  0.250000  1
  Si  Si7  1  0.000000  0.402199  0.750000  1
  Si  Si8  1  0.597801  0.597801  0.750000  1
  Si  Si9  1  0.597801  0.000000  0.250000  1
  Tc  Tc10  1  0.000000  0.758298  0.750000  1
  Tc  Tc11  1  0.000000  0.241702  0.250000  1
  Tc  Tc12  1  0.758298  0.758298  0.250000  1
  Tc  Tc13  1  0.758298  0.000000  0.750000  1
  Tc  Tc14  1  0.241702  0.241702  0.750000  1
  Tc  Tc15  1  0.241702  0.000000  0.250000  1
