# generated using pymatgen
data_Dy8ErTm(BiAu2)2
_symmetry_space_group_name_H-M   'P 1'
_cell_length_a   8.72113920
_cell_length_b   8.72113944
_cell_length_c   8.72113904
_cell_angle_alpha   124.26304290
_cell_angle_beta   124.26304409
_cell_angle_gamma   82.76228612
_symmetry_Int_Tables_number   1
_chemical_formula_structural   Dy8ErTm(BiAu2)2
_chemical_formula_sum   'Dy8 Er1 Tm1 Bi2 Au4'
_cell_volume   435.00024973
_cell_formula_units_Z   1
loop_
 _symmetry_equiv_pos_site_id
 _symmetry_equiv_pos_as_xyz
  1  'x, y, z'
loop_
 _atom_site_type_symbol
 _atom_site_label
 _atom_site_symmetry_multiplicity
 _atom_site_fract_x
 _atom_site_fract_y
 _atom_site_fract_z
 _atom_site_occupancy
  Dy  Dy0  1  0.515776  0.015850  0.811509  1
  Dy  Dy1  1  0.204341  0.704267  0.188491  1
  Dy  Dy2  1  0.015850  0.204341  0.500074  1
  Dy  Dy3  1  0.704267  0.515776  0.499926  1
  Dy  Dy4  1  0.484224  0.984150  0.188491  1
  Dy  Dy5  1  0.795659  0.295733  0.811509  1
  Dy  Dy6  1  0.984150  0.795659  0.499926  1
  Dy  Dy7  1  0.295733  0.484224  0.500074  1
  Er  Er8  1  0.000000  0.000000  0.000000  1
  Tm  Tm9  1  0.500000  0.500000  0.000000  1
  Bi  Bi10  1  0.250036  0.250036  0.000000  1
  Bi  Bi11  1  0.749964  0.749964  0.000000  1
  Au  Au12  1  0.137732  0.637658  0.775391  1
  Au  Au13  1  0.862268  0.362342  0.224609  1
  Au  Au14  1  0.637658  0.862268  0.499926  1
  Au  Au15  1  0.362342  0.137732  0.500074  1
