# generated using pymatgen
data_ErNp3Ge6Ir2Ru5
_symmetry_space_group_name_H-M   'P 1'
_cell_length_a   7.23539265
_cell_length_b   7.16405572
_cell_length_c   7.23539390
_cell_angle_alpha   109.45003292
_cell_angle_beta   109.34655416
_cell_angle_gamma   109.45002992
_symmetry_Int_Tables_number   1
_chemical_formula_structural   ErNp3Ge6Ir2Ru5
_chemical_formula_sum   'Er1 Np3 Ge6 Ir2 Ru5'
_cell_volume   289.30310681
_cell_formula_units_Z   1
loop_
 _symmetry_equiv_pos_site_id
 _symmetry_equiv_pos_as_xyz
  1  'x, y, z'
loop_
 _atom_site_type_symbol
 _atom_site_label
 _atom_site_symmetry_multiplicity
 _atom_site_fract_x
 _atom_site_fract_y
 _atom_site_fract_z
 _atom_site_occupancy
  Er  Er0  1  0.996995  0.498013  0.996995  1
  Np  Np1  1  0.002384  0.005444  0.502630  1
  Np  Np2  1  0.502630  0.005444  0.002384  1
  Np  Np3  1  0.502943  0.494757  0.502943  1
  Ge  Ge4  1  0.691890  0.689170  0.000292  1
  Ge  Ge5  1  0.306682  0.996660  0.306682  1
  Ge  Ge6  1  0.000139  0.310692  0.308013  1
  Ge  Ge7  1  0.308013  0.310692  0.000139  1
  Ge  Ge8  1  0.692391  0.002717  0.692391  1
  Ge  Ge9  1  0.000292  0.689170  0.691890  1
  Ir  Ir10  1  0.253546  0.753444  0.507481  1
  Ir  Ir11  1  0.507481  0.753444  0.253546  1
  Ru  Ru12  1  0.744809  0.244391  0.489620  1
  Ru  Ru13  1  0.744224  0.500801  0.255942  1
  Ru  Ru14  1  0.489620  0.244391  0.744809  1
  Ru  Ru15  1  0.255942  0.500801  0.744224  1
  Ru  Ru16  1  0.000018  0.999968  0.000018  1
