# generated using pymatgen
data_SrLiNdMoN4
_symmetry_space_group_name_H-M   'P 1'
_cell_length_a   5.82823600
_cell_length_b   6.07215071
_cell_length_c   6.88338977
_cell_angle_alpha   72.29729093
_cell_angle_beta   90.00000000
_cell_angle_gamma   90.00000000
_symmetry_Int_Tables_number   1
_chemical_formula_structural   SrLiNdMoN4
_chemical_formula_sum   'Sr2 Li2 Nd2 Mo2 N8'
_cell_volume   232.06737263
_cell_formula_units_Z   2
loop_
 _symmetry_equiv_pos_site_id
 _symmetry_equiv_pos_as_xyz
  1  'x, y, z'
loop_
 _atom_site_type_symbol
 _atom_site_label
 _atom_site_symmetry_multiplicity
 _atom_site_fract_x
 _atom_site_fract_y
 _atom_site_fract_z
 _atom_site_occupancy
  Sr  Sr0  1  0.250000  0.282976  0.052425  1
  Sr  Sr1  1  0.750000  0.717024  0.947575  1
  Li  Li2  1  0.750000  0.296276  0.314511  1
  Li  Li3  1  0.250000  0.703724  0.685489  1
  Nd  Nd4  1  0.750000  0.770208  0.433456  1
  Nd  Nd5  1  0.250000  0.229792  0.566544  1
  Mo  Mo6  1  0.250000  0.737407  0.200246  1
  Mo  Mo7  1  0.750000  0.262593  0.799754  1
  N  N8  1  0.503140  0.468410  0.732342  1
  N  N9  1  0.003140  0.531590  0.267658  1
  N  N10  1  0.496860  0.531590  0.267658  1
  N  N11  1  0.996860  0.468410  0.732342  1
  N  N12  1  0.750000  0.074006  0.621603  1
  N  N13  1  0.250000  0.925994  0.378397  1
  N  N14  1  0.750000  0.099620  0.080611  1
  N  N15  1  0.250000  0.900380  0.919389  1
