# generated using pymatgen
data_Er8MgCdPt2
_symmetry_space_group_name_H-M   'P 1'
_cell_length_a   9.63988604
_cell_length_b   9.63988563
_cell_length_c   9.61641500
_cell_angle_alpha   60.08051139
_cell_angle_beta   60.08051279
_cell_angle_gamma   60.35055577
_symmetry_Int_Tables_number   1
_chemical_formula_structural   Er8MgCdPt2
_chemical_formula_sum   'Er16 Mg2 Cd2 Pt4'
_cell_volume   634.32177921
_cell_formula_units_Z   2
loop_
 _symmetry_equiv_pos_site_id
 _symmetry_equiv_pos_as_xyz
  1  'x, y, z'
loop_
 _atom_site_type_symbol
 _atom_site_label
 _atom_site_symmetry_multiplicity
 _atom_site_fract_x
 _atom_site_fract_y
 _atom_site_fract_z
 _atom_site_occupancy
  Er  Er0  1  0.350471  0.350471  0.347149  1
  Er  Er1  1  0.350471  0.350471  0.951911  1
  Er  Er2  1  0.357282  0.938743  0.351987  1
  Er  Er3  1  0.938743  0.357282  0.351987  1
  Er  Er4  1  0.811520  0.188549  0.189255  1
  Er  Er5  1  0.188549  0.811520  0.810674  1
  Er  Er6  1  0.188549  0.811520  0.189255  1
  Er  Er7  1  0.811520  0.188549  0.810674  1
  Er  Er8  1  0.188807  0.188807  0.811193  1
  Er  Er9  1  0.809727  0.809727  0.190273  1
  Er  Er10  1  0.933653  0.565429  0.565713  1
  Er  Er11  1  0.565429  0.933653  0.935206  1
  Er  Er12  1  0.565429  0.933653  0.565713  1
  Er  Er13  1  0.933653  0.565429  0.935206  1
  Er  Er14  1  0.566140  0.566140  0.933860  1
  Er  Er15  1  0.936470  0.936470  0.563530  1
  Mg  Mg16  1  0.578068  0.266436  0.577748  1
  Mg  Mg17  1  0.266436  0.578068  0.577748  1
  Cd  Cd18  1  0.581652  0.581652  0.586212  1
  Cd  Cd19  1  0.581652  0.581652  0.250483  1
  Pt  Pt20  1  0.142084  0.142084  0.148184  1
  Pt  Pt21  1  0.142084  0.142084  0.567651  1
  Pt  Pt22  1  0.139629  0.571985  0.144194  1
  Pt  Pt23  1  0.571985  0.139629  0.144194  1
