# generated using pymatgen
data_NaNd2Ho(Ir2O7)2
_symmetry_space_group_name_H-M   'P 1'
_cell_length_a   7.31414808
_cell_length_b   7.26792569
_cell_length_c   7.26792500
_cell_angle_alpha   60.08244609
_cell_angle_beta   60.27879643
_cell_angle_gamma   60.27879021
_symmetry_Int_Tables_number   1
_chemical_formula_structural   NaNd2Ho(Ir2O7)2
_chemical_formula_sum   'Na1 Nd2 Ho1 Ir4 O14'
_cell_volume   274.51058874
_cell_formula_units_Z   1
loop_
 _symmetry_equiv_pos_site_id
 _symmetry_equiv_pos_as_xyz
  1  'x, y, z'
loop_
 _atom_site_type_symbol
 _atom_site_label
 _atom_site_symmetry_multiplicity
 _atom_site_fract_x
 _atom_site_fract_y
 _atom_site_fract_z
 _atom_site_occupancy
  Na  Na0  1  0.625000  0.125000  0.125000  1
  Nd  Nd1  1  0.125000  0.125000  0.625000  1
  Nd  Nd2  1  0.125000  0.625000  0.125000  1
  Ho  Ho3  1  0.125000  0.125000  0.125000  1
  Ir  Ir4  1  0.625000  0.625000  0.625000  1
  Ir  Ir5  1  0.125000  0.625000  0.625000  1
  Ir  Ir6  1  0.625000  0.125000  0.625000  1
  Ir  Ir7  1  0.625000  0.625000  0.125000  1
  O  O8  1  0.955899  0.544373  0.544373  1
  O  O9  1  0.294651  0.294123  0.712721  1
  O  O10  1  0.955349  0.537279  0.955877  1
  O  O11  1  0.716237  0.299011  0.299011  1
  O  O12  1  0.543429  0.555042  0.951636  1
  O  O13  1  0.543429  0.951636  0.555042  1
  O  O14  1  0.533763  0.950989  0.950989  1
  O  O15  1  0.247578  0.244956  0.244956  1
  O  O16  1  0.294101  0.705627  0.705627  1
  O  O17  1  0.706571  0.298364  0.694958  1
  O  O18  1  0.002422  0.005044  0.005044  1
  O  O19  1  0.955349  0.955877  0.537279  1
  O  O20  1  0.294651  0.712721  0.294123  1
  O  O21  1  0.706571  0.694958  0.298364  1
