# generated using pymatgen
data_Dy3Y(Co5As3)4
_symmetry_space_group_name_H-M   'P 1'
_cell_length_a   3.78947800
_cell_length_b   12.18094219
_cell_length_c   10.68220903
_cell_angle_alpha   89.98529223
_cell_angle_beta   90.00000000
_cell_angle_gamma   90.00000000
_symmetry_Int_Tables_number   1
_chemical_formula_structural   Dy3Y(Co5As3)4
_chemical_formula_sum   'Dy3 Y1 Co20 As12'
_cell_volume   493.08447646
_cell_formula_units_Z   1
loop_
 _symmetry_equiv_pos_site_id
 _symmetry_equiv_pos_as_xyz
  1  'x, y, z'
loop_
 _atom_site_type_symbol
 _atom_site_label
 _atom_site_symmetry_multiplicity
 _atom_site_fract_x
 _atom_site_fract_y
 _atom_site_fract_z
 _atom_site_occupancy
  Dy  Dy0  1  0.750000  0.701426  0.082065  1
  Dy  Dy1  1  0.250000  0.298580  0.918371  1
  Dy  Dy2  1  0.250000  0.798743  0.581706  1
  Y  Y3  1  0.750000  0.201686  0.417779  1
  Co  Co4  1  0.750000  0.696978  0.384060  1
  Co  Co5  1  0.250000  0.303354  0.616203  1
  Co  Co6  1  0.250000  0.802952  0.884092  1
  Co  Co7  1  0.750000  0.196805  0.115554  1
  Co  Co8  1  0.750000  0.990800  0.211657  1
  Co  Co9  1  0.250000  0.008702  0.787931  1
  Co  Co10  1  0.250000  0.509132  0.712309  1
  Co  Co11  1  0.750000  0.491233  0.287932  1
  Co  Co12  1  0.750000  0.677489  0.784321  1
  Co  Co13  1  0.250000  0.322385  0.216014  1
  Co  Co14  1  0.250000  0.822278  0.283773  1
  Co  Co15  1  0.750000  0.177624  0.715880  1
  Co  Co16  1  0.750000  0.932106  0.969332  1
  Co  Co17  1  0.250000  0.067641  0.030103  1
  Co  Co18  1  0.250000  0.568199  0.469807  1
  Co  Co19  1  0.750000  0.432652  0.530806  1
  Co  Co20  1  0.750000  0.987867  0.593012  1
  Co  Co21  1  0.250000  0.011530  0.406867  1
  Co  Co22  1  0.250000  0.511899  0.093172  1
  Co  Co23  1  0.750000  0.488062  0.907268  1
  As  As24  1  0.750000  0.614400  0.584850  1
  As  As25  1  0.250000  0.386389  0.415453  1
  As  As26  1  0.250000  0.885819  0.084460  1
  As  As27  1  0.750000  0.113972  0.915084  1
  As  As28  1  0.750000  0.890540  0.399064  1
  As  As29  1  0.250000  0.109335  0.600747  1
  As  As30  1  0.250000  0.609376  0.899648  1
  As  As31  1  0.750000  0.390587  0.100839  1
  As  As32  1  0.750000  0.870065  0.769367  1
  As  As33  1  0.250000  0.129406  0.230171  1
  As  As34  1  0.250000  0.629630  0.269513  1
  As  As35  1  0.750000  0.370355  0.730791  1
