# generated using pymatgen
data_SnPb2(SeO3)4
_symmetry_space_group_name_H-M   'P 1'
_cell_length_a   6.92156700
_cell_length_b   9.28521978
_cell_length_c   9.67189700
_cell_angle_alpha   83.77643637
_cell_angle_beta   90.00000000
_cell_angle_gamma   90.00000000
_symmetry_Int_Tables_number   1
_chemical_formula_structural   SnPb2(SeO3)4
_chemical_formula_sum   'Sn2 Pb4 Se8 O24'
_cell_volume   617.93269654
_cell_formula_units_Z   2
loop_
 _symmetry_equiv_pos_site_id
 _symmetry_equiv_pos_as_xyz
  1  'x, y, z'
loop_
 _atom_site_type_symbol
 _atom_site_label
 _atom_site_symmetry_multiplicity
 _atom_site_fract_x
 _atom_site_fract_y
 _atom_site_fract_z
 _atom_site_occupancy
  Sn  Sn0  1  0.000000  0.000000  0.500000  1
  Sn  Sn1  1  0.500000  0.000000  0.000000  1
  Pb  Pb2  1  0.245347  0.537642  0.598105  1
  Pb  Pb3  1  0.745347  0.462358  0.901895  1
  Pb  Pb4  1  0.754653  0.462358  0.401895  1
  Pb  Pb5  1  0.254653  0.537642  0.098105  1
  Se  Se6  1  0.191043  0.833611  0.792634  1
  Se  Se7  1  0.691043  0.166389  0.707366  1
  Se  Se8  1  0.808957  0.166389  0.207366  1
  Se  Se9  1  0.308957  0.833611  0.292634  1
  Se  Se10  1  0.187162  0.248007  0.866422  1
  Se  Se11  1  0.687162  0.751993  0.633578  1
  Se  Se12  1  0.812838  0.751993  0.133578  1
  Se  Se13  1  0.312838  0.248007  0.366422  1
  O  O14  1  0.373887  0.963267  0.814136  1
  O  O15  1  0.873887  0.036733  0.685864  1
  O  O16  1  0.626113  0.036733  0.185864  1
  O  O17  1  0.126113  0.963267  0.314136  1
  O  O18  1  0.198472  0.858862  0.609439  1
  O  O19  1  0.698472  0.141138  0.890561  1
  O  O20  1  0.801528  0.141138  0.390561  1
  O  O21  1  0.301528  0.858862  0.109439  1
  O  O22  1  0.308880  0.672431  0.816372  1
  O  O23  1  0.808880  0.327569  0.683628  1
  O  O24  1  0.691120  0.327569  0.183628  1
  O  O25  1  0.191120  0.672431  0.316372  1
  O  O26  1  0.360358  0.352446  0.776338  1
  O  O27  1  0.860358  0.647554  0.723662  1
  O  O28  1  0.639642  0.647554  0.223662  1
  O  O29  1  0.139642  0.352446  0.276338  1
  O  O30  1  0.062097  0.378424  0.947714  1
  O  O31  1  0.562097  0.621576  0.552286  1
  O  O32  1  0.937903  0.621576  0.052286  1
  O  O33  1  0.437903  0.378424  0.447714  1
  O  O34  1  0.319956  0.179107  0.013711  1
  O  O35  1  0.819956  0.820893  0.486289  1
  O  O36  1  0.680044  0.820893  0.986289  1
  O  O37  1  0.180044  0.179107  0.513711  1
