# generated using pymatgen
data_YbEu9(Si2Sn)2
_symmetry_space_group_name_H-M   'P 1'
_cell_length_a   9.58281282
_cell_length_b   9.58285658
_cell_length_c   9.58299300
_cell_angle_alpha   130.92543386
_cell_angle_beta   130.92497225
_cell_angle_gamma   71.92926610
_symmetry_Int_Tables_number   1
_chemical_formula_structural   YbEu9(Si2Sn)2
_chemical_formula_sum   'Yb1 Eu9 Si4 Sn2'
_cell_volume   491.35835415
_cell_formula_units_Z   1
loop_
 _symmetry_equiv_pos_site_id
 _symmetry_equiv_pos_as_xyz
  1  'x, y, z'
loop_
 _atom_site_type_symbol
 _atom_site_label
 _atom_site_symmetry_multiplicity
 _atom_site_fract_x
 _atom_site_fract_y
 _atom_site_fract_z
 _atom_site_occupancy
  Yb  Yb0  1  0.000000  0.000000  0.000000  1
  Eu  Eu1  1  0.816099  0.314263  0.853784  1
  Eu  Eu2  1  0.183901  0.685737  0.146216  1
  Eu  Eu3  1  0.459543  0.961088  0.144712  1
  Eu  Eu4  1  0.314939  0.460430  0.498744  1
  Eu  Eu5  1  0.037438  0.184091  0.498326  1
  Eu  Eu6  1  0.540457  0.038912  0.855288  1
  Eu  Eu7  1  0.685061  0.539570  0.501256  1
  Eu  Eu8  1  0.962562  0.815909  0.501674  1
  Eu  Eu9  1  0.500000  0.500000  0.000000  1
  Si  Si10  1  0.109509  0.610732  0.719867  1
  Si  Si11  1  0.890491  0.389268  0.280133  1
  Si  Si12  1  0.610302  0.890237  0.500629  1
  Si  Si13  1  0.389698  0.109763  0.499371  1
  Sn  Sn14  1  0.249751  0.249893  0.999959  1
  Sn  Sn15  1  0.750249  0.750107  0.000041  1
