# generated using pymatgen
data_Dy3Tm17(Cd3Ru)2
_symmetry_space_group_name_H-M   'P 1'
_cell_length_a   9.46372800
_cell_length_b   9.46372812
_cell_length_c   9.73856100
_cell_angle_alpha   90.00000000
_cell_angle_beta   90.00000000
_cell_angle_gamma   119.99999958
_symmetry_Int_Tables_number   1
_chemical_formula_structural   Dy3Tm17(Cd3Ru)2
_chemical_formula_sum   'Dy3 Tm17 Cd6 Ru2'
_cell_volume   755.35294555
_cell_formula_units_Z   1
loop_
 _symmetry_equiv_pos_site_id
 _symmetry_equiv_pos_as_xyz
  1  'x, y, z'
loop_
 _atom_site_type_symbol
 _atom_site_label
 _atom_site_symmetry_multiplicity
 _atom_site_fract_x
 _atom_site_fract_y
 _atom_site_fract_z
 _atom_site_occupancy
  Dy  Dy0  1  0.540430  0.459570  0.250000  1
  Dy  Dy1  1  0.540430  0.080859  0.250000  1
  Dy  Dy2  1  0.919141  0.459570  0.250000  1
  Tm  Tm3  1  0.000000  0.000000  0.500024  1
  Tm  Tm4  1  0.000000  0.000000  0.999976  1
  Tm  Tm5  1  0.210168  0.789832  0.441500  1
  Tm  Tm6  1  0.210168  0.420336  0.441500  1
  Tm  Tm7  1  0.579664  0.789832  0.441500  1
  Tm  Tm8  1  0.789997  0.210003  0.559659  1
  Tm  Tm9  1  0.789997  0.579994  0.559659  1
  Tm  Tm10  1  0.420006  0.210003  0.559659  1
  Tm  Tm11  1  0.789997  0.210003  0.940341  1
  Tm  Tm12  1  0.789997  0.579994  0.940341  1
  Tm  Tm13  1  0.420006  0.210003  0.940341  1
  Tm  Tm14  1  0.210168  0.789832  0.058500  1
  Tm  Tm15  1  0.210168  0.420336  0.058500  1
  Tm  Tm16  1  0.579664  0.789832  0.058500  1
  Tm  Tm17  1  0.459178  0.540822  0.750000  1
  Tm  Tm18  1  0.459178  0.918357  0.750000  1
  Tm  Tm19  1  0.081643  0.540822  0.750000  1
  Cd  Cd20  1  0.886187  0.113813  0.250000  1
  Cd  Cd21  1  0.886187  0.772375  0.250000  1
  Cd  Cd22  1  0.227625  0.113813  0.250000  1
  Cd  Cd23  1  0.114577  0.885423  0.750000  1
  Cd  Cd24  1  0.114577  0.229154  0.750000  1
  Cd  Cd25  1  0.770846  0.885423  0.750000  1
  Ru  Ru26  1  0.333333  0.666667  0.250000  1
  Ru  Ru27  1  0.666667  0.333333  0.750000  1
