# generated using pymatgen
data_Dy5ErAl21Si3Os8
_symmetry_space_group_name_H-M   'P 1'
_cell_length_a   8.71278600
_cell_length_b   8.71278689
_cell_length_c   9.64543500
_cell_angle_alpha   89.99817705
_cell_angle_beta   90.00163519
_cell_angle_gamma   120.00158203
_symmetry_Int_Tables_number   1
_chemical_formula_structural   Dy5ErAl21Si3Os8
_chemical_formula_sum   'Dy5 Er1 Al21 Si3 Os8'
_cell_volume   634.10279238
_cell_formula_units_Z   1
loop_
 _symmetry_equiv_pos_site_id
 _symmetry_equiv_pos_as_xyz
  1  'x, y, z'
loop_
 _atom_site_type_symbol
 _atom_site_label
 _atom_site_symmetry_multiplicity
 _atom_site_fract_x
 _atom_site_fract_y
 _atom_site_fract_z
 _atom_site_occupancy
  Dy  Dy0  1  0.195147  0.390337  0.247705  1
  Dy  Dy1  1  0.804242  0.608265  0.752553  1
  Dy  Dy2  1  0.609672  0.804860  0.247707  1
  Dy  Dy3  1  0.391736  0.195760  0.752554  1
  Dy  Dy4  1  0.195180  0.804824  0.247699  1
  Er  Er5  1  0.803661  0.196330  0.752632  1
  Al  Al6  1  0.333343  0.666656  0.476130  1
  Al  Al7  1  0.164116  0.328444  0.574575  1
  Al  Al8  1  0.835083  0.670166  0.423453  1
  Al  Al9  1  0.671557  0.835884  0.574575  1
  Al  Al10  1  0.834901  0.669792  0.076710  1
  Al  Al11  1  0.329834  0.164919  0.423453  1
  Al  Al12  1  0.165305  0.330845  0.922635  1
  Al  Al13  1  0.164251  0.835747  0.574534  1
  Al  Al14  1  0.330207  0.165098  0.076709  1
  Al  Al15  1  0.835075  0.164926  0.423556  1
  Al  Al16  1  0.669157  0.834696  0.922636  1
  Al  Al17  1  0.834889  0.165111  0.076573  1
  Al  Al18  1  0.165455  0.834545  0.922680  1
  Al  Al19  1  0.563557  0.127106  0.248831  1
  Al  Al20  1  0.437060  0.873786  0.748810  1
  Al  Al21  1  0.872895  0.436444  0.248830  1
  Al  Al22  1  0.126213  0.562938  0.748811  1
  Al  Al23  1  0.563566  0.436434  0.248830  1
  Al  Al24  1  0.436736  0.563262  0.748812  1
  Al  Al25  1  0.999997  0.000001  0.248896  1
  Al  Al26  1  0.999855  0.000146  0.749536  1
  Si  Si27  1  0.333341  0.666654  0.039381  1
  Si  Si28  1  0.666870  0.333133  0.961845  1
  Si  Si29  1  0.666843  0.333155  0.539118  1
  Os  Os30  1  0.500172  0.000005  0.998769  1
  Os  Os31  1  0.999998  0.499830  0.998764  1
  Os  Os32  1  0.504540  0.008751  0.501588  1
  Os  Os33  1  0.499979  0.500019  0.998883  1
  Os  Os34  1  0.991244  0.495451  0.501596  1
  Os  Os35  1  0.504366  0.495636  0.501456  1
  Os  Os36  1  0.999977  0.000022  0.998910  1
  Os  Os37  1  0.999982  0.000019  0.499271  1
