# generated using pymatgen
data_TcRu5PtW
_symmetry_space_group_name_H-M   'P 1'
_cell_length_a   5.53514800
_cell_length_b   5.51136052
_cell_length_c   4.36464700
_cell_angle_alpha   90.00000000
_cell_angle_beta   90.00000000
_cell_angle_gamma   120.14288983
_symmetry_Int_Tables_number   1
_chemical_formula_structural   TcRu5PtW
_chemical_formula_sum   'Tc1 Ru5 Pt1 W1'
_cell_volume   115.14383573
_cell_formula_units_Z   1
loop_
 _symmetry_equiv_pos_site_id
 _symmetry_equiv_pos_as_xyz
  1  'x, y, z'
loop_
 _atom_site_type_symbol
 _atom_site_label
 _atom_site_symmetry_multiplicity
 _atom_site_fract_x
 _atom_site_fract_y
 _atom_site_fract_z
 _atom_site_occupancy
  Tc  Tc0  1  0.665841  0.331681  0.250000  1
  Ru  Ru1  1  0.667891  0.835761  0.250000  1
  Ru  Ru2  1  0.167870  0.835761  0.250000  1
  Ru  Ru3  1  0.831186  0.662370  0.750000  1
  Ru  Ru4  1  0.337631  0.165015  0.750000  1
  Ru  Ru5  1  0.827385  0.165015  0.750000  1
  Pt  Pt6  1  0.164773  0.329546  0.250000  1
  W  W7  1  0.337425  0.674850  0.750000  1
