# generated using pymatgen
data_YLu4Sc3Au4
_symmetry_space_group_name_H-M   'P 1'
_cell_length_a   4.75297400
_cell_length_b   6.98742911
_cell_length_c   8.57664559
_cell_angle_alpha   90.37486112
_cell_angle_beta   90.00000000
_cell_angle_gamma   90.00000000
_symmetry_Int_Tables_number   1
_chemical_formula_structural   YLu4Sc3Au4
_chemical_formula_sum   'Y1 Lu4 Sc3 Au4'
_cell_volume   284.83347131
_cell_formula_units_Z   1
loop_
 _symmetry_equiv_pos_site_id
 _symmetry_equiv_pos_as_xyz
  1  'x, y, z'
loop_
 _atom_site_type_symbol
 _atom_site_label
 _atom_site_symmetry_multiplicity
 _atom_site_fract_x
 _atom_site_fract_y
 _atom_site_fract_z
 _atom_site_occupancy
  Y  Y0  1  0.250000  0.477809  0.174454  1
  Lu  Lu1  1  0.750000  0.647401  0.423555  1
  Lu  Lu2  1  0.250000  0.987538  0.322716  1
  Lu  Lu3  1  0.750000  0.518316  0.822766  1
  Lu  Lu4  1  0.750000  0.021485  0.683279  1
  Sc  Sc5  1  0.250000  0.854686  0.925207  1
  Sc  Sc6  1  0.250000  0.354779  0.578334  1
  Sc  Sc7  1  0.750000  0.145397  0.074997  1
  Au  Au8  1  0.250000  0.243741  0.891105  1
  Au  Au9  1  0.250000  0.750388  0.607537  1
  Au  Au10  1  0.750000  0.754558  0.098342  1
  Au  Au11  1  0.750000  0.243905  0.397710  1
