# generated using pymatgen
data_Tb5Ga2Ru3
_symmetry_space_group_name_H-M   'P 1'
_cell_length_a   8.34901294
_cell_length_b   8.34901302
_cell_length_c   8.34901300
_cell_angle_alpha   109.47121816
_cell_angle_beta   109.47121835
_cell_angle_gamma   109.47121930
_symmetry_Int_Tables_number   1
_chemical_formula_structural   Tb5Ga2Ru3
_chemical_formula_sum   'Tb10 Ga4 Ru6'
_cell_volume   448.00571242
_cell_formula_units_Z   2
loop_
 _symmetry_equiv_pos_site_id
 _symmetry_equiv_pos_as_xyz
  1  'x, y, z'
loop_
 _atom_site_type_symbol
 _atom_site_label
 _atom_site_symmetry_multiplicity
 _atom_site_fract_x
 _atom_site_fract_y
 _atom_site_fract_z
 _atom_site_occupancy
  Tb  Tb0  1  0.250000  0.683250  0.433250  1
  Tb  Tb1  1  0.750000  0.816750  0.066750  1
  Tb  Tb2  1  0.433250  0.250000  0.683250  1
  Tb  Tb3  1  0.683250  0.433250  0.250000  1
  Tb  Tb4  1  0.066750  0.750000  0.816750  1
  Tb  Tb5  1  0.816750  0.066750  0.750000  1
  Tb  Tb6  1  0.216479  0.216479  0.216479  1
  Tb  Tb7  1  0.500000  0.000000  0.283521  1
  Tb  Tb8  1  0.283521  0.500000  0.000000  1
  Tb  Tb9  1  0.000000  0.283521  0.500000  1
  Ga  Ga10  1  0.587812  0.587812  0.587812  1
  Ga  Ga11  1  0.500000  0.000000  0.912188  1
  Ga  Ga12  1  0.912188  0.500000  0.000000  1
  Ga  Ga13  1  0.000000  0.912188  0.500000  1
  Ru  Ru14  1  0.250000  0.123942  0.873942  1
  Ru  Ru15  1  0.750000  0.376058  0.626058  1
  Ru  Ru16  1  0.873941  0.250000  0.123942  1
  Ru  Ru17  1  0.123942  0.873941  0.250000  1
  Ru  Ru18  1  0.626058  0.750000  0.376058  1
  Ru  Ru19  1  0.376058  0.626058  0.750000  1
