# generated using pymatgen
data_Rb4Na2HoLuSb4
_symmetry_space_group_name_H-M   'P 1'
_cell_length_a   11.31967775
_cell_length_b   11.31967720
_cell_length_c   7.46659300
_cell_angle_alpha   90.00000000
_cell_angle_beta   90.00000000
_cell_angle_gamma   98.80815993
_symmetry_Int_Tables_number   1
_chemical_formula_structural   Rb4Na2HoLuSb4
_chemical_formula_sum   'Rb8 Na4 Ho2 Lu2 Sb8'
_cell_volume   945.44948061
_cell_formula_units_Z   2
loop_
 _symmetry_equiv_pos_site_id
 _symmetry_equiv_pos_as_xyz
  1  'x, y, z'
loop_
 _atom_site_type_symbol
 _atom_site_label
 _atom_site_symmetry_multiplicity
 _atom_site_fract_x
 _atom_site_fract_y
 _atom_site_fract_z
 _atom_site_occupancy
  Rb  Rb0  1  0.071668  0.428332  0.250000  1
  Rb  Rb1  1  0.428332  0.071668  0.750000  1
  Rb  Rb2  1  0.927976  0.572024  0.750000  1
  Rb  Rb3  1  0.572024  0.927976  0.250000  1
  Rb  Rb4  1  0.675855  0.324386  0.216131  1
  Rb  Rb5  1  0.824145  0.175614  0.716131  1
  Rb  Rb6  1  0.324386  0.675855  0.783869  1
  Rb  Rb7  1  0.175614  0.824145  0.283869  1
  Na  Na8  1  0.382581  0.382581  0.000000  1
  Na  Na9  1  0.117419  0.117419  0.500000  1
  Na  Na10  1  0.617832  0.617832  0.000000  1
  Na  Na11  1  0.882168  0.882168  0.500000  1
  Ho  Ho12  1  0.130426  0.130426  0.000000  1
  Ho  Ho13  1  0.369574  0.369574  0.500000  1
  Lu  Lu14  1  0.869394  0.869394  0.000000  1
  Lu  Lu15  1  0.630606  0.630606  0.500000  1
  Sb  Sb16  1  0.844949  0.655050  0.250000  1
  Sb  Sb17  1  0.655050  0.844949  0.750000  1
  Sb  Sb18  1  0.152824  0.347175  0.750000  1
  Sb  Sb19  1  0.347175  0.152824  0.250000  1
  Sb  Sb20  1  0.897932  0.098912  0.209958  1
  Sb  Sb21  1  0.602068  0.401088  0.709958  1
  Sb  Sb22  1  0.098912  0.897932  0.790042  1
  Sb  Sb23  1  0.401088  0.602068  0.290042  1
