# generated using pymatgen
data_UPa6Zn23
_symmetry_space_group_name_H-M   'P 1'
_cell_length_a   9.06833707
_cell_length_b   9.06833677
_cell_length_c   9.06833600
_cell_angle_alpha   59.99999550
_cell_angle_beta   59.99999659
_cell_angle_gamma   59.99998611
_symmetry_Int_Tables_number   1
_chemical_formula_structural   UPa6Zn23
_chemical_formula_sum   'U1 Pa6 Zn23'
_cell_volume   527.31221067
_cell_formula_units_Z   1
loop_
 _symmetry_equiv_pos_site_id
 _symmetry_equiv_pos_as_xyz
  1  'x, y, z'
loop_
 _atom_site_type_symbol
 _atom_site_label
 _atom_site_symmetry_multiplicity
 _atom_site_fract_x
 _atom_site_fract_y
 _atom_site_fract_z
 _atom_site_occupancy
  U  U0  1  0.500000  0.500000  0.500000  1
  Pa  Pa1  1  0.699951  0.300049  0.300049  1
  Pa  Pa2  1  0.300049  0.699951  0.699951  1
  Pa  Pa3  1  0.300049  0.699951  0.300049  1
  Pa  Pa4  1  0.699951  0.300049  0.699951  1
  Pa  Pa5  1  0.300049  0.300049  0.699951  1
  Pa  Pa6  1  0.699951  0.699951  0.300049  1
  Zn  Zn7  1  0.120629  0.120629  0.120629  1
  Zn  Zn8  1  0.879371  0.879371  0.879371  1
  Zn  Zn9  1  0.120629  0.120629  0.638115  1
  Zn  Zn10  1  0.120629  0.638115  0.120629  1
  Zn  Zn11  1  0.879371  0.879371  0.361885  1
  Zn  Zn12  1  0.879371  0.361885  0.879371  1
  Zn  Zn13  1  0.638115  0.120629  0.120629  1
  Zn  Zn14  1  0.361885  0.879371  0.879371  1
  Zn  Zn15  1  0.500000  0.000000  0.000000  1
  Zn  Zn16  1  0.000000  0.500000  0.500000  1
  Zn  Zn17  1  0.000000  0.500000  0.000000  1
  Zn  Zn18  1  0.500000  0.000000  0.500000  1
  Zn  Zn19  1  0.000000  0.000000  0.500000  1
  Zn  Zn20  1  0.500000  0.500000  0.000000  1
  Zn  Zn21  1  0.327028  0.327028  0.327028  1
  Zn  Zn22  1  0.672972  0.672972  0.672972  1
  Zn  Zn23  1  0.327028  0.327028  0.018917  1
  Zn  Zn24  1  0.327028  0.018917  0.327028  1
  Zn  Zn25  1  0.672972  0.672972  0.981083  1
  Zn  Zn26  1  0.672972  0.981083  0.672972  1
  Zn  Zn27  1  0.018917  0.327028  0.327028  1
  Zn  Zn28  1  0.981083  0.672972  0.672972  1
  Zn  Zn29  1  0.000000  0.000000  0.000000  1
