# generated using pymatgen
data_Tb12Hf5Sc3(ReN4)12
_symmetry_space_group_name_H-M   'P 1'
_cell_length_a   11.13138010
_cell_length_b   11.13138073
_cell_length_c   11.13137900
_cell_angle_alpha   109.59580855
_cell_angle_beta   109.59580423
_cell_angle_gamma   109.59580312
_symmetry_Int_Tables_number   1
_chemical_formula_structural   Tb12Hf5Sc3(ReN4)12
_chemical_formula_sum   'Tb12 Hf5 Sc3 Re12 N48'
_cell_volume   1056.83113661
_cell_formula_units_Z   1
loop_
 _symmetry_equiv_pos_site_id
 _symmetry_equiv_pos_as_xyz
  1  'x, y, z'
loop_
 _atom_site_type_symbol
 _atom_site_label
 _atom_site_symmetry_multiplicity
 _atom_site_fract_x
 _atom_site_fract_y
 _atom_site_fract_z
 _atom_site_occupancy
  Tb  Tb0  1  0.375834  0.749749  0.125160  1
  Tb  Tb1  1  0.251166  0.376068  0.125362  1
  Tb  Tb2  1  0.376071  0.125355  0.251165  1
  Tb  Tb3  1  0.874846  0.624166  0.250243  1
  Tb  Tb4  1  0.749755  0.125173  0.375834  1
  Tb  Tb5  1  0.125365  0.251170  0.376085  1
  Tb  Tb6  1  0.874636  0.748829  0.623915  1
  Tb  Tb7  1  0.250247  0.874828  0.624167  1
  Tb  Tb8  1  0.125153  0.375833  0.749755  1
  Tb  Tb9  1  0.623932  0.874645  0.748836  1
  Tb  Tb10  1  0.624166  0.250251  0.874840  1
  Tb  Tb11  1  0.748834  0.623930  0.874637  1
  Hf  Hf12  1  0.999996  0.999981  0.000016  1
  Hf  Hf13  1  0.500003  0.000007  0.000004  1
  Hf  Hf14  1  0.999999  0.500004  0.999990  1
  Hf  Hf15  1  0.999993  0.999995  0.499995  1
  Hf  Hf16  1  0.499990  0.500009  0.500002  1
  Sc  Sc17  1  0.500000  0.500000  0.999999  1
  Sc  Sc18  1  0.499999  0.999998  0.499996  1
  Sc  Sc19  1  0.000000  0.500000  0.500000  1
  Re  Re20  1  0.875857  0.250394  0.126020  1
  Re  Re21  1  0.749601  0.873974  0.124143  1
  Re  Re22  1  0.625526  0.376237  0.249711  1
  Re  Re23  1  0.126017  0.875854  0.250396  1
  Re  Re24  1  0.249716  0.625527  0.376235  1
  Re  Re25  1  0.623763  0.750286  0.374474  1
  Re  Re26  1  0.376240  0.249715  0.625527  1
  Re  Re27  1  0.750284  0.374473  0.623765  1
  Re  Re28  1  0.873984  0.124147  0.749605  1
  Re  Re29  1  0.374475  0.623763  0.750289  1
  Re  Re30  1  0.250396  0.126024  0.875856  1
  Re  Re31  1  0.124144  0.749608  0.873980  1
  N  N32  1  0.210535  0.121427  0.022609  1
  N  N33  1  0.311324  0.901959  0.021867  1
  N  N34  1  0.880793  0.402602  0.091664  1
  N  N35  1  0.714274  0.690680  0.091608  1
  N  N36  1  0.622406  0.408731  0.098825  1
  N  N37  1  0.978118  0.688658  0.098024  1
  N  N38  1  0.022605  0.210542  0.121430  1
  N  N39  1  0.597381  0.908339  0.119209  1
  N  N40  1  0.211409  0.591306  0.189580  1
  N  N41  1  0.475781  0.598587  0.189742  1
  N  N42  1  0.591309  0.189571  0.211403  1
  N  N43  1  0.121433  0.022626  0.210533  1
  N  N44  1  0.477468  0.380137  0.288411  1
  N  N45  1  0.309314  0.908357  0.285722  1
  N  N46  1  0.901948  0.021861  0.311315  1
  N  N47  1  0.908388  0.285719  0.309319  1
  N  N48  1  0.288408  0.477454  0.380137  1
  N  N49  1  0.591266  0.901161  0.377592  1
  N  N50  1  0.810256  0.524211  0.401405  1
  N  N51  1  0.091659  0.880790  0.402624  1
  N  N52  1  0.098832  0.622403  0.408735  1
  N  N53  1  0.810418  0.788590  0.408687  1
  N  N54  1  0.598599  0.189753  0.475792  1
  N  N55  1  0.380144  0.288412  0.477469  1
  N  N56  1  0.619858  0.711588  0.522531  1
  N  N57  1  0.401402  0.810247  0.524209  1
  N  N58  1  0.189583  0.211409  0.591313  1
  N  N59  1  0.901169  0.377597  0.591265  1
  N  N60  1  0.908341  0.119208  0.597374  1
  N  N61  1  0.189744  0.475789  0.598595  1
  N  N62  1  0.408734  0.098839  0.622409  1
  N  N63  1  0.711594  0.522546  0.619864  1
  N  N64  1  0.091612  0.714281  0.690681  1
  N  N65  1  0.098051  0.978140  0.688682  1
  N  N66  1  0.690686  0.091645  0.714278  1
  N  N67  1  0.522533  0.619863  0.711589  1
  N  N68  1  0.408692  0.810430  0.788598  1
  N  N69  1  0.878569  0.977377  0.789470  1
  N  N70  1  0.524222  0.401414  0.810259  1
  N  N71  1  0.788592  0.408695  0.810421  1
  N  N72  1  0.402619  0.091661  0.880791  1
  N  N73  1  0.977395  0.789457  0.878569  1
  N  N74  1  0.021883  0.311344  0.901976  1
  N  N75  1  0.377594  0.591269  0.901175  1
  N  N76  1  0.285725  0.309317  0.908391  1
  N  N77  1  0.119207  0.597398  0.908335  1
  N  N78  1  0.688677  0.098042  0.978133  1
  N  N79  1  0.789465  0.878572  0.977391  1
