# generated using pymatgen
data_Y4Ni2B16IrRh
_symmetry_space_group_name_H-M   'P 1'
_cell_length_a   6.92304900
_cell_length_b   6.92225082
_cell_length_c   6.92305058
_cell_angle_alpha   111.21565197
_cell_angle_beta   113.35979040
_cell_angle_gamma   103.98620651
_symmetry_Int_Tables_number   1
_chemical_formula_structural   Y4Ni2B16IrRh
_chemical_formula_sum   'Y4 Ni2 B16 Ir1 Rh1'
_cell_volume   253.55363968
_cell_formula_units_Z   1
loop_
 _symmetry_equiv_pos_site_id
 _symmetry_equiv_pos_as_xyz
  1  'x, y, z'
loop_
 _atom_site_type_symbol
 _atom_site_label
 _atom_site_symmetry_multiplicity
 _atom_site_fract_x
 _atom_site_fract_y
 _atom_site_fract_z
 _atom_site_occupancy
  Y  Y0  1  0.791530  0.791114  0.000402  1
  Y  Y1  1  0.209287  0.208886  0.000415  1
  Y  Y2  1  0.751198  0.251549  0.499687  1
  Y  Y3  1  0.248139  0.748451  0.499649  1
  Ni  Ni4  1  0.499681  0.744861  0.244758  1
  Ni  Ni5  1  0.499897  0.255139  0.754820  1
  B  B6  1  0.273085  0.108735  0.381828  1
  B  B7  1  0.727829  0.891502  0.619318  1
  B  B8  1  0.273094  0.891265  0.164349  1
  B  B9  1  0.727816  0.108498  0.836328  1
  B  B10  1  0.111336  0.729959  0.841292  1
  B  B11  1  0.889703  0.270007  0.159713  1
  B  B12  1  0.111334  0.270041  0.381377  1
  B  B13  1  0.889706  0.729993  0.619696  1
  B  B14  1  0.114381  0.109082  0.527547  1
  B  B15  1  0.580534  0.586306  0.470835  1
  B  B16  1  0.114378  0.586812  0.005306  1
  B  B17  1  0.580560  0.109704  0.994237  1
  B  B18  1  0.884533  0.890296  0.470856  1
  B  B19  1  0.418494  0.413188  0.527566  1
  B  B20  1  0.884529  0.413694  0.994228  1
  B  B21  1  0.418464  0.890918  0.005299  1
  Ir  Ir22  1  0.723078  0.500000  0.223078  1
  Rh  Rh23  1  0.277415  0.500000  0.777415  1
