# generated using pymatgen
data_Eu4Ta2MnAlO14
_symmetry_space_group_name_H-M   'P 1'
_cell_length_a   7.33655294
_cell_length_b   7.31001278
_cell_length_c   7.39990900
_cell_angle_alpha   59.59235978
_cell_angle_beta   59.71392528
_cell_angle_gamma   59.61298200
_symmetry_Int_Tables_number   1
_chemical_formula_structural   Eu4Ta2MnAlO14
_chemical_formula_sum   'Eu4 Ta2 Mn1 Al1 O14'
_cell_volume   278.32402725
_cell_formula_units_Z   1
loop_
 _symmetry_equiv_pos_site_id
 _symmetry_equiv_pos_as_xyz
  1  'x, y, z'
loop_
 _atom_site_type_symbol
 _atom_site_label
 _atom_site_symmetry_multiplicity
 _atom_site_fract_x
 _atom_site_fract_y
 _atom_site_fract_z
 _atom_site_occupancy
  Eu  Eu0  1  0.125000  0.625000  0.125000  1
  Eu  Eu1  1  0.125000  0.125000  0.625000  1
  Eu  Eu2  1  0.625000  0.125000  0.125000  1
  Eu  Eu3  1  0.125000  0.125000  0.125000  1
  Ta  Ta4  1  0.625000  0.625000  0.625000  1
  Ta  Ta5  1  0.625000  0.625000  0.125000  1
  Mn  Mn6  1  0.125000  0.625000  0.625000  1
  Al  Al7  1  0.625000  0.125000  0.625000  1
  O  O8  1  0.299193  0.698594  0.696138  1
  O  O9  1  0.551971  0.949089  0.942332  1
  O  O10  1  0.703183  0.701541  0.297638  1
  O  O11  1  0.300359  0.302145  0.698748  1
  O  O12  1  0.999037  0.999977  0.000493  1
  O  O13  1  0.299193  0.698594  0.306075  1
  O  O14  1  0.698029  0.300911  0.693392  1
  O  O15  1  0.950807  0.551406  0.943925  1
  O  O16  1  0.546817  0.548459  0.952362  1
  O  O17  1  0.949641  0.947855  0.551252  1
  O  O18  1  0.250963  0.250023  0.249507  1
  O  O19  1  0.551971  0.949089  0.556608  1
  O  O20  1  0.698029  0.300911  0.307668  1
  O  O21  1  0.950807  0.551406  0.553862  1
