# generated using pymatgen
data_Sm6MoP12Rh17
_symmetry_space_group_name_H-M   'P 1'
_cell_length_a   3.96510800
_cell_length_b   11.24295500
_cell_length_c   12.88880000
_cell_angle_alpha   90.00000000
_cell_angle_beta   90.00000000
_cell_angle_gamma   90.00000000
_symmetry_Int_Tables_number   1
_chemical_formula_structural   Sm6MoP12Rh17
_chemical_formula_sum   'Sm6 Mo1 P12 Rh17'
_cell_volume   574.57665676
_cell_formula_units_Z   1
loop_
 _symmetry_equiv_pos_site_id
 _symmetry_equiv_pos_as_xyz
  1  'x, y, z'
loop_
 _atom_site_type_symbol
 _atom_site_label
 _atom_site_symmetry_multiplicity
 _atom_site_fract_x
 _atom_site_fract_y
 _atom_site_fract_z
 _atom_site_occupancy
  Sm  Sm0  1  0.000000  0.500000  0.519222  1
  Sm  Sm1  1  0.500000  0.000000  0.479033  1
  Sm  Sm2  1  0.500000  0.814591  0.205712  1
  Sm  Sm3  1  0.500000  0.185409  0.205712  1
  Sm  Sm4  1  0.000000  0.683091  0.797079  1
  Sm  Sm5  1  0.000000  0.316909  0.797079  1
  Mo  Mo6  1  0.500000  0.500000  0.157428  1
  P  P7  1  0.500000  0.500000  0.878033  1
  P  P8  1  0.000000  0.000000  0.120347  1
  P  P9  1  0.500000  0.500000  0.344169  1
  P  P10  1  0.000000  0.000000  0.651343  1
  P  P11  1  0.500000  0.314387  0.618015  1
  P  P12  1  0.500000  0.685613  0.618015  1
  P  P13  1  0.000000  0.187201  0.382593  1
  P  P14  1  0.000000  0.812799  0.382593  1
  P  P15  1  0.500000  0.849132  0.891622  1
  P  P16  1  0.500000  0.150868  0.891622  1
  P  P17  1  0.000000  0.653219  0.109245  1
  P  P18  1  0.000000  0.346781  0.109245  1
  Rh  Rh19  1  0.000000  0.000000  0.831929  1
  Rh  Rh20  1  0.500000  0.500000  0.700235  1
  Rh  Rh21  1  0.000000  0.000000  0.298177  1
  Rh  Rh22  1  0.000000  0.500000  0.988424  1
  Rh  Rh23  1  0.500000  0.000000  0.019543  1
  Rh  Rh24  1  0.500000  0.332531  0.988988  1
  Rh  Rh25  1  0.500000  0.667469  0.988988  1
  Rh  Rh26  1  0.000000  0.166593  0.009306  1
  Rh  Rh27  1  0.000000  0.833407  0.009306  1
  Rh  Rh28  1  0.500000  0.291978  0.432255  1
  Rh  Rh29  1  0.500000  0.708022  0.432255  1
  Rh  Rh30  1  0.000000  0.204311  0.570155  1
  Rh  Rh31  1  0.000000  0.795689  0.570155  1
  Rh  Rh32  1  0.500000  0.874672  0.710853  1
  Rh  Rh33  1  0.500000  0.125328  0.710853  1
  Rh  Rh34  1  0.000000  0.623940  0.290234  1
  Rh  Rh35  1  0.000000  0.376060  0.290234  1
