# generated using pymatgen
data_Ho6Tm10Cd4OsPt3
_symmetry_space_group_name_H-M   'P 1'
_cell_length_a   9.61290284
_cell_length_b   9.61290355
_cell_length_c   9.61290355
_cell_angle_alpha   59.51754616
_cell_angle_beta   59.51754310
_cell_angle_gamma   59.51754723
_symmetry_Int_Tables_number   1
_chemical_formula_structural   Ho6Tm10Cd4OsPt3
_chemical_formula_sum   'Ho6 Tm10 Cd4 Os1 Pt3'
_cell_volume   621.23753673
_cell_formula_units_Z   1
loop_
 _symmetry_equiv_pos_site_id
 _symmetry_equiv_pos_as_xyz
  1  'x, y, z'
loop_
 _atom_site_type_symbol
 _atom_site_label
 _atom_site_symmetry_multiplicity
 _atom_site_fract_x
 _atom_site_fract_y
 _atom_site_fract_z
 _atom_site_occupancy
  Ho  Ho0  1  0.185642  0.815228  0.815228  1
  Ho  Ho1  1  0.808075  0.188134  0.188134  1
  Ho  Ho2  1  0.815228  0.185642  0.815228  1
  Ho  Ho3  1  0.188134  0.808075  0.188134  1
  Ho  Ho4  1  0.815228  0.815228  0.185642  1
  Ho  Ho5  1  0.188134  0.188134  0.808075  1
  Tm  Tm6  1  0.601521  0.601521  0.601521  1
  Tm  Tm7  1  0.600104  0.600104  0.197884  1
  Tm  Tm8  1  0.600104  0.197884  0.600104  1
  Tm  Tm9  1  0.197884  0.600104  0.600104  1
  Tm  Tm10  1  0.064821  0.438438  0.438438  1
  Tm  Tm11  1  0.438289  0.060359  0.060359  1
  Tm  Tm12  1  0.438438  0.064821  0.438438  1
  Tm  Tm13  1  0.060359  0.438289  0.060359  1
  Tm  Tm14  1  0.438438  0.438438  0.064821  1
  Tm  Tm15  1  0.060359  0.060359  0.438289  1
  Cd  Cd16  1  0.830415  0.830415  0.830415  1
  Cd  Cd17  1  0.830931  0.830931  0.504713  1
  Cd  Cd18  1  0.830931  0.504713  0.830931  1
  Cd  Cd19  1  0.504713  0.830931  0.830931  1
  Os  Os20  1  0.393376  0.393376  0.393376  1
  Pt  Pt21  1  0.393190  0.393190  0.822499  1
  Pt  Pt22  1  0.393190  0.822499  0.393190  1
  Pt  Pt23  1  0.822499  0.393190  0.393190  1
