# generated using pymatgen
data_TbHo7SnHg3Au8
_symmetry_space_group_name_H-M   'P 1'
_cell_length_a   8.01499493
_cell_length_b   8.01958249
_cell_length_c   7.30353054
_cell_angle_alpha   89.95634564
_cell_angle_beta   90.00499105
_cell_angle_gamma   90.16106231
_symmetry_Int_Tables_number   1
_chemical_formula_structural   TbHo7SnHg3Au8
_chemical_formula_sum   'Tb1 Ho7 Sn1 Hg3 Au8'
_cell_volume   469.44640456
_cell_formula_units_Z   1
loop_
 _symmetry_equiv_pos_site_id
 _symmetry_equiv_pos_as_xyz
  1  'x, y, z'
loop_
 _atom_site_type_symbol
 _atom_site_label
 _atom_site_symmetry_multiplicity
 _atom_site_fract_x
 _atom_site_fract_y
 _atom_site_fract_z
 _atom_site_occupancy
  Tb  Tb0  1  0.840647  0.160274  0.499944  1
  Ho  Ho1  1  0.159549  0.839966  0.500053  1
  Ho  Ho2  1  0.340107  0.340961  0.999908  1
  Ho  Ho3  1  0.659556  0.659338  0.999883  1
  Ho  Ho4  1  0.684290  0.684893  0.499635  1
  Ho  Ho5  1  0.315740  0.315124  0.499695  1
  Ho  Ho6  1  0.185081  0.815280  0.000330  1
  Ho  Ho7  1  0.815121  0.184315  0.000262  1
  Sn  Sn8  1  0.999987  0.499870  0.250079  1
  Hg  Hg9  1  0.500031  0.999929  0.249957  1
  Hg  Hg10  1  0.000068  0.499944  0.750110  1
  Hg  Hg11  1  0.500025  0.999934  0.750020  1
  Au  Au12  1  0.625701  0.372894  0.274440  1
  Au  Au13  1  0.373391  0.627971  0.275950  1
  Au  Au14  1  0.128398  0.126383  0.775788  1
  Au  Au15  1  0.872439  0.872844  0.775742  1
  Au  Au16  1  0.373123  0.628000  0.724840  1
  Au  Au17  1  0.625949  0.372923  0.726200  1
  Au  Au18  1  0.872441  0.873090  0.223552  1
  Au  Au19  1  0.128356  0.126065  0.223612  1
