# generated using pymatgen
data_DyCdCu3Pt
_symmetry_space_group_name_H-M   'P 1'
_cell_length_a   5.14617969
_cell_length_b   5.14617916
_cell_length_c   5.19884206
_cell_angle_alpha   60.33451319
_cell_angle_beta   60.33452286
_cell_angle_gamma   59.99998756
_symmetry_Int_Tables_number   1
_chemical_formula_structural   DyCdCu3Pt
_chemical_formula_sum   'Dy1 Cd1 Cu3 Pt1'
_cell_volume   97.84506430
_cell_formula_units_Z   1
loop_
 _symmetry_equiv_pos_site_id
 _symmetry_equiv_pos_as_xyz
  1  'x, y, z'
loop_
 _atom_site_type_symbol
 _atom_site_label
 _atom_site_symmetry_multiplicity
 _atom_site_fract_x
 _atom_site_fract_y
 _atom_site_fract_z
 _atom_site_occupancy
  Dy  Dy0  1  0.748728  0.748728  0.753816  1
  Cd  Cd1  1  0.999743  0.999743  0.000772  1
  Cu  Cu2  1  0.375185  0.876360  0.373270  1
  Cu  Cu3  1  0.375185  0.375185  0.373270  1
  Cu  Cu4  1  0.876360  0.375185  0.373270  1
  Pt  Pt5  1  0.374799  0.374799  0.875603  1
