# generated using pymatgen
data_Dy3ErCd2Cu3Ni
_symmetry_space_group_name_H-M   'P 1'
_cell_length_a   7.52583591
_cell_length_b   7.52029130
_cell_length_c   3.68832400
_cell_angle_alpha   90.00000000
_cell_angle_beta   90.00000000
_cell_angle_gamma   91.01482152
_symmetry_Int_Tables_number   1
_chemical_formula_structural   Dy3ErCd2Cu3Ni
_chemical_formula_sum   'Dy3 Er1 Cd2 Cu3 Ni1'
_cell_volume   208.71340701
_cell_formula_units_Z   1
loop_
 _symmetry_equiv_pos_site_id
 _symmetry_equiv_pos_as_xyz
  1  'x, y, z'
loop_
 _atom_site_type_symbol
 _atom_site_label
 _atom_site_symmetry_multiplicity
 _atom_site_fract_x
 _atom_site_fract_y
 _atom_site_fract_z
 _atom_site_occupancy
  Dy  Dy0  1  0.670494  0.171293  0.500000  1
  Dy  Dy1  1  0.317362  0.818189  0.500000  1
  Dy  Dy2  1  0.838919  0.676241  0.500000  1
  Er  Er3  1  0.177055  0.339238  0.500000  1
  Cd  Cd4  1  0.000502  0.004147  0.000000  1
  Cd  Cd5  1  0.502755  0.499723  0.000000  1
  Cu  Cu6  1  0.881411  0.378808  0.000000  1
  Cu  Cu7  1  0.616852  0.877982  0.000000  1
  Cu  Cu8  1  0.375905  0.118024  0.000000  1
  Ni  Ni9  1  0.118745  0.616356  0.000000  1
