# generated using pymatgen
data_Y4Si10PdPt5
_symmetry_space_group_name_H-M   'P 1'
_cell_length_a   8.17487788
_cell_length_b   8.17487740
_cell_length_c   6.03801207
_cell_angle_alpha   68.21369381
_cell_angle_beta   68.21370240
_cell_angle_gamma   88.67402543
_symmetry_Int_Tables_number   1
_chemical_formula_structural   Y4Si10PdPt5
_chemical_formula_sum   'Y4 Si10 Pd1 Pt5'
_cell_volume   344.84140615
_cell_formula_units_Z   1
loop_
 _symmetry_equiv_pos_site_id
 _symmetry_equiv_pos_as_xyz
  1  'x, y, z'
loop_
 _atom_site_type_symbol
 _atom_site_label
 _atom_site_symmetry_multiplicity
 _atom_site_fract_x
 _atom_site_fract_y
 _atom_site_fract_z
 _atom_site_occupancy
  Y  Y0  1  0.859329  0.601096  0.770369  1
  Y  Y1  1  0.140771  0.398987  0.231186  1
  Y  Y2  1  0.398904  0.140671  0.729631  1
  Y  Y3  1  0.601013  0.859229  0.268814  1
  Si  Si4  1  0.772166  0.227834  0.750000  1
  Si  Si5  1  0.227319  0.772681  0.250000  1
  Si  Si6  1  0.499859  0.500141  0.750000  1
  Si  Si7  1  0.500137  0.499863  0.250000  1
  Si  Si8  1  0.227968  0.772032  0.750000  1
  Si  Si9  1  0.772494  0.227506  0.250000  1
  Si  Si10  1  0.264178  0.038553  0.348810  1
  Si  Si11  1  0.735883  0.961386  0.652079  1
  Si  Si12  1  0.961447  0.735822  0.151190  1
  Si  Si13  1  0.038614  0.264117  0.847921  1
  Pd  Pd14  1  0.999917  0.000083  0.750000  1
  Pt  Pt15  1  0.524781  0.250303  0.112697  1
  Pt  Pt16  1  0.749697  0.475219  0.387303  1
  Pt  Pt17  1  0.475229  0.749711  0.887258  1
  Pt  Pt18  1  0.250289  0.524771  0.612742  1
  Pt  Pt19  1  0.000004  0.999996  0.250000  1
