# generated using pymatgen
data_Dy4GaS3
_symmetry_space_group_name_H-M   'P 1'
_cell_length_a   6.89890057
_cell_length_b   6.89890094
_cell_length_c   6.89890105
_cell_angle_alpha   131.83262865
_cell_angle_beta   131.83263544
_cell_angle_gamma   70.49349750
_symmetry_Int_Tables_number   1
_chemical_formula_structural   Dy4GaS3
_chemical_formula_sum   'Dy4 Ga1 S3'
_cell_volume   178.61543600
_cell_formula_units_Z   1
loop_
 _symmetry_equiv_pos_site_id
 _symmetry_equiv_pos_as_xyz
  1  'x, y, z'
loop_
 _atom_site_type_symbol
 _atom_site_label
 _atom_site_symmetry_multiplicity
 _atom_site_fract_x
 _atom_site_fract_y
 _atom_site_fract_z
 _atom_site_occupancy
  Dy  Dy0  1  0.251961  0.251961  0.000000  1
  Dy  Dy1  1  0.748039  0.748039  0.000000  1
  Dy  Dy2  1  0.500001  0.000000  0.500001  1
  Dy  Dy3  1  0.000000  0.500001  0.500001  1
  Ga  Ga4  1  0.000000  0.000000  0.000000  1
  S  S5  1  0.500000  0.500000  0.000000  1
  S  S6  1  0.750001  0.250000  0.500001  1
  S  S7  1  0.250000  0.750001  0.500001  1
