# generated using pymatgen
data_Nd3Ho2P12Pd3Ru16
_symmetry_space_group_name_H-M   'P 1'
_cell_length_a   12.65698200
_cell_length_b   12.65698205
_cell_length_c   4.00304300
_cell_angle_alpha   90.00000000
_cell_angle_beta   90.00000000
_cell_angle_gamma   119.99999988
_symmetry_Int_Tables_number   1
_chemical_formula_structural   Nd3Ho2P12Pd3Ru16
_chemical_formula_sum   'Nd3 Ho2 P12 Pd3 Ru16'
_cell_volume   555.36846248
_cell_formula_units_Z   1
loop_
 _symmetry_equiv_pos_site_id
 _symmetry_equiv_pos_as_xyz
  1  'x, y, z'
loop_
 _atom_site_type_symbol
 _atom_site_label
 _atom_site_symmetry_multiplicity
 _atom_site_fract_x
 _atom_site_fract_y
 _atom_site_fract_z
 _atom_site_occupancy
  Nd  Nd0  1  0.000000  0.182172  0.500000  1
  Nd  Nd1  1  0.817828  0.817828  0.500000  1
  Nd  Nd2  1  0.182172  0.000000  0.500000  1
  Ho  Ho3  1  0.666667  0.333333  0.000000  1
  Ho  Ho4  1  0.333333  0.666667  0.000000  1
  P  P5  1  0.000000  0.810578  0.000000  1
  P  P6  1  0.189422  0.189422  0.000000  1
  P  P7  1  0.810578  0.000000  0.000000  1
  P  P8  1  0.699603  0.180866  0.500000  1
  P  P9  1  0.819134  0.518735  0.500000  1
  P  P10  1  0.481265  0.300397  0.500000  1
  P  P11  1  0.180866  0.699603  0.500000  1
  P  P12  1  0.518735  0.819134  0.500000  1
  P  P13  1  0.300397  0.481265  0.500000  1
  P  P14  1  0.000000  0.368504  0.000000  1
  P  P15  1  0.631496  0.631496  0.000000  1
  P  P16  1  0.368504  0.000000  0.000000  1
  Pd  Pd17  1  0.000000  0.553195  0.000000  1
  Pd  Pd18  1  0.446805  0.446805  0.000000  1
  Pd  Pd19  1  0.553195  0.000000  0.000000  1
  Ru  Ru20  1  0.000000  0.709416  0.500000  1
  Ru  Ru21  1  0.290584  0.290584  0.500000  1
  Ru  Ru22  1  0.709416  0.000000  0.500000  1
  Ru  Ru23  1  0.804399  0.186763  0.000000  1
  Ru  Ru24  1  0.813237  0.617637  0.000000  1
  Ru  Ru25  1  0.382363  0.195601  0.000000  1
  Ru  Ru26  1  0.186763  0.804399  0.000000  1
  Ru  Ru27  1  0.617637  0.813237  0.000000  1
  Ru  Ru28  1  0.195601  0.382363  0.000000  1
  Ru  Ru29  1  0.875726  0.370004  0.500000  1
  Ru  Ru30  1  0.629996  0.505722  0.500000  1
  Ru  Ru31  1  0.494278  0.124274  0.500000  1
  Ru  Ru32  1  0.370004  0.875726  0.500000  1
  Ru  Ru33  1  0.505722  0.629996  0.500000  1
  Ru  Ru34  1  0.124274  0.494278  0.500000  1
  Ru  Ru35  1  0.000000  0.000000  0.000000  1
