# generated using pymatgen
data_Hf12Ti4MnOs7
_symmetry_space_group_name_H-M   'P 1'
_cell_length_a   8.57997286
_cell_length_b   8.53878921
_cell_length_c   8.53878900
_cell_angle_alpha   59.99999695
_cell_angle_beta   60.15865221
_cell_angle_gamma   60.15865339
_symmetry_Int_Tables_number   1
_chemical_formula_structural   Hf12Ti4MnOs7
_chemical_formula_sum   'Hf12 Ti4 Mn1 Os7'
_cell_volume   443.40520100
_cell_formula_units_Z   1
loop_
 _symmetry_equiv_pos_site_id
 _symmetry_equiv_pos_as_xyz
  1  'x, y, z'
loop_
 _atom_site_type_symbol
 _atom_site_label
 _atom_site_symmetry_multiplicity
 _atom_site_fract_x
 _atom_site_fract_y
 _atom_site_fract_z
 _atom_site_occupancy
  Hf  Hf0  1  0.807775  0.807599  0.192313  1
  Hf  Hf1  1  0.193610  0.192416  0.806987  1
  Hf  Hf2  1  0.807775  0.192313  0.807599  1
  Hf  Hf3  1  0.193610  0.806987  0.192416  1
  Hf  Hf4  1  0.193610  0.806987  0.806987  1
  Hf  Hf5  1  0.807775  0.192313  0.192313  1
  Hf  Hf6  1  0.443700  0.443167  0.056566  1
  Hf  Hf7  1  0.052909  0.061841  0.442625  1
  Hf  Hf8  1  0.443700  0.056566  0.443167  1
  Hf  Hf9  1  0.052909  0.442625  0.061841  1
  Hf  Hf10  1  0.052909  0.442625  0.442625  1
  Hf  Hf11  1  0.443700  0.056566  0.056566  1
  Ti  Ti12  1  0.124872  0.625043  0.625043  1
  Ti  Ti13  1  0.625986  0.131514  0.621250  1
  Ti  Ti14  1  0.625986  0.621250  0.131514  1
  Ti  Ti15  1  0.625986  0.621250  0.621250  1
  Mn  Mn16  1  0.758735  0.413754  0.413754  1
  Os  Os17  1  0.414517  0.757823  0.413829  1
  Os  Os18  1  0.414517  0.413829  0.757823  1
  Os  Os19  1  0.414517  0.413829  0.413829  1
  Os  Os20  1  0.496454  0.834516  0.834516  1
  Os  Os21  1  0.834817  0.494450  0.835367  1
  Os  Os22  1  0.834817  0.835367  0.494450  1
  Os  Os23  1  0.834817  0.835367  0.835367  1
