# generated using pymatgen
data_Lu6C3S
_symmetry_space_group_name_H-M   'P 1'
_cell_length_a   6.40128334
_cell_length_b   6.15021102
_cell_length_c   7.31621300
_cell_angle_alpha   106.03203392
_cell_angle_beta   127.25625986
_cell_angle_gamma   99.49091613
_symmetry_Int_Tables_number   1
_chemical_formula_structural   Lu6C3S
_chemical_formula_sum   'Lu6 C3 S1'
_cell_volume   198.49594986
_cell_formula_units_Z   1
loop_
 _symmetry_equiv_pos_site_id
 _symmetry_equiv_pos_as_xyz
  1  'x, y, z'
loop_
 _atom_site_type_symbol
 _atom_site_label
 _atom_site_symmetry_multiplicity
 _atom_site_fract_x
 _atom_site_fract_y
 _atom_site_fract_z
 _atom_site_occupancy
  Lu  Lu0  1  0.899055  0.570967  0.090930  1
  Lu  Lu1  1  0.234167  0.235929  0.425810  1
  Lu  Lu2  1  0.518363  0.904152  0.284877  1
  Lu  Lu3  1  0.182458  0.238856  0.949379  1
  Lu  Lu4  1  0.853034  0.573083  0.618359  1
  Lu  Lu5  1  0.564042  0.901286  0.757110  1
  C  C6  1  0.041457  0.904287  0.020734  1
  C  C7  1  0.708141  0.237341  0.687745  1
  C  C8  1  0.375734  0.570450  0.354555  1
  S  S9  1  0.708044  0.237376  0.187268  1
