# generated using pymatgen
data_Hf14Cu16PdAu3
_symmetry_space_group_name_H-M   'P 1'
_cell_length_a   7.90773061
_cell_length_b   7.90773149
_cell_length_c   9.40714265
_cell_angle_alpha   89.95959742
_cell_angle_beta   89.95959320
_cell_angle_gamma   107.03343922
_symmetry_Int_Tables_number   1
_chemical_formula_structural   Hf14Cu16PdAu3
_chemical_formula_sum   'Hf14 Cu16 Pd1 Au3'
_cell_volume   562.44485411
_cell_formula_units_Z   1
loop_
 _symmetry_equiv_pos_site_id
 _symmetry_equiv_pos_as_xyz
  1  'x, y, z'
loop_
 _atom_site_type_symbol
 _atom_site_label
 _atom_site_symmetry_multiplicity
 _atom_site_fract_x
 _atom_site_fract_y
 _atom_site_fract_z
 _atom_site_occupancy
  Hf  Hf0  1  0.693147  0.305889  0.000145  1
  Hf  Hf1  1  0.305889  0.693147  0.000145  1
  Hf  Hf2  1  0.811173  0.193100  0.498005  1
  Hf  Hf3  1  0.193100  0.811173  0.498005  1
  Hf  Hf4  1  0.000520  0.000520  0.000385  1
  Hf  Hf5  1  0.499200  0.499200  0.499576  1
  Hf  Hf6  1  0.009193  0.507746  0.250677  1
  Hf  Hf7  1  0.990731  0.491440  0.749921  1
  Hf  Hf8  1  0.491440  0.990731  0.749921  1
  Hf  Hf9  1  0.507746  0.009193  0.250677  1
  Hf  Hf10  1  0.310383  0.310383  0.191402  1
  Hf  Hf11  1  0.684920  0.684920  0.812836  1
  Hf  Hf12  1  0.185725  0.185725  0.682458  1
  Hf  Hf13  1  0.818257  0.818257  0.313682  1
  Cu  Cu14  1  0.862486  0.159814  0.202726  1
  Cu  Cu15  1  0.137858  0.839696  0.798522  1
  Cu  Cu16  1  0.638836  0.339592  0.701468  1
  Cu  Cu17  1  0.660117  0.361805  0.297894  1
  Cu  Cu18  1  0.361805  0.660117  0.297894  1
  Cu  Cu19  1  0.339592  0.638836  0.701468  1
  Cu  Cu20  1  0.839696  0.137858  0.798522  1
  Cu  Cu21  1  0.159814  0.862486  0.202726  1
  Cu  Cu22  1  0.948471  0.649184  0.004619  1
  Cu  Cu23  1  0.051476  0.350766  0.995562  1
  Cu  Cu24  1  0.551209  0.850476  0.504346  1
  Cu  Cu25  1  0.148871  0.447995  0.495815  1
  Cu  Cu26  1  0.447995  0.148871  0.495815  1
  Cu  Cu27  1  0.850476  0.551209  0.504346  1
  Cu  Cu28  1  0.350766  0.051476  0.995562  1
  Cu  Cu29  1  0.649184  0.948471  0.004619  1
  Pd  Pd30  1  0.111197  0.111197  0.390531  1
  Au  Au31  1  0.889860  0.889860  0.608462  1
  Au  Au32  1  0.387084  0.387084  0.890841  1
  Au  Au33  1  0.611781  0.611781  0.110427  1
