# generated using pymatgen
data_Pr9Sm(Sn5Pd2)4
_symmetry_space_group_name_H-M   'P 1'
_cell_length_a   14.34868144
_cell_length_b   14.34868144
_cell_length_c   4.67178900
_cell_angle_alpha   90.00000000
_cell_angle_beta   90.00000000
_cell_angle_gamma   89.97147326
_symmetry_Int_Tables_number   1
_chemical_formula_structural   Pr9Sm(Sn5Pd2)4
_chemical_formula_sum   'Pr9 Sm1 Sn20 Pd8'
_cell_volume   961.84956690
_cell_formula_units_Z   1
loop_
 _symmetry_equiv_pos_site_id
 _symmetry_equiv_pos_as_xyz
  1  'x, y, z'
loop_
 _atom_site_type_symbol
 _atom_site_label
 _atom_site_symmetry_multiplicity
 _atom_site_fract_x
 _atom_site_fract_y
 _atom_site_fract_z
 _atom_site_occupancy
  Pr  Pr0  1  0.500066  0.499898  0.000000  1
  Pr  Pr1  1  0.999898  0.000066  0.000000  1
  Pr  Pr2  1  0.320725  0.820725  0.500000  1
  Pr  Pr3  1  0.179229  0.320724  0.500000  1
  Pr  Pr4  1  0.820724  0.679229  0.500000  1
  Pr  Pr5  1  0.891214  0.391214  0.500000  1
  Pr  Pr6  1  0.108557  0.608557  0.500000  1
  Pr  Pr7  1  0.391623  0.108749  0.500000  1
  Pr  Pr8  1  0.608749  0.891623  0.500000  1
  Sm  Sm9  1  0.678792  0.178792  0.500000  1
  Sn  Sn10  1  0.569776  0.069776  0.000000  1
  Sn  Sn11  1  0.431179  0.931179  0.000000  1
  Sn  Sn12  1  0.068998  0.430990  0.000000  1
  Sn  Sn13  1  0.930990  0.568998  0.000000  1
  Sn  Sn14  1  0.653902  0.699803  0.000000  1
  Sn  Sn15  1  0.346179  0.300118  0.000000  1
  Sn  Sn16  1  0.153934  0.800241  0.000000  1
  Sn  Sn17  1  0.845189  0.199628  0.000000  1
  Sn  Sn18  1  0.300241  0.653934  0.000000  1
  Sn  Sn19  1  0.699628  0.345189  0.000000  1
  Sn  Sn20  1  0.199803  0.153902  0.000000  1
  Sn  Sn21  1  0.800118  0.846179  0.000000  1
  Sn  Sn22  1  0.662017  0.502054  0.500000  1
  Sn  Sn23  1  0.337862  0.498159  0.500000  1
  Sn  Sn24  1  0.162054  0.998166  0.500000  1
  Sn  Sn25  1  0.837561  0.002402  0.500000  1
  Sn  Sn26  1  0.498166  0.662054  0.500000  1
  Sn  Sn27  1  0.502402  0.337561  0.500000  1
  Sn  Sn28  1  0.002054  0.162017  0.500000  1
  Sn  Sn29  1  0.998159  0.837862  0.500000  1
  Pd  Pd30  1  0.745478  0.529119  0.000000  1
  Pd  Pd31  1  0.254501  0.470666  0.000000  1
  Pd  Pd32  1  0.245513  0.970690  0.000000  1
  Pd  Pd33  1  0.754121  0.030124  0.000000  1
  Pd  Pd34  1  0.470690  0.745513  0.000000  1
  Pd  Pd35  1  0.530124  0.254121  0.000000  1
  Pd  Pd36  1  0.029119  0.245478  0.000000  1
  Pd  Pd37  1  0.970666  0.754501  0.000000  1
