# generated using pymatgen
data_BiPd6Au
_symmetry_space_group_name_H-M   'P 1'
_cell_length_a   4.91742600
_cell_length_b   5.81062000
_cell_length_c   9.42731000
_cell_angle_alpha   90.00000000
_cell_angle_beta   90.00000000
_cell_angle_gamma   90.00000000
_symmetry_Int_Tables_number   1
_chemical_formula_structural   BiPd6Au
_chemical_formula_sum   'Bi2 Pd12 Au2'
_cell_volume   269.36929898
_cell_formula_units_Z   2
loop_
 _symmetry_equiv_pos_site_id
 _symmetry_equiv_pos_as_xyz
  1  'x, y, z'
loop_
 _atom_site_type_symbol
 _atom_site_label
 _atom_site_symmetry_multiplicity
 _atom_site_fract_x
 _atom_site_fract_y
 _atom_site_fract_z
 _atom_site_occupancy
  Bi  Bi0  1  0.500000  0.000000  0.500000  1
  Bi  Bi1  1  0.500000  0.000000  0.000000  1
  Pd  Pd2  1  0.661529  0.254183  0.750000  1
  Pd  Pd3  1  0.661529  0.745817  0.750000  1
  Pd  Pd4  1  0.338471  0.254183  0.250000  1
  Pd  Pd5  1  0.338471  0.745817  0.250000  1
  Pd  Pd6  1  0.500000  0.500000  0.000000  1
  Pd  Pd7  1  0.500000  0.500000  0.500000  1
  Pd  Pd8  1  0.855787  0.000000  0.250000  1
  Pd  Pd9  1  0.144213  0.000000  0.750000  1
  Pd  Pd10  1  0.000000  0.744509  0.000000  1
  Pd  Pd11  1  0.000000  0.255491  0.500000  1
  Pd  Pd12  1  0.000000  0.255491  0.000000  1
  Pd  Pd13  1  0.000000  0.744509  0.500000  1
  Au  Au14  1  0.163075  0.500000  0.750000  1
  Au  Au15  1  0.836925  0.500000  0.250000  1
