# generated using pymatgen
data_Dy3In4RuAu
_symmetry_space_group_name_H-M   'P 1'
_cell_length_a   8.02055000
_cell_length_b   8.02054945
_cell_length_c   3.80049300
_cell_angle_alpha   90.00000000
_cell_angle_beta   90.00000000
_cell_angle_gamma   120.00000114
_symmetry_Int_Tables_number   1
_chemical_formula_structural   Dy3In4RuAu
_chemical_formula_sum   'Dy3 In4 Ru1 Au1'
_cell_volume   211.72826329
_cell_formula_units_Z   1
loop_
 _symmetry_equiv_pos_site_id
 _symmetry_equiv_pos_as_xyz
  1  'x, y, z'
loop_
 _atom_site_type_symbol
 _atom_site_label
 _atom_site_symmetry_multiplicity
 _atom_site_fract_x
 _atom_site_fract_y
 _atom_site_fract_z
 _atom_site_occupancy
  Dy  Dy0  1  0.046611  0.294894  0.500000  1
  Dy  Dy1  1  0.705106  0.751716  0.500000  1
  Dy  Dy2  1  0.248284  0.953389  0.500000  1
  In  In3  1  0.672096  0.065564  0.000000  1
  In  In4  1  0.934436  0.606533  0.000000  1
  In  In5  1  0.393467  0.327904  0.000000  1
  In  In6  1  0.333333  0.666667  0.000000  1
  Ru  Ru7  1  0.000000  0.000000  0.000000  1
  Au  Au8  1  0.666667  0.333333  0.500000  1
