# generated using pymatgen
data_Er3Lu2Pt9
_symmetry_space_group_name_H-M   'P 1'
_cell_length_a   9.68882400
_cell_length_b   9.72456272
_cell_length_c   5.74336100
_cell_angle_alpha   90.00000000
_cell_angle_beta   90.00000000
_cell_angle_gamma   90.10937070
_symmetry_Int_Tables_number   1
_chemical_formula_structural   Er3Lu2Pt9
_chemical_formula_sum   'Er6 Lu4 Pt18'
_cell_volume   541.13605603
_cell_formula_units_Z   2
loop_
 _symmetry_equiv_pos_site_id
 _symmetry_equiv_pos_as_xyz
  1  'x, y, z'
loop_
 _atom_site_type_symbol
 _atom_site_label
 _atom_site_symmetry_multiplicity
 _atom_site_fract_x
 _atom_site_fract_y
 _atom_site_fract_z
 _atom_site_occupancy
  Er  Er0  1  0.452384  0.809292  0.000000  1
  Er  Er1  1  0.547616  0.190708  0.000000  1
  Er  Er2  1  0.190007  0.547203  0.000000  1
  Er  Er3  1  0.809993  0.452797  0.000000  1
  Er  Er4  1  0.309055  0.047636  0.500000  1
  Er  Er5  1  0.690945  0.952364  0.500000  1
  Lu  Lu6  1  0.500000  0.500000  0.500000  1
  Lu  Lu7  1  0.952479  0.690328  0.500000  1
  Lu  Lu8  1  0.047521  0.309672  0.500000  1
  Lu  Lu9  1  0.000000  0.000000  0.000000  1
  Pt  Pt10  1  0.189501  0.808379  0.251021  1
  Pt  Pt11  1  0.810499  0.191621  0.748979  1
  Pt  Pt12  1  0.810499  0.191621  0.251021  1
  Pt  Pt13  1  0.189501  0.808379  0.748979  1
  Pt  Pt14  1  0.440087  0.779827  0.500000  1
  Pt  Pt15  1  0.559913  0.220173  0.500000  1
  Pt  Pt16  1  0.217253  0.558394  0.500000  1
  Pt  Pt17  1  0.782747  0.441606  0.500000  1
  Pt  Pt18  1  0.307605  0.308987  0.250224  1
  Pt  Pt19  1  0.692395  0.691013  0.749776  1
  Pt  Pt20  1  0.692395  0.691013  0.250224  1
  Pt  Pt21  1  0.307605  0.308987  0.749776  1
  Pt  Pt22  1  0.280274  0.059290  0.000000  1
  Pt  Pt23  1  0.719726  0.940710  0.000000  1
  Pt  Pt24  1  0.941105  0.719767  0.000000  1
  Pt  Pt25  1  0.058895  0.280233  0.000000  1
  Pt  Pt26  1  0.000000  0.000000  0.500000  1
  Pt  Pt27  1  0.500000  0.500000  0.000000  1
