# generated using pymatgen
data_Pr2Gd3Sn3P
_symmetry_space_group_name_H-M   'P 1'
_cell_length_a   9.30836000
_cell_length_b   9.30836017
_cell_length_c   6.99827000
_cell_angle_alpha   90.00000000
_cell_angle_beta   90.00000000
_cell_angle_gamma   119.99999229
_symmetry_Int_Tables_number   1
_chemical_formula_structural   Pr2Gd3Sn3P
_chemical_formula_sum   'Pr4 Gd6 Sn6 P2'
_cell_volume   525.13106416
_cell_formula_units_Z   2
loop_
 _symmetry_equiv_pos_site_id
 _symmetry_equiv_pos_as_xyz
  1  'x, y, z'
loop_
 _atom_site_type_symbol
 _atom_site_label
 _atom_site_symmetry_multiplicity
 _atom_site_fract_x
 _atom_site_fract_y
 _atom_site_fract_z
 _atom_site_occupancy
  Pr  Pr0  1  0.666667  0.333333  0.000000  1
  Pr  Pr1  1  0.333333  0.666667  0.000000  1
  Pr  Pr2  1  0.333333  0.666667  0.500000  1
  Pr  Pr3  1  0.666667  0.333333  0.500000  1
  Gd  Gd4  1  0.763777  0.763777  0.750000  1
  Gd  Gd5  1  0.236223  0.000000  0.750000  1
  Gd  Gd6  1  0.000000  0.236223  0.750000  1
  Gd  Gd7  1  0.236223  0.236223  0.250000  1
  Gd  Gd8  1  0.763777  0.000000  0.250000  1
  Gd  Gd9  1  0.000000  0.763777  0.250000  1
  Sn  Sn10  1  0.400246  0.400246  0.750000  1
  Sn  Sn11  1  0.599754  0.000000  0.750000  1
  Sn  Sn12  1  0.000000  0.599754  0.750000  1
  Sn  Sn13  1  0.599754  0.599754  0.250000  1
  Sn  Sn14  1  0.400246  0.000000  0.250000  1
  Sn  Sn15  1  0.000000  0.400246  0.250000  1
  P  P16  1  0.000000  0.000000  0.000000  1
  P  P17  1  0.000000  0.000000  0.500000  1
