# generated using pymatgen
data_Sc5Nb3(Co4P3)4
_symmetry_space_group_name_H-M   'P 1'
_cell_length_a   12.03830200
_cell_length_b   12.03830170
_cell_length_c   3.62596300
_cell_angle_alpha   90.00000000
_cell_angle_beta   90.00000000
_cell_angle_gamma   120.00000083
_symmetry_Int_Tables_number   1
_chemical_formula_structural   Sc5Nb3(Co4P3)4
_chemical_formula_sum   'Sc5 Nb3 Co16 P12'
_cell_volume   455.07654630
_cell_formula_units_Z   1
loop_
 _symmetry_equiv_pos_site_id
 _symmetry_equiv_pos_as_xyz
  1  'x, y, z'
loop_
 _atom_site_type_symbol
 _atom_site_label
 _atom_site_symmetry_multiplicity
 _atom_site_fract_x
 _atom_site_fract_y
 _atom_site_fract_z
 _atom_site_occupancy
  Sc  Sc0  1  0.818286  0.000000  0.500000  1
  Sc  Sc1  1  0.000000  0.818286  0.500000  1
  Sc  Sc2  1  0.181714  0.181714  0.500000  1
  Sc  Sc3  1  0.333333  0.666667  0.000000  1
  Sc  Sc4  1  0.666667  0.333333  0.000000  1
  Nb  Nb5  1  0.446449  0.000000  0.000000  1
  Nb  Nb6  1  0.000000  0.446449  0.000000  1
  Nb  Nb7  1  0.553551  0.553551  0.000000  1
  Co  Co8  1  0.277769  0.000000  0.500000  1
  Co  Co9  1  0.000000  0.277769  0.500000  1
  Co  Co10  1  0.722231  0.722231  0.500000  1
  Co  Co11  1  0.628103  0.804821  0.000000  1
  Co  Co12  1  0.195179  0.823282  0.000000  1
  Co  Co13  1  0.176718  0.371897  0.000000  1
  Co  Co14  1  0.371897  0.176718  0.000000  1
  Co  Co15  1  0.804821  0.628103  0.000000  1
  Co  Co16  1  0.823282  0.195179  0.000000  1
  Co  Co17  1  0.518825  0.871641  0.500000  1
  Co  Co18  1  0.128359  0.647184  0.500000  1
  Co  Co19  1  0.352816  0.481175  0.500000  1
  Co  Co20  1  0.481175  0.352816  0.500000  1
  Co  Co21  1  0.871641  0.518825  0.500000  1
  Co  Co22  1  0.647184  0.128359  0.500000  1
  Co  Co23  1  0.000000  0.000000  0.000000  1
  P  P24  1  0.175170  0.000000  0.000000  1
  P  P25  1  0.000000  0.175170  0.000000  1
  P  P26  1  0.824830  0.824830  0.000000  1
  P  P27  1  0.516963  0.687437  0.500000  1
  P  P28  1  0.312563  0.829526  0.500000  1
  P  P29  1  0.170474  0.483037  0.500000  1
  P  P30  1  0.483037  0.170474  0.500000  1
  P  P31  1  0.687437  0.516963  0.500000  1
  P  P32  1  0.829526  0.312563  0.500000  1
  P  P33  1  0.649536  0.000000  0.000000  1
  P  P34  1  0.000000  0.649536  0.000000  1
  P  P35  1  0.350464  0.350464  0.000000  1
