# generated using pymatgen
data_NaAc6OsI12
_symmetry_space_group_name_H-M   'P 1'
_cell_length_a   10.53339686
_cell_length_b   10.53339646
_cell_length_c   10.53339786
_cell_angle_alpha   107.22727189
_cell_angle_beta   107.22726373
_cell_angle_gamma   107.22725444
_symmetry_Int_Tables_number   1
_chemical_formula_structural   NaAc6OsI12
_chemical_formula_sum   'Na1 Ac6 Os1 I12'
_cell_volume   967.21229020
_cell_formula_units_Z   1
loop_
 _symmetry_equiv_pos_site_id
 _symmetry_equiv_pos_as_xyz
  1  'x, y, z'
loop_
 _atom_site_type_symbol
 _atom_site_label
 _atom_site_symmetry_multiplicity
 _atom_site_fract_x
 _atom_site_fract_y
 _atom_site_fract_z
 _atom_site_occupancy
  Na  Na0  1  0.500000  0.500000  0.500000  1
  Ac  Ac1  1  0.106057  0.309491  0.030947  1
  Ac  Ac2  1  0.309491  0.030948  0.106057  1
  Ac  Ac3  1  0.030948  0.106057  0.309491  1
  Ac  Ac4  1  0.969052  0.893944  0.690509  1
  Ac  Ac5  1  0.690509  0.969053  0.893943  1
  Ac  Ac6  1  0.893943  0.690509  0.969053  1
  Os  Os7  1  0.000000  0.000000  0.000000  1
  I  I8  1  0.224931  0.682351  0.072689  1
  I  I9  1  0.460203  0.381643  0.161457  1
  I  I10  1  0.682351  0.072689  0.224931  1
  I  I11  1  0.927311  0.775069  0.317650  1
  I  I12  1  0.161457  0.460203  0.381643  1
  I  I13  1  0.381643  0.161457  0.460204  1
  I  I14  1  0.618357  0.838543  0.539797  1
  I  I15  1  0.838543  0.539797  0.618357  1
  I  I16  1  0.072689  0.224931  0.682351  1
  I  I17  1  0.317649  0.927311  0.775069  1
  I  I18  1  0.539797  0.618357  0.838544  1
  I  I19  1  0.775069  0.317650  0.927311  1
