# generated using pymatgen
data_Tb8Sc12Ga13Si2Ge
_symmetry_space_group_name_H-M   'P 1'
_cell_length_a   7.27599580
_cell_length_b   7.51085848
_cell_length_c   14.49678000
_cell_angle_alpha   90.00000000
_cell_angle_beta   90.00000000
_cell_angle_gamma   90.15733602
_symmetry_Int_Tables_number   1
_chemical_formula_structural   Tb8Sc12Ga13Si2Ge
_chemical_formula_sum   'Tb8 Sc12 Ga13 Si2 Ge1'
_cell_volume   792.23117705
_cell_formula_units_Z   1
loop_
 _symmetry_equiv_pos_site_id
 _symmetry_equiv_pos_as_xyz
  1  'x, y, z'
loop_
 _atom_site_type_symbol
 _atom_site_label
 _atom_site_symmetry_multiplicity
 _atom_site_fract_x
 _atom_site_fract_y
 _atom_site_fract_z
 _atom_site_occupancy
  Tb  Tb0  1  0.013069  0.177433  0.097166  1
  Tb  Tb1  1  0.987409  0.822547  0.903863  1
  Tb  Tb2  1  0.489551  0.676012  0.904001  1
  Tb  Tb3  1  0.987409  0.822547  0.596137  1
  Tb  Tb4  1  0.510877  0.323039  0.096595  1
  Tb  Tb5  1  0.013069  0.177433  0.402834  1
  Tb  Tb6  1  0.510877  0.323039  0.403405  1
  Tb  Tb7  1  0.489551  0.676012  0.595999  1
  Sc  Sc8  1  0.160702  0.503680  0.750000  1
  Sc  Sc9  1  0.838848  0.495415  0.250000  1
  Sc  Sc10  1  0.337157  0.005689  0.250000  1
  Sc  Sc11  1  0.663568  0.994402  0.750000  1
  Sc  Sc12  1  0.330576  0.174790  0.622830  1
  Sc  Sc13  1  0.669959  0.826159  0.377482  1
  Sc  Sc14  1  0.170082  0.672570  0.376787  1
  Sc  Sc15  1  0.669959  0.826159  0.122518  1
  Sc  Sc16  1  0.829375  0.327568  0.623317  1
  Sc  Sc17  1  0.330576  0.174790  0.877170  1
  Sc  Sc18  1  0.829375  0.327568  0.876683  1
  Sc  Sc19  1  0.170082  0.672570  0.123213  1
  Ga  Ga20  1  0.032729  0.119506  0.750000  1
  Ga  Ga21  1  0.968795  0.882361  0.250000  1
  Ga  Ga22  1  0.466826  0.615591  0.250000  1
  Ga  Ga23  1  0.533655  0.384779  0.750000  1
  Ga  Ga24  1  0.285261  0.873581  0.750000  1
  Ga  Ga25  1  0.158507  0.464296  0.540187  1
  Ga  Ga26  1  0.840886  0.535142  0.458982  1
  Ga  Ga27  1  0.340588  0.964302  0.459059  1
  Ga  Ga28  1  0.840886  0.535142  0.041018  1
  Ga  Ga29  1  0.659600  0.035719  0.540280  1
  Ga  Ga30  1  0.158507  0.464296  0.959813  1
  Ga  Ga31  1  0.659600  0.035719  0.959720  1
  Ga  Ga32  1  0.340588  0.964302  0.040941  1
  Si  Si33  1  0.214483  0.375863  0.250000  1
  Si  Si34  1  0.784533  0.623727  0.750000  1
  Ge  Ge35  1  0.712488  0.126254  0.250000  1
