# generated using pymatgen
data_CeYS2
_symmetry_space_group_name_H-M   'P 1'
_cell_length_a   6.96001305
_cell_length_b   6.96001281
_cell_length_c   6.96001290
_cell_angle_alpha   32.90835371
_cell_angle_beta   32.90835661
_cell_angle_gamma   32.90835298
_symmetry_Int_Tables_number   1
_chemical_formula_structural   CeYS2
_chemical_formula_sum   'Ce1 Y1 S2'
_cell_volume   88.54990549
_cell_formula_units_Z   1
loop_
 _symmetry_equiv_pos_site_id
 _symmetry_equiv_pos_as_xyz
  1  'x, y, z'
loop_
 _atom_site_type_symbol
 _atom_site_label
 _atom_site_symmetry_multiplicity
 _atom_site_fract_x
 _atom_site_fract_y
 _atom_site_fract_z
 _atom_site_occupancy
  Ce  Ce0  1  0.000000  0.000000  0.000000  1
  Y  Y1  1  0.500000  0.500000  0.500000  1
  S  S2  1  0.246367  0.246367  0.246367  1
  S  S3  1  0.753633  0.753633  0.753633  1
