# generated using pymatgen
data_Y4Al18Co2Pt3Rh
_symmetry_space_group_name_H-M   'P 1'
_cell_length_a   7.51694017
_cell_length_b   7.51689888
_cell_length_c   9.37743701
_cell_angle_alpha   89.99616503
_cell_angle_beta   89.99737320
_cell_angle_gamma   119.36659669
_symmetry_Int_Tables_number   1
_chemical_formula_structural   Y4Al18Co2Pt3Rh
_chemical_formula_sum   'Y4 Al18 Co2 Pt3 Rh1'
_cell_volume   461.77591329
_cell_formula_units_Z   1
loop_
 _symmetry_equiv_pos_site_id
 _symmetry_equiv_pos_as_xyz
  1  'x, y, z'
loop_
 _atom_site_type_symbol
 _atom_site_label
 _atom_site_symmetry_multiplicity
 _atom_site_fract_x
 _atom_site_fract_y
 _atom_site_fract_z
 _atom_site_occupancy
  Y  Y0  1  0.995722  0.673964  0.250131  1
  Y  Y1  1  0.004632  0.326226  0.750523  1
  Y  Y2  1  0.673835  0.995462  0.249468  1
  Y  Y3  1  0.326087  0.004376  0.749873  1
  Al  Al4  1  0.133913  0.133677  0.246750  1
  Al  Al5  1  0.866348  0.866109  0.753247  1
  Al  Al6  1  0.340206  0.333481  0.551457  1
  Al  Al7  1  0.663302  0.669532  0.049707  1
  Al  Al8  1  0.330436  0.336684  0.950180  1
  Al  Al9  1  0.666499  0.659774  0.448664  1
  Al  Al10  1  0.341041  0.553017  0.242174  1
  Al  Al11  1  0.658852  0.446898  0.743245  1
  Al  Al12  1  0.553028  0.341121  0.256758  1
  Al  Al13  1  0.446917  0.658937  0.757828  1
  Al  Al14  1  0.007828  0.340854  0.073224  1
  Al  Al15  1  0.991023  0.655355  0.575181  1
  Al  Al16  1  0.344641  0.008985  0.424914  1
  Al  Al17  1  0.659159  0.992195  0.926675  1
  Al  Al18  1  0.010089  0.667361  0.926542  1
  Al  Al19  1  0.989950  0.335892  0.424596  1
  Al  Al20  1  0.664121  0.010078  0.575495  1
  Al  Al21  1  0.332652  0.989945  0.073374  1
  Co  Co22  1  0.329416  0.670585  0.000009  1
  Co  Co23  1  0.670366  0.329627  0.499995  1
  Pt  Pt24  1  0.999666  0.000321  0.500004  1
  Pt  Pt25  1  0.672267  0.327724  0.000012  1
  Pt  Pt26  1  0.327783  0.672202  0.499989  1
  Rh  Rh27  1  0.000221  0.999618  0.999985  1
