# generated using pymatgen
data_TbMnSi2Os
_symmetry_space_group_name_H-M   'P 1'
_cell_length_a   5.86568565
_cell_length_b   5.86568622
_cell_length_c   5.86568642
_cell_angle_alpha   140.07379828
_cell_angle_beta   140.07379900
_cell_angle_gamma   57.74126216
_symmetry_Int_Tables_number   1
_chemical_formula_structural   TbMnSi2Os
_chemical_formula_sum   'Tb1 Mn1 Si2 Os1'
_cell_volume   82.40294747
_cell_formula_units_Z   1
loop_
 _symmetry_equiv_pos_site_id
 _symmetry_equiv_pos_as_xyz
  1  'x, y, z'
loop_
 _atom_site_type_symbol
 _atom_site_label
 _atom_site_symmetry_multiplicity
 _atom_site_fract_x
 _atom_site_fract_y
 _atom_site_fract_z
 _atom_site_occupancy
  Tb  Tb0  1  0.000000  0.000000  0.000000  1
  Mn  Mn1  1  0.750000  0.250000  0.500000  1
  Si  Si2  1  0.620322  0.620322  0.000000  1
  Si  Si3  1  0.379678  0.379678  0.000000  1
  Os  Os4  1  0.250000  0.750000  0.500000  1
