# generated using pymatgen
data_TbDy7(B6Os)4
_symmetry_space_group_name_H-M   'P 1'
_cell_length_a   9.16904200
_cell_length_b   11.55093600
_cell_length_c   3.66104100
_cell_angle_alpha   90.00000000
_cell_angle_beta   90.00000000
_cell_angle_gamma   89.99902152
_symmetry_Int_Tables_number   1
_chemical_formula_structural   TbDy7(B6Os)4
_chemical_formula_sum   'Tb1 Dy7 B24 Os4'
_cell_volume   387.74457674
_cell_formula_units_Z   1
loop_
 _symmetry_equiv_pos_site_id
 _symmetry_equiv_pos_as_xyz
  1  'x, y, z'
loop_
 _atom_site_type_symbol
 _atom_site_label
 _atom_site_symmetry_multiplicity
 _atom_site_fract_x
 _atom_site_fract_y
 _atom_site_fract_z
 _atom_site_occupancy
  Tb  Tb0  1  0.822850  0.086288  0.000000  1
  Dy  Dy1  1  0.443741  0.127021  0.000000  1
  Dy  Dy2  1  0.943814  0.373088  0.000000  1
  Dy  Dy3  1  0.322793  0.413815  0.000000  1
  Dy  Dy4  1  0.677208  0.586230  0.000000  1
  Dy  Dy5  1  0.056235  0.626911  0.000000  1
  Dy  Dy6  1  0.556149  0.872907  0.000000  1
  Dy  Dy7  1  0.177236  0.913721  0.000000  1
  B  B8  1  0.608656  0.030223  0.499999  1
  B  B9  1  0.053932  0.067036  0.499999  1
  B  B10  1  0.247409  0.079975  0.499999  1
  B  B11  1  0.631714  0.185886  0.499999  1
  B  B12  1  0.983614  0.213177  0.499999  1
  B  B13  1  0.290664  0.233225  0.499999  1
  B  B14  1  0.790442  0.267065  0.499999  1
  B  B15  1  0.483215  0.287079  0.499999  1
  B  B16  1  0.132046  0.314374  0.499999  1
  B  B17  1  0.747253  0.420132  0.499999  1
  B  B18  1  0.553608  0.433089  0.499999  1
  B  B19  1  0.109305  0.469630  0.499999  1
  B  B20  1  0.890746  0.530400  0.499999  1
  B  B21  1  0.446311  0.566995  0.499999  1
  B  B22  1  0.252722  0.579967  0.499999  1
  B  B23  1  0.868090  0.685646  0.499999  1
  B  B24  1  0.516642  0.712970  0.499999  1
  B  B25  1  0.209404  0.733130  0.499999  1
  B  B26  1  0.709376  0.766685  0.499999  1
  B  B27  1  0.016727  0.786873  0.499999  1
  B  B28  1  0.368045  0.814251  0.499999  1
  B  B29  1  0.752618  0.919742  0.499999  1
  B  B30  1  0.946398  0.932784  0.499999  1
  B  B31  1  0.390917  0.969640  0.499999  1
  Os  Os32  1  0.137409  0.178485  0.000000  1
  Os  Os33  1  0.637003  0.321776  0.000000  1
  Os  Os34  1  0.362853  0.678349  0.000000  1
  Os  Os35  1  0.862858  0.821441  0.000000  1
