# generated using pymatgen
data_Ce3U2P12Ru19
_symmetry_space_group_name_H-M   'P 1'
_cell_length_a   12.63891304
_cell_length_b   12.64239527
_cell_length_c   3.94795600
_cell_angle_alpha   90.00000000
_cell_angle_beta   90.00000000
_cell_angle_gamma   120.17347262
_symmetry_Int_Tables_number   1
_chemical_formula_structural   Ce3U2P12Ru19
_chemical_formula_sum   'Ce3 U2 P12 Ru19'
_cell_volume   545.35614524
_cell_formula_units_Z   1
loop_
 _symmetry_equiv_pos_site_id
 _symmetry_equiv_pos_as_xyz
  1  'x, y, z'
loop_
 _atom_site_type_symbol
 _atom_site_label
 _atom_site_symmetry_multiplicity
 _atom_site_fract_x
 _atom_site_fract_y
 _atom_site_fract_z
 _atom_site_occupancy
  Ce  Ce0  1  0.810884  0.999704  0.500000  1
  Ce  Ce1  1  0.999642  0.810719  0.500000  1
  Ce  Ce2  1  0.666226  0.333340  0.000000  1
  U  U3  1  0.182598  0.182211  0.500000  1
  U  U4  1  0.334084  0.667229  0.000000  1
  P  P5  1  0.817284  0.817884  0.000000  1
  P  P6  1  0.183757  0.997324  0.000000  1
  P  P7  1  0.999482  0.185133  0.000000  1
  P  P8  1  0.171843  0.477644  0.500000  1
  P  P9  1  0.522881  0.694055  0.500000  1
  P  P10  1  0.305695  0.828992  0.500000  1
  P  P11  1  0.693340  0.522580  0.500000  1
  P  P12  1  0.829553  0.306685  0.500000  1
  P  P13  1  0.477951  0.171004  0.500000  1
  P  P14  1  0.373035  0.371114  0.000000  1
  P  P15  1  0.627869  0.002514  0.000000  1
  P  P16  1  0.997924  0.625467  0.000000  1
  Ru  Ru17  1  0.552566  0.554993  0.000000  1
  Ru  Ru18  1  0.445037  0.000222  0.000000  1
  Ru  Ru19  1  0.005141  0.447553  0.000000  1
  Ru  Ru20  1  0.715884  0.716910  0.500000  1
  Ru  Ru21  1  0.284062  0.000789  0.500000  1
  Ru  Ru22  1  0.002987  0.284979  0.500000  1
  Ru  Ru23  1  0.185601  0.374382  0.000000  1
  Ru  Ru24  1  0.619865  0.805521  0.000000  1
  Ru  Ru25  1  0.195031  0.814909  0.000000  1
  Ru  Ru26  1  0.805514  0.623256  0.000000  1
  Ru  Ru27  1  0.818226  0.195285  0.000000  1
  Ru  Ru28  1  0.370738  0.182192  0.000000  1
  Ru  Ru29  1  0.365277  0.496117  0.500000  1
  Ru  Ru30  1  0.502451  0.869659  0.500000  1
  Ru  Ru31  1  0.131430  0.633838  0.500000  1
  Ru  Ru32  1  0.876458  0.509084  0.500000  1
  Ru  Ru33  1  0.633892  0.124898  0.500000  1
  Ru  Ru34  1  0.489317  0.365097  0.500000  1
  Ru  Ru35  1  0.006475  0.006717  0.000000  1
