# generated using pymatgen
data_LaPr9Ru4
_symmetry_space_group_name_H-M   'P 1'
_cell_length_a   8.99467910
_cell_length_b   8.99488519
_cell_length_c   7.42226924
_cell_angle_alpha   84.20571544
_cell_angle_beta   83.87037479
_cell_angle_gamma   43.51098221
_symmetry_Int_Tables_number   1
_chemical_formula_structural   LaPr9Ru4
_chemical_formula_sum   'La1 Pr9 Ru4'
_cell_volume   410.83879265
_cell_formula_units_Z   1
loop_
 _symmetry_equiv_pos_site_id
 _symmetry_equiv_pos_as_xyz
  1  'x, y, z'
loop_
 _atom_site_type_symbol
 _atom_site_label
 _atom_site_symmetry_multiplicity
 _atom_site_fract_x
 _atom_site_fract_y
 _atom_site_fract_z
 _atom_site_occupancy
  La  La0  1  0.013621  0.799838  0.905572  1
  Pr  Pr1  1  0.202163  0.983482  0.585233  1
  Pr  Pr2  1  0.983879  0.200357  0.086818  1
  Pr  Pr3  1  0.797341  0.018495  0.412573  1
  Pr  Pr4  1  0.361120  0.206370  0.815221  1
  Pr  Pr5  1  0.790433  0.639740  0.684663  1
  Pr  Pr6  1  0.640266  0.790885  0.185921  1
  Pr  Pr7  1  0.210070  0.358307  0.315849  1
  Pr  Pr8  1  0.574731  0.426524  0.749912  1
  Pr  Pr9  1  0.423907  0.574880  0.250088  1
  Ru  Ru10  1  0.169246  0.609159  0.585840  1
  Ru  Ru11  1  0.400331  0.824162  0.924128  1
  Ru  Ru12  1  0.824156  0.398552  0.424053  1
  Ru  Ru13  1  0.608734  0.169249  0.074130  1
