# generated using pymatgen
data_Zr3Ga2PtC
_symmetry_space_group_name_H-M   'P 1'
_cell_length_a   8.67407418
_cell_length_b   8.67405736
_cell_length_c   8.67405200
_cell_angle_alpha   60.00002045
_cell_angle_beta   60.00008460
_cell_angle_gamma   60.00005422
_symmetry_Int_Tables_number   1
_chemical_formula_structural   Zr3Ga2PtC
_chemical_formula_sum   'Zr12 Ga8 Pt4 C4'
_cell_volume   461.48008946
_cell_formula_units_Z   4
loop_
 _symmetry_equiv_pos_site_id
 _symmetry_equiv_pos_as_xyz
  1  'x, y, z'
loop_
 _atom_site_type_symbol
 _atom_site_label
 _atom_site_symmetry_multiplicity
 _atom_site_fract_x
 _atom_site_fract_y
 _atom_site_fract_z
 _atom_site_occupancy
  Zr  Zr0  1  0.442130  0.442129  0.057871  1
  Zr  Zr1  1  0.057871  0.442129  0.057870  1
  Zr  Zr2  1  0.442130  0.057870  0.057871  1
  Zr  Zr3  1  0.057870  0.057870  0.442130  1
  Zr  Zr4  1  0.442130  0.057870  0.442130  1
  Zr  Zr5  1  0.057871  0.442129  0.442130  1
  Zr  Zr6  1  0.807870  0.807871  0.192129  1
  Zr  Zr7  1  0.192129  0.807871  0.192130  1
  Zr  Zr8  1  0.807870  0.192130  0.192129  1
  Zr  Zr9  1  0.192130  0.192130  0.807870  1
  Zr  Zr10  1  0.807870  0.192130  0.807870  1
  Zr  Zr11  1  0.192129  0.807871  0.807870  1
  Ga  Ga12  1  0.833135  0.833139  0.500587  1
  Ga  Ga13  1  0.833135  0.500588  0.833139  1
  Ga  Ga14  1  0.500583  0.833139  0.833139  1
  Ga  Ga15  1  0.833135  0.833139  0.833139  1
  Ga  Ga16  1  0.416865  0.416861  0.749413  1
  Ga  Ga17  1  0.416865  0.749412  0.416861  1
  Ga  Ga18  1  0.749417  0.416861  0.416861  1
  Ga  Ga19  1  0.416865  0.416861  0.416861  1
  Pt  Pt20  1  0.625000  0.625000  0.125000  1
  Pt  Pt21  1  0.625000  0.125000  0.625000  1
  Pt  Pt22  1  0.125000  0.625000  0.625000  1
  Pt  Pt23  1  0.625000  0.625000  0.625000  1
  C  C24  1  0.125000  0.125000  0.625000  1
  C  C25  1  0.125000  0.625000  0.125000  1
  C  C26  1  0.625000  0.125000  0.125000  1
  C  C27  1  0.125000  0.125000  0.125000  1
