# generated using pymatgen
data_Nd(GaAu)3
_symmetry_space_group_name_H-M   'P 1'
_cell_length_a   4.56834300
_cell_length_b   7.03852400
_cell_length_c   8.70221300
_cell_angle_alpha   90.00000000
_cell_angle_beta   90.00000000
_cell_angle_gamma   90.00000000
_symmetry_Int_Tables_number   1
_chemical_formula_structural   Nd(GaAu)3
_chemical_formula_sum   'Nd2 Ga6 Au6'
_cell_volume   279.81436673
_cell_formula_units_Z   2
loop_
 _symmetry_equiv_pos_site_id
 _symmetry_equiv_pos_as_xyz
  1  'x, y, z'
loop_
 _atom_site_type_symbol
 _atom_site_label
 _atom_site_symmetry_multiplicity
 _atom_site_fract_x
 _atom_site_fract_y
 _atom_site_fract_z
 _atom_site_occupancy
  Nd  Nd0  1  0.000000  0.500000  0.248635  1
  Nd  Nd1  1  0.500000  0.000000  0.751365  1
  Ga  Ga2  1  0.500000  0.500000  0.620823  1
  Ga  Ga3  1  0.000000  0.300831  0.892879  1
  Ga  Ga4  1  0.000000  0.699169  0.892879  1
  Ga  Ga5  1  0.500000  0.800831  0.107121  1
  Ga  Ga6  1  0.000000  0.000000  0.379177  1
  Ga  Ga7  1  0.500000  0.199169  0.107121  1
  Au  Au8  1  0.000000  0.736811  0.600628  1
  Au  Au9  1  0.500000  0.500000  0.929445  1
  Au  Au10  1  0.000000  0.263189  0.600628  1
  Au  Au11  1  0.500000  0.763189  0.399372  1
  Au  Au12  1  0.000000  0.000000  0.070555  1
  Au  Au13  1  0.500000  0.236811  0.399372  1
