# generated using pymatgen
data_Ca2Ga(AsRh2)6
_symmetry_space_group_name_H-M   'P 1'
_cell_length_a   10.00264300
_cell_length_b   10.00264193
_cell_length_c   3.95348000
_cell_angle_alpha   90.00000000
_cell_angle_beta   90.00000000
_cell_angle_gamma   120.00000022
_symmetry_Int_Tables_number   1
_chemical_formula_structural   Ca2Ga(AsRh2)6
_chemical_formula_sum   'Ca2 Ga1 As6 Rh12'
_cell_volume   342.56238078
_cell_formula_units_Z   1
loop_
 _symmetry_equiv_pos_site_id
 _symmetry_equiv_pos_as_xyz
  1  'x, y, z'
loop_
 _atom_site_type_symbol
 _atom_site_label
 _atom_site_symmetry_multiplicity
 _atom_site_fract_x
 _atom_site_fract_y
 _atom_site_fract_z
 _atom_site_occupancy
  Ca  Ca0  1  0.333333  0.666667  0.751753  1
  Ca  Ca1  1  0.000000  0.000000  0.250124  1
  Ga  Ga2  1  0.666667  0.333333  0.580119  1
  As  As3  1  0.953263  0.216199  0.751462  1
  As  As4  1  0.783801  0.737064  0.751462  1
  As  As5  1  0.262936  0.046737  0.751462  1
  As  As6  1  0.378885  0.448973  0.250639  1
  As  As7  1  0.551027  0.929912  0.250639  1
  As  As8  1  0.070088  0.621115  0.250639  1
  Rh  Rh9  1  0.728531  0.950500  0.751210  1
  Rh  Rh10  1  0.049500  0.778031  0.751210  1
  Rh  Rh11  1  0.221969  0.271469  0.751210  1
  Rh  Rh12  1  0.607604  0.718573  0.250738  1
  Rh  Rh13  1  0.281427  0.889031  0.250738  1
  Rh  Rh14  1  0.110969  0.392396  0.250738  1
  Rh  Rh15  1  0.942098  0.454547  0.751407  1
  Rh  Rh16  1  0.545453  0.487552  0.751407  1
  Rh  Rh17  1  0.512448  0.057902  0.751407  1
  Rh  Rh18  1  0.404263  0.217035  0.251941  1
  Rh  Rh19  1  0.782965  0.187228  0.251941  1
  Rh  Rh20  1  0.812772  0.595737  0.251941  1
