# generated using pymatgen
data_Eu2TmNi7B2
_symmetry_space_group_name_H-M   'P 1'
_cell_length_a   5.07010100
_cell_length_b   5.07010239
_cell_length_c   14.61844600
_cell_angle_alpha   90.00000000
_cell_angle_beta   90.00000000
_cell_angle_gamma   120.00001053
_symmetry_Int_Tables_number   1
_chemical_formula_structural   Eu2TmNi7B2
_chemical_formula_sum   'Eu4 Tm2 Ni14 B4'
_cell_volume   325.43565576
_cell_formula_units_Z   2
loop_
 _symmetry_equiv_pos_site_id
 _symmetry_equiv_pos_as_xyz
  1  'x, y, z'
loop_
 _atom_site_type_symbol
 _atom_site_label
 _atom_site_symmetry_multiplicity
 _atom_site_fract_x
 _atom_site_fract_y
 _atom_site_fract_z
 _atom_site_occupancy
  Eu  Eu0  1  0.333333  0.666667  0.532060  1
  Eu  Eu1  1  0.666667  0.333333  0.032060  1
  Eu  Eu2  1  0.666667  0.333333  0.467940  1
  Eu  Eu3  1  0.333333  0.666667  0.967940  1
  Tm  Tm4  1  0.333333  0.666667  0.750000  1
  Tm  Tm5  1  0.666667  0.333333  0.250000  1
  Ni  Ni6  1  0.000000  0.000000  0.000000  1
  Ni  Ni7  1  0.000000  0.000000  0.500000  1
  Ni  Ni8  1  0.164987  0.329975  0.153377  1
  Ni  Ni9  1  0.835013  0.670025  0.653377  1
  Ni  Ni10  1  0.670025  0.835013  0.153377  1
  Ni  Ni11  1  0.164987  0.835013  0.153377  1
  Ni  Ni12  1  0.835013  0.164987  0.653377  1
  Ni  Ni13  1  0.329975  0.164987  0.653377  1
  Ni  Ni14  1  0.835013  0.670025  0.846623  1
  Ni  Ni15  1  0.835013  0.164987  0.846623  1
  Ni  Ni16  1  0.329975  0.164987  0.846623  1
  Ni  Ni17  1  0.670025  0.835013  0.346623  1
  Ni  Ni18  1  0.164987  0.835013  0.346623  1
  Ni  Ni19  1  0.164987  0.329975  0.346623  1
  B  B20  1  0.333333  0.666667  0.250000  1
  B  B21  1  0.666667  0.333333  0.750000  1
  B  B22  1  0.000000  0.000000  0.250000  1
  B  B23  1  0.000000  0.000000  0.750000  1
