# generated using pymatgen
data_Li2DyHoB28
_symmetry_space_group_name_H-M   'P 1'
_cell_length_a   7.25143953
_cell_length_b   7.25144706
_cell_length_c   7.25144658
_cell_angle_alpha   132.23329771
_cell_angle_beta   110.88825899
_cell_angle_gamma   88.35554988
_symmetry_Int_Tables_number   1
_chemical_formula_structural   Li2DyHoB28
_chemical_formula_sum   'Li2 Dy1 Ho1 B28'
_cell_volume   251.20473561
_cell_formula_units_Z   1
loop_
 _symmetry_equiv_pos_site_id
 _symmetry_equiv_pos_as_xyz
  1  'x, y, z'
loop_
 _atom_site_type_symbol
 _atom_site_label
 _atom_site_symmetry_multiplicity
 _atom_site_fract_x
 _atom_site_fract_y
 _atom_site_fract_z
 _atom_site_occupancy
  Li  Li0  1  0.999991  0.999980  0.499971  1
  Li  Li1  1  0.999991  0.500020  0.000011  1
  Dy  Dy2  1  0.379808  0.750000  0.629808  1
  Ho  Ho3  1  0.620876  0.249993  0.370883  1
  B  B4  1  0.638627  0.665984  0.972645  1
  B  B5  1  0.361443  0.334009  0.027433  1
  B  B6  1  0.193425  0.165992  0.027433  1
  B  B7  1  0.806662  0.834017  0.972645  1
  B  B8  1  0.777965  0.149839  0.628126  1
  B  B9  1  0.221890  0.850304  0.371586  1
  B  B10  1  0.021283  0.649696  0.371587  1
  B  B11  1  0.978289  0.350162  0.628127  1
  B  B12  1  0.915582  0.089109  0.826472  1
  B  B13  1  0.084252  0.910894  0.173357  1
  B  B14  1  0.762464  0.589107  0.173357  1
  B  B15  1  0.237363  0.410890  0.826473  1
  B  B16  1  0.398739  0.400384  0.681274  1
  B  B17  1  0.601362  0.282760  0.002013  1
  B  B18  1  0.219251  0.900650  0.002013  1
  B  B19  1  0.780891  0.782536  0.681274  1
  B  B20  1  0.601362  0.599350  0.318602  1
  B  B21  1  0.398739  0.717465  0.998354  1
  B  B22  1  0.780891  0.099617  0.998355  1
  B  B23  1  0.219251  0.217238  0.318602  1
  B  B24  1  0.033550  0.829955  0.703251  1
  B  B25  1  0.966302  0.669574  0.796224  1
  B  B26  1  0.626652  0.329924  0.796225  1
  B  B27  1  0.373296  0.169703  0.703252  1
  B  B28  1  0.966302  0.170078  0.296728  1
  B  B29  1  0.033550  0.330298  0.203595  1
  B  B30  1  0.373296  0.670043  0.203593  1
  B  B31  1  0.626652  0.830427  0.296729  1
