# generated using pymatgen
data_Lu4Al3TcB16
_symmetry_space_group_name_H-M   'P 1'
_cell_length_a   3.51159300
_cell_length_b   5.91514609
_cell_length_c   11.43781185
_cell_angle_alpha   90.21375313
_cell_angle_beta   90.00000000
_cell_angle_gamma   90.00000000
_symmetry_Int_Tables_number   1
_chemical_formula_structural   Lu4Al3TcB16
_chemical_formula_sum   'Lu4 Al3 Tc1 B16'
_cell_volume   237.57983438
_cell_formula_units_Z   1
loop_
 _symmetry_equiv_pos_site_id
 _symmetry_equiv_pos_as_xyz
  1  'x, y, z'
loop_
 _atom_site_type_symbol
 _atom_site_label
 _atom_site_symmetry_multiplicity
 _atom_site_fract_x
 _atom_site_fract_y
 _atom_site_fract_z
 _atom_site_occupancy
  Lu  Lu0  1  0.000000  0.370820  0.655038  1
  Lu  Lu1  1  0.000000  0.627888  0.348161  1
  Lu  Lu2  1  0.000000  0.874359  0.851034  1
  Lu  Lu3  1  0.000000  0.129392  0.145927  1
  Al  Al4  1  0.000000  0.638184  0.086405  1
  Al  Al5  1  0.000000  0.860599  0.592481  1
  Al  Al6  1  0.000000  0.137588  0.409897  1
  Tc  Tc7  1  0.000000  0.371124  0.916256  1
  B  B8  1  0.500000  0.025357  0.692487  1
  B  B9  1  0.500000  0.973144  0.306040  1
  B  B10  1  0.500000  0.521693  0.806724  1
  B  B11  1  0.500000  0.475637  0.194145  1
  B  B12  1  0.500000  0.114186  0.547312  1
  B  B13  1  0.500000  0.885000  0.451796  1
  B  B14  1  0.500000  0.614222  0.950371  1
  B  B15  1  0.500000  0.382360  0.046742  1
  B  B16  1  0.500000  0.291696  0.312924  1
  B  B17  1  0.500000  0.708254  0.685954  1
  B  B18  1  0.500000  0.789903  0.187121  1
  B  B19  1  0.500000  0.210467  0.813917  1
  B  B20  1  0.500000  0.366759  0.468742  1
  B  B21  1  0.500000  0.632116  0.530108  1
  B  B22  1  0.500000  0.866166  0.032561  1
  B  B23  1  0.500000  0.133086  0.967855  1
