# generated using pymatgen
data_DyHo2Sc7(Si5Ir2)4
_symmetry_space_group_name_H-M   'P 1'
_cell_length_a   12.45831833
_cell_length_b   12.45814052
_cell_length_c   4.14103700
_cell_angle_alpha   90.00000000
_cell_angle_beta   90.00000000
_cell_angle_gamma   90.08282937
_symmetry_Int_Tables_number   1
_chemical_formula_structural   DyHo2Sc7(Si5Ir2)4
_chemical_formula_sum   'Dy1 Ho2 Sc7 Si20 Ir8'
_cell_volume   642.71924755
_cell_formula_units_Z   1
loop_
 _symmetry_equiv_pos_site_id
 _symmetry_equiv_pos_as_xyz
  1  'x, y, z'
loop_
 _atom_site_type_symbol
 _atom_site_label
 _atom_site_symmetry_multiplicity
 _atom_site_fract_x
 _atom_site_fract_y
 _atom_site_fract_z
 _atom_site_occupancy
  Dy  Dy0  1  0.116092  0.616040  0.500000  1
  Ho  Ho1  1  0.883940  0.383943  0.500000  1
  Ho  Ho2  1  0.615903  0.884171  0.500000  1
  Sc  Sc3  1  0.383683  0.116408  0.500000  1
  Sc  Sc4  1  0.672990  0.173847  0.500000  1
  Sc  Sc5  1  0.326398  0.827182  0.500000  1
  Sc  Sc6  1  0.174441  0.325277  0.500000  1
  Sc  Sc7  1  0.825959  0.673750  0.500000  1
  Sc  Sc8  1  0.000545  0.000118  0.000000  1
  Sc  Sc9  1  0.499970  0.499556  0.000000  1
  Si  Si10  1  0.566100  0.067428  0.000000  1
  Si  Si11  1  0.432631  0.933946  0.000000  1
  Si  Si12  1  0.067627  0.432311  0.000000  1
  Si  Si13  1  0.932588  0.567350  0.000000  1
  Si  Si14  1  0.200645  0.165407  0.000000  1
  Si  Si15  1  0.800524  0.834320  0.000000  1
  Si  Si16  1  0.166266  0.801523  0.000000  1
  Si  Si17  1  0.698592  0.333717  0.000000  1
  Si  Si18  1  0.833858  0.199455  0.000000  1
  Si  Si19  1  0.300707  0.666079  0.000000  1
  Si  Si20  1  0.665751  0.699365  0.000000  1
  Si  Si21  1  0.334627  0.299161  0.000000  1
  Si  Si22  1  0.007522  0.150729  0.500000  1
  Si  Si23  1  0.992339  0.849595  0.500000  1
  Si  Si24  1  0.152448  0.994125  0.500000  1
  Si  Si25  1  0.506143  0.347573  0.500000  1
  Si  Si26  1  0.849123  0.008176  0.500000  1
  Si  Si27  1  0.492048  0.650842  0.500000  1
  Si  Si28  1  0.650593  0.507080  0.500000  1
  Si  Si29  1  0.349465  0.491974  0.500000  1
  Ir  Ir30  1  0.020302  0.244186  0.000000  1
  Ir  Ir31  1  0.979995  0.755978  0.000000  1
  Ir  Ir32  1  0.246337  0.981213  0.000000  1
  Ir  Ir33  1  0.518894  0.253660  0.000000  1
  Ir  Ir34  1  0.754702  0.020108  0.000000  1
  Ir  Ir35  1  0.480023  0.745270  0.000000  1
  Ir  Ir36  1  0.744208  0.519744  0.000000  1
  Ir  Ir37  1  0.256022  0.479394  0.000000  1
