# generated using pymatgen
data_RbSc(CO3)2
_symmetry_space_group_name_H-M   'P 1'
_cell_length_a   6.74409115
_cell_length_b   6.74409161
_cell_length_c   6.74409081
_cell_angle_alpha   45.10084361
_cell_angle_beta   45.10084225
_cell_angle_gamma   45.10084473
_symmetry_Int_Tables_number   1
_chemical_formula_structural   RbSc(CO3)2
_chemical_formula_sum   'Rb1 Sc1 C2 O6'
_cell_volume   140.11555511
_cell_formula_units_Z   1
loop_
 _symmetry_equiv_pos_site_id
 _symmetry_equiv_pos_as_xyz
  1  'x, y, z'
loop_
 _atom_site_type_symbol
 _atom_site_label
 _atom_site_symmetry_multiplicity
 _atom_site_fract_x
 _atom_site_fract_y
 _atom_site_fract_z
 _atom_site_occupancy
  Rb  Rb0  1  0.500000  0.500000  0.500000  1
  Sc  Sc1  1  0.000000  0.000000  0.000000  1
  C  C2  1  0.266780  0.266780  0.266780  1
  C  C3  1  0.733220  0.733220  0.733220  1
  O  O4  1  0.150444  0.552425  0.092815  1
  O  O5  1  0.552426  0.092815  0.150444  1
  O  O6  1  0.907185  0.849555  0.447574  1
  O  O7  1  0.092814  0.150445  0.552426  1
  O  O8  1  0.447574  0.907185  0.849556  1
  O  O9  1  0.849555  0.447575  0.907184  1
