# generated using pymatgen
data_HoLuMo3P7Rh9
_symmetry_space_group_name_H-M   'P 1'
_cell_length_a   3.92338100
_cell_length_b   9.51636253
_cell_length_c   9.51586001
_cell_angle_alpha   120.00110416
_cell_angle_beta   90.00036787
_cell_angle_gamma   89.99940814
_symmetry_Int_Tables_number   1
_chemical_formula_structural   HoLuMo3P7Rh9
_chemical_formula_sum   'Ho1 Lu1 Mo3 P7 Rh9'
_cell_volume   307.68427920
_cell_formula_units_Z   1
loop_
 _symmetry_equiv_pos_site_id
 _symmetry_equiv_pos_as_xyz
  1  'x, y, z'
loop_
 _atom_site_type_symbol
 _atom_site_label
 _atom_site_symmetry_multiplicity
 _atom_site_fract_x
 _atom_site_fract_y
 _atom_site_fract_z
 _atom_site_occupancy
  Ho  Ho0  1  0.261451  0.666638  0.333281  1
  Lu  Lu1  1  0.762195  0.333346  0.666701  1
  Mo  Mo2  1  0.761949  0.091836  0.870706  1
  Mo  Mo3  1  0.761952  0.129365  0.221281  1
  Mo  Mo4  1  0.761936  0.778770  0.908073  1
  P  P5  1  0.262186  0.000018  0.999963  1
  P  P6  1  0.761739  0.881308  0.593504  1
  P  P7  1  0.761744  0.406474  0.287792  1
  P  P8  1  0.761719  0.712196  0.118646  1
  P  P9  1  0.261972  0.118790  0.412878  1
  P  P10  1  0.261996  0.587168  0.705961  1
  P  P11  1  0.261959  0.294084  0.881243  1
  Rh  Rh12  1  0.261882  0.884210  0.160154  1
  Rh  Rh13  1  0.261868  0.839797  0.723942  1
  Rh  Rh14  1  0.261869  0.276028  0.115871  1
  Rh  Rh15  1  0.761943  0.611876  0.557981  1
  Rh  Rh16  1  0.761913  0.441927  0.053794  1
  Rh  Rh17  1  0.761924  0.946107  0.388100  1
  Rh  Rh18  1  0.261954  0.370502  0.440941  1
  Rh  Rh19  1  0.261914  0.559160  0.929656  1
  Rh  Rh20  1  0.261936  0.070397  0.629537  1
