# generated using pymatgen
data_Th3Cu4(SiGe)2
_symmetry_space_group_name_H-M   'P 1'
_cell_length_a   4.14256174
_cell_length_b   4.13491377
_cell_length_c   12.48563800
_cell_angle_alpha   99.53131942
_cell_angle_beta   99.54911702
_cell_angle_gamma   90.00000615
_symmetry_Int_Tables_number   1
_chemical_formula_structural   Th3Cu4(SiGe)2
_chemical_formula_sum   'Th3 Cu4 Si2 Ge2'
_cell_volume   207.91029738
_cell_formula_units_Z   1
loop_
 _symmetry_equiv_pos_site_id
 _symmetry_equiv_pos_as_xyz
  1  'x, y, z'
loop_
 _atom_site_type_symbol
 _atom_site_label
 _atom_site_symmetry_multiplicity
 _atom_site_fract_x
 _atom_site_fract_y
 _atom_site_fract_z
 _atom_site_occupancy
  Th  Th0  1  0.850240  0.350240  0.700482  1
  Th  Th1  1  0.149760  0.649760  0.299518  1
  Th  Th2  1  0.000000  0.000000  0.000000  1
  Cu  Cu3  1  0.249471  0.249471  0.498940  1
  Cu  Cu4  1  0.750529  0.750529  0.501060  1
  Cu  Cu5  1  0.600134  0.100134  0.200268  1
  Cu  Cu6  1  0.399866  0.899866  0.799732  1
  Si  Si7  1  0.696185  0.196185  0.392369  1
  Si  Si8  1  0.303815  0.803815  0.607631  1
  Ge  Ge9  1  0.448517  0.448517  0.897036  1
  Ge  Ge10  1  0.551483  0.551483  0.102964  1
