# generated using pymatgen
data_Ti20Si11P5
_symmetry_space_group_name_H-M   'P 1'
_cell_length_a   6.62615214
_cell_length_b   6.63524464
_cell_length_c   12.09456167
_cell_angle_alpha   89.91524176
_cell_angle_beta   90.07148044
_cell_angle_gamma   89.86161498
_symmetry_Int_Tables_number   1
_chemical_formula_structural   Ti20Si11P5
_chemical_formula_sum   'Ti20 Si11 P5'
_cell_volume   531.74864836
_cell_formula_units_Z   1
loop_
 _symmetry_equiv_pos_site_id
 _symmetry_equiv_pos_as_xyz
  1  'x, y, z'
loop_
 _atom_site_type_symbol
 _atom_site_label
 _atom_site_symmetry_multiplicity
 _atom_site_fract_x
 _atom_site_fract_y
 _atom_site_fract_z
 _atom_site_occupancy
  Ti  Ti0  1  0.994444  0.155440  0.622731  1
  Ti  Ti1  1  0.347838  0.491111  0.874123  1
  Ti  Ti2  1  0.647498  0.506476  0.375658  1
  Ti  Ti3  1  0.493134  0.352496  0.124082  1
  Ti  Ti4  1  0.507027  0.647848  0.625281  1
  Ti  Ti5  1  0.006384  0.844845  0.119565  1
  Ti  Ti6  1  0.154903  0.993505  0.380231  1
  Ti  Ti7  1  0.847621  0.010192  0.878523  1
  Ti  Ti8  1  0.003332  0.346730  0.218913  1
  Ti  Ti9  1  0.152493  0.501505  0.471988  1
  Ti  Ti10  1  0.848622  0.497836  0.970049  1
  Ti  Ti11  1  0.502015  0.151633  0.528745  1
  Ti  Ti12  1  0.497898  0.847477  0.028949  1
  Ti  Ti13  1  0.997241  0.650334  0.720790  1
  Ti  Ti14  1  0.344916  0.004241  0.780234  1
  Ti  Ti15  1  0.653916  0.996345  0.280904  1
  Ti  Ti16  1  0.171614  0.174683  0.997949  1
  Ti  Ti17  1  0.329414  0.671077  0.249976  1
  Ti  Ti18  1  0.673521  0.329513  0.750986  1
  Ti  Ti19  1  0.827326  0.826829  0.500306  1
  Si  Si20  1  0.954463  0.699920  0.313094  1
  Si  Si21  1  0.299437  0.046160  0.186393  1
  Si  Si22  1  0.699528  0.953840  0.686953  1
  Si  Si23  1  0.298131  0.358027  0.671885  1
  Si  Si24  1  0.141326  0.795998  0.920164  1
  Si  Si25  1  0.859362  0.203912  0.420679  1
  Si  Si26  1  0.795604  0.140821  0.079943  1
  Si  Si27  1  0.202987  0.858455  0.580502  1
  Si  Si28  1  0.704644  0.641427  0.173357  1
  Si  Si29  1  0.357910  0.295449  0.326133  1
  Si  Si30  1  0.640100  0.705481  0.827516  1
  P  P31  1  0.045702  0.300081  0.812968  1
  P  P32  1  0.199337  0.545520  0.063929  1
  P  P33  1  0.800513  0.455049  0.563878  1
  P  P34  1  0.545060  0.199275  0.936387  1
  P  P35  1  0.454740  0.800468  0.436238  1
