# generated using pymatgen
data_LiSc2B2RuRh4
_symmetry_space_group_name_H-M   'P 1'
_cell_length_a   9.29671700
_cell_length_b   9.29671700
_cell_length_c   3.04465100
_cell_angle_alpha   90.00000000
_cell_angle_beta   90.00000000
_cell_angle_gamma   90.00000000
_symmetry_Int_Tables_number   1
_chemical_formula_structural   LiSc2B2RuRh4
_chemical_formula_sum   'Li2 Sc4 B4 Ru2 Rh8'
_cell_volume   263.14597985
_cell_formula_units_Z   2
loop_
 _symmetry_equiv_pos_site_id
 _symmetry_equiv_pos_as_xyz
  1  'x, y, z'
loop_
 _atom_site_type_symbol
 _atom_site_label
 _atom_site_symmetry_multiplicity
 _atom_site_fract_x
 _atom_site_fract_y
 _atom_site_fract_z
 _atom_site_occupancy
  Li  Li0  1  0.500000  0.500000  0.000000  1
  Li  Li1  1  0.000000  0.000000  0.000000  1
  Sc  Sc2  1  0.673890  0.173890  0.000000  1
  Sc  Sc3  1  0.326110  0.826110  0.000000  1
  Sc  Sc4  1  0.173890  0.326110  0.000000  1
  Sc  Sc5  1  0.826110  0.673890  0.000000  1
  B  B6  1  0.125368  0.625368  0.000000  1
  B  B7  1  0.874632  0.374632  0.000000  1
  B  B8  1  0.625368  0.874632  0.000000  1
  B  B9  1  0.374632  0.125368  0.000000  1
  Ru  Ru10  1  0.500000  0.000000  0.500000  1
  Ru  Ru11  1  0.000000  0.500000  0.500000  1
  Rh  Rh12  1  0.571932  0.712883  0.500000  1
  Rh  Rh13  1  0.428068  0.287117  0.500000  1
  Rh  Rh14  1  0.071932  0.787117  0.500000  1
  Rh  Rh15  1  0.928068  0.212883  0.500000  1
  Rh  Rh16  1  0.287117  0.571932  0.500000  1
  Rh  Rh17  1  0.712883  0.428068  0.500000  1
  Rh  Rh18  1  0.212883  0.071932  0.500000  1
  Rh  Rh19  1  0.787117  0.928068  0.500000  1
