# generated using pymatgen
data_Y3Zn2Pd3Au
_symmetry_space_group_name_H-M   'P 1'
_cell_length_a   3.88184800
_cell_length_b   7.46311064
_cell_length_c   7.34350613
_cell_angle_alpha   120.54026049
_cell_angle_beta   90.00000000
_cell_angle_gamma   90.00000000
_symmetry_Int_Tables_number   1
_chemical_formula_structural   Y3Zn2Pd3Au
_chemical_formula_sum   'Y3 Zn2 Pd3 Au1'
_cell_volume   183.23243511
_cell_formula_units_Z   1
loop_
 _symmetry_equiv_pos_site_id
 _symmetry_equiv_pos_as_xyz
  1  'x, y, z'
loop_
 _atom_site_type_symbol
 _atom_site_label
 _atom_site_symmetry_multiplicity
 _atom_site_fract_x
 _atom_site_fract_y
 _atom_site_fract_z
 _atom_site_occupancy
  Y  Y0  1  0.000000  0.409155  0.000000  1
  Y  Y1  1  0.000000  0.600762  0.611180  1
  Y  Y2  1  0.000000  0.989583  0.388820  1
  Zn  Zn3  1  0.500000  0.258000  0.255928  1
  Zn  Zn4  1  0.500000  0.002072  0.744072  1
  Pd  Pd5  1  0.500000  0.662816  0.348843  1
  Pd  Pd6  1  0.500000  0.313973  0.651157  1
  Pd  Pd7  1  0.000000  0.025358  0.000000  1
  Au  Au8  1  0.500000  0.738380  0.000000  1
