# generated using pymatgen
data_Sm2MnN3
_symmetry_space_group_name_H-M   'P 1'
_cell_length_a   6.81285415
_cell_length_b   6.81285377
_cell_length_c   6.81285408
_cell_angle_alpha   150.06505843
_cell_angle_beta   148.48148683
_cell_angle_gamma   44.02275642
_symmetry_Int_Tables_number   1
_chemical_formula_structural   Sm2MnN3
_chemical_formula_sum   'Sm2 Mn1 N3'
_cell_volume   82.25768769
_cell_formula_units_Z   1
loop_
 _symmetry_equiv_pos_site_id
 _symmetry_equiv_pos_as_xyz
  1  'x, y, z'
loop_
 _atom_site_type_symbol
 _atom_site_label
 _atom_site_symmetry_multiplicity
 _atom_site_fract_x
 _atom_site_fract_y
 _atom_site_fract_z
 _atom_site_occupancy
  Sm  Sm0  1  0.649152  0.649152  0.000000  1
  Sm  Sm1  1  0.350848  0.350848  0.000000  1
  Mn  Mn2  1  0.000000  0.000000  0.000000  1
  N  N3  1  0.839683  0.839683  0.000000  1
  N  N4  1  0.160317  0.160317  0.000000  1
  N  N5  1  0.500000  0.000000  0.500000  1
