# generated using pymatgen
data_Th4TaNb5Si8
_symmetry_space_group_name_H-M   'P 1'
_cell_length_a   7.19301958
_cell_length_b   7.19301958
_cell_length_c   13.40041000
_cell_angle_alpha   90.00000000
_cell_angle_beta   90.00000000
_cell_angle_gamma   89.88559991
_symmetry_Int_Tables_number   1
_chemical_formula_structural   Th4TaNb5Si8
_chemical_formula_sum   'Th8 Ta2 Nb10 Si16'
_cell_volume   693.32954313
_cell_formula_units_Z   2
loop_
 _symmetry_equiv_pos_site_id
 _symmetry_equiv_pos_as_xyz
  1  'x, y, z'
loop_
 _atom_site_type_symbol
 _atom_site_label
 _atom_site_symmetry_multiplicity
 _atom_site_fract_x
 _atom_site_fract_y
 _atom_site_fract_z
 _atom_site_occupancy
  Th  Th0  1  0.999099  0.337242  0.218110  1
  Th  Th1  1  0.000901  0.662758  0.718110  1
  Th  Th2  1  0.162601  0.499048  0.468157  1
  Th  Th3  1  0.500952  0.837399  0.031843  1
  Th  Th4  1  0.837399  0.500952  0.968157  1
  Th  Th5  1  0.499048  0.162601  0.531843  1
  Th  Th6  1  0.337242  0.999099  0.781890  1
  Th  Th7  1  0.662758  0.000901  0.281890  1
  Ta  Ta8  1  0.331895  0.668105  0.250000  1
  Ta  Ta9  1  0.668105  0.331895  0.750000  1
  Nb  Nb10  1  0.167896  0.167896  0.000000  1
  Nb  Nb11  1  0.832104  0.832104  0.500000  1
  Nb  Nb12  1  0.160724  0.995257  0.374032  1
  Nb  Nb13  1  0.839276  0.004743  0.874032  1
  Nb  Nb14  1  0.504862  0.659770  0.624203  1
  Nb  Nb15  1  0.340230  0.495138  0.875797  1
  Nb  Nb16  1  0.495138  0.340230  0.124203  1
  Nb  Nb17  1  0.659770  0.504862  0.375797  1
  Nb  Nb18  1  0.995257  0.160724  0.625968  1
  Nb  Nb19  1  0.004743  0.839276  0.125968  1
  Si  Si20  1  0.288728  0.038898  0.186401  1
  Si  Si21  1  0.711272  0.961102  0.686401  1
  Si  Si22  1  0.460394  0.788639  0.436092  1
  Si  Si23  1  0.211361  0.539606  0.063908  1
  Si  Si24  1  0.539606  0.211361  0.936092  1
  Si  Si25  1  0.788639  0.460394  0.563908  1
  Si  Si26  1  0.038898  0.288728  0.813599  1
  Si  Si27  1  0.961102  0.711272  0.313599  1
  Si  Si28  1  0.375799  0.299029  0.313719  1
  Si  Si29  1  0.624201  0.700971  0.813719  1
  Si  Si30  1  0.201281  0.875817  0.563691  1
  Si  Si31  1  0.124183  0.798719  0.936309  1
  Si  Si32  1  0.798719  0.124183  0.063691  1
  Si  Si33  1  0.875817  0.201281  0.436309  1
  Si  Si34  1  0.299029  0.375799  0.686281  1
  Si  Si35  1  0.700971  0.624201  0.186281  1
