# generated using pymatgen
data_U4BeB2C4N
_symmetry_space_group_name_H-M   'P 1'
_cell_length_a   3.30257200
_cell_length_b   3.60994100
_cell_length_c   11.96867100
_cell_angle_alpha   90.00000000
_cell_angle_beta   90.00000000
_cell_angle_gamma   90.00000000
_symmetry_Int_Tables_number   1
_chemical_formula_structural   U4BeB2C4N
_chemical_formula_sum   'U4 Be1 B2 C4 N1'
_cell_volume   142.69157366
_cell_formula_units_Z   1
loop_
 _symmetry_equiv_pos_site_id
 _symmetry_equiv_pos_as_xyz
  1  'x, y, z'
loop_
 _atom_site_type_symbol
 _atom_site_label
 _atom_site_symmetry_multiplicity
 _atom_site_fract_x
 _atom_site_fract_y
 _atom_site_fract_z
 _atom_site_occupancy
  U  U0  1  0.000000  0.000000  0.139240  1
  U  U1  1  0.000000  0.500000  0.640559  1
  U  U2  1  0.500000  0.500000  0.359607  1
  U  U3  1  0.500000  0.000000  0.863608  1
  Be  Be4  1  0.500000  0.000000  0.529802  1
  B  B5  1  0.000000  0.500000  0.967173  1
  B  B6  1  0.500000  0.500000  0.035256  1
  C  C7  1  0.000000  0.000000  0.336152  1
  C  C8  1  0.000000  0.500000  0.835328  1
  C  C9  1  0.500000  0.500000  0.167145  1
  C  C10  1  0.000000  0.000000  0.459511  1
  N  N11  1  0.500000  0.000000  0.666621  1
