# generated using pymatgen
data_Tb7Y(BCl6)2
_symmetry_space_group_name_H-M   'P 1'
_cell_length_a   3.88894000
_cell_length_b   12.71482018
_cell_length_c   13.18886118
_cell_angle_alpha   89.98083184
_cell_angle_beta   90.00000000
_cell_angle_gamma   90.00000000
_symmetry_Int_Tables_number   1
_chemical_formula_structural   Tb7Y(BCl6)2
_chemical_formula_sum   'Tb7 Y1 B2 Cl12'
_cell_volume   652.15186130
_cell_formula_units_Z   1
loop_
 _symmetry_equiv_pos_site_id
 _symmetry_equiv_pos_as_xyz
  1  'x, y, z'
loop_
 _atom_site_type_symbol
 _atom_site_label
 _atom_site_symmetry_multiplicity
 _atom_site_fract_x
 _atom_site_fract_y
 _atom_site_fract_z
 _atom_site_occupancy
  Tb  Tb0  1  0.000000  0.106874  0.084661  1
  Tb  Tb1  1  0.000000  0.893118  0.915352  1
  Tb  Tb2  1  0.000000  0.606757  0.415438  1
  Tb  Tb3  1  0.500000  0.126771  0.850858  1
  Tb  Tb4  1  0.500000  0.873170  0.149208  1
  Tb  Tb5  1  0.500000  0.626741  0.649265  1
  Tb  Tb6  1  0.500000  0.373105  0.350863  1
  Y  Y7  1  0.000000  0.393328  0.584503  1
  B  B8  1  0.500000  0.000009  0.999984  1
  B  B9  1  0.500000  0.499941  0.500044  1
  Cl  Cl10  1  0.500000  0.268063  0.682254  1
  Cl  Cl11  1  0.500000  0.732209  0.317507  1
  Cl  Cl12  1  0.500000  0.767766  0.817477  1
  Cl  Cl13  1  0.500000  0.232242  0.182514  1
  Cl  Cl14  1  0.000000  0.256729  0.929545  1
  Cl  Cl15  1  0.000000  0.743275  0.070446  1
  Cl  Cl16  1  0.000000  0.478434  0.243391  1
  Cl  Cl17  1  0.000000  0.521452  0.756584  1
  Cl  Cl18  1  0.000000  0.978443  0.256648  1
  Cl  Cl19  1  0.000000  0.021571  0.743345  1
  Cl  Cl20  1  0.000000  0.243319  0.429668  1
  Cl  Cl21  1  0.000000  0.756683  0.570445  1
