# generated using pymatgen
data_SmMn3Al8Fe
_symmetry_space_group_name_H-M   'P 1'
_cell_length_a   5.15657660
_cell_length_b   6.72668518
_cell_length_c   6.77271573
_cell_angle_alpha   81.48264661
_cell_angle_beta   67.26859144
_cell_angle_gamma   67.46219729
_symmetry_Int_Tables_number   1
_chemical_formula_structural   SmMn3Al8Fe
_chemical_formula_sum   'Sm1 Mn3 Al8 Fe1'
_cell_volume   200.12742677
_cell_formula_units_Z   1
loop_
 _symmetry_equiv_pos_site_id
 _symmetry_equiv_pos_as_xyz
  1  'x, y, z'
loop_
 _atom_site_type_symbol
 _atom_site_label
 _atom_site_symmetry_multiplicity
 _atom_site_fract_x
 _atom_site_fract_y
 _atom_site_fract_z
 _atom_site_occupancy
  Sm  Sm0  1  0.000000  0.000000  0.000000  1
  Mn  Mn1  1  0.500000  0.000000  0.500000  1
  Mn  Mn2  1  0.500000  0.500000  0.000000  1
  Mn  Mn3  1  0.000000  0.500000  0.000000  1
  Al  Al4  1  0.000549  0.337826  0.658397  1
  Al  Al5  1  0.999451  0.662174  0.341603  1
  Al  Al6  1  0.661625  0.337826  0.341603  1
  Al  Al7  1  0.338375  0.662174  0.658397  1
  Al  Al8  1  0.494585  0.776248  0.227530  1
  Al  Al9  1  0.505415  0.223752  0.772470  1
  Al  Al10  1  0.729167  0.776248  0.772470  1
  Al  Al11  1  0.270833  0.223752  0.227530  1
  Fe  Fe12  1  0.000000  0.000000  0.500000  1
