# generated using pymatgen
data_Dy2TmCr(Co4P3)2
_symmetry_space_group_name_H-M   'P 1'
_cell_length_a   3.67648700
_cell_length_b   10.52350800
_cell_length_c   12.17544500
_cell_angle_alpha   90.00000000
_cell_angle_beta   90.00000000
_cell_angle_gamma   90.00000000
_symmetry_Int_Tables_number   1
_chemical_formula_structural   Dy2TmCr(Co4P3)2
_chemical_formula_sum   'Dy4 Tm2 Cr2 Co16 P12'
_cell_volume   471.06237068
_cell_formula_units_Z   2
loop_
 _symmetry_equiv_pos_site_id
 _symmetry_equiv_pos_as_xyz
  1  'x, y, z'
loop_
 _atom_site_type_symbol
 _atom_site_label
 _atom_site_symmetry_multiplicity
 _atom_site_fract_x
 _atom_site_fract_y
 _atom_site_fract_z
 _atom_site_occupancy
  Dy  Dy0  1  0.000000  0.500000  0.522481  1
  Dy  Dy1  1  0.500000  0.000000  0.476716  1
  Dy  Dy2  1  0.000000  0.682272  0.795642  1
  Dy  Dy3  1  0.000000  0.317728  0.795642  1
  Tm  Tm4  1  0.500000  0.818104  0.204457  1
  Tm  Tm5  1  0.500000  0.181896  0.204457  1
  Cr  Cr6  1  0.500000  0.500000  0.155754  1
  Cr  Cr7  1  0.000000  0.000000  0.844449  1
  Co  Co8  1  0.500000  0.500000  0.702180  1
  Co  Co9  1  0.000000  0.000000  0.297075  1
  Co  Co10  1  0.000000  0.500000  0.987859  1
  Co  Co11  1  0.500000  0.000000  0.014221  1
  Co  Co12  1  0.500000  0.332156  0.993505  1
  Co  Co13  1  0.500000  0.667844  0.993505  1
  Co  Co14  1  0.000000  0.167148  0.008565  1
  Co  Co15  1  0.000000  0.832852  0.008565  1
  Co  Co16  1  0.500000  0.295947  0.429688  1
  Co  Co17  1  0.500000  0.704053  0.429688  1
  Co  Co18  1  0.000000  0.203562  0.568431  1
  Co  Co19  1  0.000000  0.796438  0.568431  1
  Co  Co20  1  0.500000  0.879378  0.708533  1
  Co  Co21  1  0.500000  0.120622  0.708533  1
  Co  Co22  1  0.000000  0.621313  0.290874  1
  Co  Co23  1  0.000000  0.378687  0.290874  1
  P  P24  1  0.500000  0.500000  0.882895  1
  P  P25  1  0.000000  0.000000  0.119019  1
  P  P26  1  0.500000  0.500000  0.344220  1
  P  P27  1  0.000000  0.000000  0.655436  1
  P  P28  1  0.500000  0.311036  0.615507  1
  P  P29  1  0.500000  0.688964  0.615507  1
  P  P30  1  0.000000  0.188387  0.382532  1
  P  P31  1  0.000000  0.811613  0.382532  1
  P  P32  1  0.500000  0.848243  0.892331  1
  P  P33  1  0.500000  0.151757  0.892331  1
  P  P34  1  0.000000  0.653205  0.108784  1
  P  P35  1  0.000000  0.346795  0.108784  1
