# generated using pymatgen
data_HfPaGaRh5
_symmetry_space_group_name_H-M   'P 1'
_cell_length_a   4.12626800
_cell_length_b   5.66057883
_cell_length_c   11.15010867
_cell_angle_alpha   89.13762101
_cell_angle_beta   90.00000000
_cell_angle_gamma   90.00000000
_symmetry_Int_Tables_number   1
_chemical_formula_structural   HfPaGaRh5
_chemical_formula_sum   'Hf2 Pa2 Ga2 Rh10'
_cell_volume   260.40431682
_cell_formula_units_Z   2
loop_
 _symmetry_equiv_pos_site_id
 _symmetry_equiv_pos_as_xyz
  1  'x, y, z'
loop_
 _atom_site_type_symbol
 _atom_site_label
 _atom_site_symmetry_multiplicity
 _atom_site_fract_x
 _atom_site_fract_y
 _atom_site_fract_z
 _atom_site_occupancy
  Hf  Hf0  1  0.500000  0.682910  0.866033  1
  Hf  Hf1  1  0.500000  0.317090  0.133967  1
  Pa  Pa2  1  0.500000  0.186480  0.645329  1
  Pa  Pa3  1  0.500000  0.813520  0.354671  1
  Ga  Ga4  1  0.000000  0.500000  0.500000  1
  Ga  Ga5  1  0.000000  0.000000  0.000000  1
  Rh  Rh6  1  0.500000  0.192375  0.894502  1
  Rh  Rh7  1  0.500000  0.807625  0.105498  1
  Rh  Rh8  1  0.500000  0.697217  0.611787  1
  Rh  Rh9  1  0.500000  0.302783  0.388213  1
  Rh  Rh10  1  0.000000  0.438969  0.747252  1
  Rh  Rh11  1  0.000000  0.561031  0.252748  1
  Rh  Rh12  1  0.000000  0.000000  0.500000  1
  Rh  Rh13  1  0.000000  0.500000  0.000000  1
  Rh  Rh14  1  0.000000  0.064917  0.240181  1
  Rh  Rh15  1  0.000000  0.935083  0.759819  1
