# generated using pymatgen
data_La2TbCoSn6
_symmetry_space_group_name_H-M   'P 1'
_cell_length_a   8.60938125
_cell_length_b   8.60938268
_cell_length_c   13.50999800
_cell_angle_alpha   90.00000000
_cell_angle_beta   90.00000000
_cell_angle_gamma   148.56544762
_symmetry_Int_Tables_number   1
_chemical_formula_structural   La2TbCoSn6
_chemical_formula_sum   'La4 Tb2 Co2 Sn12'
_cell_volume   522.24436599
_cell_formula_units_Z   2
loop_
 _symmetry_equiv_pos_site_id
 _symmetry_equiv_pos_as_xyz
  1  'x, y, z'
loop_
 _atom_site_type_symbol
 _atom_site_label
 _atom_site_symmetry_multiplicity
 _atom_site_fract_x
 _atom_site_fract_y
 _atom_site_fract_z
 _atom_site_occupancy
  La  La0  1  0.900659  0.099341  0.091823  1
  La  La1  1  0.099341  0.900659  0.591823  1
  La  La2  1  0.099341  0.900659  0.908177  1
  La  La3  1  0.900659  0.099341  0.408177  1
  Tb  Tb4  1  0.897029  0.102971  0.750000  1
  Tb  Tb5  1  0.102971  0.897029  0.250000  1
  Co  Co6  1  0.298094  0.701906  0.250000  1
  Co  Co7  1  0.701906  0.298094  0.750000  1
  Sn  Sn8  1  0.754451  0.245549  0.572638  1
  Sn  Sn9  1  0.427215  0.572785  0.581748  1
  Sn  Sn10  1  0.572785  0.427215  0.418252  1
  Sn  Sn11  1  0.734320  0.265680  0.250000  1
  Sn  Sn12  1  0.265680  0.734320  0.750000  1
  Sn  Sn13  1  0.245549  0.754451  0.072638  1
  Sn  Sn14  1  0.245549  0.754451  0.427362  1
  Sn  Sn15  1  0.572785  0.427215  0.081748  1
  Sn  Sn16  1  0.454713  0.545287  0.250000  1
  Sn  Sn17  1  0.545287  0.454713  0.750000  1
  Sn  Sn18  1  0.754451  0.245549  0.927362  1
  Sn  Sn19  1  0.427215  0.572785  0.918252  1
