# generated using pymatgen
data_Nd4HgPd3Pb2
_symmetry_space_group_name_H-M   'P 1'
_cell_length_a   3.75723900
_cell_length_b   8.26363638
_cell_length_c   8.26363638
_cell_angle_alpha   89.15179159
_cell_angle_beta   90.00000000
_cell_angle_gamma   90.00000000
_symmetry_Int_Tables_number   1
_chemical_formula_structural   Nd4HgPd3Pb2
_chemical_formula_sum   'Nd4 Hg1 Pd3 Pb2'
_cell_volume   256.54504324
_cell_formula_units_Z   1
loop_
 _symmetry_equiv_pos_site_id
 _symmetry_equiv_pos_as_xyz
  1  'x, y, z'
loop_
 _atom_site_type_symbol
 _atom_site_label
 _atom_site_symmetry_multiplicity
 _atom_site_fract_x
 _atom_site_fract_y
 _atom_site_fract_z
 _atom_site_occupancy
  Nd  Nd0  1  0.500000  0.173933  0.673933  1
  Nd  Nd1  1  0.500000  0.844214  0.344214  1
  Nd  Nd2  1  0.500000  0.306781  0.166505  1
  Nd  Nd3  1  0.500000  0.666505  0.806781  1
  Hg  Hg4  1  0.000000  0.623696  0.123696  1
  Pd  Pd5  1  0.000000  0.377943  0.877943  1
  Pd  Pd6  1  0.000000  0.882837  0.630963  1
  Pd  Pd7  1  0.000000  0.130963  0.382837  1
  Pb  Pb8  1  0.000000  0.000441  0.992686  1
  Pb  Pb9  1  0.000000  0.492686  0.500441  1
