# generated using pymatgen
data_Ba4Ni(OsO6)2
_symmetry_space_group_name_H-M   'P 1'
_cell_length_a   5.82634589
_cell_length_b   5.82583085
_cell_length_c   10.09427034
_cell_angle_alpha   89.99217615
_cell_angle_beta   73.21575007
_cell_angle_gamma   119.98886677
_symmetry_Int_Tables_number   1
_chemical_formula_structural   Ba4Ni(OsO6)2
_chemical_formula_sum   'Ba4 Ni1 Os2 O12'
_cell_volume   279.77429568
_cell_formula_units_Z   1
loop_
 _symmetry_equiv_pos_site_id
 _symmetry_equiv_pos_as_xyz
  1  'x, y, z'
loop_
 _atom_site_type_symbol
 _atom_site_label
 _atom_site_symmetry_multiplicity
 _atom_site_fract_x
 _atom_site_fract_y
 _atom_site_fract_z
 _atom_site_occupancy
  Ba  Ba0  1  0.569404  0.284683  0.145836  1
  Ba  Ba1  1  0.423115  0.711563  0.865325  1
  Ba  Ba2  1  0.249580  0.124775  0.625614  1
  Ba  Ba3  1  0.743339  0.871822  0.384840  1
  Ni  Ni4  1  0.819305  0.409600  0.770987  1
  Os  Os5  1  0.998157  0.999069  0.002811  1
  Os  Os6  1  0.011210  0.505686  0.483174  1
  O  O7  1  0.770928  0.612688  0.616096  1
  O  O8  1  0.225917  0.612905  0.616069  1
  O  O9  1  0.770974  0.157988  0.616076  1
  O  O10  1  0.235953  0.380779  0.383440  1
  O  O11  1  0.761602  0.380995  0.383167  1
  O  O12  1  0.235814  0.855330  0.383270  1
  O  O13  1  0.080001  0.810019  0.110179  1
  O  O14  1  0.619877  0.809881  0.110247  1
  O  O15  1  0.079817  0.269799  0.110306  1
  O  O16  1  0.922159  0.197335  0.880529  1
  O  O17  1  0.394798  0.197369  0.880516  1
  O  O18  1  0.922050  0.724714  0.880521  1
