# generated using pymatgen
data_PuPaSbN2
_symmetry_space_group_name_H-M   'P 1'
_cell_length_a   6.97742975
_cell_length_b   6.97742955
_cell_length_c   6.97742864
_cell_angle_alpha   147.44711197
_cell_angle_beta   147.44711107
_cell_angle_gamma   46.70221076
_symmetry_Int_Tables_number   1
_chemical_formula_structural   PuPaSbN2
_chemical_formula_sum   'Pu1 Pa1 Sb1 N2'
_cell_volume   97.99248895
_cell_formula_units_Z   1
loop_
 _symmetry_equiv_pos_site_id
 _symmetry_equiv_pos_as_xyz
  1  'x, y, z'
loop_
 _atom_site_type_symbol
 _atom_site_label
 _atom_site_symmetry_multiplicity
 _atom_site_fract_x
 _atom_site_fract_y
 _atom_site_fract_z
 _atom_site_occupancy
  Pu  Pu0  1  0.342777  0.342777  0.000000  1
  Pa  Pa1  1  0.665752  0.665752  0.000000  1
  Sb  Sb2  1  0.999223  0.999223  0.000000  1
  N  N3  1  0.746124  0.246124  0.500000  1
  N  N4  1  0.246124  0.746124  0.500000  1
