# generated using pymatgen
data_Dy5In5Rh
_symmetry_space_group_name_H-M   'P 1'
_cell_length_a   3.61220400
_cell_length_b   8.36484410
_cell_length_c   18.59858974
_cell_angle_alpha   89.09742516
_cell_angle_beta   90.00000000
_cell_angle_gamma   90.00000000
_symmetry_Int_Tables_number   1
_chemical_formula_structural   Dy5In5Rh
_chemical_formula_sum   'Dy10 In10 Rh2'
_cell_volume   561.89639666
_cell_formula_units_Z   2
loop_
 _symmetry_equiv_pos_site_id
 _symmetry_equiv_pos_as_xyz
  1  'x, y, z'
loop_
 _atom_site_type_symbol
 _atom_site_label
 _atom_site_symmetry_multiplicity
 _atom_site_fract_x
 _atom_site_fract_y
 _atom_site_fract_z
 _atom_site_occupancy
  Dy  Dy0  1  0.000000  0.500000  0.500000  1
  Dy  Dy1  1  0.000000  0.000000  0.000000  1
  Dy  Dy2  1  0.000000  0.703769  0.275675  1
  Dy  Dy3  1  0.000000  0.296231  0.724325  1
  Dy  Dy4  1  0.000000  0.729690  0.787183  1
  Dy  Dy5  1  0.000000  0.270310  0.212817  1
  Dy  Dy6  1  0.000000  0.615560  0.083797  1
  Dy  Dy7  1  0.000000  0.384440  0.916203  1
  Dy  Dy8  1  0.000000  0.872214  0.573638  1
  Dy  Dy9  1  0.000000  0.127786  0.426362  1
  In  In10  1  0.500000  0.706959  0.933975  1
  In  In11  1  0.500000  0.293041  0.066025  1
  In  In12  1  0.500000  0.789498  0.429288  1
  In  In13  1  0.500000  0.210502  0.570712  1
  In  In14  1  0.500000  0.579254  0.648129  1
  In  In15  1  0.500000  0.420746  0.351871  1
  In  In16  1  0.500000  0.914584  0.146190  1
  In  In17  1  0.500000  0.085416  0.853810  1
  In  In18  1  0.500000  0.979138  0.699320  1
  In  In19  1  0.500000  0.020862  0.300680  1
  Rh  Rh20  1  0.500000  0.523585  0.193478  1
  Rh  Rh21  1  0.500000  0.476415  0.806522  1
