# generated using pymatgen
data_CdTcF6
_symmetry_space_group_name_H-M   'P 1'
_cell_length_a   5.83359765
_cell_length_b   5.83359817
_cell_length_c   5.83359843
_cell_angle_alpha   54.38750230
_cell_angle_beta   54.38750486
_cell_angle_gamma   54.38749741
_symmetry_Int_Tables_number   1
_chemical_formula_structural   CdTcF6
_chemical_formula_sum   'Cd1 Tc1 F6'
_cell_volume   122.00076173
_cell_formula_units_Z   1
loop_
 _symmetry_equiv_pos_site_id
 _symmetry_equiv_pos_as_xyz
  1  'x, y, z'
loop_
 _atom_site_type_symbol
 _atom_site_label
 _atom_site_symmetry_multiplicity
 _atom_site_fract_x
 _atom_site_fract_y
 _atom_site_fract_z
 _atom_site_occupancy
  Cd  Cd0  1  0.000000  0.000000  0.000000  1
  Tc  Tc1  1  0.500000  0.500000  0.500000  1
  F  F2  1  0.413708  0.127410  0.726954  1
  F  F3  1  0.726954  0.413708  0.127410  1
  F  F4  1  0.872590  0.273046  0.586292  1
  F  F5  1  0.273046  0.586292  0.872590  1
  F  F6  1  0.586292  0.872590  0.273046  1
  F  F7  1  0.127410  0.726954  0.413708  1
