# generated using pymatgen
data_Ba5YOs3O16
_symmetry_space_group_name_H-M   'P 1'
_cell_length_a   6.03357622
_cell_length_b   6.03635566
_cell_length_c   10.68173216
_cell_angle_alpha   93.04462445
_cell_angle_beta   93.02214416
_cell_angle_gamma   90.10208769
_symmetry_Int_Tables_number   1
_chemical_formula_structural   Ba5YOs3O16
_chemical_formula_sum   'Ba5 Y1 Os3 O16'
_cell_volume   387.94382856
_cell_formula_units_Z   1
loop_
 _symmetry_equiv_pos_site_id
 _symmetry_equiv_pos_as_xyz
  1  'x, y, z'
loop_
 _atom_site_type_symbol
 _atom_site_label
 _atom_site_symmetry_multiplicity
 _atom_site_fract_x
 _atom_site_fract_y
 _atom_site_fract_z
 _atom_site_occupancy
  Ba  Ba0  1  0.511433  0.027417  0.202385  1
  Ba  Ba1  1  0.027499  0.511165  0.202485  1
  Ba  Ba2  1  0.999992  0.999981  0.499987  1
  Ba  Ba3  1  0.972494  0.488831  0.797469  1
  Ba  Ba4  1  0.488556  0.972568  0.797569  1
  Y  Y5  1  0.499998  0.499994  0.999987  1
  Os  Os6  1  0.999989  0.999987  0.000078  1
  Os  Os7  1  0.561957  0.561827  0.393777  1
  Os  Os8  1  0.438164  0.438259  0.606187  1
  O  O9  1  0.765086  0.231399  0.999682  1
  O  O10  1  0.771893  0.768776  0.018638  1
  O  O11  1  0.039793  0.040882  0.172550  1
  O  O12  1  0.480741  0.479837  0.206520  1
  O  O13  1  0.762689  0.763042  0.331996  1
  O  O14  1  0.318810  0.747686  0.376209  1
  O  O15  1  0.748934  0.319700  0.376635  1
  O  O16  1  0.327064  0.326034  0.439149  1
  O  O17  1  0.672940  0.673977  0.560869  1
  O  O18  1  0.251180  0.680169  0.623357  1
  O  O19  1  0.681026  0.252445  0.623774  1
  O  O20  1  0.237353  0.237004  0.668001  1
  O  O21  1  0.519288  0.520188  0.793511  1
  O  O22  1  0.960185  0.959093  0.827439  1
  O  O23  1  0.228079  0.231191  0.981396  1
  O  O24  1  0.234856  0.768538  0.000360  1
