# generated using pymatgen
data_Zr16Fe4OsPt3
_symmetry_space_group_name_H-M   'P 1'
_cell_length_a   8.70571870
_cell_length_b   8.70571890
_cell_length_c   8.70571880
_cell_angle_alpha   60.04001787
_cell_angle_beta   60.04001466
_cell_angle_gamma   60.04001947
_symmetry_Int_Tables_number   1
_chemical_formula_structural   Zr16Fe4OsPt3
_chemical_formula_sum   'Zr16 Fe4 Os1 Pt3'
_cell_volume   466.97395787
_cell_formula_units_Z   1
loop_
 _symmetry_equiv_pos_site_id
 _symmetry_equiv_pos_as_xyz
  1  'x, y, z'
loop_
 _atom_site_type_symbol
 _atom_site_label
 _atom_site_symmetry_multiplicity
 _atom_site_fract_x
 _atom_site_fract_y
 _atom_site_fract_z
 _atom_site_occupancy
  Zr  Zr0  1  0.056838  0.647455  0.647455  1
  Zr  Zr1  1  0.647455  0.056838  0.647455  1
  Zr  Zr2  1  0.647455  0.647455  0.056838  1
  Zr  Zr3  1  0.646166  0.646166  0.646166  1
  Zr  Zr4  1  0.805531  0.805531  0.194522  1
  Zr  Zr5  1  0.194805  0.194805  0.802918  1
  Zr  Zr6  1  0.805531  0.194522  0.805531  1
  Zr  Zr7  1  0.194805  0.802918  0.194805  1
  Zr  Zr8  1  0.194522  0.805531  0.805531  1
  Zr  Zr9  1  0.802918  0.194805  0.194805  1
  Zr  Zr10  1  0.438998  0.438998  0.067813  1
  Zr  Zr11  1  0.061646  0.061646  0.438586  1
  Zr  Zr12  1  0.438998  0.067813  0.438998  1
  Zr  Zr13  1  0.061646  0.438586  0.061646  1
  Zr  Zr14  1  0.067813  0.438998  0.438998  1
  Zr  Zr15  1  0.438586  0.061646  0.061646  1
  Fe  Fe16  1  0.422874  0.858434  0.858434  1
  Fe  Fe17  1  0.858434  0.422874  0.858434  1
  Fe  Fe18  1  0.858434  0.858434  0.422874  1
  Fe  Fe19  1  0.859931  0.859931  0.859931  1
  Os  Os20  1  0.415736  0.415736  0.415736  1
  Pt  Pt21  1  0.751775  0.414552  0.414552  1
  Pt  Pt22  1  0.414552  0.751775  0.414552  1
  Pt  Pt23  1  0.414552  0.414552  0.751775  1
