# generated using pymatgen
data_TaCrBC
_symmetry_space_group_name_H-M   'P 1'
_cell_length_a   8.48714033
_cell_length_b   8.48714056
_cell_length_c   3.07825600
_cell_angle_alpha   90.00000000
_cell_angle_beta   90.00000000
_cell_angle_gamma   159.08025733
_symmetry_Int_Tables_number   1
_chemical_formula_structural   TaCrBC
_chemical_formula_sum   'Ta2 Cr2 B2 C2'
_cell_volume   79.17144450
_cell_formula_units_Z   2
loop_
 _symmetry_equiv_pos_site_id
 _symmetry_equiv_pos_as_xyz
  1  'x, y, z'
loop_
 _atom_site_type_symbol
 _atom_site_label
 _atom_site_symmetry_multiplicity
 _atom_site_fract_x
 _atom_site_fract_y
 _atom_site_fract_z
 _atom_site_occupancy
  Ta  Ta0  1  0.680943  0.319057  0.750000  1
  Ta  Ta1  1  0.319057  0.680943  0.250000  1
  Cr  Cr2  1  0.934784  0.065216  0.750000  1
  Cr  Cr3  1  0.065216  0.934784  0.250000  1
  B  B4  1  0.529508  0.470492  0.750000  1
  B  B5  1  0.470492  0.529508  0.250000  1
  C  C6  1  0.814664  0.185336  0.750000  1
  C  C7  1  0.185336  0.814664  0.250000  1
