# generated using pymatgen
data_V3Cu(SiRh5)2
_symmetry_space_group_name_H-M   'P 1'
_cell_length_a   3.93507400
_cell_length_b   5.34375342
_cell_length_c   10.40395878
_cell_angle_alpha   90.94459142
_cell_angle_beta   90.00000000
_cell_angle_gamma   90.00000000
_symmetry_Int_Tables_number   1
_chemical_formula_structural   V3Cu(SiRh5)2
_chemical_formula_sum   'V3 Cu1 Si2 Rh10'
_cell_volume   218.74539254
_cell_formula_units_Z   1
loop_
 _symmetry_equiv_pos_site_id
 _symmetry_equiv_pos_as_xyz
  1  'x, y, z'
loop_
 _atom_site_type_symbol
 _atom_site_label
 _atom_site_symmetry_multiplicity
 _atom_site_fract_x
 _atom_site_fract_y
 _atom_site_fract_z
 _atom_site_occupancy
  V  V0  1  0.500000  0.840757  0.365895  1
  V  V1  1  0.500000  0.669937  0.850842  1
  V  V2  1  0.500000  0.335284  0.141014  1
  Cu  Cu3  1  0.500000  0.167933  0.640335  1
  Si  Si4  1  0.000000  0.495506  0.500374  1
  Si  Si5  1  0.000000  0.996322  0.001539  1
  Rh  Rh6  1  0.500000  0.319893  0.389126  1
  Rh  Rh7  1  0.500000  0.674927  0.602889  1
  Rh  Rh8  1  0.500000  0.810779  0.105990  1
  Rh  Rh9  1  0.500000  0.183294  0.902242  1
  Rh  Rh10  1  0.000000  0.425004  0.741250  1
  Rh  Rh11  1  0.000000  0.582741  0.260459  1
  Rh  Rh12  1  0.000000  0.916586  0.765046  1
  Rh  Rh13  1  0.000000  0.082608  0.236738  1
  Rh  Rh14  1  0.000000  0.499611  0.000843  1
  Rh  Rh15  1  0.000000  0.998816  0.495419  1
