# generated using pymatgen
data_Hf2Pa(GaRh)3
_symmetry_space_group_name_H-M   'P 1'
_cell_length_a   7.14749600
_cell_length_b   7.19903120
_cell_length_c   3.58411100
_cell_angle_alpha   90.00000000
_cell_angle_beta   90.00000000
_cell_angle_gamma   119.76347563
_symmetry_Int_Tables_number   1
_chemical_formula_structural   Hf2Pa(GaRh)3
_chemical_formula_sum   'Hf2 Pa1 Ga3 Rh3'
_cell_volume   160.09221765
_cell_formula_units_Z   1
loop_
 _symmetry_equiv_pos_site_id
 _symmetry_equiv_pos_as_xyz
  1  'x, y, z'
loop_
 _atom_site_type_symbol
 _atom_site_label
 _atom_site_symmetry_multiplicity
 _atom_site_fract_x
 _atom_site_fract_y
 _atom_site_fract_z
 _atom_site_occupancy
  Hf  Hf0  1  0.994986  0.397744  0.500000  1
  Hf  Hf1  1  0.597242  0.602256  0.500000  1
  Pa  Pa2  1  0.408125  0.000000  0.500000  1
  Ga  Ga3  1  0.754775  0.000000  0.000000  1
  Ga  Ga4  1  0.982794  0.721808  0.000000  1
  Ga  Ga5  1  0.260986  0.278192  0.000000  1
  Rh  Rh6  1  0.335120  0.676446  0.000000  1
  Rh  Rh7  1  0.658675  0.323554  0.000000  1
  Rh  Rh8  1  0.007296  0.000000  0.500000  1
