# generated using pymatgen
data_Pr5Ho5(SiAs)4
_symmetry_space_group_name_H-M   'P 1'
_cell_length_a   8.66932804
_cell_length_b   8.05295866
_cell_length_c   7.80588936
_cell_angle_alpha   90.12955116
_cell_angle_beta   90.27273843
_cell_angle_gamma   124.75616446
_symmetry_Int_Tables_number   1
_chemical_formula_structural   Pr5Ho5(SiAs)4
_chemical_formula_sum   'Pr5 Ho5 Si4 As4'
_cell_volume   447.71664201
_cell_formula_units_Z   1
loop_
 _symmetry_equiv_pos_site_id
 _symmetry_equiv_pos_as_xyz
  1  'x, y, z'
loop_
 _atom_site_type_symbol
 _atom_site_label
 _atom_site_symmetry_multiplicity
 _atom_site_fract_x
 _atom_site_fract_y
 _atom_site_fract_z
 _atom_site_occupancy
  Pr  Pr0  1  0.057655  0.348128  0.324154  1
  Pr  Pr1  1  0.941535  0.651803  0.676360  1
  Pr  Pr2  1  0.440980  0.153185  0.821420  1
  Pr  Pr3  1  0.783714  0.517264  0.166551  1
  Pr  Pr4  1  0.560434  0.849320  0.176789  1
  Ho  Ho5  1  0.220870  0.483465  0.836269  1
  Ho  Ho6  1  0.719703  0.981509  0.663108  1
  Ho  Ho7  1  0.277343  0.014997  0.336619  1
  Ho  Ho8  1  0.001697  0.001082  0.998588  1
  Ho  Ho9  1  0.497162  0.498862  0.500668  1
  Si  Si10  1  0.375180  0.378185  0.121498  1
  Si  Si11  1  0.617831  0.621508  0.875069  1
  Si  Si12  1  0.118359  0.119753  0.619704  1
  Si  Si13  1  0.883030  0.885507  0.382468  1
  As  As14  1  0.825899  0.224428  0.963760  1
  As  As15  1  0.185830  0.777789  0.028666  1
  As  As16  1  0.670005  0.264199  0.475385  1
  As  As17  1  0.322775  0.729016  0.532925  1
