# generated using pymatgen
data_DyErTm2Ga12Fe
_symmetry_space_group_name_H-M   'P 1'
_cell_length_a   7.41455694
_cell_length_b   7.41455667
_cell_length_c   7.37028520
_cell_angle_alpha   109.40352872
_cell_angle_beta   109.40352707
_cell_angle_gamma   109.64406719
_symmetry_Int_Tables_number   1
_chemical_formula_structural   DyErTm2Ga12Fe
_chemical_formula_sum   'Dy1 Er1 Tm2 Ga12 Fe1'
_cell_volume   311.76685079
_cell_formula_units_Z   1
loop_
 _symmetry_equiv_pos_site_id
 _symmetry_equiv_pos_as_xyz
  1  'x, y, z'
loop_
 _atom_site_type_symbol
 _atom_site_label
 _atom_site_symmetry_multiplicity
 _atom_site_fract_x
 _atom_site_fract_y
 _atom_site_fract_z
 _atom_site_occupancy
  Dy  Dy0  1  0.000000  0.000000  0.500000  1
  Er  Er1  1  0.500000  0.500000  0.500000  1
  Tm  Tm2  1  0.000000  0.500000  0.000000  1
  Tm  Tm3  1  0.500000  0.000000  0.000000  1
  Ga  Ga4  1  0.749261  0.250739  0.500000  1
  Ga  Ga5  1  0.749212  0.497862  0.248619  1
  Ga  Ga6  1  0.502138  0.250788  0.751381  1
  Ga  Ga7  1  0.250788  0.502138  0.751381  1
  Ga  Ga8  1  0.250739  0.749261  0.500000  1
  Ga  Ga9  1  0.497862  0.749212  0.248619  1
  Ga  Ga10  1  0.717621  0.717621  0.998761  1
  Ga  Ga11  1  0.282486  0.999428  0.280714  1
  Ga  Ga12  1  0.999428  0.282486  0.280714  1
  Ga  Ga13  1  0.282379  0.282379  0.001239  1
  Ga  Ga14  1  0.717514  0.000572  0.719286  1
  Ga  Ga15  1  0.000572  0.717514  0.719286  1
  Fe  Fe16  1  0.000000  0.000000  0.000000  1
