# generated using pymatgen
data_Ho5Sc3(Si4Tc3)4
_symmetry_space_group_name_H-M   'P 1'
_cell_length_a   6.73376505
_cell_length_b   6.73756094
_cell_length_c   12.54953508
_cell_angle_alpha   90.48328634
_cell_angle_beta   89.83241984
_cell_angle_gamma   89.92002329
_symmetry_Int_Tables_number   1
_chemical_formula_structural   Ho5Sc3(Si4Tc3)4
_chemical_formula_sum   'Ho5 Sc3 Si16 Tc12'
_cell_volume   569.33850592
_cell_formula_units_Z   1
loop_
 _symmetry_equiv_pos_site_id
 _symmetry_equiv_pos_as_xyz
  1  'x, y, z'
loop_
 _atom_site_type_symbol
 _atom_site_label
 _atom_site_symmetry_multiplicity
 _atom_site_fract_x
 _atom_site_fract_y
 _atom_site_fract_z
 _atom_site_occupancy
  Ho  Ho0  1  0.004210  0.661093  0.031199  1
  Ho  Ho1  1  0.997920  0.337359  0.530926  1
  Ho  Ho2  1  0.339807  0.995185  0.469132  1
  Ho  Ho3  1  0.163862  0.497575  0.781459  1
  Ho  Ho4  1  0.838230  0.503347  0.279846  1
  Sc  Sc5  1  0.494841  0.157432  0.219026  1
  Sc  Sc6  1  0.509477  0.844027  0.718456  1
  Sc  Sc7  1  0.657706  0.005647  0.970197  1
  Si  Si8  1  0.020061  0.730143  0.438510  1
  Si  Si9  1  0.613591  0.306831  0.435165  1
  Si  Si10  1  0.384170  0.701237  0.934131  1
  Si  Si11  1  0.198049  0.113376  0.687964  1
  Si  Si12  1  0.311151  0.617872  0.566796  1
  Si  Si13  1  0.688845  0.376540  0.063832  1
  Si  Si14  1  0.801492  0.886897  0.183566  1
  Si  Si15  1  0.118551  0.192236  0.311402  1
  Si  Si16  1  0.967232  0.276347  0.934693  1
  Si  Si17  1  0.727853  0.019691  0.564163  1
  Si  Si18  1  0.234581  0.474922  0.186460  1
  Si  Si19  1  0.776679  0.529681  0.686858  1
  Si  Si20  1  0.475289  0.212236  0.817346  1
  Si  Si21  1  0.520228  0.775992  0.308926  1
  Si  Si22  1  0.285592  0.977601  0.064960  1
  Si  Si23  1  0.874075  0.809240  0.815995  1
  Tc  Tc24  1  0.666603  0.667969  0.502401  1
  Tc  Tc25  1  0.170516  0.835976  0.248381  1
  Tc  Tc26  1  0.337690  0.329307  0.001872  1
  Tc  Tc27  1  0.023936  0.813528  0.633181  1
  Tc  Tc28  1  0.980332  0.175936  0.124181  1
  Tc  Tc29  1  0.809622  0.021335  0.367279  1
  Tc  Tc30  1  0.314253  0.480651  0.379343  1
  Tc  Tc31  1  0.674239  0.519958  0.876410  1
  Tc  Tc32  1  0.486124  0.318559  0.625800  1
  Tc  Tc33  1  0.524134  0.690448  0.114583  1
  Tc  Tc34  1  0.178359  0.981391  0.873036  1
  Tc  Tc35  1  0.830700  0.162434  0.752522  1
