# generated using pymatgen
data_TcHg2F6
_symmetry_space_group_name_H-M   'P 1'
_cell_length_a   11.71399700
_cell_length_b   5.64146565
_cell_length_c   10.30849478
_cell_angle_alpha   87.58102499
_cell_angle_beta   90.00000000
_cell_angle_gamma   90.00000000
_symmetry_Int_Tables_number   1
_chemical_formula_structural   TcHg2F6
_chemical_formula_sum   'Tc4 Hg8 F24'
_cell_volume   680.62068364
_cell_formula_units_Z   4
loop_
 _symmetry_equiv_pos_site_id
 _symmetry_equiv_pos_as_xyz
  1  'x, y, z'
loop_
 _atom_site_type_symbol
 _atom_site_label
 _atom_site_symmetry_multiplicity
 _atom_site_fract_x
 _atom_site_fract_y
 _atom_site_fract_z
 _atom_site_occupancy
  Tc  Tc0  1  0.699874  0.500444  0.833270  1
  Tc  Tc1  1  0.199874  0.499556  0.666730  1
  Tc  Tc2  1  0.300126  0.499556  0.166730  1
  Tc  Tc3  1  0.800126  0.500444  0.333270  1
  Hg  Hg4  1  0.918030  0.995691  0.610124  1
  Hg  Hg5  1  0.418030  0.004309  0.889876  1
  Hg  Hg6  1  0.081970  0.004309  0.389876  1
  Hg  Hg7  1  0.581970  0.995691  0.110124  1
  Hg  Hg8  1  0.980481  0.996264  0.869808  1
  Hg  Hg9  1  0.480481  0.003736  0.630192  1
  Hg  Hg10  1  0.019519  0.003736  0.130192  1
  Hg  Hg11  1  0.519519  0.996264  0.369808  1
  F  F12  1  0.683535  0.780699  0.723215  1
  F  F13  1  0.183535  0.219301  0.776785  1
  F  F14  1  0.316465  0.219301  0.276785  1
  F  F15  1  0.816465  0.780699  0.223215  1
  F  F16  1  0.718123  0.216445  0.942004  1
  F  F17  1  0.218123  0.783555  0.557996  1
  F  F18  1  0.281877  0.783555  0.057996  1
  F  F19  1  0.781877  0.216445  0.442004  1
  F  F20  1  0.724215  0.696925  0.977126  1
  F  F21  1  0.224215  0.303075  0.522874  1
  F  F22  1  0.275785  0.303075  0.022874  1
  F  F23  1  0.775785  0.696925  0.477126  1
  F  F24  1  0.673215  0.308195  0.688862  1
  F  F25  1  0.173215  0.691805  0.811138  1
  F  F26  1  0.326785  0.691805  0.311138  1
  F  F27  1  0.826785  0.308195  0.188862  1
  F  F28  1  0.860226  0.501093  0.801847  1
  F  F29  1  0.360226  0.498907  0.698153  1
  F  F30  1  0.139774  0.498907  0.198153  1
  F  F31  1  0.639774  0.501093  0.301847  1
  F  F32  1  0.541462  0.499280  0.871008  1
  F  F33  1  0.041462  0.500720  0.628992  1
  F  F34  1  0.458538  0.500720  0.128992  1
  F  F35  1  0.958538  0.499280  0.371008  1
