# generated using pymatgen
data_Tm6ScAl15Os7
_symmetry_space_group_name_H-M   'P 1'
_cell_length_a   8.95353272
_cell_length_b   8.95353287
_cell_length_c   8.95260902
_cell_angle_alpha   59.99659143
_cell_angle_beta   59.99659155
_cell_angle_gamma   59.99999807
_symmetry_Int_Tables_number   1
_chemical_formula_structural   Tm6ScAl15Os7
_chemical_formula_sum   'Tm6 Sc1 Al15 Os7'
_cell_volume   507.45915898
_cell_formula_units_Z   1
loop_
 _symmetry_equiv_pos_site_id
 _symmetry_equiv_pos_as_xyz
  1  'x, y, z'
loop_
 _atom_site_type_symbol
 _atom_site_label
 _atom_site_symmetry_multiplicity
 _atom_site_fract_x
 _atom_site_fract_y
 _atom_site_fract_z
 _atom_site_occupancy
  Tm  Tm0  1  0.707157  0.707157  0.288858  1
  Tm  Tm1  1  0.296828  0.707157  0.288858  1
  Tm  Tm2  1  0.707157  0.296828  0.288858  1
  Tm  Tm3  1  0.288360  0.288360  0.713573  1
  Tm  Tm4  1  0.709708  0.288360  0.713573  1
  Tm  Tm5  1  0.288360  0.709708  0.713573  1
  Sc  Sc6  1  0.881788  0.881788  0.354636  1
  Al  Al7  1  0.878060  0.364560  0.879320  1
  Al  Al8  1  0.364560  0.878060  0.879320  1
  Al  Al9  1  0.878060  0.878060  0.879320  1
  Al  Al10  1  0.123177  0.123177  0.630469  1
  Al  Al11  1  0.120093  0.637659  0.122156  1
  Al  Al12  1  0.637659  0.120093  0.122156  1
  Al  Al13  1  0.120093  0.120093  0.122156  1
  Al  Al14  1  0.668107  0.668107  0.995678  1
  Al  Al15  1  0.666494  0.997622  0.669390  1
  Al  Al16  1  0.997622  0.666494  0.669390  1
  Al  Al17  1  0.666494  0.666494  0.669390  1
  Al  Al18  1  0.332223  0.332223  0.003332  1
  Al  Al19  1  0.333131  0.001607  0.332131  1
  Al  Al20  1  0.001607  0.333131  0.332131  1
  Al  Al21  1  0.333131  0.333131  0.332131  1
  Os  Os22  1  0.004375  0.004375  0.986874  1
  Os  Os23  1  0.001357  0.001357  0.503592  1
  Os  Os24  1  0.493695  0.001357  0.503592  1
  Os  Os25  1  0.001357  0.493695  0.503592  1
  Os  Os26  1  0.499591  0.499591  0.000652  1
  Os  Os27  1  0.000166  0.499591  0.000652  1
  Os  Os28  1  0.499591  0.000166  0.000652  1
