# generated using pymatgen
data_Dy3Lu9Tc4
_symmetry_space_group_name_H-M   'P 1'
_cell_length_a   7.43256830
_cell_length_b   8.90622500
_cell_length_c   6.14604884
_cell_angle_alpha   90.00000000
_cell_angle_beta   89.83200633
_cell_angle_gamma   90.00000000
_symmetry_Int_Tables_number   1
_chemical_formula_structural   Dy3Lu9Tc4
_chemical_formula_sum   'Dy3 Lu9 Tc4'
_cell_volume   406.84287231
_cell_formula_units_Z   1
loop_
 _symmetry_equiv_pos_site_id
 _symmetry_equiv_pos_as_xyz
  1  'x, y, z'
loop_
 _atom_site_type_symbol
 _atom_site_label
 _atom_site_symmetry_multiplicity
 _atom_site_fract_x
 _atom_site_fract_y
 _atom_site_fract_z
 _atom_site_occupancy
  Dy  Dy0  1  0.537846  0.250000  0.878279  1
  Dy  Dy1  1  0.041273  0.250000  0.624369  1
  Dy  Dy2  1  0.460125  0.750000  0.124051  1
  Lu  Lu3  1  0.676806  0.062037  0.350315  1
  Lu  Lu4  1  0.173020  0.438212  0.150631  1
  Lu  Lu5  1  0.325053  0.563008  0.649098  1
  Lu  Lu6  1  0.825290  0.936706  0.848899  1
  Lu  Lu7  1  0.325053  0.936992  0.649098  1
  Lu  Lu8  1  0.825290  0.563294  0.848899  1
  Lu  Lu9  1  0.676806  0.437963  0.350315  1
  Lu  Lu10  1  0.173020  0.061788  0.150631  1
  Lu  Lu11  1  0.960078  0.750000  0.374510  1
  Tc  Tc12  1  0.881367  0.250000  0.047209  1
  Tc  Tc13  1  0.382468  0.250000  0.450781  1
  Tc  Tc14  1  0.117445  0.750000  0.955051  1
  Tc  Tc15  1  0.619058  0.750000  0.547866  1
