# generated using pymatgen
data_Lu(ScSn)5
_symmetry_space_group_name_H-M   'P 1'
_cell_length_a   6.13693427
_cell_length_b   8.95477569
_cell_length_c   11.02336998
_cell_angle_alpha   113.88102834
_cell_angle_beta   106.16235274
_cell_angle_gamma   90.00000276
_symmetry_Int_Tables_number   1
_chemical_formula_structural   Lu(ScSn)5
_chemical_formula_sum   'Lu2 Sc10 Sn10'
_cell_volume   527.63433470
_cell_formula_units_Z   2
loop_
 _symmetry_equiv_pos_site_id
 _symmetry_equiv_pos_as_xyz
  1  'x, y, z'
loop_
 _atom_site_type_symbol
 _atom_site_label
 _atom_site_symmetry_multiplicity
 _atom_site_fract_x
 _atom_site_fract_y
 _atom_site_fract_z
 _atom_site_occupancy
  Lu  Lu0  1  0.641153  0.026033  0.282306  1
  Lu  Lu1  1  0.358847  0.973967  0.717694  1
  Sc  Sc2  1  0.556694  0.306400  0.613092  1
  Sc  Sc3  1  0.443306  0.693600  0.386908  1
  Sc  Sc4  1  0.943600  0.693600  0.386908  1
  Sc  Sc5  1  0.056400  0.306400  0.613092  1
  Sc  Sc6  1  0.438281  0.681398  0.876563  1
  Sc  Sc7  1  0.561719  0.318602  0.123437  1
  Sc  Sc8  1  0.938352  0.198721  0.876703  1
  Sc  Sc9  1  0.061648  0.801279  0.123297  1
  Sc  Sc10  1  0.140726  0.256241  0.281454  1
  Sc  Sc11  1  0.859274  0.743759  0.718546  1
  Sn  Sn12  1  0.290803  0.591136  0.581606  1
  Sn  Sn13  1  0.709197  0.408864  0.418394  1
  Sn  Sn14  1  0.791998  0.988404  0.583995  1
  Sn  Sn15  1  0.208002  0.011596  0.416005  1
  Sn  Sn16  1  0.246780  0.000000  0.000000  1
  Sn  Sn17  1  0.753220  0.000000  0.000000  1
  Sn  Sn18  1  0.071648  0.476016  0.143296  1
  Sn  Sn19  1  0.928352  0.523984  0.856704  1
  Sn  Sn20  1  0.570164  0.660549  0.140327  1
  Sn  Sn21  1  0.429836  0.339451  0.859673  1
