# generated using pymatgen
data_Ho3Sc3Si2Ir
_symmetry_space_group_name_H-M   'P 1'
_cell_length_a   7.40874100
_cell_length_b   7.40874132
_cell_length_c   4.21092700
_cell_angle_alpha   90.00000000
_cell_angle_beta   90.00000000
_cell_angle_gamma   120.00000302
_symmetry_Int_Tables_number   1
_chemical_formula_structural   Ho3Sc3Si2Ir
_chemical_formula_sum   'Ho3 Sc3 Si2 Ir1'
_cell_volume   200.16916399
_cell_formula_units_Z   1
loop_
 _symmetry_equiv_pos_site_id
 _symmetry_equiv_pos_as_xyz
  1  'x, y, z'
loop_
 _atom_site_type_symbol
 _atom_site_label
 _atom_site_symmetry_multiplicity
 _atom_site_fract_x
 _atom_site_fract_y
 _atom_site_fract_z
 _atom_site_occupancy
  Ho  Ho0  1  0.413791  0.000000  0.000000  1
  Ho  Ho1  1  0.000000  0.413791  0.000000  1
  Ho  Ho2  1  0.586209  0.586209  0.000000  1
  Sc  Sc3  1  0.758311  0.000000  0.500000  1
  Sc  Sc4  1  0.241690  0.241690  0.500000  1
  Sc  Sc5  1  0.000000  0.758310  0.500000  1
  Si  Si6  1  0.666666  0.333333  0.500000  1
  Si  Si7  1  0.333333  0.666667  0.500000  1
  Ir  Ir8  1  0.000000  0.000000  0.000000  1
