# generated using pymatgen
data_Sm8Dy12Si15Os
_symmetry_space_group_name_H-M   'P 1'
_cell_length_a   7.41289609
_cell_length_b   7.81493763
_cell_length_c   14.72166100
_cell_angle_alpha   90.00000000
_cell_angle_beta   90.00000000
_cell_angle_gamma   90.09734120
_symmetry_Int_Tables_number   1
_chemical_formula_structural   Sm8Dy12Si15Os
_chemical_formula_sum   'Sm8 Dy12 Si15 Os1'
_cell_volume   852.84403210
_cell_formula_units_Z   1
loop_
 _symmetry_equiv_pos_site_id
 _symmetry_equiv_pos_as_xyz
  1  'x, y, z'
loop_
 _atom_site_type_symbol
 _atom_site_label
 _atom_site_symmetry_multiplicity
 _atom_site_fract_x
 _atom_site_fract_y
 _atom_site_fract_z
 _atom_site_occupancy
  Sm  Sm0  1  0.019871  0.184184  0.097448  1
  Sm  Sm1  1  0.984160  0.826340  0.903285  1
  Sm  Sm2  1  0.481528  0.680073  0.903793  1
  Sm  Sm3  1  0.984160  0.826340  0.596715  1
  Sm  Sm4  1  0.518418  0.319361  0.096499  1
  Sm  Sm5  1  0.019871  0.184184  0.402552  1
  Sm  Sm6  1  0.518418  0.319361  0.403501  1
  Sm  Sm7  1  0.481528  0.680073  0.596207  1
  Dy  Dy8  1  0.152806  0.509623  0.750000  1
  Dy  Dy9  1  0.841386  0.486977  0.250000  1
  Dy  Dy10  1  0.341180  0.015349  0.250000  1
  Dy  Dy11  1  0.667112  0.988486  0.750000  1
  Dy  Dy12  1  0.314053  0.174608  0.627009  1
  Dy  Dy13  1  0.677017  0.822977  0.375867  1
  Dy  Dy14  1  0.176284  0.680702  0.376197  1
  Dy  Dy15  1  0.677017  0.822977  0.124133  1
  Dy  Dy16  1  0.833779  0.314123  0.625858  1
  Dy  Dy17  1  0.314053  0.174608  0.872991  1
  Dy  Dy18  1  0.833779  0.314123  0.874142  1
  Dy  Dy19  1  0.176284  0.680702  0.123803  1
  Si  Si20  1  0.969319  0.892231  0.250000  1
  Si  Si21  1  0.470948  0.609061  0.250000  1
  Si  Si22  1  0.528534  0.396088  0.750000  1
  Si  Si23  1  0.274008  0.868524  0.750000  1
  Si  Si24  1  0.722971  0.126585  0.250000  1
  Si  Si25  1  0.224898  0.375024  0.250000  1
  Si  Si26  1  0.766594  0.620944  0.750000  1
  Si  Si27  1  0.154127  0.472271  0.537455  1
  Si  Si28  1  0.850375  0.532142  0.462160  1
  Si  Si29  1  0.349373  0.969200  0.461564  1
  Si  Si30  1  0.850375  0.532142  0.037840  1
  Si  Si31  1  0.647479  0.030393  0.537832  1
  Si  Si32  1  0.154127  0.472271  0.962545  1
  Si  Si33  1  0.647479  0.030393  0.962168  1
  Si  Si34  1  0.349373  0.969200  0.038436  1
  Os  Os35  1  0.027320  0.098366  0.750000  1
