# generated using pymatgen
data_Th6Sb8(PdPt)3
_symmetry_space_group_name_H-M   'P 1'
_cell_length_a   8.61804145
_cell_length_b   8.61505688
_cell_length_c   8.61505435
_cell_angle_alpha   109.45668337
_cell_angle_beta   109.42275760
_cell_angle_gamma   109.52019153
_symmetry_Int_Tables_number   1
_chemical_formula_structural   Th6Sb8(PdPt)3
_chemical_formula_sum   'Th6 Sb8 Pd3 Pt3'
_cell_volume   492.46774120
_cell_formula_units_Z   1
loop_
 _symmetry_equiv_pos_site_id
 _symmetry_equiv_pos_as_xyz
  1  'x, y, z'
loop_
 _atom_site_type_symbol
 _atom_site_label
 _atom_site_symmetry_multiplicity
 _atom_site_fract_x
 _atom_site_fract_y
 _atom_site_fract_z
 _atom_site_occupancy
  Th  Th0  1  0.873435  0.249117  0.123668  1
  Th  Th1  1  0.626565  0.750233  0.375682  1
  Th  Th2  1  0.250000  0.127234  0.877234  1
  Th  Th3  1  0.750000  0.373098  0.623098  1
  Th  Th4  1  0.123172  0.874296  0.249705  1
  Th  Th5  1  0.376828  0.626532  0.751124  1
  Sb  Sb6  1  0.671284  0.501221  0.998643  1
  Sb  Sb7  1  0.497825  0.997165  0.668108  1
  Sb  Sb8  1  0.002175  0.670283  0.499340  1
  Sb  Sb9  1  0.828716  0.827358  0.829937  1
  Sb  Sb10  1  0.497654  0.000058  0.170579  1
  Sb  Sb11  1  0.169807  0.501779  0.998431  1
  Sb  Sb12  1  0.002346  0.172925  0.502404  1
  Sb  Sb13  1  0.330193  0.328624  0.331971  1
  Pd  Pd14  1  0.375233  0.249185  0.627209  1
  Pd  Pd15  1  0.124767  0.751976  0.873953  1
  Pd  Pd16  1  0.250000  0.622360  0.372360  1
  Pt  Pt17  1  0.750000  0.877322  0.127322  1
  Pt  Pt18  1  0.625190  0.375630  0.248794  1
  Pt  Pt19  1  0.874810  0.123604  0.750440  1
