# generated using pymatgen
data_CaYb6YBi6
_symmetry_space_group_name_H-M   'P 1'
_cell_length_a   8.28520512
_cell_length_b   8.34688395
_cell_length_c   8.34688304
_cell_angle_alpha   109.62042817
_cell_angle_beta   109.32160280
_cell_angle_gamma   109.32159837
_symmetry_Int_Tables_number   1
_chemical_formula_structural   CaYb6YBi6
_chemical_formula_sum   'Ca1 Yb6 Y1 Bi6'
_cell_volume   445.17284295
_cell_formula_units_Z   1
loop_
 _symmetry_equiv_pos_site_id
 _symmetry_equiv_pos_as_xyz
  1  'x, y, z'
loop_
 _atom_site_type_symbol
 _atom_site_label
 _atom_site_symmetry_multiplicity
 _atom_site_fract_x
 _atom_site_fract_y
 _atom_site_fract_z
 _atom_site_occupancy
  Ca  Ca0  1  0.149134  0.500000  0.000000  1
  Yb  Yb1  1  0.498661  0.995090  0.643192  1
  Yb  Yb2  1  0.347891  0.349165  0.348764  1
  Yb  Yb3  1  0.498726  0.999599  0.150835  1
  Yb  Yb4  1  0.003572  0.648103  0.504910  1
  Yb  Yb5  1  0.855469  0.856808  0.851897  1
  Yb  Yb6  1  0.999127  0.151236  0.500401  1
  Y  Y7  1  0.646828  0.500000  0.000000  1
  Bi  Bi8  1  0.383153  0.627030  0.754412  1
  Bi  Bi9  1  0.870406  0.254360  0.124282  1
  Bi  Bi10  1  0.628740  0.745588  0.372618  1
  Bi  Bi11  1  0.116046  0.869923  0.245640  1
  Bi  Bi12  1  0.256123  0.127382  0.872970  1
  Bi  Bi13  1  0.746124  0.375718  0.630077  1
