# generated using pymatgen
data_Hf2Nb3(NiP)4
_symmetry_space_group_name_H-M   'P 1'
_cell_length_a   7.32100398
_cell_length_b   7.32100436
_cell_length_c   7.33795067
_cell_angle_alpha   93.29000467
_cell_angle_beta   93.57510407
_cell_angle_gamma   151.63948524
_symmetry_Int_Tables_number   1
_chemical_formula_structural   Hf2Nb3(NiP)4
_chemical_formula_sum   'Hf2 Nb3 Ni4 P4'
_cell_volume   181.15472077
_cell_formula_units_Z   1
loop_
 _symmetry_equiv_pos_site_id
 _symmetry_equiv_pos_as_xyz
  1  'x, y, z'
loop_
 _atom_site_type_symbol
 _atom_site_label
 _atom_site_symmetry_multiplicity
 _atom_site_fract_x
 _atom_site_fract_y
 _atom_site_fract_z
 _atom_site_occupancy
  Hf  Hf0  1  0.801051  0.129538  0.930589  1
  Hf  Hf1  1  0.131243  0.197700  0.328943  1
  Nb  Nb2  1  0.872362  0.804067  0.676429  1
  Nb  Nb3  1  0.193907  0.871380  0.065287  1
  Nb  Nb4  1  0.500357  0.499409  0.999766  1
  Ni  Ni5  1  0.915728  0.390415  0.306143  1
  Ni  Ni6  1  0.083119  0.610369  0.693487  1
  Ni  Ni7  1  0.609916  0.916996  0.526911  1
  Ni  Ni8  1  0.390392  0.083941  0.474334  1
  P  P9  1  0.554908  0.240615  0.795523  1
  P  P10  1  0.243136  0.442321  0.685455  1
  P  P11  1  0.760919  0.554327  0.315247  1
  P  P12  1  0.442962  0.758921  0.201883  1
