# generated using pymatgen
data_Tb2Yb3Sn3Ge
_symmetry_space_group_name_H-M   'P 1'
_cell_length_a   7.59334100
_cell_length_b   8.41650200
_cell_length_c   16.00625600
_cell_angle_alpha   90.00000000
_cell_angle_beta   90.00000000
_cell_angle_gamma   90.00000000
_symmetry_Int_Tables_number   1
_chemical_formula_structural   Tb2Yb3Sn3Ge
_chemical_formula_sum   'Tb8 Yb12 Sn12 Ge4'
_cell_volume   1022.94973243
_cell_formula_units_Z   4
loop_
 _symmetry_equiv_pos_site_id
 _symmetry_equiv_pos_as_xyz
  1  'x, y, z'
loop_
 _atom_site_type_symbol
 _atom_site_label
 _atom_site_symmetry_multiplicity
 _atom_site_fract_x
 _atom_site_fract_y
 _atom_site_fract_z
 _atom_site_occupancy
  Tb  Tb0  1  0.673755  0.172488  0.626859  1
  Tb  Tb1  1  0.173755  0.327512  0.873141  1
  Tb  Tb2  1  0.326245  0.827512  0.126859  1
  Tb  Tb3  1  0.826245  0.672488  0.373141  1
  Tb  Tb4  1  0.326245  0.827512  0.373141  1
  Tb  Tb5  1  0.826245  0.672488  0.126859  1
  Tb  Tb6  1  0.673755  0.172488  0.873141  1
  Tb  Tb7  1  0.173755  0.327512  0.626859  1
  Yb  Yb8  1  0.501334  0.688221  0.592294  1
  Yb  Yb9  1  0.001334  0.811779  0.907706  1
  Yb  Yb10  1  0.498666  0.311779  0.092294  1
  Yb  Yb11  1  0.998666  0.188221  0.407706  1
  Yb  Yb12  1  0.498666  0.311779  0.407706  1
  Yb  Yb13  1  0.998666  0.188221  0.092294  1
  Yb  Yb14  1  0.501334  0.688221  0.907706  1
  Yb  Yb15  1  0.001334  0.811779  0.592294  1
  Yb  Yb16  1  0.820554  0.509486  0.750000  1
  Yb  Yb17  1  0.320554  0.990514  0.750000  1
  Yb  Yb18  1  0.179446  0.490514  0.250000  1
  Yb  Yb19  1  0.679446  0.009486  0.250000  1
  Sn  Sn20  1  0.673026  0.964547  0.461548  1
  Sn  Sn21  1  0.173026  0.535453  0.038452  1
  Sn  Sn22  1  0.326974  0.035453  0.961548  1
  Sn  Sn23  1  0.826974  0.464547  0.538452  1
  Sn  Sn24  1  0.326974  0.035453  0.538452  1
  Sn  Sn25  1  0.826974  0.464547  0.961548  1
  Sn  Sn26  1  0.673026  0.964547  0.038452  1
  Sn  Sn27  1  0.173026  0.535453  0.461548  1
  Sn  Sn28  1  0.728793  0.879554  0.750000  1
  Sn  Sn29  1  0.228793  0.620446  0.750000  1
  Sn  Sn30  1  0.271207  0.120446  0.250000  1
  Sn  Sn31  1  0.771207  0.379554  0.250000  1
  Ge  Ge32  1  0.464778  0.362399  0.750000  1
  Ge  Ge33  1  0.964778  0.137601  0.750000  1
  Ge  Ge34  1  0.535222  0.637601  0.250000  1
  Ge  Ge35  1  0.035222  0.862399  0.250000  1
