# generated using pymatgen
data_Y3Er4Tm(CdNi)2
_symmetry_space_group_name_H-M   'P 1'
_cell_length_a   9.50737556
_cell_length_b   9.50737707
_cell_length_c   9.50792300
_cell_angle_alpha   59.99810395
_cell_angle_beta   59.99809872
_cell_angle_gamma   60.00379879
_symmetry_Int_Tables_number   1
_chemical_formula_structural   Y3Er4Tm(CdNi)2
_chemical_formula_sum   'Y6 Er8 Tm2 Cd4 Ni4'
_cell_volume   607.70390694
_cell_formula_units_Z   2
loop_
 _symmetry_equiv_pos_site_id
 _symmetry_equiv_pos_as_xyz
  1  'x, y, z'
loop_
 _atom_site_type_symbol
 _atom_site_label
 _atom_site_symmetry_multiplicity
 _atom_site_fract_x
 _atom_site_fract_y
 _atom_site_fract_z
 _atom_site_occupancy
  Y  Y0  1  0.187610  0.812390  0.812390  1
  Y  Y1  1  0.812390  0.187610  0.187610  1
  Y  Y2  1  0.812390  0.187610  0.812390  1
  Y  Y3  1  0.187610  0.812390  0.187610  1
  Y  Y4  1  0.812373  0.812373  0.187627  1
  Y  Y5  1  0.187627  0.187627  0.812373  1
  Er  Er6  1  0.598189  0.598189  0.598548  1
  Er  Er7  1  0.598189  0.598189  0.205074  1
  Er  Er8  1  0.598548  0.205074  0.598189  1
  Er  Er9  1  0.205074  0.598548  0.598189  1
  Er  Er10  1  0.062266  0.437734  0.437734  1
  Er  Er11  1  0.437734  0.062266  0.062266  1
  Er  Er12  1  0.437734  0.062266  0.437734  1
  Er  Er13  1  0.062266  0.437734  0.062266  1
  Tm  Tm14  1  0.437976  0.437976  0.062024  1
  Tm  Tm15  1  0.062024  0.062024  0.437976  1
  Cd  Cd16  1  0.830724  0.830724  0.830569  1
  Cd  Cd17  1  0.830724  0.830724  0.507980  1
  Cd  Cd18  1  0.830569  0.507980  0.830724  1
  Cd  Cd19  1  0.507980  0.830569  0.830724  1
  Ni  Ni20  1  0.392603  0.392603  0.392086  1
  Ni  Ni21  1  0.392603  0.392603  0.822711  1
  Ni  Ni22  1  0.392086  0.822711  0.392603  1
  Ni  Ni23  1  0.822711  0.392086  0.392603  1
