# generated using pymatgen
data_Na3Sc(PO4)2
_symmetry_space_group_name_H-M   'P 1'
_cell_length_a   5.36615318
_cell_length_b   5.36615232
_cell_length_c   14.22748149
_cell_angle_alpha   87.98762374
_cell_angle_beta   87.98762155
_cell_angle_gamma   57.39189463
_symmetry_Int_Tables_number   1
_chemical_formula_structural   Na3Sc(PO4)2
_chemical_formula_sum   'Na6 Sc2 P4 O16'
_cell_volume   344.83543837
_cell_formula_units_Z   2
loop_
 _symmetry_equiv_pos_site_id
 _symmetry_equiv_pos_as_xyz
  1  'x, y, z'
loop_
 _atom_site_type_symbol
 _atom_site_label
 _atom_site_symmetry_multiplicity
 _atom_site_fract_x
 _atom_site_fract_y
 _atom_site_fract_z
 _atom_site_occupancy
  Na  Na0  1  0.948245  0.051755  0.250000  1
  Na  Na1  1  0.051755  0.948245  0.750000  1
  Na  Na2  1  0.289532  0.371087  0.135172  1
  Na  Na3  1  0.628913  0.710468  0.364828  1
  Na  Na4  1  0.371087  0.289532  0.635172  1
  Na  Na5  1  0.710468  0.628913  0.864828  1
  Sc  Sc6  1  0.000000  0.000000  0.500000  1
  Sc  Sc7  1  0.000000  0.000000  0.000000  1
  P  P8  1  0.646743  0.688389  0.115105  1
  P  P9  1  0.688389  0.646743  0.615105  1
  P  P10  1  0.311611  0.353257  0.384895  1
  P  P11  1  0.353257  0.311611  0.884895  1
  O  O12  1  0.276077  0.075060  0.912763  1
  O  O13  1  0.924940  0.723923  0.587237  1
  O  O14  1  0.723923  0.924940  0.087237  1
  O  O15  1  0.075060  0.276077  0.412763  1
  O  O16  1  0.699932  0.149394  0.882723  1
  O  O17  1  0.850606  0.300068  0.617277  1
  O  O18  1  0.300068  0.850606  0.117277  1
  O  O19  1  0.149394  0.699932  0.382723  1
  O  O20  1  0.221904  0.556726  0.960267  1
  O  O21  1  0.443274  0.778096  0.539733  1
  O  O22  1  0.778096  0.443274  0.039733  1
  O  O23  1  0.556726  0.221904  0.460267  1
  O  O24  1  0.451616  0.219511  0.289529  1
  O  O25  1  0.780489  0.548384  0.210471  1
  O  O26  1  0.548384  0.780489  0.710471  1
  O  O27  1  0.219511  0.451616  0.789529  1
