# generated using pymatgen
data_Dy3LuMo4F28
_symmetry_space_group_name_H-M   'P 1'
_cell_length_a   5.57764393
_cell_length_b   8.87701304
_cell_length_c   11.99002800
_cell_angle_alpha   62.65072909
_cell_angle_beta   90.06802384
_cell_angle_gamma   89.99832075
_symmetry_Int_Tables_number   1
_chemical_formula_structural   Dy3LuMo4F28
_chemical_formula_sum   'Dy3 Lu1 Mo4 F28'
_cell_volume   527.30174794
_cell_formula_units_Z   1
loop_
 _symmetry_equiv_pos_site_id
 _symmetry_equiv_pos_as_xyz
  1  'x, y, z'
loop_
 _atom_site_type_symbol
 _atom_site_label
 _atom_site_symmetry_multiplicity
 _atom_site_fract_x
 _atom_site_fract_y
 _atom_site_fract_z
 _atom_site_occupancy
  Dy  Dy0  1  0.257112  0.183628  0.734278  1
  Dy  Dy1  1  0.242028  0.186419  0.234208  1
  Dy  Dy2  1  0.742059  0.812522  0.265765  1
  Lu  Lu3  1  0.758471  0.813142  0.765993  1
  Mo  Mo4  1  0.755756  0.275533  0.955750  1
  Mo  Mo5  1  0.256604  0.727145  0.545570  1
  Mo  Mo6  1  0.243886  0.727006  0.040877  1
  Mo  Mo7  1  0.744891  0.271280  0.458037  1
  F  F8  1  0.455476  0.705945  0.916079  1
  F  F9  1  0.955113  0.295110  0.583712  1
  F  F10  1  0.544545  0.297090  0.082975  1
  F  F11  1  0.043460  0.705087  0.417750  1
  F  F12  1  0.441690  0.277502  0.546967  1
  F  F13  1  0.938372  0.724211  0.948588  1
  F  F14  1  0.554947  0.721502  0.455181  1
  F  F15  1  0.057813  0.279478  0.044962  1
  F  F16  1  0.771305  0.525419  0.856777  1
  F  F17  1  0.273748  0.478386  0.643048  1
  F  F18  1  0.225043  0.478732  0.140955  1
  F  F19  1  0.727224  0.520346  0.359044  1
  F  F20  1  0.760588  0.026147  0.051748  1
  F  F21  1  0.260395  0.975915  0.448903  1
  F  F22  1  0.241727  0.976322  0.946575  1
  F  F23  1  0.741392  0.022113  0.554445  1
  F  F24  1  0.970401  0.730573  0.643627  1
  F  F25  1  0.468476  0.271432  0.858482  1
  F  F26  1  0.034477  0.271752  0.359514  1
  F  F27  1  0.533628  0.727629  0.141420  1
  F  F28  1  0.040840  0.746426  0.170531  1
  F  F29  1  0.541115  0.252398  0.327319  1
  F  F30  1  0.960628  0.254544  0.825457  1
  F  F31  1  0.467353  0.748744  0.675643  1
  F  F32  1  0.416169  0.968384  0.232083  1
  F  F33  1  0.915922  0.031366  0.267927  1
  F  F34  1  0.582538  0.023654  0.767711  1
  F  F35  1  0.074806  0.967111  0.732098  1
