# generated using pymatgen
data_Ho12InCo4Pd
_symmetry_space_group_name_H-M   'P 1'
_cell_length_a   8.29614860
_cell_length_b   8.29614794
_cell_length_c   8.29614931
_cell_angle_alpha   110.93118944
_cell_angle_beta   110.58208435
_cell_angle_gamma   106.93008774
_symmetry_Int_Tables_number   1
_chemical_formula_structural   Ho12InCo4Pd
_chemical_formula_sum   'Ho12 In1 Co4 Pd1'
_cell_volume   438.90026600
_cell_formula_units_Z   1
loop_
 _symmetry_equiv_pos_site_id
 _symmetry_equiv_pos_as_xyz
  1  'x, y, z'
loop_
 _atom_site_type_symbol
 _atom_site_label
 _atom_site_symmetry_multiplicity
 _atom_site_fract_x
 _atom_site_fract_y
 _atom_site_fract_z
 _atom_site_occupancy
  Ho  Ho0  1  0.314643  0.619632  0.304989  1
  Ho  Ho1  1  0.685357  0.380368  0.695011  1
  Ho  Ho2  1  0.314643  0.009653  0.695011  1
  Ho  Ho3  1  0.685357  0.990347  0.304989  1
  Ho  Ho4  1  0.187322  0.294290  0.481612  1
  Ho  Ho5  1  0.812678  0.705710  0.518388  1
  Ho  Ho6  1  0.187322  0.705710  0.893032  1
  Ho  Ho7  1  0.812678  0.294290  0.106968  1
  Ho  Ho8  1  0.413221  0.214704  0.198517  1
  Ho  Ho9  1  0.586779  0.785296  0.801483  1
  Ho  Ho10  1  0.016188  0.214704  0.801483  1
  Ho  Ho11  1  0.983812  0.785296  0.198517  1
  In  In12  1  0.500000  0.500000  0.000000  1
  Co  Co13  1  0.112245  0.612245  0.500000  1
  Co  Co14  1  0.887755  0.387755  0.500000  1
  Co  Co15  1  0.379470  0.000000  0.379470  1
  Co  Co16  1  0.620530  0.000000  0.620530  1
  Pd  Pd17  1  0.000000  0.000000  0.000000  1
