# generated using pymatgen
data_CeDyTaB2Ru5
_symmetry_space_group_name_H-M   'P 1'
_cell_length_a   9.71719207
_cell_length_b   9.71719207
_cell_length_c   3.14538400
_cell_angle_alpha   90.00000000
_cell_angle_beta   90.00000000
_cell_angle_gamma   89.92522273
_symmetry_Int_Tables_number   1
_chemical_formula_structural   CeDyTaB2Ru5
_chemical_formula_sum   'Ce2 Dy2 Ta2 B4 Ru10'
_cell_volume   296.99892507
_cell_formula_units_Z   2
loop_
 _symmetry_equiv_pos_site_id
 _symmetry_equiv_pos_as_xyz
  1  'x, y, z'
loop_
 _atom_site_type_symbol
 _atom_site_label
 _atom_site_symmetry_multiplicity
 _atom_site_fract_x
 _atom_site_fract_y
 _atom_site_fract_z
 _atom_site_occupancy
  Ce  Ce0  1  0.323996  0.823996  0.000000  1
  Ce  Ce1  1  0.676004  0.176004  0.000000  1
  Dy  Dy2  1  0.825015  0.674985  0.000000  1
  Dy  Dy3  1  0.174985  0.325015  0.000000  1
  Ta  Ta4  1  0.500000  0.500000  0.000000  1
  Ta  Ta5  1  0.000000  0.000000  0.000000  1
  B  B6  1  0.623001  0.876999  0.000000  1
  B  B7  1  0.376999  0.123001  0.000000  1
  B  B8  1  0.118562  0.618562  0.000000  1
  B  B9  1  0.881438  0.381438  0.000000  1
  Ru  Ru10  1  0.568987  0.718923  0.500000  1
  Ru  Ru11  1  0.431013  0.281077  0.500000  1
  Ru  Ru12  1  0.071699  0.781614  0.500000  1
  Ru  Ru13  1  0.928301  0.218386  0.500000  1
  Ru  Ru14  1  0.281614  0.571699  0.500000  1
  Ru  Ru15  1  0.718386  0.428301  0.500000  1
  Ru  Ru16  1  0.218923  0.068987  0.500000  1
  Ru  Ru17  1  0.781077  0.931013  0.500000  1
  Ru  Ru18  1  0.500000  0.000000  0.500000  1
  Ru  Ru19  1  0.000000  0.500000  0.500000  1
