# generated using pymatgen
data_Y4Al16Si2Ir5Pt
_symmetry_space_group_name_H-M   'P 1'
_cell_length_a   7.55665902
_cell_length_b   7.55665999
_cell_length_c   9.35501708
_cell_angle_alpha   89.99233479
_cell_angle_beta   89.99230770
_cell_angle_gamma   119.65967861
_symmetry_Int_Tables_number   1
_chemical_formula_structural   Y4Al16Si2Ir5Pt
_chemical_formula_sum   'Y4 Al16 Si2 Ir5 Pt1'
_cell_volume   464.20952243
_cell_formula_units_Z   1
loop_
 _symmetry_equiv_pos_site_id
 _symmetry_equiv_pos_as_xyz
  1  'x, y, z'
loop_
 _atom_site_type_symbol
 _atom_site_label
 _atom_site_symmetry_multiplicity
 _atom_site_fract_x
 _atom_site_fract_y
 _atom_site_fract_z
 _atom_site_occupancy
  Y  Y0  1  0.994172  0.674438  0.250624  1
  Y  Y1  1  0.004970  0.325046  0.749372  1
  Y  Y2  1  0.674954  0.995029  0.250628  1
  Y  Y3  1  0.325562  0.005828  0.749376  1
  Al  Al4  1  0.004618  0.336464  0.077017  1
  Al  Al5  1  0.001726  0.666898  0.923154  1
  Al  Al6  1  0.999376  0.663190  0.574881  1
  Al  Al7  1  0.336810  0.000624  0.425119  1
  Al  Al8  1  0.001064  0.336412  0.424542  1
  Al  Al9  1  0.663588  0.998936  0.575458  1
  Al  Al10  1  0.663536  0.995382  0.922983  1
  Al  Al11  1  0.333102  0.998274  0.076846  1
  Al  Al12  1  0.334995  0.334971  0.555560  1
  Al  Al13  1  0.665028  0.665005  0.444440  1
  Al  Al14  1  0.664238  0.667509  0.058458  1
  Al  Al15  1  0.332491  0.335762  0.941542  1
  Al  Al16  1  0.335959  0.548979  0.250571  1
  Al  Al17  1  0.664603  0.453463  0.747610  1
  Al  Al18  1  0.546537  0.335397  0.252390  1
  Al  Al19  1  0.451021  0.664041  0.749429  1
  Si  Si20  1  0.129703  0.128999  0.250530  1
  Si  Si21  1  0.871001  0.870298  0.749470  1
  Ir  Ir22  1  0.328393  0.671607  0.000000  1
  Ir  Ir23  1  0.328595  0.671405  0.500000  1
  Ir  Ir24  1  0.671869  0.328131  0.500000  1
  Ir  Ir25  1  0.999851  0.000149  0.000000  1
  Ir  Ir26  1  0.000188  0.999812  0.500000  1
  Pt  Pt27  1  0.672048  0.327953  0.000000  1
