# generated using pymatgen
data_Sc8Nb11Si16Ag
_symmetry_space_group_name_H-M   'P 1'
_cell_length_a   6.69585718
_cell_length_b   6.92176610
_cell_length_c   13.18772300
_cell_angle_alpha   90.00000000
_cell_angle_beta   90.00000000
_cell_angle_gamma   90.52382886
_symmetry_Int_Tables_number   1
_chemical_formula_structural   Sc8Nb11Si16Ag
_chemical_formula_sum   'Sc8 Nb11 Si16 Ag1'
_cell_volume   611.18792662
_cell_formula_units_Z   1
loop_
 _symmetry_equiv_pos_site_id
 _symmetry_equiv_pos_as_xyz
  1  'x, y, z'
loop_
 _atom_site_type_symbol
 _atom_site_label
 _atom_site_symmetry_multiplicity
 _atom_site_fract_x
 _atom_site_fract_y
 _atom_site_fract_z
 _atom_site_occupancy
  Sc  Sc0  1  0.498979  0.675464  0.591994  1
  Sc  Sc1  1  0.003143  0.827509  0.907329  1
  Sc  Sc2  1  0.496470  0.327179  0.095850  1
  Sc  Sc3  1  0.000852  0.172379  0.401842  1
  Sc  Sc4  1  0.496470  0.327179  0.404150  1
  Sc  Sc5  1  0.000852  0.172379  0.098158  1
  Sc  Sc6  1  0.498979  0.675464  0.908006  1
  Sc  Sc7  1  0.003143  0.827509  0.592671  1
  Nb  Nb8  1  0.667514  0.173372  0.625869  1
  Nb  Nb9  1  0.157036  0.322694  0.874328  1
  Nb  Nb10  1  0.337782  0.826224  0.125101  1
  Nb  Nb11  1  0.837070  0.675200  0.375765  1
  Nb  Nb12  1  0.337782  0.826224  0.374899  1
  Nb  Nb13  1  0.837070  0.675200  0.124235  1
  Nb  Nb14  1  0.667514  0.173372  0.874131  1
  Nb  Nb15  1  0.157036  0.322694  0.625672  1
  Nb  Nb16  1  0.336809  0.999284  0.750000  1
  Nb  Nb17  1  0.162514  0.505799  0.250000  1
  Nb  Nb18  1  0.663144  0.996104  0.250000  1
  Si  Si19  1  0.669728  0.968344  0.460278  1
  Si  Si20  1  0.168198  0.533034  0.038712  1
  Si  Si21  1  0.333653  0.034427  0.960207  1
  Si  Si22  1  0.830722  0.458717  0.531765  1
  Si  Si23  1  0.333653  0.034427  0.539793  1
  Si  Si24  1  0.830722  0.458717  0.968235  1
  Si  Si25  1  0.669728  0.968344  0.039722  1
  Si  Si26  1  0.168198  0.533034  0.461288  1
  Si  Si27  1  0.458415  0.378685  0.750000  1
  Si  Si28  1  0.962625  0.106193  0.750000  1
  Si  Si29  1  0.539714  0.613804  0.250000  1
  Si  Si30  1  0.041220  0.886074  0.250000  1
  Si  Si31  1  0.701421  0.870283  0.750000  1
  Si  Si32  1  0.213780  0.631931  0.750000  1
  Si  Si33  1  0.296756  0.137907  0.250000  1
  Si  Si34  1  0.793149  0.363927  0.250000  1
  Ag  Ag35  1  0.828156  0.520928  0.750000  1
