# generated using pymatgen
data_HfMg3(B6Ru)2
_symmetry_space_group_name_H-M   'P 1'
_cell_length_a   8.88286600
_cell_length_b   11.11812922
_cell_length_c   3.48027500
_cell_angle_alpha   90.00000000
_cell_angle_beta   90.00000000
_cell_angle_gamma   90.10083079
_symmetry_Int_Tables_number   1
_chemical_formula_structural   HfMg3(B6Ru)2
_chemical_formula_sum   'Hf2 Mg6 B24 Ru4'
_cell_volume   343.71439195
_cell_formula_units_Z   2
loop_
 _symmetry_equiv_pos_site_id
 _symmetry_equiv_pos_as_xyz
  1  'x, y, z'
loop_
 _atom_site_type_symbol
 _atom_site_label
 _atom_site_symmetry_multiplicity
 _atom_site_fract_x
 _atom_site_fract_y
 _atom_site_fract_z
 _atom_site_occupancy
  Hf  Hf0  1  0.556033  0.871325  0.000000  1
  Hf  Hf1  1  0.177801  0.918335  0.000000  1
  Mg  Mg2  1  0.820106  0.091214  0.000000  1
  Mg  Mg3  1  0.446282  0.131396  0.000000  1
  Mg  Mg4  1  0.943308  0.370917  0.000000  1
  Mg  Mg5  1  0.328537  0.409866  0.000000  1
  Mg  Mg6  1  0.674073  0.581495  0.000000  1
  Mg  Mg7  1  0.054675  0.624044  0.000000  1
  B  B8  1  0.598137  0.028553  0.500001  1
  B  B9  1  0.055321  0.064972  0.500001  1
  B  B10  1  0.253786  0.080438  0.500001  1
  B  B11  1  0.630447  0.183657  0.500001  1
  B  B12  1  0.978526  0.211814  0.500001  1
  B  B13  1  0.295813  0.238047  0.500001  1
  B  B14  1  0.795256  0.261631  0.500001  1
  B  B15  1  0.480164  0.288053  0.500001  1
  B  B16  1  0.129929  0.317829  0.500001  1
  B  B17  1  0.756931  0.420817  0.500001  1
  B  B18  1  0.554089  0.436133  0.500001  1
  B  B19  1  0.093642  0.473175  0.500001  1
  B  B20  1  0.908557  0.524177  0.500001  1
  B  B21  1  0.443996  0.564291  0.500001  1
  B  B22  1  0.244298  0.577286  0.500001  1
  B  B23  1  0.871452  0.678775  0.500001  1
  B  B24  1  0.518272  0.711192  0.500001  1
  B  B25  1  0.202843  0.737702  0.500001  1
  B  B26  1  0.707328  0.762059  0.500001  1
  B  B27  1  0.020091  0.788007  0.500001  1
  B  B28  1  0.367003  0.818550  0.500001  1
  B  B29  1  0.748325  0.921462  0.500001  1
  B  B30  1  0.946828  0.935365  0.500001  1
  B  B31  1  0.399752  0.974251  0.500001  1
  Ru  Ru32  1  0.140057  0.178944  0.000000  1
  Ru  Ru33  1  0.640299  0.324994  0.000000  1
  Ru  Ru34  1  0.355250  0.681068  0.000000  1
  Ru  Ru35  1  0.862779  0.818173  0.000000  1
