# generated using pymatgen
data_YHo3Ir2(RhO7)2
_symmetry_space_group_name_H-M   'P 1'
_cell_length_a   7.23322842
_cell_length_b   7.22820950
_cell_length_c   7.22820851
_cell_angle_alpha   59.94276125
_cell_angle_beta   59.97387376
_cell_angle_gamma   59.97387668
_symmetry_Int_Tables_number   1
_chemical_formula_structural   YHo3Ir2(RhO7)2
_chemical_formula_sum   'Y1 Ho3 Ir2 Rh2 O14'
_cell_volume   267.00470177
_cell_formula_units_Z   1
loop_
 _symmetry_equiv_pos_site_id
 _symmetry_equiv_pos_as_xyz
  1  'x, y, z'
loop_
 _atom_site_type_symbol
 _atom_site_label
 _atom_site_symmetry_multiplicity
 _atom_site_fract_x
 _atom_site_fract_y
 _atom_site_fract_z
 _atom_site_occupancy
  Y  Y0  1  0.125000  0.125000  0.125000  1
  Ho  Ho1  1  0.625000  0.125000  0.125000  1
  Ho  Ho2  1  0.125000  0.625000  0.125000  1
  Ho  Ho3  1  0.125000  0.125000  0.625000  1
  Ir  Ir4  1  0.125000  0.625000  0.625000  1
  Ir  Ir5  1  0.625000  0.625000  0.625000  1
  Rh  Rh6  1  0.625000  0.125000  0.625000  1
  Rh  Rh7  1  0.625000  0.625000  0.125000  1
  O  O8  1  0.716247  0.709428  0.289455  1
  O  O9  1  0.285391  0.289848  0.707915  1
  O  O10  1  0.716247  0.289455  0.709428  1
  O  O11  1  0.285391  0.707915  0.289848  1
  O  O12  1  0.290301  0.709775  0.709775  1
  O  O13  1  0.715102  0.283762  0.283762  1
  O  O14  1  0.533753  0.540572  0.960545  1
  O  O15  1  0.964609  0.960152  0.542085  1
  O  O16  1  0.533753  0.960545  0.540572  1
  O  O17  1  0.964609  0.542085  0.960152  1
  O  O18  1  0.959699  0.540225  0.540225  1
  O  O19  1  0.534898  0.966238  0.966238  1
  O  O20  1  0.249605  0.251801  0.251801  1
  O  O21  1  0.000395  0.998199  0.998199  1
