# generated using pymatgen
data_AcZn2Ni2Ir
_symmetry_space_group_name_H-M   'P 1'
_cell_length_a   3.94168100
_cell_length_b   5.53939310
_cell_length_c   5.25573515
_cell_angle_alpha   61.63779654
_cell_angle_beta   90.00000000
_cell_angle_gamma   90.00000000
_symmetry_Int_Tables_number   1
_chemical_formula_structural   AcZn2Ni2Ir
_chemical_formula_sum   'Ac1 Zn2 Ni2 Ir1'
_cell_volume   100.98133724
_cell_formula_units_Z   1
loop_
 _symmetry_equiv_pos_site_id
 _symmetry_equiv_pos_as_xyz
  1  'x, y, z'
loop_
 _atom_site_type_symbol
 _atom_site_label
 _atom_site_symmetry_multiplicity
 _atom_site_fract_x
 _atom_site_fract_y
 _atom_site_fract_z
 _atom_site_occupancy
  Ac  Ac0  1  0.000000  0.999981  0.000019  1
  Zn  Zn1  1  0.000000  0.349043  0.325531  1
  Zn  Zn2  1  0.000000  0.650920  0.674506  1
  Ni  Ni3  1  0.500000  0.499986  0.500013  1
  Ni  Ni4  1  0.500000  0.499987  0.000017  1
  Ir  Ir5  1  0.500000  0.999981  0.500016  1
