# generated using pymatgen
data_Na4YbRuO6
_symmetry_space_group_name_H-M   'P 1'
_cell_length_a   5.65771257
_cell_length_b   5.65768275
_cell_length_c   5.72635537
_cell_angle_alpha   99.74920269
_cell_angle_beta   99.74898183
_cell_angle_gamma   119.94236139
_symmetry_Int_Tables_number   1
_chemical_formula_structural   Na4YbRuO6
_chemical_formula_sum   'Na4 Yb1 Ru1 O6'
_cell_volume   149.46363318
_cell_formula_units_Z   1
loop_
 _symmetry_equiv_pos_site_id
 _symmetry_equiv_pos_as_xyz
  1  'x, y, z'
loop_
 _atom_site_type_symbol
 _atom_site_label
 _atom_site_symmetry_multiplicity
 _atom_site_fract_x
 _atom_site_fract_y
 _atom_site_fract_z
 _atom_site_occupancy
  Na  Na0  1  0.499008  0.500985  0.999998  1
  Na  Na1  1  0.003768  0.996240  0.500002  1
  Na  Na2  1  0.660864  0.339131  0.500001  1
  Na  Na3  1  0.337493  0.662492  0.499997  1
  Yb  Yb4  1  0.833947  0.166068  0.000001  1
  Ru  Ru5  1  0.167013  0.832975  0.999999  1
  O  O6  1  0.957102  0.614587  0.205593  1
  O  O7  1  0.529591  0.914885  0.214111  1
  O  O8  1  0.228175  0.187519  0.213924  1
  O  O9  1  0.812509  0.771828  0.786092  1
  O  O10  1  0.085113  0.470390  0.785874  1
  O  O11  1  0.385421  0.042901  0.794404  1
