# generated using pymatgen
data_Dy2Ho6Sc12GaSi15
_symmetry_space_group_name_H-M   'P 1'
_cell_length_a   7.09305163
_cell_length_b   7.38444143
_cell_length_c   14.00738953
_cell_angle_alpha   89.96893550
_cell_angle_beta   89.97401387
_cell_angle_gamma   90.01190031
_symmetry_Int_Tables_number   1
_chemical_formula_structural   Dy2Ho6Sc12GaSi15
_chemical_formula_sum   'Dy2 Ho6 Sc12 Ga1 Si15'
_cell_volume   733.68199155
_cell_formula_units_Z   1
loop_
 _symmetry_equiv_pos_site_id
 _symmetry_equiv_pos_as_xyz
  1  'x, y, z'
loop_
 _atom_site_type_symbol
 _atom_site_label
 _atom_site_symmetry_multiplicity
 _atom_site_fract_x
 _atom_site_fract_y
 _atom_site_fract_z
 _atom_site_occupancy
  Dy  Dy0  1  0.011973  0.175482  0.096993  1
  Dy  Dy1  1  0.987947  0.824716  0.903497  1
  Ho  Ho2  1  0.487705  0.676318  0.903333  1
  Ho  Ho3  1  0.987403  0.826407  0.597549  1
  Ho  Ho4  1  0.512158  0.323841  0.096899  1
  Ho  Ho5  1  0.011055  0.174199  0.401658  1
  Ho  Ho6  1  0.512956  0.323349  0.401653  1
  Ho  Ho7  1  0.489812  0.678257  0.597519  1
  Sc  Sc8  1  0.161118  0.502801  0.751342  1
  Sc  Sc9  1  0.838972  0.497377  0.249932  1
  Sc  Sc10  1  0.338951  0.002754  0.249753  1
  Sc  Sc11  1  0.661340  0.996590  0.750104  1
  Sc  Sc12  1  0.332301  0.174265  0.625925  1
  Sc  Sc13  1  0.668575  0.823930  0.374467  1
  Sc  Sc14  1  0.169904  0.677490  0.373627  1
  Sc  Sc15  1  0.669529  0.823498  0.125240  1
  Sc  Sc16  1  0.828662  0.323064  0.625505  1
  Sc  Sc17  1  0.330296  0.176073  0.874985  1
  Sc  Sc18  1  0.830407  0.323099  0.874996  1
  Sc  Sc19  1  0.169301  0.676743  0.125290  1
  Ga  Ga20  1  0.160246  0.462772  0.539256  1
  Si  Si21  1  0.033670  0.117499  0.750629  1
  Si  Si22  1  0.966462  0.883480  0.249735  1
  Si  Si23  1  0.467615  0.615697  0.249964  1
  Si  Si24  1  0.532155  0.385015  0.749765  1
  Si  Si25  1  0.284699  0.872515  0.750282  1
  Si  Si26  1  0.714446  0.127607  0.249623  1
  Si  Si27  1  0.214504  0.372208  0.249531  1
  Si  Si28  1  0.785588  0.627362  0.750704  1
  Si  Si29  1  0.841146  0.535803  0.460388  1
  Si  Si30  1  0.341400  0.964479  0.460234  1
  Si  Si31  1  0.841751  0.535297  0.038738  1
  Si  Si32  1  0.657873  0.035554  0.539052  1
  Si  Si33  1  0.158197  0.464399  0.961609  1
  Si  Si34  1  0.657302  0.035273  0.960683  1
  Si  Si35  1  0.342578  0.964790  0.039540  1
