# generated using pymatgen
data_Ce2Dy7Tm(Al2Os3)2
_symmetry_space_group_name_H-M   'P 1'
_cell_length_a   8.43887351
_cell_length_b   8.37628187
_cell_length_c   8.35163993
_cell_angle_alpha   109.80773708
_cell_angle_beta   109.42103948
_cell_angle_gamma   110.09583665
_symmetry_Int_Tables_number   1
_chemical_formula_structural   Ce2Dy7Tm(Al2Os3)2
_chemical_formula_sum   'Ce2 Dy7 Tm1 Al4 Os6'
_cell_volume   449.25609599
_cell_formula_units_Z   1
loop_
 _symmetry_equiv_pos_site_id
 _symmetry_equiv_pos_as_xyz
  1  'x, y, z'
loop_
 _atom_site_type_symbol
 _atom_site_label
 _atom_site_symmetry_multiplicity
 _atom_site_fract_x
 _atom_site_fract_y
 _atom_site_fract_z
 _atom_site_occupancy
  Ce  Ce0  1  0.940064  0.251368  0.191962  1
  Ce  Ce1  1  0.192282  0.937520  0.250624  1
  Dy  Dy2  1  0.782613  0.786258  0.778989  1
  Dy  Dy3  1  0.320760  0.570161  0.754541  1
  Dy  Dy4  1  0.750860  0.320537  0.571977  1
  Dy  Dy5  1  0.568979  0.747360  0.315651  1
  Dy  Dy6  1  0.718071  0.502898  0.998648  1
  Dy  Dy7  1  0.000285  0.719429  0.507583  1
  Dy  Dy8  1  0.501269  0.993063  0.715743  1
  Tm  Tm9  1  0.252127  0.182366  0.926996  1
  Al  Al10  1  0.413608  0.409741  0.408880  1
  Al  Al11  1  0.091427  0.492329  0.997693  1
  Al  Al12  1  0.997351  0.089388  0.499909  1
  Al  Al13  1  0.501184  0.010265  0.093507  1
  Os  Os14  1  0.874119  0.121238  0.743004  1
  Os  Os15  1  0.749266  0.894572  0.122002  1
  Os  Os16  1  0.128689  0.757696  0.899645  1
  Os  Os17  1  0.233724  0.601388  0.367108  1
  Os  Os18  1  0.360826  0.230802  0.604010  1
  Os  Os19  1  0.622493  0.381625  0.251530  1
