# generated using pymatgen
data_La10Pr6MgCd3Ir4
_symmetry_space_group_name_H-M   'P 1'
_cell_length_a   10.09753727
_cell_length_b   10.09843215
_cell_length_c   10.09843755
_cell_angle_alpha   60.12753548
_cell_angle_beta   60.12631490
_cell_angle_gamma   60.12637134
_symmetry_Int_Tables_number   1
_chemical_formula_structural   La10Pr6MgCd3Ir4
_chemical_formula_sum   'La10 Pr6 Mg1 Cd3 Ir4'
_cell_volume   730.22008065
_cell_formula_units_Z   1
loop_
 _symmetry_equiv_pos_site_id
 _symmetry_equiv_pos_as_xyz
  1  'x, y, z'
loop_
 _atom_site_type_symbol
 _atom_site_label
 _atom_site_symmetry_multiplicity
 _atom_site_fract_x
 _atom_site_fract_y
 _atom_site_fract_z
 _atom_site_occupancy
  La  La0  1  0.346946  0.346952  0.346952  1
  La  La1  1  0.346889  0.346865  0.959821  1
  La  La2  1  0.346889  0.959821  0.346865  1
  La  La3  1  0.959822  0.346877  0.346877  1
  La  La4  1  0.809185  0.190779  0.190779  1
  La  La5  1  0.189074  0.809574  0.809576  1
  La  La6  1  0.190777  0.809179  0.190782  1
  La  La7  1  0.809580  0.189079  0.809573  1
  La  La8  1  0.190776  0.190782  0.809179  1
  La  La9  1  0.809580  0.809574  0.189078  1
  Pr  Pr10  1  0.938452  0.563497  0.563498  1
  Pr  Pr11  1  0.561420  0.937825  0.937826  1
  Pr  Pr12  1  0.563489  0.938487  0.563492  1
  Pr  Pr13  1  0.937808  0.561409  0.937839  1
  Pr  Pr14  1  0.563489  0.563492  0.938487  1
  Pr  Pr15  1  0.937809  0.937839  0.561409  1
  Mg  Mg16  1  0.575481  0.575460  0.575460  1
  Cd  Cd17  1  0.580989  0.580999  0.257786  1
  Cd  Cd18  1  0.580989  0.257786  0.580999  1
  Cd  Cd19  1  0.257795  0.580988  0.580988  1
  Ir  Ir20  1  0.141285  0.141269  0.141269  1
  Ir  Ir21  1  0.141792  0.141778  0.577892  1
  Ir  Ir22  1  0.141792  0.577892  0.141778  1
  Ir  Ir23  1  0.577890  0.141792  0.141792  1
