# generated using pymatgen
data_CrGa3Mo12(PtN)4
_symmetry_space_group_name_H-M   'P 1'
_cell_length_a   6.87213050
_cell_length_b   6.87213050
_cell_length_c   6.87213050
_cell_angle_alpha   90.46881417
_cell_angle_beta   89.53118583
_cell_angle_gamma   89.53118583
_symmetry_Int_Tables_number   1
_chemical_formula_structural   CrGa3Mo12(PtN)4
_chemical_formula_sum   'Cr1 Ga3 Mo12 Pt4 N4'
_cell_volume   324.51168390
_cell_formula_units_Z   1
loop_
 _symmetry_equiv_pos_site_id
 _symmetry_equiv_pos_as_xyz
  1  'x, y, z'
loop_
 _atom_site_type_symbol
 _atom_site_label
 _atom_site_symmetry_multiplicity
 _atom_site_fract_x
 _atom_site_fract_y
 _atom_site_fract_z
 _atom_site_occupancy
  Cr  Cr0  1  0.182533  0.817467  0.317467  1
  Ga  Ga1  1  0.319550  0.183684  0.820765  1
  Ga  Ga2  1  0.816316  0.320765  0.180450  1
  Ga  Ga3  1  0.679235  0.680450  0.683684  1
  Mo  Mo4  1  0.809241  0.958868  0.371348  1
  Mo  Mo5  1  0.703081  0.036993  0.875269  1
  Mo  Mo6  1  0.200265  0.474392  0.128827  1
  Mo  Mo7  1  0.293610  0.541138  0.620089  1
  Mo  Mo8  1  0.963007  0.375269  0.796919  1
  Mo  Mo9  1  0.041132  0.871348  0.690759  1
  Mo  Mo10  1  0.458862  0.120089  0.206390  1
  Mo  Mo11  1  0.525608  0.628827  0.299735  1
  Mo  Mo12  1  0.371173  0.799735  0.974392  1
  Mo  Mo13  1  0.879911  0.706390  0.041138  1
  Mo  Mo14  1  0.128652  0.190759  0.458868  1
  Mo  Mo15  1  0.624731  0.296919  0.536993  1
  Pt  Pt16  1  0.567483  0.432517  0.932517  1
  Pt  Pt17  1  0.436419  0.934492  0.568340  1
  Pt  Pt18  1  0.931660  0.563581  0.434492  1
  Pt  Pt19  1  0.065508  0.068340  0.063581  1
  N  N20  1  0.873579  0.126421  0.626421  1
  N  N21  1  0.628793  0.871610  0.128741  1
  N  N22  1  0.128390  0.628741  0.871207  1
  N  N23  1  0.371259  0.371207  0.371610  1
