# generated using pymatgen
data_Sb12PdRu2Pt
_symmetry_space_group_name_H-M   'P 1'
_cell_length_a   8.16540792
_cell_length_b   8.17185525
_cell_length_c   9.44231067
_cell_angle_alpha   54.81683963
_cell_angle_beta   54.65223304
_cell_angle_gamma   70.50991216
_symmetry_Int_Tables_number   1
_chemical_formula_structural   Sb12PdRu2Pt
_chemical_formula_sum   'Sb12 Pd1 Ru2 Pt1'
_cell_volume   420.02261845
_cell_formula_units_Z   1
loop_
 _symmetry_equiv_pos_site_id
 _symmetry_equiv_pos_as_xyz
  1  'x, y, z'
loop_
 _atom_site_type_symbol
 _atom_site_label
 _atom_site_symmetry_multiplicity
 _atom_site_fract_x
 _atom_site_fract_y
 _atom_site_fract_z
 _atom_site_occupancy
  Sb  Sb0  1  0.156559  0.157098  0.175848  1
  Sb  Sb1  1  0.843441  0.842902  0.824152  1
  Sb  Sb2  1  0.847921  0.848252  0.499517  1
  Sb  Sb3  1  0.152079  0.151748  0.500483  1
  Sb  Sb4  1  0.813655  0.504573  0.336083  1
  Sb  Sb5  1  0.186345  0.495427  0.663917  1
  Sb  Sb6  1  0.504337  0.813693  0.335890  1
  Sb  Sb7  1  0.495663  0.186307  0.664110  1
  Sb  Sb8  1  0.654758  0.336071  0.850388  1
  Sb  Sb9  1  0.345242  0.663929  0.149612  1
  Sb  Sb10  1  0.663512  0.345067  0.149740  1
  Sb  Sb11  1  0.336488  0.654933  0.850260  1
  Pd  Pd12  1  0.500000  0.000000  0.500000  1
  Ru  Ru13  1  0.000000  0.500000  0.000000  1
  Ru  Ru14  1  0.500000  0.000000  0.000000  1
  Pt  Pt15  1  0.000000  0.500000  0.500000  1
