# generated using pymatgen
data_Ca6Sm2BiSb5
_symmetry_space_group_name_H-M   'P 1'
_cell_length_a   8.28899264
_cell_length_b   8.21997210
_cell_length_c   8.27165894
_cell_angle_alpha   109.43993461
_cell_angle_beta   109.70250884
_cell_angle_gamma   109.48119430
_symmetry_Int_Tables_number   1
_chemical_formula_structural   Ca6Sm2BiSb5
_chemical_formula_sum   'Ca6 Sm2 Bi1 Sb5'
_cell_volume   432.72331906
_cell_formula_units_Z   1
loop_
 _symmetry_equiv_pos_site_id
 _symmetry_equiv_pos_as_xyz
  1  'x, y, z'
loop_
 _atom_site_type_symbol
 _atom_site_label
 _atom_site_symmetry_multiplicity
 _atom_site_fract_x
 _atom_site_fract_y
 _atom_site_fract_z
 _atom_site_occupancy
  Ca  Ca0  1  0.143313  0.501691  0.003589  1
  Ca  Ca1  1  0.644609  0.496775  0.002189  1
  Ca  Ca2  1  0.498286  0.001963  0.641571  1
  Ca  Ca3  1  0.359401  0.357118  0.353962  1
  Ca  Ca4  1  0.498636  0.002947  0.145347  1
  Ca  Ca5  1  0.997328  0.640790  0.495770  1
  Sm  Sm6  1  0.861704  0.860512  0.859562  1
  Sm  Sm7  1  0.997113  0.137864  0.498111  1
  Bi  Bi8  1  0.376426  0.623014  0.749128  1
  Sb  Sb9  1  0.873944  0.244031  0.124923  1
  Sb  Sb10  1  0.629592  0.755533  0.380671  1
  Sb  Sb11  1  0.121047  0.876923  0.247993  1
  Sb  Sb12  1  0.244218  0.123162  0.870918  1
  Sb  Sb13  1  0.754382  0.377677  0.626266  1
