# generated using pymatgen
data_Lu3Fe8Ru
_symmetry_space_group_name_H-M   'P 1'
_cell_length_a   5.03882017
_cell_length_b   5.03882130
_cell_length_c   8.69612600
_cell_angle_alpha   73.15902618
_cell_angle_beta   73.15902380
_cell_angle_gamma   60.00001122
_symmetry_Int_Tables_number   1
_chemical_formula_structural   Lu3Fe8Ru
_chemical_formula_sum   'Lu3 Fe8 Ru1'
_cell_volume   180.19461499
_cell_formula_units_Z   1
loop_
 _symmetry_equiv_pos_site_id
 _symmetry_equiv_pos_as_xyz
  1  'x, y, z'
loop_
 _atom_site_type_symbol
 _atom_site_label
 _atom_site_symmetry_multiplicity
 _atom_site_fract_x
 _atom_site_fract_y
 _atom_site_fract_z
 _atom_site_occupancy
  Lu  Lu0  1  0.141585  0.141585  0.575244  1
  Lu  Lu1  1  0.858415  0.858415  0.424756  1
  Lu  Lu2  1  0.000000  0.000000  0.000000  1
  Fe  Fe3  1  0.076107  0.582457  0.758979  1
  Fe  Fe4  1  0.582457  0.582457  0.758979  1
  Fe  Fe5  1  0.582457  0.076107  0.758979  1
  Fe  Fe6  1  0.923893  0.417543  0.241021  1
  Fe  Fe7  1  0.417543  0.417543  0.241021  1
  Fe  Fe8  1  0.417543  0.923893  0.241021  1
  Fe  Fe9  1  0.333308  0.333308  0.000077  1
  Fe  Fe10  1  0.666692  0.666692  0.999923  1
  Ru  Ru11  1  0.500000  0.500000  0.500000  1
