# generated using pymatgen
data_Y7Ho3(Bi3C)2
_symmetry_space_group_name_H-M   'P 1'
_cell_length_a   9.14719400
_cell_length_b   9.14719598
_cell_length_c   6.50998700
_cell_angle_alpha   90.00016561
_cell_angle_beta   90.00016302
_cell_angle_gamma   119.99366817
_symmetry_Int_Tables_number   1
_chemical_formula_structural   Y7Ho3(Bi3C)2
_chemical_formula_sum   'Y7 Ho3 Bi6 C2'
_cell_volume   471.75263369
_cell_formula_units_Z   1
loop_
 _symmetry_equiv_pos_site_id
 _symmetry_equiv_pos_as_xyz
  1  'x, y, z'
loop_
 _atom_site_type_symbol
 _atom_site_label
 _atom_site_symmetry_multiplicity
 _atom_site_fract_x
 _atom_site_fract_y
 _atom_site_fract_z
 _atom_site_occupancy
  Y  Y0  1  0.666629  0.333373  0.500102  1
  Y  Y1  1  0.333373  0.666629  0.500102  1
  Y  Y2  1  0.333378  0.666631  0.999907  1
  Y  Y3  1  0.666631  0.333378  0.999907  1
  Y  Y4  1  0.209019  0.209019  0.750003  1
  Y  Y5  1  0.791090  0.000090  0.749999  1
  Y  Y6  1  0.000090  0.791090  0.749999  1
  Ho  Ho7  1  0.793656  0.793656  0.249997  1
  Ho  Ho8  1  0.206224  0.999911  0.249989  1
  Ho  Ho9  1  0.999911  0.206224  0.249989  1
  Bi  Bi10  1  0.401647  0.401647  0.250002  1
  Bi  Bi11  1  0.598178  0.000011  0.250003  1
  Bi  Bi12  1  0.000011  0.598178  0.250003  1
  Bi  Bi13  1  0.598225  0.598225  0.750001  1
  Bi  Bi14  1  0.401957  0.999986  0.750003  1
  Bi  Bi15  1  0.999986  0.401957  0.750003  1
  C  C16  1  0.999997  0.999997  0.497167  1
  C  C17  1  0.000000  0.000000  0.002822  1
