# generated using pymatgen
data_PaBe12Ir
_symmetry_space_group_name_H-M   'P 1'
_cell_length_a   7.35074069
_cell_length_b   7.28983152
_cell_length_c   7.46244972
_cell_angle_alpha   120.21273875
_cell_angle_beta   89.54311569
_cell_angle_gamma   119.98975839
_symmetry_Int_Tables_number   1
_chemical_formula_structural   PaBe12Ir
_chemical_formula_sum   'Pa2 Be24 Ir2'
_cell_volume   283.00684456
_cell_formula_units_Z   2
loop_
 _symmetry_equiv_pos_site_id
 _symmetry_equiv_pos_as_xyz
  1  'x, y, z'
loop_
 _atom_site_type_symbol
 _atom_site_label
 _atom_site_symmetry_multiplicity
 _atom_site_fract_x
 _atom_site_fract_y
 _atom_site_fract_z
 _atom_site_occupancy
  Pa  Pa0  1  0.760288  0.506812  0.258120  1
  Pa  Pa1  1  0.256269  0.508836  0.758324  1
  Be  Be2  1  0.999154  0.998033  0.999366  1
  Be  Be3  1  0.302089  0.353673  0.057370  1
  Be  Be4  1  0.434160  0.002609  0.227649  1
  Be  Be5  1  0.223892  0.652046  0.228152  1
  Be  Be6  1  0.565155  0.775142  0.217851  1
  Be  Be7  1  0.288835  0.225558  0.293156  1
  Be  Be8  1  0.065520  0.362434  0.305817  1
  Be  Be9  1  0.934086  0.004358  0.290432  1
  Be  Be10  1  0.212818  0.003713  0.442130  1
  Be  Be11  1  0.785668  0.223503  0.437134  1
  Be  Be12  1  0.436604  0.642545  0.429923  1
  Be  Be13  1  0.503080  0.002325  0.507109  1
  Be  Be14  1  0.791328  0.996225  0.558178  1
  Be  Be15  1  0.559908  0.354412  0.564506  1
  Be  Be16  1  0.212953  0.773955  0.565049  1
  Be  Be17  1  0.062804  0.005686  0.708423  1
  Be  Be18  1  0.938273  0.644633  0.699439  1
  Be  Be19  1  0.709503  0.768224  0.698047  1
  Be  Be20  1  0.556544  0.994386  0.775442  1
  Be  Be21  1  0.429580  0.219728  0.781528  1
  Be  Be22  1  0.777100  0.339108  0.770430  1
  Be  Be23  1  0.302884  0.002695  0.943474  1
  Be  Be24  1  0.950072  0.252429  0.938930  1
  Be  Be25  1  0.695459  0.638147  0.931572  1
  Ir  Ir26  1  0.696597  0.010398  0.057005  1
  Ir  Ir27  1  0.049369  0.738385  0.055438  1
