# generated using pymatgen
data_Ta4V7Ir
_symmetry_space_group_name_H-M   'P 1'
_cell_length_a   5.04595100
_cell_length_b   5.04595060
_cell_length_c   8.27179900
_cell_angle_alpha   90.00000000
_cell_angle_beta   90.00000000
_cell_angle_gamma   120.00000919
_symmetry_Int_Tables_number   1
_chemical_formula_structural   Ta4V7Ir
_chemical_formula_sum   'Ta4 V7 Ir1'
_cell_volume   182.39653656
_cell_formula_units_Z   1
loop_
 _symmetry_equiv_pos_site_id
 _symmetry_equiv_pos_as_xyz
  1  'x, y, z'
loop_
 _atom_site_type_symbol
 _atom_site_label
 _atom_site_symmetry_multiplicity
 _atom_site_fract_x
 _atom_site_fract_y
 _atom_site_fract_z
 _atom_site_occupancy
  Ta  Ta0  1  0.333333  0.666667  0.938689  1
  Ta  Ta1  1  0.666667  0.333333  0.061311  1
  Ta  Ta2  1  0.666667  0.333333  0.441761  1
  Ta  Ta3  1  0.333333  0.666667  0.558239  1
  V  V4  1  0.170357  0.829643  0.246201  1
  V  V5  1  0.170357  0.340713  0.246201  1
  V  V6  1  0.659287  0.829643  0.246201  1
  V  V7  1  0.829643  0.170357  0.753799  1
  V  V8  1  0.829643  0.659287  0.753799  1
  V  V9  1  0.340713  0.170357  0.753799  1
  V  V10  1  0.000000  0.000000  0.000000  1
  Ir  Ir11  1  0.000000  0.000000  0.500000  1
