# generated using pymatgen
data_Rb6Cr(IrBr6)3
_symmetry_space_group_name_H-M   'P 1'
_cell_length_a   7.53232800
_cell_length_b   7.53232802
_cell_length_c   19.37616800
_cell_angle_alpha   90.00000000
_cell_angle_beta   90.00000000
_cell_angle_gamma   119.99999112
_symmetry_Int_Tables_number   1
_chemical_formula_structural   Rb6Cr(IrBr6)3
_chemical_formula_sum   'Rb6 Cr1 Ir3 Br18'
_cell_volume   952.04397711
_cell_formula_units_Z   1
loop_
 _symmetry_equiv_pos_site_id
 _symmetry_equiv_pos_as_xyz
  1  'x, y, z'
loop_
 _atom_site_type_symbol
 _atom_site_label
 _atom_site_symmetry_multiplicity
 _atom_site_fract_x
 _atom_site_fract_y
 _atom_site_fract_z
 _atom_site_occupancy
  Rb  Rb0  1  0.666667  0.333333  0.559496  1
  Rb  Rb1  1  0.333333  0.666667  0.063400  1
  Rb  Rb2  1  0.333333  0.666667  0.433734  1
  Rb  Rb3  1  0.666667  0.333333  0.940936  1
  Rb  Rb4  1  0.000000  0.000000  0.250669  1
  Rb  Rb5  1  0.000000  0.000000  0.749873  1
  Cr  Cr6  1  0.666667  0.333333  0.165107  1
  Ir  Ir7  1  0.333333  0.666667  0.664110  1
  Ir  Ir8  1  0.666667  0.333333  0.331972  1
  Ir  Ir9  1  0.333333  0.666667  0.835533  1
  Br  Br10  1  0.823765  0.647530  0.405085  1
  Br  Br11  1  0.176480  0.823520  0.590941  1
  Br  Br12  1  0.647039  0.823520  0.590941  1
  Br  Br13  1  0.823765  0.176235  0.405085  1
  Br  Br14  1  0.352470  0.176235  0.405085  1
  Br  Br15  1  0.176447  0.352894  0.908803  1
  Br  Br16  1  0.035413  0.517707  0.749881  1
  Br  Br17  1  0.647106  0.823553  0.908803  1
  Br  Br18  1  0.824984  0.649968  0.095712  1
  Br  Br19  1  0.176480  0.352961  0.590941  1
  Br  Br20  1  0.482293  0.964587  0.749881  1
  Br  Br21  1  0.513010  0.486990  0.251300  1
  Br  Br22  1  0.482293  0.517707  0.749881  1
  Br  Br23  1  0.176447  0.823553  0.908803  1
  Br  Br24  1  0.350032  0.175016  0.095712  1
  Br  Br25  1  0.973981  0.486990  0.251300  1
  Br  Br26  1  0.513010  0.026019  0.251300  1
  Br  Br27  1  0.824984  0.175016  0.095712  1
