# generated using pymatgen
data_VTe2Br13
_symmetry_space_group_name_H-M   'P 1'
_cell_length_a   12.32675300
_cell_length_b   10.01447697
_cell_length_c   10.94633153
_cell_angle_alpha   76.64177388
_cell_angle_beta   90.00000000
_cell_angle_gamma   90.00000000
_symmetry_Int_Tables_number   1
_chemical_formula_structural   VTe2Br13
_chemical_formula_sum   'V2 Te4 Br26'
_cell_volume   1314.72120917
_cell_formula_units_Z   2
loop_
 _symmetry_equiv_pos_site_id
 _symmetry_equiv_pos_as_xyz
  1  'x, y, z'
loop_
 _atom_site_type_symbol
 _atom_site_label
 _atom_site_symmetry_multiplicity
 _atom_site_fract_x
 _atom_site_fract_y
 _atom_site_fract_z
 _atom_site_occupancy
  V  V0  1  0.250000  0.265727  0.505363  1
  V  V1  1  0.750000  0.734273  0.494637  1
  Te  Te2  1  0.250000  0.842684  0.117384  1
  Te  Te3  1  0.750000  0.157316  0.882616  1
  Te  Te4  1  0.250000  0.668025  0.839048  1
  Te  Te5  1  0.750000  0.331975  0.160952  1
  Br  Br6  1  0.600269  0.800201  0.582518  1
  Br  Br7  1  0.100269  0.199799  0.417482  1
  Br  Br8  1  0.750000  0.449087  0.893022  1
  Br  Br9  1  0.250000  0.550913  0.106978  1
  Br  Br10  1  0.903776  0.139576  0.085529  1
  Br  Br11  1  0.403776  0.860424  0.914471  1
  Br  Br12  1  0.096224  0.860424  0.914471  1
  Br  Br13  1  0.596224  0.139576  0.085529  1
  Br  Br14  1  0.750000  0.190318  0.395456  1
  Br  Br15  1  0.250000  0.809682  0.604544  1
  Br  Br16  1  0.905467  0.493041  0.198338  1
  Br  Br17  1  0.405467  0.506959  0.801662  1
  Br  Br18  1  0.094533  0.506959  0.801662  1
  Br  Br19  1  0.594533  0.493041  0.198338  1
  Br  Br20  1  0.750000  0.893227  0.907742  1
  Br  Br21  1  0.250000  0.106773  0.092258  1
  Br  Br22  1  0.906046  0.200650  0.713855  1
  Br  Br23  1  0.406046  0.799350  0.286145  1
  Br  Br24  1  0.093954  0.799350  0.286145  1
  Br  Br25  1  0.593954  0.200650  0.713855  1
  Br  Br26  1  0.750000  0.823612  0.287469  1
  Br  Br27  1  0.250000  0.176388  0.712531  1
  Br  Br28  1  0.750000  0.505388  0.527086  1
  Br  Br29  1  0.250000  0.494612  0.472914  1
  Br  Br30  1  0.899731  0.800201  0.582518  1
  Br  Br31  1  0.399731  0.199799  0.417482  1
