# generated using pymatgen
data_Tb8Si16OsW11
_symmetry_space_group_name_H-M   'P 1'
_cell_length_a   6.88827964
_cell_length_b   6.88827962
_cell_length_c   12.78230723
_cell_angle_alpha   89.96964438
_cell_angle_beta   89.96964489
_cell_angle_gamma   90.10172678
_symmetry_Int_Tables_number   1
_chemical_formula_structural   Tb8Si16OsW11
_chemical_formula_sum   'Tb8 Si16 Os1 W11'
_cell_volume   606.49885170
_cell_formula_units_Z   1
loop_
 _symmetry_equiv_pos_site_id
 _symmetry_equiv_pos_as_xyz
  1  'x, y, z'
loop_
 _atom_site_type_symbol
 _atom_site_label
 _atom_site_symmetry_multiplicity
 _atom_site_fract_x
 _atom_site_fract_y
 _atom_site_fract_z
 _atom_site_occupancy
  Tb  Tb0  1  0.001812  0.336676  0.218867  1
  Tb  Tb1  1  0.996780  0.661788  0.718879  1
  Tb  Tb2  1  0.163655  0.501417  0.469953  1
  Tb  Tb3  1  0.498583  0.836345  0.030047  1
  Tb  Tb4  1  0.836776  0.497991  0.968312  1
  Tb  Tb5  1  0.502009  0.163224  0.531688  1
  Tb  Tb6  1  0.338212  0.003220  0.781121  1
  Tb  Tb7  1  0.663324  0.998188  0.281133  1
  Si  Si8  1  0.375055  0.298352  0.316172  1
  Si  Si9  1  0.621392  0.697377  0.814676  1
  Si  Si10  1  0.201435  0.875044  0.566322  1
  Si  Si11  1  0.124956  0.798565  0.933678  1
  Si  Si12  1  0.797354  0.125504  0.065195  1
  Si  Si13  1  0.874496  0.202646  0.434805  1
  Si  Si14  1  0.302623  0.378608  0.685324  1
  Si  Si15  1  0.701648  0.624945  0.183828  1
  Si  Si16  1  0.288148  0.035254  0.186121  1
  Si  Si17  1  0.715872  0.966524  0.687596  1
  Si  Si18  1  0.463695  0.789973  0.435887  1
  Si  Si19  1  0.210027  0.536305  0.064113  1
  Si  Si20  1  0.537609  0.212556  0.933725  1
  Si  Si21  1  0.787444  0.462391  0.566275  1
  Si  Si22  1  0.033476  0.284128  0.812404  1
  Si  Si23  1  0.964746  0.711852  0.313879  1
  Os  Os24  1  0.668150  0.331850  0.750000  1
  W  W25  1  0.166741  0.166008  0.000302  1
  W  W26  1  0.833992  0.833259  0.499698  1
  W  W27  1  0.332880  0.667120  0.250000  1
  W  W28  1  0.164563  0.001167  0.376827  1
  W  W29  1  0.834068  0.993335  0.877251  1
  W  W30  1  0.499009  0.668926  0.625649  1
  W  W31  1  0.331074  0.500991  0.874351  1
  W  W32  1  0.498521  0.335619  0.124747  1
  W  W33  1  0.664381  0.501479  0.375253  1
  W  W34  1  0.006665  0.165932  0.622749  1
  W  W35  1  0.998833  0.835437  0.123173  1
