# generated using pymatgen
data_Ta2TiNb3C5
_symmetry_space_group_name_H-M   'P 1'
_cell_length_a   5.46746751
_cell_length_b   5.47947643
_cell_length_c   5.47768634
_cell_angle_alpha   80.35026572
_cell_angle_beta   80.12415855
_cell_angle_gamma   119.90329228
_symmetry_Int_Tables_number   1
_chemical_formula_structural   Ta2TiNb3C5
_chemical_formula_sum   'Ta2 Ti1 Nb3 C5'
_cell_volume   133.85189342
_cell_formula_units_Z   1
loop_
 _symmetry_equiv_pos_site_id
 _symmetry_equiv_pos_as_xyz
  1  'x, y, z'
loop_
 _atom_site_type_symbol
 _atom_site_label
 _atom_site_symmetry_multiplicity
 _atom_site_fract_x
 _atom_site_fract_y
 _atom_site_fract_z
 _atom_site_occupancy
  Ta  Ta0  1  0.733866  0.734206  0.733898  1
  Ta  Ta1  1  0.263474  0.265379  0.266562  1
  Ti  Ti2  1  0.082338  0.441174  0.745720  1
  Nb  Nb3  1  0.563676  0.918638  0.251460  1
  Nb  Nb4  1  0.919113  0.563937  0.251434  1
  Nb  Nb5  1  0.438447  0.082128  0.747783  1
  C  C6  1  0.492420  0.497633  0.504073  1
  C  C7  1  0.669931  0.338501  0.996543  1
  C  C8  1  0.332712  0.658841  0.995940  1
  C  C9  1  0.839438  0.168034  0.503774  1
  C  C10  1  0.164585  0.831530  0.502811  1
