# generated using pymatgen
data_Ho5Co2Ag
_symmetry_space_group_name_H-M   'P 1'
_cell_length_a   8.50487248
_cell_length_b   8.50487340
_cell_length_c   8.50487306
_cell_angle_alpha   127.58638752
_cell_angle_beta   127.58639712
_cell_angle_gamma   77.29601844
_symmetry_Int_Tables_number   1
_chemical_formula_structural   Ho5Co2Ag
_chemical_formula_sum   'Ho10 Co4 Ag2'
_cell_volume   374.79657369
_cell_formula_units_Z   2
loop_
 _symmetry_equiv_pos_site_id
 _symmetry_equiv_pos_as_xyz
  1  'x, y, z'
loop_
 _atom_site_type_symbol
 _atom_site_label
 _atom_site_symmetry_multiplicity
 _atom_site_fract_x
 _atom_site_fract_y
 _atom_site_fract_z
 _atom_site_occupancy
  Ho  Ho0  1  0.706138  0.528719  0.500000  1
  Ho  Ho1  1  0.471281  0.971281  0.177419  1
  Ho  Ho2  1  0.793862  0.293862  0.822581  1
  Ho  Ho3  1  0.528719  0.028719  0.822581  1
  Ho  Ho4  1  0.000000  0.000000  0.000000  1
  Ho  Ho5  1  0.028719  0.206138  0.500000  1
  Ho  Ho6  1  0.293862  0.471281  0.500000  1
  Ho  Ho7  1  0.206138  0.706138  0.177419  1
  Ho  Ho8  1  0.971281  0.793862  0.500000  1
  Ho  Ho9  1  0.500000  0.500000  0.000000  1
  Co  Co10  1  0.135544  0.635544  0.771087  1
  Co  Co11  1  0.864456  0.364456  0.228913  1
  Co  Co12  1  0.635544  0.864456  0.500000  1
  Co  Co13  1  0.364456  0.135544  0.500000  1
  Ag  Ag14  1  0.250000  0.250000  0.000000  1
  Ag  Ag15  1  0.750000  0.750000  0.000000  1
