# generated using pymatgen
data_Mn3Pd2Pt3
_symmetry_space_group_name_H-M   'P 1'
_cell_length_a   5.46660323
_cell_length_b   5.48270691
_cell_length_c   4.07360200
_cell_angle_alpha   90.00000000
_cell_angle_beta   90.00000000
_cell_angle_gamma   95.69012933
_symmetry_Int_Tables_number   1
_chemical_formula_structural   Mn3Pd2Pt3
_chemical_formula_sum   'Mn3 Pd2 Pt3'
_cell_volume   121.49152276
_cell_formula_units_Z   1
loop_
 _symmetry_equiv_pos_site_id
 _symmetry_equiv_pos_as_xyz
  1  'x, y, z'
loop_
 _atom_site_type_symbol
 _atom_site_label
 _atom_site_symmetry_multiplicity
 _atom_site_fract_x
 _atom_site_fract_y
 _atom_site_fract_z
 _atom_site_occupancy
  Mn  Mn0  1  0.000000  0.000000  0.000000  1
  Mn  Mn1  1  0.273348  0.727912  0.500000  1
  Mn  Mn2  1  0.726652  0.272088  0.500000  1
  Pd  Pd3  1  0.500000  0.500000  0.000000  1
  Pd  Pd4  1  0.000000  0.500000  0.000000  1
  Pt  Pt5  1  0.500000  0.000000  0.000000  1
  Pt  Pt6  1  0.225020  0.225392  0.500000  1
  Pt  Pt7  1  0.774980  0.774608  0.500000  1
