# generated using pymatgen
data_Tb10FeCo3Te4
_symmetry_space_group_name_H-M   'P 1'
_cell_length_a   7.79786084
_cell_length_b   7.79786056
_cell_length_c   15.09160100
_cell_angle_alpha   90.00000000
_cell_angle_beta   90.00000000
_cell_angle_gamma   150.48808103
_symmetry_Int_Tables_number   1
_chemical_formula_structural   Tb10FeCo3Te4
_chemical_formula_sum   'Tb10 Fe1 Co3 Te4'
_cell_volume   452.04818281
_cell_formula_units_Z   1
loop_
 _symmetry_equiv_pos_site_id
 _symmetry_equiv_pos_as_xyz
  1  'x, y, z'
loop_
 _atom_site_type_symbol
 _atom_site_label
 _atom_site_symmetry_multiplicity
 _atom_site_fract_x
 _atom_site_fract_y
 _atom_site_fract_z
 _atom_site_occupancy
  Tb  Tb0  1  0.960584  0.039416  0.373841  1
  Tb  Tb1  1  0.037569  0.962431  0.622198  1
  Tb  Tb2  1  0.037569  0.962431  0.877802  1
  Tb  Tb3  1  0.960584  0.039416  0.126159  1
  Tb  Tb4  1  0.742792  0.257208  0.627739  1
  Tb  Tb5  1  0.258309  0.741691  0.368816  1
  Tb  Tb6  1  0.258309  0.741691  0.131184  1
  Tb  Tb7  1  0.742792  0.257208  0.872261  1
  Tb  Tb8  1  0.397257  0.602743  0.750000  1
  Tb  Tb9  1  0.605901  0.394099  0.250000  1
  Fe  Fe10  1  0.595261  0.404739  0.750000  1
  Co  Co11  1  0.819716  0.180284  0.250000  1
  Co  Co12  1  0.172850  0.827150  0.750000  1
  Co  Co13  1  0.412321  0.587679  0.250000  1
  Te  Te14  1  0.617291  0.382709  0.038913  1
  Te  Te15  1  0.381802  0.618198  0.962264  1
  Te  Te16  1  0.381802  0.618198  0.537736  1
  Te  Te17  1  0.617291  0.382709  0.461087  1
