# generated using pymatgen
data_Y6Zn4Pd2Pt11
_symmetry_space_group_name_H-M   'P 1'
_cell_length_a   8.27691201
_cell_length_b   8.27691169
_cell_length_c   8.27387161
_cell_angle_alpha   109.44179064
_cell_angle_beta   109.44179127
_cell_angle_gamma   109.49902834
_symmetry_Int_Tables_number   1
_chemical_formula_structural   Y6Zn4Pd2Pt11
_chemical_formula_sum   'Y6 Zn4 Pd2 Pt11'
_cell_volume   436.50553681
_cell_formula_units_Z   1
loop_
 _symmetry_equiv_pos_site_id
 _symmetry_equiv_pos_as_xyz
  1  'x, y, z'
loop_
 _atom_site_type_symbol
 _atom_site_label
 _atom_site_symmetry_multiplicity
 _atom_site_fract_x
 _atom_site_fract_y
 _atom_site_fract_z
 _atom_site_occupancy
  Y  Y0  1  0.699504  0.699504  0.002099  1
  Y  Y1  1  0.300148  0.999663  0.300096  1
  Y  Y2  1  0.999663  0.300148  0.300096  1
  Y  Y3  1  0.301074  0.301074  0.000095  1
  Y  Y4  1  0.700352  0.000690  0.699267  1
  Y  Y5  1  0.000690  0.700352  0.699267  1
  Zn  Zn6  1  0.000016  0.000016  0.500020  1
  Zn  Zn7  1  0.999255  0.499539  0.999243  1
  Zn  Zn8  1  0.499539  0.999255  0.999243  1
  Zn  Zn9  1  0.499839  0.499839  0.500604  1
  Pd  Pd10  1  0.666716  0.333754  0.666658  1
  Pd  Pd11  1  0.333754  0.666716  0.666658  1
  Pt  Pt12  1  0.332760  0.332760  0.664717  1
  Pt  Pt13  1  0.667292  0.000599  0.332928  1
  Pt  Pt14  1  0.000599  0.667292  0.332928  1
  Pt  Pt15  1  0.667755  0.332356  0.000065  1
  Pt  Pt16  1  0.332861  0.665351  0.332972  1
  Pt  Pt17  1  0.000475  0.333503  0.667454  1
  Pt  Pt18  1  0.332356  0.667755  0.000065  1
  Pt  Pt19  1  0.333503  0.000475  0.667454  1
  Pt  Pt20  1  0.665351  0.332861  0.332972  1
  Pt  Pt21  1  0.667455  0.667455  0.335734  1
  Pt  Pt22  1  0.999043  0.999043  0.999366  1
