# generated using pymatgen
data_Lu4Pa4Re3B24W
_symmetry_space_group_name_H-M   'P 1'
_cell_length_a   3.69838500
_cell_length_b   9.10739731
_cell_length_c   11.47245739
_cell_angle_alpha   89.97019233
_cell_angle_beta   90.00000000
_cell_angle_gamma   90.00000000
_symmetry_Int_Tables_number   1
_chemical_formula_structural   Lu4Pa4Re3B24W
_chemical_formula_sum   'Lu4 Pa4 Re3 B24 W1'
_cell_volume   386.42284756
_cell_formula_units_Z   1
loop_
 _symmetry_equiv_pos_site_id
 _symmetry_equiv_pos_as_xyz
  1  'x, y, z'
loop_
 _atom_site_type_symbol
 _atom_site_label
 _atom_site_symmetry_multiplicity
 _atom_site_fract_x
 _atom_site_fract_y
 _atom_site_fract_z
 _atom_site_occupancy
  Lu  Lu0  1  0.000000  0.945672  0.374237  1
  Lu  Lu1  1  0.000000  0.054966  0.626004  1
  Lu  Lu2  1  0.000000  0.445481  0.125312  1
  Lu  Lu3  1  0.000000  0.554986  0.873885  1
  Pa  Pa4  1  0.000000  0.321906  0.413040  1
  Pa  Pa5  1  0.000000  0.678896  0.585851  1
  Pa  Pa6  1  0.000000  0.820742  0.087414  1
  Pa  Pa7  1  0.000000  0.178084  0.913852  1
  Re  Re8  1  0.000000  0.360190  0.679752  1
  Re  Re9  1  0.000000  0.139617  0.178564  1
  Re  Re10  1  0.000000  0.861191  0.820967  1
  B  B11  1  0.500000  0.552700  0.433935  1
  B  B12  1  0.500000  0.446047  0.567722  1
  B  B13  1  0.500000  0.053577  0.066733  1
  B  B14  1  0.500000  0.946428  0.933265  1
  B  B15  1  0.500000  0.750057  0.420943  1
  B  B16  1  0.500000  0.250223  0.580354  1
  B  B17  1  0.500000  0.250333  0.079998  1
  B  B18  1  0.500000  0.749764  0.919461  1
  B  B19  1  0.500000  0.795005  0.264489  1
  B  B20  1  0.500000  0.205979  0.734702  1
  B  B21  1  0.500000  0.293182  0.234362  1
  B  B22  1  0.500000  0.706489  0.765404  1
  B  B23  1  0.500000  0.632535  0.183333  1
  B  B24  1  0.500000  0.367721  0.815914  1
  B  B25  1  0.500000  0.131580  0.315320  1
  B  B26  1  0.500000  0.868411  0.684441  1
  B  B27  1  0.500000  0.982647  0.213775  1
  B  B28  1  0.500000  0.017576  0.786082  1
  B  B29  1  0.500000  0.480826  0.285851  1
  B  B30  1  0.500000  0.517324  0.714157  1
  B  B31  1  0.500000  0.606563  0.028384  1
  B  B32  1  0.500000  0.393465  0.970402  1
  B  B33  1  0.500000  0.106496  0.470720  1
  B  B34  1  0.500000  0.894334  0.530381  1
  W  W35  1  0.000000  0.639010  0.320992  1
