# generated using pymatgen
data_Er10In7Hg
_symmetry_space_group_name_H-M   'P 1'
_cell_length_a   9.19607100
_cell_length_b   9.19607153
_cell_length_c   6.65296600
_cell_angle_alpha   90.00000000
_cell_angle_beta   90.00000000
_cell_angle_gamma   119.99999450
_symmetry_Int_Tables_number   1
_chemical_formula_structural   Er10In7Hg
_chemical_formula_sum   'Er10 In7 Hg1'
_cell_volume   487.24861805
_cell_formula_units_Z   1
loop_
 _symmetry_equiv_pos_site_id
 _symmetry_equiv_pos_as_xyz
  1  'x, y, z'
loop_
 _atom_site_type_symbol
 _atom_site_label
 _atom_site_symmetry_multiplicity
 _atom_site_fract_x
 _atom_site_fract_y
 _atom_site_fract_z
 _atom_site_occupancy
  Er  Er0  1  0.333333  0.666667  0.500000  1
  Er  Er1  1  0.666667  0.333333  0.500000  1
  Er  Er2  1  0.666667  0.333333  0.000000  1
  Er  Er3  1  0.333333  0.666667  0.000000  1
  Er  Er4  1  0.288467  0.000000  0.749521  1
  Er  Er5  1  0.711533  0.000000  0.250479  1
  Er  Er6  1  0.000000  0.288467  0.749521  1
  Er  Er7  1  0.000000  0.711533  0.250479  1
  Er  Er8  1  0.711533  0.711533  0.749521  1
  Er  Er9  1  0.288467  0.288467  0.250479  1
  In  In10  1  0.000000  0.000000  0.000000  1
  In  In11  1  0.627114  0.000000  0.750077  1
  In  In12  1  0.372886  0.000000  0.249923  1
  In  In13  1  0.000000  0.627114  0.750077  1
  In  In14  1  0.000000  0.372886  0.249923  1
  In  In15  1  0.372886  0.372886  0.750077  1
  In  In16  1  0.627114  0.627114  0.249923  1
  Hg  Hg17  1  0.000000  0.000000  0.500000  1
