# generated using pymatgen
data_Pr2NdScAl11Ru4
_symmetry_space_group_name_H-M   'P 1'
_cell_length_a   8.99443621
_cell_length_b   8.99443737
_cell_length_c   9.71883118
_cell_angle_alpha   89.98112683
_cell_angle_beta   90.01887138
_cell_angle_gamma   120.05219607
_symmetry_Int_Tables_number   1
_chemical_formula_structural   Pr2NdScAl11Ru4
_chemical_formula_sum   'Pr4 Nd2 Sc2 Al22 Ru8'
_cell_volume   680.55608827
_cell_formula_units_Z   2
loop_
 _symmetry_equiv_pos_site_id
 _symmetry_equiv_pos_as_xyz
  1  'x, y, z'
loop_
 _atom_site_type_symbol
 _atom_site_label
 _atom_site_symmetry_multiplicity
 _atom_site_fract_x
 _atom_site_fract_y
 _atom_site_fract_z
 _atom_site_occupancy
  Pr  Pr0  1  0.190054  0.380001  0.255304  1
  Pr  Pr1  1  0.809946  0.619999  0.744696  1
  Pr  Pr2  1  0.619999  0.809946  0.255304  1
  Pr  Pr3  1  0.380001  0.190054  0.744696  1
  Nd  Nd4  1  0.190038  0.809962  0.255470  1
  Nd  Nd5  1  0.809962  0.190038  0.744530  1
  Sc  Sc6  1  0.333257  0.666743  0.998919  1
  Sc  Sc7  1  0.666743  0.333257  0.001081  1
  Al  Al8  1  0.666800  0.333200  0.509305  1
  Al  Al9  1  0.333200  0.666800  0.490695  1
  Al  Al10  1  0.162015  0.324862  0.576093  1
  Al  Al11  1  0.837985  0.675138  0.423907  1
  Al  Al12  1  0.675138  0.837985  0.576093  1
  Al  Al13  1  0.842339  0.683996  0.076353  1
  Al  Al14  1  0.324862  0.162015  0.423907  1
  Al  Al15  1  0.157661  0.316004  0.923647  1
  Al  Al16  1  0.162517  0.837483  0.575564  1
  Al  Al17  1  0.316004  0.157661  0.076353  1
  Al  Al18  1  0.837483  0.162517  0.424436  1
  Al  Al19  1  0.683996  0.842339  0.923647  1
  Al  Al20  1  0.841943  0.158057  0.075794  1
  Al  Al21  1  0.158057  0.841943  0.924206  1
  Al  Al22  1  0.561142  0.122652  0.251944  1
  Al  Al23  1  0.438858  0.877348  0.748056  1
  Al  Al24  1  0.877348  0.438858  0.251944  1
  Al  Al25  1  0.122652  0.561142  0.748056  1
  Al  Al26  1  0.561715  0.438285  0.251909  1
  Al  Al27  1  0.438285  0.561715  0.748091  1
  Al  Al28  1  0.000432  0.999568  0.250222  1
  Al  Al29  1  0.999568  0.000432  0.749778  1
  Ru  Ru30  1  0.500000  0.000000  0.000000  1
  Ru  Ru31  1  0.000000  0.500000  0.000000  1
  Ru  Ru32  1  0.500000  0.000000  0.500000  1
  Ru  Ru33  1  0.500000  0.500000  0.000000  1
  Ru  Ru34  1  0.000000  0.500000  0.500000  1
  Ru  Ru35  1  0.500000  0.500000  0.500000  1
  Ru  Ru36  1  0.000000  0.000000  0.000000  1
  Ru  Ru37  1  0.000000  0.000000  0.500000  1
