# generated using pymatgen
data_U3CdF15
_symmetry_space_group_name_H-M   'P 1'
_cell_length_a   7.83358084
_cell_length_b   7.83358087
_cell_length_c   7.83358200
_cell_angle_alpha   112.74879772
_cell_angle_beta   112.74880574
_cell_angle_gamma   112.74882445
_symmetry_Int_Tables_number   1
_chemical_formula_structural   U3CdF15
_chemical_formula_sum   'U3 Cd1 F15'
_cell_volume   317.32674359
_cell_formula_units_Z   1
loop_
 _symmetry_equiv_pos_site_id
 _symmetry_equiv_pos_as_xyz
  1  'x, y, z'
loop_
 _atom_site_type_symbol
 _atom_site_label
 _atom_site_symmetry_multiplicity
 _atom_site_fract_x
 _atom_site_fract_y
 _atom_site_fract_z
 _atom_site_occupancy
  U  U0  1  0.857398  0.277280  0.857398  1
  U  U1  1  0.277280  0.857398  0.857398  1
  U  U2  1  0.857398  0.857398  0.277280  1
  Cd  Cd3  1  0.497634  0.497634  0.497634  1
  F  F4  1  0.610119  0.944352  0.151355  1
  F  F5  1  0.944352  0.151355  0.610119  1
  F  F6  1  0.151355  0.610119  0.944352  1
  F  F7  1  0.944352  0.610119  0.151355  1
  F  F8  1  0.596148  0.596148  0.240376  1
  F  F9  1  0.240376  0.596148  0.596148  1
  F  F10  1  0.596148  0.240376  0.596148  1
  F  F11  1  0.143006  0.143006  0.354547  1
  F  F12  1  0.354547  0.143006  0.143006  1
  F  F13  1  0.143006  0.354547  0.143006  1
  F  F14  1  0.660660  0.660660  0.891252  1
  F  F15  1  0.891252  0.660660  0.660660  1
  F  F16  1  0.660660  0.891252  0.660660  1
  F  F17  1  0.151355  0.944352  0.610119  1
  F  F18  1  0.610119  0.151355  0.944352  1
