# generated using pymatgen
data_Rb8Li4Dy3GaSb8
_symmetry_space_group_name_H-M   'P 1'
_cell_length_a   11.10704913
_cell_length_b   11.10704999
_cell_length_c   7.18191266
_cell_angle_alpha   90.03989385
_cell_angle_beta   89.96010684
_cell_angle_gamma   99.73220974
_symmetry_Int_Tables_number   1
_chemical_formula_structural   Rb8Li4Dy3GaSb8
_chemical_formula_sum   'Rb8 Li4 Dy3 Ga1 Sb8'
_cell_volume   873.25652735
_cell_formula_units_Z   1
loop_
 _symmetry_equiv_pos_site_id
 _symmetry_equiv_pos_as_xyz
  1  'x, y, z'
loop_
 _atom_site_type_symbol
 _atom_site_label
 _atom_site_symmetry_multiplicity
 _atom_site_fract_x
 _atom_site_fract_y
 _atom_site_fract_z
 _atom_site_occupancy
  Rb  Rb0  1  0.569155  0.929039  0.746933  1
  Rb  Rb1  1  0.929039  0.569155  0.253067  1
  Rb  Rb2  1  0.428035  0.081386  0.257561  1
  Rb  Rb3  1  0.081386  0.428035  0.742439  1
  Rb  Rb4  1  0.667924  0.322114  0.772769  1
  Rb  Rb5  1  0.825276  0.176735  0.280908  1
  Rb  Rb6  1  0.322114  0.667924  0.227231  1
  Rb  Rb7  1  0.176735  0.825276  0.719092  1
  Li  Li8  1  0.617354  0.617354  0.000000  1
  Li  Li9  1  0.877665  0.877665  0.500000  1
  Li  Li10  1  0.377968  0.377968  0.000000  1
  Li  Li11  1  0.125241  0.125241  0.500000  1
  Dy  Dy12  1  0.868874  0.868874  0.000000  1
  Dy  Dy13  1  0.624506  0.624506  0.500000  1
  Dy  Dy14  1  0.133914  0.133914  0.000000  1
  Ga  Ga15  1  0.376545  0.376545  0.500000  1
  Sb  Sb16  1  0.348348  0.168687  0.735067  1
  Sb  Sb17  1  0.168687  0.348348  0.264933  1
  Sb  Sb18  1  0.649202  0.845202  0.249479  1
  Sb  Sb19  1  0.845202  0.649202  0.750521  1
  Sb  Sb20  1  0.905230  0.098153  0.762468  1
  Sb  Sb21  1  0.584892  0.398552  0.266484  1
  Sb  Sb22  1  0.098153  0.905230  0.237532  1
  Sb  Sb23  1  0.398552  0.584892  0.733516  1
