# generated using pymatgen
data_Tb4ScIr2Rh
_symmetry_space_group_name_H-M   'P 1'
_cell_length_a   10.79307000
_cell_length_b   10.79307000
_cell_length_c   6.29405300
_cell_angle_alpha   90.00000000
_cell_angle_beta   90.00000000
_cell_angle_gamma   90.00000000
_symmetry_Int_Tables_number   1
_chemical_formula_structural   Tb4ScIr2Rh
_chemical_formula_sum   'Tb16 Sc4 Ir8 Rh4'
_cell_volume   733.19649999
_cell_formula_units_Z   4
loop_
 _symmetry_equiv_pos_site_id
 _symmetry_equiv_pos_as_xyz
  1  'x, y, z'
loop_
 _atom_site_type_symbol
 _atom_site_label
 _atom_site_symmetry_multiplicity
 _atom_site_fract_x
 _atom_site_fract_y
 _atom_site_fract_z
 _atom_site_occupancy
  Tb  Tb0  1  0.286772  0.086651  0.378886  1
  Tb  Tb1  1  0.286772  0.913349  0.878886  1
  Tb  Tb2  1  0.713228  0.086651  0.878886  1
  Tb  Tb3  1  0.713228  0.913349  0.378886  1
  Tb  Tb4  1  0.586651  0.786772  0.878886  1
  Tb  Tb5  1  0.586651  0.213228  0.378886  1
  Tb  Tb6  1  0.413349  0.786772  0.378886  1
  Tb  Tb7  1  0.413349  0.213228  0.878886  1
  Tb  Tb8  1  0.213228  0.413349  0.621114  1
  Tb  Tb9  1  0.213228  0.586651  0.121114  1
  Tb  Tb10  1  0.786772  0.413349  0.121114  1
  Tb  Tb11  1  0.786772  0.586651  0.621114  1
  Tb  Tb12  1  0.913349  0.713228  0.121114  1
  Tb  Tb13  1  0.913349  0.286772  0.621114  1
  Tb  Tb14  1  0.086651  0.713228  0.621114  1
  Tb  Tb15  1  0.086651  0.286772  0.121114  1
  Sc  Sc16  1  0.000000  0.000000  0.500000  1
  Sc  Sc17  1  0.000000  0.000000  0.000000  1
  Sc  Sc18  1  0.500000  0.500000  0.000000  1
  Sc  Sc19  1  0.500000  0.500000  0.500000  1
  Ir  Ir20  1  0.852848  0.147152  0.250000  1
  Ir  Ir21  1  0.852848  0.852848  0.750000  1
  Ir  Ir22  1  0.147152  0.147152  0.750000  1
  Ir  Ir23  1  0.147152  0.852848  0.250000  1
  Ir  Ir24  1  0.647152  0.352848  0.750000  1
  Ir  Ir25  1  0.647152  0.647152  0.250000  1
  Ir  Ir26  1  0.352848  0.352848  0.250000  1
  Ir  Ir27  1  0.352848  0.647152  0.750000  1
  Rh  Rh28  1  0.500000  0.000000  0.122399  1
  Rh  Rh29  1  0.500000  0.000000  0.622399  1
  Rh  Rh30  1  0.000000  0.500000  0.877601  1
  Rh  Rh31  1  0.000000  0.500000  0.377601  1
