# generated using pymatgen
data_LiTb4Y12Cd3Pd3Pt
_symmetry_space_group_name_H-M   'P 1'
_cell_length_a   9.72210307
_cell_length_b   9.72210315
_cell_length_c   9.72210300
_cell_angle_alpha   59.92502467
_cell_angle_beta   59.92502440
_cell_angle_gamma   59.92502083
_symmetry_Int_Tables_number   1
_chemical_formula_structural   LiTb4Y12Cd3Pd3Pt
_chemical_formula_sum   'Li1 Tb4 Y12 Cd3 Pd3 Pt1'
_cell_volume   648.67390615
_cell_formula_units_Z   1
loop_
 _symmetry_equiv_pos_site_id
 _symmetry_equiv_pos_as_xyz
  1  'x, y, z'
loop_
 _atom_site_type_symbol
 _atom_site_label
 _atom_site_symmetry_multiplicity
 _atom_site_fract_x
 _atom_site_fract_y
 _atom_site_fract_z
 _atom_site_occupancy
  Li  Li0  1  0.571368  0.571407  0.571407  1
  Tb  Tb1  1  0.353081  0.351585  0.351585  1
  Tb  Tb2  1  0.354655  0.353150  0.940660  1
  Tb  Tb3  1  0.354655  0.940660  0.353150  1
  Tb  Tb4  1  0.939396  0.354198  0.354198  1
  Y  Y5  1  0.809307  0.191717  0.191717  1
  Y  Y6  1  0.188325  0.812788  0.812788  1
  Y  Y7  1  0.191972  0.810176  0.191863  1
  Y  Y8  1  0.811906  0.188267  0.813621  1
  Y  Y9  1  0.191972  0.191863  0.810176  1
  Y  Y10  1  0.811906  0.813621  0.188267  1
  Y  Y11  1  0.935523  0.565742  0.565742  1
  Y  Y12  1  0.564872  0.935860  0.935860  1
  Y  Y13  1  0.565853  0.935746  0.564810  1
  Y  Y14  1  0.935617  0.564667  0.935410  1
  Y  Y15  1  0.565853  0.564810  0.935746  1
  Y  Y16  1  0.935617  0.935410  0.564667  1
  Cd  Cd17  1  0.582061  0.582544  0.252966  1
  Cd  Cd18  1  0.582061  0.252966  0.582544  1
  Cd  Cd19  1  0.253105  0.582226  0.582226  1
  Pd  Pd20  1  0.145094  0.145557  0.145557  1
  Pd  Pd21  1  0.143823  0.144136  0.567329  1
  Pd  Pd22  1  0.143823  0.567329  0.144136  1
  Pt  Pt23  1  0.568155  0.143576  0.143576  1
