# generated using pymatgen
data_Er3Cd5Ir
_symmetry_space_group_name_H-M   'P 1'
_cell_length_a   8.07775600
_cell_length_b   8.07775695
_cell_length_c   3.73955300
_cell_angle_alpha   90.00000000
_cell_angle_beta   90.00000000
_cell_angle_gamma   119.99999610
_symmetry_Int_Tables_number   1
_chemical_formula_structural   Er3Cd5Ir
_chemical_formula_sum   'Er3 Cd5 Ir1'
_cell_volume   211.31574331
_cell_formula_units_Z   1
loop_
 _symmetry_equiv_pos_site_id
 _symmetry_equiv_pos_as_xyz
  1  'x, y, z'
loop_
 _atom_site_type_symbol
 _atom_site_label
 _atom_site_symmetry_multiplicity
 _atom_site_fract_x
 _atom_site_fract_y
 _atom_site_fract_z
 _atom_site_occupancy
  Er  Er0  1  0.570648  0.956231  0.000000  1
  Er  Er1  1  0.043769  0.614417  0.000000  1
  Er  Er2  1  0.385583  0.429352  0.000000  1
  Cd  Cd3  1  0.275685  0.003239  0.500000  1
  Cd  Cd4  1  0.996761  0.272446  0.500000  1
  Cd  Cd5  1  0.727554  0.724315  0.500000  1
  Cd  Cd6  1  0.666667  0.333333  0.500000  1
  Cd  Cd7  1  0.000000  0.000000  0.000000  1
  Ir  Ir8  1  0.333333  0.666667  0.500000  1
