# generated using pymatgen
data_Dy3Cd3C
_symmetry_space_group_name_H-M   'P 1'
_cell_length_a   9.56385182
_cell_length_b   9.56379181
_cell_length_c   9.56333583
_cell_angle_alpha   119.79325551
_cell_angle_beta   90.35392809
_cell_angle_gamma   119.79893733
_symmetry_Int_Tables_number   1
_chemical_formula_structural   Dy3Cd3C
_chemical_formula_sum   'Dy12 Cd12 C4'
_cell_volume   620.41651210
_cell_formula_units_Z   4
loop_
 _symmetry_equiv_pos_site_id
 _symmetry_equiv_pos_as_xyz
  1  'x, y, z'
loop_
 _atom_site_type_symbol
 _atom_site_label
 _atom_site_symmetry_multiplicity
 _atom_site_fract_x
 _atom_site_fract_y
 _atom_site_fract_z
 _atom_site_occupancy
  Dy  Dy0  1  0.935215  0.370417  0.185219  1
  Dy  Dy1  1  0.936447  0.750007  0.186428  1
  Dy  Dy2  1  0.314743  0.750002  0.185266  1
  Dy  Dy3  1  0.686474  0.249969  0.436503  1
  Dy  Dy4  1  0.685269  0.870540  0.435266  1
  Dy  Dy5  1  0.064753  0.250004  0.435222  1
  Dy  Dy6  1  0.314748  0.129496  0.564757  1
  Dy  Dy7  1  0.313594  0.750029  0.563571  1
  Dy  Dy8  1  0.935224  0.749991  0.564788  1
  Dy  Dy9  1  0.685279  0.250007  0.814729  1
  Dy  Dy10  1  0.064769  0.629551  0.814761  1
  Dy  Dy11  1  0.063492  0.250005  0.813504  1
  Cd  Cd12  1  0.999998  0.999998  0.999995  1
  Cd  Cd13  1  0.500001  0.999997  0.000003  1
  Cd  Cd14  1  0.499994  0.500000  0.999991  1
  Cd  Cd15  1  0.708472  0.916898  0.125385  1
  Cd  Cd16  1  0.291678  0.083134  0.208524  1
  Cd  Cd17  1  0.291530  0.416911  0.208401  1
  Cd  Cd18  1  0.625326  0.416829  0.208507  1
  Cd  Cd19  1  0.500004  0.500007  0.500007  1
  Cd  Cd20  1  0.374643  0.583144  0.791484  1
  Cd  Cd21  1  0.708467  0.583056  0.791567  1
  Cd  Cd22  1  0.708366  0.916906  0.791489  1
  Cd  Cd23  1  0.291518  0.083118  0.874632  1
  C  C24  1  0.000062  0.500073  0.000121  1
  C  C25  1  0.000046  0.999929  0.499972  1
  C  C26  1  0.499888  0.999934  0.499964  1
  C  C27  1  0.000009  0.500063  0.499950  1
