# generated using pymatgen
data_Dy3Al3ZnSiNi
_symmetry_space_group_name_H-M   'P 1'
_cell_length_a   6.91106400
_cell_length_b   6.91106487
_cell_length_c   4.17250900
_cell_angle_alpha   90.00000000
_cell_angle_beta   90.00000000
_cell_angle_gamma   119.99999582
_symmetry_Int_Tables_number   1
_chemical_formula_structural   Dy3Al3ZnSiNi
_chemical_formula_sum   'Dy3 Al3 Zn1 Si1 Ni1'
_cell_volume   172.59086945
_cell_formula_units_Z   1
loop_
 _symmetry_equiv_pos_site_id
 _symmetry_equiv_pos_as_xyz
  1  'x, y, z'
loop_
 _atom_site_type_symbol
 _atom_site_label
 _atom_site_symmetry_multiplicity
 _atom_site_fract_x
 _atom_site_fract_y
 _atom_site_fract_z
 _atom_site_occupancy
  Dy  Dy0  1  0.406806  0.997256  0.000000  1
  Dy  Dy1  1  0.002744  0.409548  0.000000  1
  Dy  Dy2  1  0.590451  0.593195  0.000000  1
  Al  Al3  1  0.769347  0.002955  0.500001  1
  Al  Al4  1  0.233609  0.230654  0.500001  1
  Al  Al5  1  0.997045  0.766392  0.500001  1
  Zn  Zn6  1  0.666666  0.333333  0.500001  1
  Si  Si7  1  0.333333  0.666666  0.500001  1
  Ni  Ni8  1  0.000000  0.000000  0.000000  1
