# generated using pymatgen
data_PrAlFe4
_symmetry_space_group_name_H-M   'P 1'
_cell_length_a   5.10478800
_cell_length_b   5.26427926
_cell_length_c   3.97283200
_cell_angle_alpha   90.00000000
_cell_angle_beta   90.00000000
_cell_angle_gamma   119.00274735
_symmetry_Int_Tables_number   1
_chemical_formula_structural   PrAlFe4
_chemical_formula_sum   'Pr1 Al1 Fe4'
_cell_volume   93.37369507
_cell_formula_units_Z   1
loop_
 _symmetry_equiv_pos_site_id
 _symmetry_equiv_pos_as_xyz
  1  'x, y, z'
loop_
 _atom_site_type_symbol
 _atom_site_label
 _atom_site_symmetry_multiplicity
 _atom_site_fract_x
 _atom_site_fract_y
 _atom_site_fract_z
 _atom_site_occupancy
  Pr  Pr0  1  0.000000  0.000000  0.000000  1
  Al  Al1  1  0.500000  0.000000  0.500000  1
  Fe  Fe2  1  0.678659  0.357319  0.000000  1
  Fe  Fe3  1  0.321340  0.642680  0.000000  1
  Fe  Fe4  1  0.000000  0.500000  0.500000  1
  Fe  Fe5  1  0.500000  0.500000  0.500000  1
