# generated using pymatgen
data_Tb3HoGa18Co5Pd
_symmetry_space_group_name_H-M   'P 1'
_cell_length_a   7.42377899
_cell_length_b   7.42194550
_cell_length_c   9.44549469
_cell_angle_alpha   89.93106675
_cell_angle_beta   89.91764770
_cell_angle_gamma   119.61850022
_symmetry_Int_Tables_number   1
_chemical_formula_structural   Tb3HoGa18Co5Pd
_chemical_formula_sum   'Tb3 Ho1 Ga18 Co5 Pd1'
_cell_volume   452.43205298
_cell_formula_units_Z   1
loop_
 _symmetry_equiv_pos_site_id
 _symmetry_equiv_pos_as_xyz
  1  'x, y, z'
loop_
 _atom_site_type_symbol
 _atom_site_label
 _atom_site_symmetry_multiplicity
 _atom_site_fract_x
 _atom_site_fract_y
 _atom_site_fract_z
 _atom_site_occupancy
  Tb  Tb0  1  0.327101  0.002443  0.748633  1
  Tb  Tb1  1  0.002743  0.327374  0.748715  1
  Tb  Tb2  1  0.672805  0.997292  0.251336  1
  Ho  Ho3  1  0.997451  0.673146  0.251428  1
  Ga  Ga4  1  0.655546  0.999244  0.924429  1
  Ga  Ga5  1  0.334999  0.998175  0.428129  1
  Ga  Ga6  1  0.998442  0.335976  0.428100  1
  Ga  Ga7  1  0.343901  0.000292  0.076193  1
  Ga  Ga8  1  0.999126  0.655585  0.924959  1
  Ga  Ga9  1  0.000582  0.345175  0.076325  1
  Ga  Ga10  1  0.333466  0.333363  0.556021  1
  Ga  Ga11  1  0.343800  0.343703  0.937813  1
  Ga  Ga12  1  0.656957  0.656353  0.063006  1
  Ga  Ga13  1  0.667067  0.666400  0.442990  1
  Ga  Ga14  1  0.869935  0.869779  0.741629  1
  Ga  Ga15  1  0.130065  0.129625  0.258304  1
  Ga  Ga16  1  0.335144  0.553076  0.251504  1
  Ga  Ga17  1  0.553980  0.336244  0.251580  1
  Ga  Ga18  1  0.664391  0.446905  0.748406  1
  Ga  Ga19  1  0.447156  0.664237  0.748483  1
  Ga  Ga20  1  0.664574  0.001430  0.571276  1
  Ga  Ga21  1  0.001177  0.664359  0.570720  1
  Co  Co22  1  0.329063  0.671016  0.000277  1
  Co  Co23  1  0.670775  0.329100  0.499736  1
  Co  Co24  1  0.670858  0.328990  0.000264  1
  Co  Co25  1  0.329179  0.670867  0.499772  1
  Co  Co26  1  0.999832  0.999796  0.499684  1
  Pd  Pd27  1  0.999884  0.000053  0.000290  1
