# generated using pymatgen
data_Tb8Lu8Sc4Si15Ge
_symmetry_space_group_name_H-M   'P 1'
_cell_length_a   7.21474188
_cell_length_b   7.57035047
_cell_length_c   14.30929663
_cell_angle_alpha   90.02812977
_cell_angle_beta   89.81247057
_cell_angle_gamma   90.02928965
_symmetry_Int_Tables_number   1
_chemical_formula_structural   Tb8Lu8Sc4Si15Ge
_chemical_formula_sum   'Tb8 Lu8 Sc4 Si15 Ge1'
_cell_volume   781.54256424
_cell_formula_units_Z   1
loop_
 _symmetry_equiv_pos_site_id
 _symmetry_equiv_pos_as_xyz
  1  'x, y, z'
loop_
 _atom_site_type_symbol
 _atom_site_label
 _atom_site_symmetry_multiplicity
 _atom_site_fract_x
 _atom_site_fract_y
 _atom_site_fract_z
 _atom_site_occupancy
  Tb  Tb0  1  0.015502  0.179825  0.097683  1
  Tb  Tb1  1  0.984588  0.820574  0.902267  1
  Tb  Tb2  1  0.484702  0.679748  0.902207  1
  Tb  Tb3  1  0.984171  0.821420  0.597878  1
  Tb  Tb4  1  0.515519  0.320586  0.097887  1
  Tb  Tb5  1  0.014145  0.178410  0.401704  1
  Tb  Tb6  1  0.515392  0.319330  0.401422  1
  Tb  Tb7  1  0.487436  0.680976  0.598281  1
  Lu  Lu8  1  0.327713  0.174656  0.626448  1
  Lu  Lu9  1  0.673728  0.823707  0.373973  1
  Lu  Lu10  1  0.172122  0.678157  0.374215  1
  Lu  Lu11  1  0.674241  0.822600  0.125193  1
  Lu  Lu12  1  0.825406  0.323065  0.625273  1
  Lu  Lu13  1  0.325404  0.176823  0.874903  1
  Lu  Lu14  1  0.825011  0.322916  0.874826  1
  Lu  Lu15  1  0.174766  0.677167  0.125223  1
  Sc  Sc16  1  0.158162  0.510016  0.751377  1
  Sc  Sc17  1  0.841538  0.489747  0.250163  1
  Sc  Sc18  1  0.341627  0.010293  0.249770  1
  Sc  Sc19  1  0.658674  0.989735  0.750248  1
  Si  Si20  1  0.024846  0.104170  0.750112  1
  Si  Si21  1  0.975140  0.896749  0.249408  1
  Si  Si22  1  0.474662  0.603585  0.249857  1
  Si  Si23  1  0.524663  0.396765  0.750312  1
  Si  Si24  1  0.282409  0.867170  0.750366  1
  Si  Si25  1  0.717380  0.132253  0.249436  1
  Si  Si26  1  0.217058  0.368063  0.250027  1
  Si  Si27  1  0.783114  0.632103  0.750046  1
  Si  Si28  1  0.840052  0.532841  0.459435  1
  Si  Si29  1  0.345148  0.968206  0.460115  1
  Si  Si30  1  0.846524  0.531554  0.039958  1
  Si  Si31  1  0.655002  0.032141  0.539545  1
  Si  Si32  1  0.153385  0.468509  0.960203  1
  Si  Si33  1  0.653634  0.031659  0.960222  1
  Si  Si34  1  0.346447  0.968583  0.040083  1
  Ge  Ge35  1  0.160688  0.465898  0.539935  1
