# generated using pymatgen
data_La2TmMg3Sn2Au
_symmetry_space_group_name_H-M   'P 1'
_cell_length_a   7.63344600
_cell_length_b   7.62835370
_cell_length_c   4.63540800
_cell_angle_alpha   90.00000000
_cell_angle_beta   90.00000000
_cell_angle_gamma   120.02207611
_symmetry_Int_Tables_number   1
_chemical_formula_structural   La2TmMg3Sn2Au
_chemical_formula_sum   'La2 Tm1 Mg3 Sn2 Au1'
_cell_volume   233.70790575
_cell_formula_units_Z   1
loop_
 _symmetry_equiv_pos_site_id
 _symmetry_equiv_pos_as_xyz
  1  'x, y, z'
loop_
 _atom_site_type_symbol
 _atom_site_label
 _atom_site_symmetry_multiplicity
 _atom_site_fract_x
 _atom_site_fract_y
 _atom_site_fract_z
 _atom_site_occupancy
  La  La0  1  0.001901  0.591731  0.000000  1
  La  La1  1  0.410171  0.408269  0.000000  1
  Tm  Tm2  1  0.596913  0.000000  0.000000  1
  Mg  Mg3  1  0.236457  0.000000  0.500000  1
  Mg  Mg4  1  0.996485  0.231554  0.500000  1
  Mg  Mg5  1  0.764931  0.768446  0.500000  1
  Sn  Sn6  1  0.341844  0.679739  0.500000  1
  Sn  Sn7  1  0.662106  0.320261  0.500000  1
  Au  Au8  1  0.989192  0.000000  0.000000  1
