# generated using pymatgen
data_Be8VCuIr2
_symmetry_space_group_name_H-M   'P 1'
_cell_length_a   4.30606200
_cell_length_b   4.30606056
_cell_length_c   7.07856700
_cell_angle_alpha   90.00000000
_cell_angle_beta   90.00000000
_cell_angle_gamma   119.99999568
_symmetry_Int_Tables_number   1
_chemical_formula_structural   Be8VCuIr2
_chemical_formula_sum   'Be8 V1 Cu1 Ir2'
_cell_volume   113.66752664
_cell_formula_units_Z   1
loop_
 _symmetry_equiv_pos_site_id
 _symmetry_equiv_pos_as_xyz
  1  'x, y, z'
loop_
 _atom_site_type_symbol
 _atom_site_label
 _atom_site_symmetry_multiplicity
 _atom_site_fract_x
 _atom_site_fract_y
 _atom_site_fract_z
 _atom_site_occupancy
  Be  Be0  1  0.000000  0.000000  0.999442  1
  Be  Be1  1  0.000000  0.000000  0.503949  1
  Be  Be2  1  0.832400  0.664798  0.244786  1
  Be  Be3  1  0.169656  0.830344  0.757212  1
  Be  Be4  1  0.660688  0.830344  0.757212  1
  Be  Be5  1  0.335202  0.167600  0.244786  1
  Be  Be6  1  0.832400  0.167600  0.244786  1
  Be  Be7  1  0.169656  0.339312  0.757212  1
  V  V8  1  0.333333  0.666667  0.439259  1
  Cu  Cu9  1  0.666667  0.333333  0.931011  1
  Ir  Ir10  1  0.333333  0.666667  0.073358  1
  Ir  Ir11  1  0.666667  0.333333  0.546984  1
