# generated using pymatgen
data_SmLuFe7Co5P7
_symmetry_space_group_name_H-M   'P 1'
_cell_length_a   8.98186301
_cell_length_b   8.98200694
_cell_length_c   3.60942300
_cell_angle_alpha   90.00000000
_cell_angle_beta   90.00000000
_cell_angle_gamma   119.84899083
_symmetry_Int_Tables_number   1
_chemical_formula_structural   SmLuFe7Co5P7
_chemical_formula_sum   'Sm1 Lu1 Fe7 Co5 P7'
_cell_volume   252.56145431
_cell_formula_units_Z   1
loop_
 _symmetry_equiv_pos_site_id
 _symmetry_equiv_pos_as_xyz
  1  'x, y, z'
loop_
 _atom_site_type_symbol
 _atom_site_label
 _atom_site_symmetry_multiplicity
 _atom_site_fract_x
 _atom_site_fract_y
 _atom_site_fract_z
 _atom_site_occupancy
  Sm  Sm0  1  0.333760  0.666279  0.000000  1
  Lu  Lu1  1  0.666024  0.333336  0.500000  1
  Fe  Fe2  1  0.154147  0.880100  0.000000  1
  Fe  Fe3  1  0.119032  0.273251  0.000000  1
  Fe  Fe4  1  0.729110  0.848377  0.000000  1
  Fe  Fe5  1  0.566429  0.613358  0.500000  1
  Fe  Fe6  1  0.230484  0.127565  0.500000  1
  Fe  Fe7  1  0.871856  0.103976  0.500000  1
  Fe  Fe8  1  0.898800  0.772562  0.500000  1
  Co  Co9  1  0.432789  0.368846  0.000000  1
  Co  Co10  1  0.628597  0.062951  0.000000  1
  Co  Co11  1  0.935607  0.565594  0.000000  1
  Co  Co12  1  0.387176  0.951922  0.500000  1
  Co  Co13  1  0.047076  0.434215  0.500000  1
  P  P14  1  0.407196  0.111405  0.000000  1
  P  P15  1  0.887206  0.295307  0.000000  1
  P  P16  1  0.702169  0.592266  0.000000  1
  P  P17  1  0.109322  0.711815  0.500000  1
  P  P18  1  0.289676  0.399074  0.500000  1
  P  P19  1  0.602268  0.887148  0.500000  1
  P  P20  1  0.001273  0.000650  0.000000  1
