# generated using pymatgen
data_Hf6Al4Ga2IrPd5
_symmetry_space_group_name_H-M   'P 1'
_cell_length_a   7.20480640
_cell_length_b   7.22196001
_cell_length_c   6.96766743
_cell_angle_alpha   89.87394224
_cell_angle_beta   89.97940025
_cell_angle_gamma   119.88921209
_symmetry_Int_Tables_number   1
_chemical_formula_structural   Hf6Al4Ga2IrPd5
_chemical_formula_sum   'Hf6 Al4 Ga2 Ir1 Pd5'
_cell_volume   314.32399003
_cell_formula_units_Z   1
loop_
 _symmetry_equiv_pos_site_id
 _symmetry_equiv_pos_as_xyz
  1  'x, y, z'
loop_
 _atom_site_type_symbol
 _atom_site_label
 _atom_site_symmetry_multiplicity
 _atom_site_fract_x
 _atom_site_fract_y
 _atom_site_fract_z
 _atom_site_occupancy
  Hf  Hf0  1  0.603787  0.590576  0.253515  1
  Hf  Hf1  1  0.023267  0.413767  0.746026  1
  Hf  Hf2  1  0.407848  0.013504  0.253597  1
  Hf  Hf3  1  0.987710  0.397605  0.253791  1
  Hf  Hf4  1  0.388543  0.976497  0.745693  1
  Hf  Hf5  1  0.586097  0.608311  0.745344  1
  Al  Al6  1  0.256180  0.256183  0.498283  1
  Al  Al7  1  0.743843  0.001311  0.498432  1
  Al  Al8  1  0.997783  0.742604  0.498758  1
  Al  Al9  1  0.735339  0.003739  0.999541  1
  Ga  Ga10  1  0.273278  0.272769  0.999766  1
  Ga  Ga11  1  0.992940  0.723495  0.999609  1
  Ir  Ir12  1  0.333466  0.666775  0.481999  1
  Pd  Pd13  1  0.999777  0.999849  0.756696  1
  Pd  Pd14  1  0.999926  0.000235  0.240709  1
  Pd  Pd15  1  0.337756  0.671837  0.030385  1
  Pd  Pd16  1  0.666523  0.333087  0.527969  1
  Pd  Pd17  1  0.665937  0.327856  0.969889  1
