# generated using pymatgen
data_SrTb2Lu(Al8Pt3)3
_symmetry_space_group_name_H-M   'P 1'
_cell_length_a   7.54601915
_cell_length_b   7.56570743
_cell_length_c   13.25225310
_cell_angle_alpha   84.60064715
_cell_angle_beta   79.11848318
_cell_angle_gamma   59.95207709
_symmetry_Int_Tables_number   1
_chemical_formula_structural   SrTb2Lu(Al8Pt3)3
_chemical_formula_sum   'Sr1 Tb2 Lu1 Al24 Pt9'
_cell_volume   643.12886607
_cell_formula_units_Z   1
loop_
 _symmetry_equiv_pos_site_id
 _symmetry_equiv_pos_as_xyz
  1  'x, y, z'
loop_
 _atom_site_type_symbol
 _atom_site_label
 _atom_site_symmetry_multiplicity
 _atom_site_fract_x
 _atom_site_fract_y
 _atom_site_fract_z
 _atom_site_occupancy
  Sr  Sr0  1  0.392943  0.167785  0.810162  1
  Tb  Tb1  1  0.604873  0.832365  0.192854  1
  Tb  Tb2  1  0.733348  0.498491  0.808112  1
  Lu  Lu3  1  0.266038  0.501068  0.194295  1
  Al  Al4  1  0.686227  0.831938  0.948460  1
  Al  Al5  1  0.314775  0.167630  0.058924  1
  Al  Al6  1  0.147289  0.832331  0.559017  1
  Al  Al7  1  0.854150  0.167764  0.436788  1
  Al  Al8  1  0.480571  0.166621  0.556920  1
  Al  Al9  1  0.520470  0.833518  0.439796  1
  Al  Al10  1  0.217795  0.166141  0.327647  1
  Al  Al11  1  0.784301  0.834845  0.666308  1
  Al  Al12  1  0.438091  0.506410  0.665901  1
  Al  Al13  1  0.563365  0.492834  0.328134  1
  Al  Al14  1  0.111041  0.159686  0.664643  1
  Al  Al15  1  0.891525  0.839881  0.329327  1
  Al  Al16  1  0.349996  0.502063  0.949425  1
  Al  Al17  1  0.644322  0.501514  0.058151  1
  Al  Al18  1  0.012015  0.166837  0.959579  1
  Al  Al19  1  0.984166  0.830393  0.050604  1
  Al  Al20  1  0.187145  0.499257  0.439728  1
  Al  Al21  1  0.813943  0.500441  0.556960  1
  Al  Al22  1  0.732877  0.166021  0.183956  1
  Al  Al23  1  0.268514  0.826161  0.816483  1
  Al  Al24  1  0.053353  0.636988  0.815636  1
  Al  Al25  1  0.938881  0.369593  0.185101  1
  Al  Al26  1  0.862074  0.043627  0.816388  1
  Al  Al27  1  0.144339  0.957570  0.184388  1
  Pt  Pt28  1  0.118879  0.494662  0.636135  1
  Pt  Pt29  1  0.881064  0.508594  0.360284  1
  Pt  Pt30  1  0.657114  0.170994  0.002120  1
  Pt  Pt31  1  0.341395  0.828670  0.002485  1
  Pt  Pt32  1  0.537599  0.167191  0.360509  1
  Pt  Pt33  1  0.462104  0.831225  0.636003  1
  Pt  Pt34  1  0.781918  0.173972  0.634711  1
  Pt  Pt35  1  0.222220  0.824101  0.361313  1
  Pt  Pt36  1  0.999280  0.500818  0.002753  1
