# generated using pymatgen
data_Lu4Al14Ga4Ir5Pt
_symmetry_space_group_name_H-M   'P 1'
_cell_length_a   7.51900094
_cell_length_b   7.52146701
_cell_length_c   9.46187528
_cell_angle_alpha   90.06497874
_cell_angle_beta   90.02824122
_cell_angle_gamma   119.70146011
_symmetry_Int_Tables_number   1
_chemical_formula_structural   Lu4Al14Ga4Ir5Pt
_chemical_formula_sum   'Lu4 Al14 Ga4 Ir5 Pt1'
_cell_volume   464.80263595
_cell_formula_units_Z   1
loop_
 _symmetry_equiv_pos_site_id
 _symmetry_equiv_pos_as_xyz
  1  'x, y, z'
loop_
 _atom_site_type_symbol
 _atom_site_label
 _atom_site_symmetry_multiplicity
 _atom_site_fract_x
 _atom_site_fract_y
 _atom_site_fract_z
 _atom_site_occupancy
  Lu  Lu0  1  0.998239  0.673210  0.251066  1
  Lu  Lu1  1  0.001761  0.326790  0.748934  1
  Lu  Lu2  1  0.669609  0.994792  0.251115  1
  Lu  Lu3  1  0.330391  0.005208  0.748885  1
  Al  Al4  1  0.000635  0.337607  0.076466  1
  Al  Al5  1  0.999365  0.662393  0.923534  1
  Al  Al6  1  0.000061  0.665425  0.574356  1
  Al  Al7  1  0.334921  0.000439  0.425634  1
  Al  Al8  1  0.999939  0.334575  0.425644  1
  Al  Al9  1  0.665079  0.999561  0.574366  1
  Al  Al10  1  0.661953  0.999155  0.923530  1
  Al  Al11  1  0.338047  0.000845  0.076470  1
  Al  Al12  1  0.333340  0.333599  0.557933  1
  Al  Al13  1  0.666660  0.666401  0.442067  1
  Al  Al14  1  0.663777  0.663609  0.059795  1
  Al  Al15  1  0.336223  0.336391  0.940205  1
  Al  Al16  1  0.550777  0.338377  0.250446  1
  Al  Al17  1  0.449223  0.661623  0.749554  1
  Ga  Ga18  1  0.130799  0.131480  0.252030  1
  Ga  Ga19  1  0.869201  0.868520  0.747970  1
  Ga  Ga20  1  0.337975  0.547227  0.250121  1
  Ga  Ga21  1  0.662025  0.452773  0.749879  1
  Ir  Ir22  1  0.671569  0.327906  0.002558  1
  Ir  Ir23  1  0.328431  0.672094  0.997442  1
  Ir  Ir24  1  0.328541  0.672116  0.502442  1
  Ir  Ir25  1  0.671459  0.327884  0.497558  1
  Ir  Ir26  1  0.000000  0.000000  0.500000  1
  Pt  Pt27  1  0.000000  0.000000  0.000000  1
