# generated using pymatgen
data_Lu3In3HgIr2
_symmetry_space_group_name_H-M   'P 1'
_cell_length_a   7.74241100
_cell_length_b   7.74240972
_cell_length_c   3.79811300
_cell_angle_alpha   90.00000000
_cell_angle_beta   90.00000000
_cell_angle_gamma   119.99999265
_symmetry_Int_Tables_number   1
_chemical_formula_structural   Lu3In3HgIr2
_chemical_formula_sum   'Lu3 In3 Hg1 Ir2'
_cell_volume   197.17457670
_cell_formula_units_Z   1
loop_
 _symmetry_equiv_pos_site_id
 _symmetry_equiv_pos_as_xyz
  1  'x, y, z'
loop_
 _atom_site_type_symbol
 _atom_site_label
 _atom_site_symmetry_multiplicity
 _atom_site_fract_x
 _atom_site_fract_y
 _atom_site_fract_z
 _atom_site_occupancy
  Lu  Lu0  1  0.381144  0.967257  0.500000  1
  Lu  Lu1  1  0.032743  0.413887  0.500000  1
  Lu  Lu2  1  0.586113  0.618856  0.500000  1
  In  In3  1  0.739711  0.998198  0.000000  1
  In  In4  1  0.001802  0.741514  0.000000  1
  In  In5  1  0.258486  0.260289  0.000000  1
  Hg  Hg6  1  0.666667  0.333333  0.000000  1
  Ir  Ir7  1  0.333333  0.666667  0.000000  1
  Ir  Ir8  1  0.000000  0.000000  0.500000  1
