# generated using pymatgen
data_Tb5Ho3(ZnCo)2
_symmetry_space_group_name_H-M   'P 1'
_cell_length_a   9.37664953
_cell_length_b   9.37257177
_cell_length_c   9.36434576
_cell_angle_alpha   59.90325423
_cell_angle_beta   59.88706736
_cell_angle_gamma   59.93871370
_symmetry_Int_Tables_number   1
_chemical_formula_structural   Tb5Ho3(ZnCo)2
_chemical_formula_sum   'Tb10 Ho6 Zn4 Co4'
_cell_volume   580.73492384
_cell_formula_units_Z   2
loop_
 _symmetry_equiv_pos_site_id
 _symmetry_equiv_pos_as_xyz
  1  'x, y, z'
loop_
 _atom_site_type_symbol
 _atom_site_label
 _atom_site_symmetry_multiplicity
 _atom_site_fract_x
 _atom_site_fract_y
 _atom_site_fract_z
 _atom_site_occupancy
  Tb  Tb0  1  0.440403  0.059111  0.439721  1
  Tb  Tb1  1  0.601125  0.199822  0.601271  1
  Tb  Tb2  1  0.811806  0.812031  0.187266  1
  Tb  Tb3  1  0.199486  0.601538  0.600166  1
  Tb  Tb4  1  0.811548  0.188276  0.187396  1
  Tb  Tb5  1  0.059279  0.440070  0.440371  1
  Tb  Tb6  1  0.187833  0.812356  0.186565  1
  Tb  Tb7  1  0.599250  0.600852  0.200258  1
  Tb  Tb8  1  0.188276  0.187786  0.811245  1
  Tb  Tb9  1  0.060183  0.439345  0.059262  1
  Ho  Ho10  1  0.441363  0.440385  0.058103  1
  Ho  Ho11  1  0.600518  0.599699  0.601856  1
  Ho  Ho12  1  0.187966  0.812159  0.811737  1
  Ho  Ho13  1  0.059196  0.058654  0.440385  1
  Ho  Ho14  1  0.440364  0.059444  0.059156  1
  Ho  Ho15  1  0.812604  0.186957  0.812489  1
  Zn  Zn16  1  0.827773  0.827845  0.516320  1
  Zn  Zn17  1  0.827750  0.829143  0.827226  1
  Zn  Zn18  1  0.515737  0.826956  0.828089  1
  Zn  Zn19  1  0.826576  0.515551  0.827833  1
  Co  Co20  1  0.391430  0.391138  0.392092  1
  Co  Co21  1  0.825334  0.392453  0.392572  1
  Co  Co22  1  0.392146  0.825519  0.393193  1
  Co  Co23  1  0.392056  0.392911  0.825429  1
