# generated using pymatgen
data_Mn2FeSb12Pt
_symmetry_space_group_name_H-M   'P 1'
_cell_length_a   8.06585247
_cell_length_b   8.07742108
_cell_length_c   9.33830471
_cell_angle_alpha   55.13327979
_cell_angle_beta   54.82723518
_cell_angle_gamma   70.70179209
_symmetry_Int_Tables_number   1
_chemical_formula_structural   Mn2FeSb12Pt
_chemical_formula_sum   'Mn2 Fe1 Sb12 Pt1'
_cell_volume   408.04226103
_cell_formula_units_Z   1
loop_
 _symmetry_equiv_pos_site_id
 _symmetry_equiv_pos_as_xyz
  1  'x, y, z'
loop_
 _atom_site_type_symbol
 _atom_site_label
 _atom_site_symmetry_multiplicity
 _atom_site_fract_x
 _atom_site_fract_y
 _atom_site_fract_z
 _atom_site_occupancy
  Mn  Mn0  1  0.000000  0.500000  0.000000  1
  Mn  Mn1  1  0.500000  0.000000  0.000000  1
  Fe  Fe2  1  0.000000  0.500000  0.500000  1
  Sb  Sb3  1  0.676420  0.654823  0.489296  1
  Sb  Sb4  1  0.323580  0.345177  0.510704  1
  Sb  Sb5  1  0.658055  0.659773  0.182859  1
  Sb  Sb6  1  0.341945  0.340227  0.817141  1
  Sb  Sb7  1  0.147992  0.841444  0.662513  1
  Sb  Sb8  1  0.852008  0.158556  0.337487  1
  Sb  Sb9  1  0.847383  0.165030  0.661644  1
  Sb  Sb10  1  0.152617  0.834970  0.338356  1
  Sb  Sb11  1  0.827337  0.490591  0.834870  1
  Sb  Sb12  1  0.172663  0.509409  0.165130  1
  Sb  Sb13  1  0.503716  0.188044  0.148829  1
  Sb  Sb14  1  0.496284  0.811956  0.851171  1
  Pt  Pt15  1  0.500000  0.000000  0.500000  1
