# generated using pymatgen
data_Gd2B8RuRh
_symmetry_space_group_name_H-M   'P 1'
_cell_length_a   3.58383900
_cell_length_b   5.98790610
_cell_length_c   11.59883903
_cell_angle_alpha   90.07107425
_cell_angle_beta   90.00000000
_cell_angle_gamma   90.00000000
_symmetry_Int_Tables_number   1
_chemical_formula_structural   Gd2B8RuRh
_chemical_formula_sum   'Gd4 B16 Ru2 Rh2'
_cell_volume   248.90731456
_cell_formula_units_Z   2
loop_
 _symmetry_equiv_pos_site_id
 _symmetry_equiv_pos_as_xyz
  1  'x, y, z'
loop_
 _atom_site_type_symbol
 _atom_site_label
 _atom_site_symmetry_multiplicity
 _atom_site_fract_x
 _atom_site_fract_y
 _atom_site_fract_z
 _atom_site_occupancy
  Gd  Gd0  1  0.000000  0.129671  0.648519  1
  Gd  Gd1  1  0.000000  0.870329  0.351481  1
  Gd  Gd2  1  0.000000  0.630062  0.849977  1
  Gd  Gd3  1  0.000000  0.369938  0.150023  1
  B  B4  1  0.500000  0.475632  0.691047  1
  B  B5  1  0.500000  0.524368  0.308953  1
  B  B6  1  0.500000  0.977988  0.807448  1
  B  B7  1  0.500000  0.022012  0.192552  1
  B  B8  1  0.500000  0.287916  0.813187  1
  B  B9  1  0.500000  0.712084  0.186813  1
  B  B10  1  0.500000  0.787981  0.685600  1
  B  B11  1  0.500000  0.212019  0.314400  1
  B  B12  1  0.500000  0.362517  0.969717  1
  B  B13  1  0.500000  0.637483  0.030283  1
  B  B14  1  0.500000  0.862829  0.530686  1
  B  B15  1  0.500000  0.137171  0.469314  1
  B  B16  1  0.500000  0.388603  0.546180  1
  B  B17  1  0.500000  0.611397  0.453820  1
  B  B18  1  0.500000  0.888209  0.952848  1
  B  B19  1  0.500000  0.111791  0.047152  1
  Ru  Ru20  1  0.000000  0.640478  0.592350  1
  Ru  Ru21  1  0.000000  0.359522  0.407650  1
  Rh  Rh22  1  0.000000  0.141415  0.905734  1
  Rh  Rh23  1  0.000000  0.858585  0.094266  1
