# generated using pymatgen
data_Dy2Er3In2Bi
_symmetry_space_group_name_H-M   'P 1'
_cell_length_a   9.01232800
_cell_length_b   9.00692510
_cell_length_c   6.57516600
_cell_angle_alpha   90.00000000
_cell_angle_beta   90.00000000
_cell_angle_gamma   120.04628952
_symmetry_Int_Tables_number   1
_chemical_formula_structural   Dy2Er3In2Bi
_chemical_formula_sum   'Dy4 Er6 In4 Bi2'
_cell_volume   462.00654812
_cell_formula_units_Z   2
loop_
 _symmetry_equiv_pos_site_id
 _symmetry_equiv_pos_as_xyz
  1  'x, y, z'
loop_
 _atom_site_type_symbol
 _atom_site_label
 _atom_site_symmetry_multiplicity
 _atom_site_fract_x
 _atom_site_fract_y
 _atom_site_fract_z
 _atom_site_occupancy
  Dy  Dy0  1  0.769727  0.760940  0.750000  1
  Dy  Dy1  1  0.230437  0.991072  0.750000  1
  Dy  Dy2  1  0.999894  0.241637  0.750000  1
  Dy  Dy3  1  0.236971  0.237525  0.250000  1
  Er  Er4  1  0.671023  0.338225  0.006623  1
  Er  Er5  1  0.329284  0.667448  0.006570  1
  Er  Er6  1  0.329284  0.667448  0.493430  1
  Er  Er7  1  0.671023  0.338225  0.493377  1
  Er  Er8  1  0.762966  0.000470  0.250000  1
  Er  Er9  1  0.999885  0.761327  0.250000  1
  In  In10  1  0.999916  0.597367  0.750000  1
  In  In11  1  0.604952  0.606931  0.250000  1
  In  In12  1  0.395234  0.001578  0.250000  1
  In  In13  1  0.999514  0.395970  0.250000  1
  Bi  Bi14  1  0.395488  0.394683  0.750000  1
  Bi  Bi15  1  0.604402  0.999153  0.750000  1
