# generated using pymatgen
data_SmEr5ScCo17P12
_symmetry_space_group_name_H-M   'P 1'
_cell_length_a   3.71711900
_cell_length_b   10.61454500
_cell_length_c   12.29763200
_cell_angle_alpha   90.00000000
_cell_angle_beta   90.00000000
_cell_angle_gamma   90.00000000
_symmetry_Int_Tables_number   1
_chemical_formula_structural   SmEr5ScCo17P12
_chemical_formula_sum   'Sm1 Er5 Sc1 Co17 P12'
_cell_volume   485.20955013
_cell_formula_units_Z   1
loop_
 _symmetry_equiv_pos_site_id
 _symmetry_equiv_pos_as_xyz
  1  'x, y, z'
loop_
 _atom_site_type_symbol
 _atom_site_label
 _atom_site_symmetry_multiplicity
 _atom_site_fract_x
 _atom_site_fract_y
 _atom_site_fract_z
 _atom_site_occupancy
  Sm  Sm0  1  0.250000  0.750000  0.522941  1
  Er  Er1  1  0.750000  0.250000  0.472479  1
  Er  Er2  1  0.250000  0.928399  0.792908  1
  Er  Er3  1  0.250000  0.571601  0.792908  1
  Er  Er4  1  0.750000  0.068382  0.204463  1
  Er  Er5  1  0.750000  0.431618  0.204463  1
  Sc  Sc6  1  0.250000  0.250000  0.846882  1
  Co  Co7  1  0.750000  0.750000  0.161700  1
  Co  Co8  1  0.250000  0.250000  0.295638  1
  Co  Co9  1  0.750000  0.750000  0.706939  1
  Co  Co10  1  0.750000  0.250000  0.015249  1
  Co  Co11  1  0.250000  0.750000  0.987578  1
  Co  Co12  1  0.250000  0.423109  0.010070  1
  Co  Co13  1  0.250000  0.076891  0.010070  1
  Co  Co14  1  0.750000  0.587294  0.998535  1
  Co  Co15  1  0.750000  0.912706  0.998535  1
  Co  Co16  1  0.250000  0.452977  0.565957  1
  Co  Co17  1  0.250000  0.047023  0.565957  1
  Co  Co18  1  0.750000  0.545728  0.428996  1
  Co  Co19  1  0.750000  0.954272  0.428996  1
  Co  Co20  1  0.250000  0.870547  0.290974  1
  Co  Co21  1  0.250000  0.629453  0.290974  1
  Co  Co22  1  0.750000  0.127789  0.704580  1
  Co  Co23  1  0.750000  0.372211  0.704580  1
  P  P24  1  0.250000  0.250000  0.116895  1
  P  P25  1  0.750000  0.750000  0.884534  1
  P  P26  1  0.250000  0.250000  0.641295  1
  P  P27  1  0.750000  0.750000  0.342927  1
  P  P28  1  0.250000  0.439497  0.381692  1
  P  P29  1  0.250000  0.060503  0.381692  1
  P  P30  1  0.750000  0.558896  0.615180  1
  P  P31  1  0.750000  0.941104  0.615180  1
  P  P32  1  0.250000  0.899350  0.111018  1
  P  P33  1  0.250000  0.600650  0.111018  1
  P  P34  1  0.750000  0.086274  0.898100  1
  P  P35  1  0.750000  0.413726  0.898100  1
