# generated using pymatgen
data_Nd3SmGa18(Pd2Ru)2
_symmetry_space_group_name_H-M   'P 1'
_cell_length_a   7.70245052
_cell_length_b   7.70442407
_cell_length_c   9.69364624
_cell_angle_alpha   89.92565122
_cell_angle_beta   89.89289753
_cell_angle_gamma   119.82340094
_symmetry_Int_Tables_number   1
_chemical_formula_structural   Nd3SmGa18(Pd2Ru)2
_chemical_formula_sum   'Nd3 Sm1 Ga18 Pd4 Ru2'
_cell_volume   499.06233833
_cell_formula_units_Z   1
loop_
 _symmetry_equiv_pos_site_id
 _symmetry_equiv_pos_as_xyz
  1  'x, y, z'
loop_
 _atom_site_type_symbol
 _atom_site_label
 _atom_site_symmetry_multiplicity
 _atom_site_fract_x
 _atom_site_fract_y
 _atom_site_fract_z
 _atom_site_occupancy
  Nd  Nd0  1  0.996560  0.668795  0.249016  1
  Nd  Nd1  1  0.003165  0.330950  0.751006  1
  Nd  Nd2  1  0.668792  0.996540  0.249187  1
  Sm  Sm3  1  0.331107  0.003529  0.750674  1
  Ga  Ga4  1  0.132005  0.131852  0.251079  1
  Ga  Ga5  1  0.868879  0.868272  0.748927  1
  Ga  Ga6  1  0.003736  0.334177  0.081164  1
  Ga  Ga7  1  0.997154  0.666559  0.918412  1
  Ga  Ga8  1  0.000123  0.660835  0.575241  1
  Ga  Ga9  1  0.339821  0.000401  0.425884  1
  Ga  Ga10  1  0.000708  0.340132  0.425394  1
  Ga  Ga11  1  0.659138  0.999342  0.575274  1
  Ga  Ga12  1  0.665028  0.996208  0.918251  1
  Ga  Ga13  1  0.334263  0.003515  0.080494  1
  Ga  Ga14  1  0.338657  0.338294  0.559250  1
  Ga  Ga15  1  0.661290  0.661373  0.441023  1
  Ga  Ga16  1  0.662714  0.662643  0.068984  1
  Ga  Ga17  1  0.337538  0.336777  0.930337  1
  Ga  Ga18  1  0.336538  0.544165  0.255403  1
  Ga  Ga19  1  0.662873  0.455297  0.744741  1
  Ga  Ga20  1  0.544091  0.336464  0.255290  1
  Ga  Ga21  1  0.455711  0.663992  0.744731  1
  Pd  Pd22  1  0.670143  0.329546  0.999788  1
  Pd  Pd23  1  0.329828  0.670239  0.999910  1
  Pd  Pd24  1  0.000216  0.000019  0.999737  1
  Pd  Pd25  1  0.000057  0.000093  0.500197  1
  Ru  Ru26  1  0.328382  0.671714  0.500316  1
  Ru  Ru27  1  0.671486  0.328276  0.500287  1
