# generated using pymatgen
data_Y2Tm4MgCo17P12
_symmetry_space_group_name_H-M   'P 1'
_cell_length_a   3.70246900
_cell_length_b   10.54458900
_cell_length_c   12.20310900
_cell_angle_alpha   90.00000000
_cell_angle_beta   90.00000000
_cell_angle_gamma   90.00000000
_symmetry_Int_Tables_number   1
_chemical_formula_structural   Y2Tm4MgCo17P12
_chemical_formula_sum   'Y2 Tm4 Mg1 Co17 P12'
_cell_volume   476.42174797
_cell_formula_units_Z   1
loop_
 _symmetry_equiv_pos_site_id
 _symmetry_equiv_pos_as_xyz
  1  'x, y, z'
loop_
 _atom_site_type_symbol
 _atom_site_label
 _atom_site_symmetry_multiplicity
 _atom_site_fract_x
 _atom_site_fract_y
 _atom_site_fract_z
 _atom_site_occupancy
  Y  Y0  1  0.000000  0.500000  0.525797  1
  Y  Y1  1  0.500000  0.000000  0.477685  1
  Tm  Tm2  1  0.500000  0.822355  0.207161  1
  Tm  Tm3  1  0.500000  0.177645  0.207161  1
  Tm  Tm4  1  0.000000  0.682203  0.794740  1
  Tm  Tm5  1  0.000000  0.317797  0.794740  1
  Mg  Mg6  1  0.500000  0.500000  0.153368  1
  Co  Co7  1  0.000000  0.000000  0.838375  1
  Co  Co8  1  0.500000  0.500000  0.706073  1
  Co  Co9  1  0.000000  0.000000  0.294621  1
  Co  Co10  1  0.000000  0.500000  0.986353  1
  Co  Co11  1  0.500000  0.000000  0.011962  1
  Co  Co12  1  0.500000  0.329020  0.992978  1
  Co  Co13  1  0.500000  0.670980  0.992978  1
  Co  Co14  1  0.000000  0.163388  0.001560  1
  Co  Co15  1  0.000000  0.836612  0.001560  1
  Co  Co16  1  0.500000  0.295452  0.432787  1
  Co  Co17  1  0.500000  0.704548  0.432787  1
  Co  Co18  1  0.000000  0.202543  0.570802  1
  Co  Co19  1  0.000000  0.797457  0.570802  1
  Co  Co20  1  0.500000  0.879480  0.709041  1
  Co  Co21  1  0.500000  0.120520  0.709041  1
  Co  Co22  1  0.000000  0.623532  0.292482  1
  Co  Co23  1  0.000000  0.376468  0.292482  1
  P  P24  1  0.500000  0.500000  0.883587  1
  P  P25  1  0.000000  0.000000  0.116081  1
  P  P26  1  0.500000  0.500000  0.353876  1
  P  P27  1  0.000000  0.000000  0.655127  1
  P  P28  1  0.500000  0.309826  0.618489  1
  P  P29  1  0.500000  0.690174  0.618489  1
  P  P30  1  0.000000  0.189094  0.384674  1
  P  P31  1  0.000000  0.810906  0.384674  1
  P  P32  1  0.500000  0.848811  0.889542  1
  P  P33  1  0.500000  0.151189  0.889542  1
  P  P34  1  0.000000  0.663878  0.104290  1
  P  P35  1  0.000000  0.336122  0.104290  1
