# generated using pymatgen
data_TbPr(CoB)8
_symmetry_space_group_name_H-M   'P 1'
_cell_length_a   7.02978500
_cell_length_b   7.02978500
_cell_length_c   3.80253200
_cell_angle_alpha   90.00000000
_cell_angle_beta   90.00000000
_cell_angle_gamma   90.00000000
_symmetry_Int_Tables_number   1
_chemical_formula_structural   TbPr(CoB)8
_chemical_formula_sum   'Tb1 Pr1 Co8 B8'
_cell_volume   187.91305922
_cell_formula_units_Z   1
loop_
 _symmetry_equiv_pos_site_id
 _symmetry_equiv_pos_as_xyz
  1  'x, y, z'
loop_
 _atom_site_type_symbol
 _atom_site_label
 _atom_site_symmetry_multiplicity
 _atom_site_fract_x
 _atom_site_fract_y
 _atom_site_fract_z
 _atom_site_occupancy
  Tb  Tb0  1  0.000000  0.000000  0.000000  1
  Pr  Pr1  1  0.500000  0.500000  0.500000  1
  Co  Co2  1  0.860242  0.382102  0.107735  1
  Co  Co3  1  0.139758  0.617898  0.107735  1
  Co  Co4  1  0.885299  0.645134  0.607159  1
  Co  Co5  1  0.114701  0.354866  0.607159  1
  Co  Co6  1  0.645134  0.114701  0.392841  1
  Co  Co7  1  0.354866  0.885299  0.392841  1
  Co  Co8  1  0.617898  0.860242  0.892265  1
  Co  Co9  1  0.382102  0.139758  0.892265  1
  B  B10  1  0.336199  0.801093  0.897007  1
  B  B11  1  0.663801  0.198907  0.897007  1
  B  B12  1  0.292726  0.160335  0.394290  1
  B  B13  1  0.707274  0.839665  0.394290  1
  B  B14  1  0.160335  0.707274  0.605710  1
  B  B15  1  0.839665  0.292726  0.605710  1
  B  B16  1  0.198907  0.336199  0.102993  1
  B  B17  1  0.801093  0.663801  0.102993  1
