# generated using pymatgen
data_Ac3Cd3Ge2Au
_symmetry_space_group_name_H-M   'P 1'
_cell_length_a   7.76847800
_cell_length_b   7.76847861
_cell_length_c   4.62375500
_cell_angle_alpha   90.00000000
_cell_angle_beta   90.00000000
_cell_angle_gamma   119.99999741
_symmetry_Int_Tables_number   1
_chemical_formula_structural   Ac3Cd3Ge2Au
_chemical_formula_sum   'Ac3 Cd3 Ge2 Au1'
_cell_volume   241.65588250
_cell_formula_units_Z   1
loop_
 _symmetry_equiv_pos_site_id
 _symmetry_equiv_pos_as_xyz
  1  'x, y, z'
loop_
 _atom_site_type_symbol
 _atom_site_label
 _atom_site_symmetry_multiplicity
 _atom_site_fract_x
 _atom_site_fract_y
 _atom_site_fract_z
 _atom_site_occupancy
  Ac  Ac0  1  0.587412  0.000000  0.000000  1
  Ac  Ac1  1  0.000000  0.587412  0.000000  1
  Ac  Ac2  1  0.412588  0.412588  0.000000  1
  Cd  Cd3  1  0.242953  0.000000  0.500000  1
  Cd  Cd4  1  0.000000  0.242953  0.500000  1
  Cd  Cd5  1  0.757047  0.757047  0.500000  1
  Ge  Ge6  1  0.333333  0.666667  0.500000  1
  Ge  Ge7  1  0.666667  0.333333  0.500000  1
  Au  Au8  1  0.000000  0.000000  0.000000  1
