# generated using pymatgen
data_LiTbYb2Pd2Pb3
_symmetry_space_group_name_H-M   'P 1'
_cell_length_a   8.00798691
_cell_length_b   8.00798861
_cell_length_c   3.76989400
_cell_angle_alpha   90.00000000
_cell_angle_beta   90.00000000
_cell_angle_gamma   119.73195982
_symmetry_Int_Tables_number   1
_chemical_formula_structural   LiTbYb2Pd2Pb3
_chemical_formula_sum   'Li1 Tb1 Yb2 Pd2 Pb3'
_cell_volume   209.92939534
_cell_formula_units_Z   1
loop_
 _symmetry_equiv_pos_site_id
 _symmetry_equiv_pos_as_xyz
  1  'x, y, z'
loop_
 _atom_site_type_symbol
 _atom_site_label
 _atom_site_symmetry_multiplicity
 _atom_site_fract_x
 _atom_site_fract_y
 _atom_site_fract_z
 _atom_site_occupancy
  Li  Li0  1  0.999927  0.999927  0.500000  1
  Tb  Tb1  1  0.406249  0.406249  0.500000  1
  Yb  Yb2  1  0.591981  0.001267  0.500000  1
  Yb  Yb3  1  0.001267  0.591981  0.500000  1
  Pd  Pd4  1  0.664630  0.334988  0.000000  1
  Pd  Pd5  1  0.334988  0.664630  0.000000  1
  Pb  Pb6  1  0.737066  0.737066  0.000000  1
  Pb  Pb7  1  0.264132  0.999760  0.000000  1
  Pb  Pb8  1  0.999760  0.264132  0.000000  1
