# generated using pymatgen
data_Ho6NiRh17
_symmetry_space_group_name_H-M   'P 1'
_cell_length_a   5.26034000
_cell_length_b   5.26034080
_cell_length_c   17.41651300
_cell_angle_alpha   90.00000000
_cell_angle_beta   90.00000000
_cell_angle_gamma   119.99999495
_symmetry_Int_Tables_number   1
_chemical_formula_structural   Ho6NiRh17
_chemical_formula_sum   'Ho6 Ni1 Rh17'
_cell_volume   417.36839516
_cell_formula_units_Z   1
loop_
 _symmetry_equiv_pos_site_id
 _symmetry_equiv_pos_as_xyz
  1  'x, y, z'
loop_
 _atom_site_type_symbol
 _atom_site_label
 _atom_site_symmetry_multiplicity
 _atom_site_fract_x
 _atom_site_fract_y
 _atom_site_fract_z
 _atom_site_occupancy
  Ho  Ho0  1  0.666667  0.333333  0.250000  1
  Ho  Ho1  1  0.333333  0.666667  0.957832  1
  Ho  Ho2  1  0.666667  0.333333  0.041723  1
  Ho  Ho3  1  0.666667  0.333333  0.458277  1
  Ho  Ho4  1  0.333333  0.666667  0.542168  1
  Ho  Ho5  1  0.333333  0.666667  0.750000  1
  Ni  Ni6  1  0.333333  0.666667  0.250000  1
  Rh  Rh7  1  0.168836  0.831164  0.372278  1
  Rh  Rh8  1  0.168836  0.337671  0.372278  1
  Rh  Rh9  1  0.662329  0.831164  0.372278  1
  Rh  Rh10  1  0.832807  0.167193  0.624744  1
  Rh  Rh11  1  0.832807  0.665615  0.624744  1
  Rh  Rh12  1  0.334385  0.167193  0.624744  1
  Rh  Rh13  1  0.832807  0.167193  0.875256  1
  Rh  Rh14  1  0.832807  0.665615  0.875256  1
  Rh  Rh15  1  0.334385  0.167193  0.875256  1
  Rh  Rh16  1  0.168836  0.831164  0.127722  1
  Rh  Rh17  1  0.168836  0.337671  0.127722  1
  Rh  Rh18  1  0.662329  0.831164  0.127722  1
  Rh  Rh19  1  0.666667  0.333333  0.750000  1
  Rh  Rh20  1  0.000000  0.000000  0.250000  1
  Rh  Rh21  1  0.000000  0.000000  0.750000  1
  Rh  Rh22  1  0.000000  0.000000  0.497681  1
  Rh  Rh23  1  0.000000  0.000000  0.002319  1
