# generated using pymatgen
data_DyHoBe23Cu3
_symmetry_space_group_name_H-M   'P 1'
_cell_length_a   7.28911566
_cell_length_b   7.33233495
_cell_length_c   7.26695600
_cell_angle_alpha   59.90313065
_cell_angle_beta   60.08612403
_cell_angle_gamma   59.60432503
_symmetry_Int_Tables_number   1
_chemical_formula_structural   DyHoBe23Cu3
_chemical_formula_sum   'Dy1 Ho1 Be23 Cu3'
_cell_volume   273.78007581
_cell_formula_units_Z   1
loop_
 _symmetry_equiv_pos_site_id
 _symmetry_equiv_pos_as_xyz
  1  'x, y, z'
loop_
 _atom_site_type_symbol
 _atom_site_label
 _atom_site_symmetry_multiplicity
 _atom_site_fract_x
 _atom_site_fract_y
 _atom_site_fract_z
 _atom_site_occupancy
  Dy  Dy0  1  0.251949  0.248846  0.251016  1
  Ho  Ho1  1  0.748950  0.751825  0.748050  1
  Be  Be2  1  0.500400  0.500289  0.499604  1
  Be  Be3  1  0.999151  0.999600  0.000851  1
  Be  Be4  1  0.436717  0.204161  0.563349  1
  Be  Be5  1  0.283598  0.936693  0.716444  1
  Be  Be6  1  0.715142  0.070267  0.284894  1
  Be  Be7  1  0.932245  0.278806  0.067722  1
  Be  Be8  1  0.069815  0.720859  0.930152  1
  Be  Be9  1  0.201760  0.799514  0.560740  1
  Be  Be10  1  0.794832  0.199602  0.441381  1
  Be  Be11  1  0.439310  0.562065  0.798198  1
  Be  Be12  1  0.558667  0.435847  0.205134  1
  Be  Be13  1  0.712118  0.285371  0.935682  1
  Be  Be14  1  0.286501  0.714315  0.066054  1
  Be  Be15  1  0.064281  0.933139  0.287923  1
  Be  Be16  1  0.933916  0.066842  0.713539  1
  Be  Be17  1  0.566970  0.205950  0.790909  1
  Be  Be18  1  0.432911  0.792835  0.206289  1
  Be  Be19  1  0.793677  0.432059  0.567136  1
  Be  Be20  1  0.209052  0.563862  0.433072  1
  Be  Be21  1  0.940128  0.710341  0.289757  1
  Be  Be22  1  0.063832  0.287911  0.708583  1
  Be  Be23  1  0.291472  0.060280  0.936129  1
  Be  Be24  1  0.710293  0.940175  0.059824  1
  Cu  Cu25  1  0.805740  0.555629  0.194163  1
  Cu  Cu26  1  0.197841  0.440070  0.802042  1
  Cu  Cu27  1  0.558733  0.802848  0.441363  1
