# generated using pymatgen
data_TbAgGePt3
_symmetry_space_group_name_H-M   'P 1'
_cell_length_a   5.17920970
_cell_length_b   5.17921110
_cell_length_c   5.17921063
_cell_angle_alpha   64.36199792
_cell_angle_beta   64.36197076
_cell_angle_gamma   64.36198359
_symmetry_Int_Tables_number   1
_chemical_formula_structural   TbAgGePt3
_chemical_formula_sum   'Tb1 Ag1 Ge1 Pt3'
_cell_volume   107.64601635
_cell_formula_units_Z   1
loop_
 _symmetry_equiv_pos_site_id
 _symmetry_equiv_pos_as_xyz
  1  'x, y, z'
loop_
 _atom_site_type_symbol
 _atom_site_label
 _atom_site_symmetry_multiplicity
 _atom_site_fract_x
 _atom_site_fract_y
 _atom_site_fract_z
 _atom_site_occupancy
  Tb  Tb0  1  0.004105  0.004105  0.004105  1
  Ag  Ag1  1  0.252535  0.252535  0.252535  1
  Ge  Ge2  1  0.622357  0.622357  0.622357  1
  Pt  Pt3  1  0.622840  0.622840  0.125324  1
  Pt  Pt4  1  0.622840  0.125324  0.622840  1
  Pt  Pt5  1  0.125324  0.622840  0.622840  1
