# generated using pymatgen
data_V10Si3GeRh2
_symmetry_space_group_name_H-M   'P 1'
_cell_length_a   4.66430700
_cell_length_b   4.78558500
_cell_length_c   9.41813000
_cell_angle_alpha   90.00000000
_cell_angle_beta   90.00000000
_cell_angle_gamma   90.00000000
_symmetry_Int_Tables_number   1
_chemical_formula_structural   V10Si3GeRh2
_chemical_formula_sum   'V10 Si3 Ge1 Rh2'
_cell_volume   210.22620124
_cell_formula_units_Z   1
loop_
 _symmetry_equiv_pos_site_id
 _symmetry_equiv_pos_as_xyz
  1  'x, y, z'
loop_
 _atom_site_type_symbol
 _atom_site_label
 _atom_site_symmetry_multiplicity
 _atom_site_fract_x
 _atom_site_fract_y
 _atom_site_fract_z
 _atom_site_occupancy
  V  V0  1  0.000000  0.505867  0.127670  1
  V  V1  1  0.000000  0.504169  0.624264  1
  V  V2  1  0.757701  0.997876  0.000000  1
  V  V3  1  0.752931  0.994970  0.500000  1
  V  V4  1  0.000000  0.505867  0.872330  1
  V  V5  1  0.000000  0.504169  0.375736  1
  V  V6  1  0.500000  0.749493  0.746742  1
  V  V7  1  0.500000  0.749493  0.253258  1
  V  V8  1  0.242299  0.997876  0.000000  1
  V  V9  1  0.247069  0.994970  0.500000  1
  Si  Si10  1  0.500000  0.507115  0.500000  1
  Si  Si11  1  0.000000  0.992747  0.749483  1
  Si  Si12  1  0.000000  0.992747  0.250517  1
  Ge  Ge13  1  0.500000  0.506625  0.000000  1
  Rh  Rh14  1  0.500000  0.248008  0.746289  1
  Rh  Rh15  1  0.500000  0.248008  0.253711  1
