# generated using pymatgen
data_Sr5Sc3(Cu4P3)4
_symmetry_space_group_name_H-M   'P 1'
_cell_length_a   12.78748100
_cell_length_b   12.78748091
_cell_length_c   3.92957100
_cell_angle_alpha   90.00000000
_cell_angle_beta   90.00000000
_cell_angle_gamma   120.00000283
_symmetry_Int_Tables_number   1
_chemical_formula_structural   Sr5Sc3(Cu4P3)4
_chemical_formula_sum   'Sr5 Sc3 Cu16 P12'
_cell_volume   556.47512934
_cell_formula_units_Z   1
loop_
 _symmetry_equiv_pos_site_id
 _symmetry_equiv_pos_as_xyz
  1  'x, y, z'
loop_
 _atom_site_type_symbol
 _atom_site_label
 _atom_site_symmetry_multiplicity
 _atom_site_fract_x
 _atom_site_fract_y
 _atom_site_fract_z
 _atom_site_occupancy
  Sr  Sr0  1  0.187467  0.187467  0.500000  1
  Sr  Sr1  1  0.812533  0.000000  0.500000  1
  Sr  Sr2  1  0.000000  0.812533  0.500000  1
  Sr  Sr3  1  0.333333  0.666667  0.000000  1
  Sr  Sr4  1  0.666667  0.333333  0.000000  1
  Sc  Sc5  1  0.567670  0.567670  0.000000  1
  Sc  Sc6  1  0.432330  0.000000  0.000000  1
  Sc  Sc7  1  0.000000  0.432330  0.000000  1
  Cu  Cu8  1  0.723667  0.723667  0.500000  1
  Cu  Cu9  1  0.276333  0.000000  0.500000  1
  Cu  Cu10  1  0.000000  0.276333  0.500000  1
  Cu  Cu11  1  0.184350  0.376237  0.000000  1
  Cu  Cu12  1  0.623763  0.808112  0.000000  1
  Cu  Cu13  1  0.191888  0.815650  0.000000  1
  Cu  Cu14  1  0.808112  0.623763  0.000000  1
  Cu  Cu15  1  0.815650  0.191888  0.000000  1
  Cu  Cu16  1  0.376237  0.184350  0.000000  1
  Cu  Cu17  1  0.358231  0.480994  0.500000  1
  Cu  Cu18  1  0.519006  0.877238  0.500000  1
  Cu  Cu19  1  0.122762  0.641769  0.500000  1
  Cu  Cu20  1  0.877238  0.519006  0.500000  1
  Cu  Cu21  1  0.641769  0.122762  0.500000  1
  Cu  Cu22  1  0.480994  0.358231  0.500000  1
  Cu  Cu23  1  0.000000  0.000000  0.000000  1
  P  P24  1  0.820831  0.820831  0.000000  1
  P  P25  1  0.179169  0.000000  0.000000  1
  P  P26  1  0.000000  0.179169  0.000000  1
  P  P27  1  0.166048  0.479000  0.500000  1
  P  P28  1  0.521000  0.687047  0.500000  1
  P  P29  1  0.312953  0.833952  0.500000  1
  P  P30  1  0.687047  0.521000  0.500000  1
  P  P31  1  0.833952  0.312953  0.500000  1
  P  P32  1  0.479000  0.166048  0.500000  1
  P  P33  1  0.368331  0.368331  0.000000  1
  P  P34  1  0.631669  0.000000  0.000000  1
  P  P35  1  0.000000  0.631669  0.000000  1
