# generated using pymatgen
data_Gd2Tm2Lu2TaWO14
_symmetry_space_group_name_H-M   'P 1'
_cell_length_a   6.41845978
_cell_length_b   6.41845947
_cell_length_c   7.45789700
_cell_angle_alpha   89.97177372
_cell_angle_beta   89.97178264
_cell_angle_gamma   108.86226604
_symmetry_Int_Tables_number   1
_chemical_formula_structural   Gd2Tm2Lu2TaWO14
_chemical_formula_sum   'Gd2 Tm2 Lu2 Ta1 W1 O14'
_cell_volume   290.74080937
_cell_formula_units_Z   1
loop_
 _symmetry_equiv_pos_site_id
 _symmetry_equiv_pos_as_xyz
  1  'x, y, z'
loop_
 _atom_site_type_symbol
 _atom_site_label
 _atom_site_symmetry_multiplicity
 _atom_site_fract_x
 _atom_site_fract_y
 _atom_site_fract_z
 _atom_site_occupancy
  Gd  Gd0  1  0.481571  0.480883  0.000675  1
  Gd  Gd1  1  0.512432  0.511990  0.499307  1
  Tm  Tm2  1  0.532216  0.002123  0.754000  1
  Tm  Tm3  1  0.998411  0.465892  0.746670  1
  Lu  Lu4  1  0.465844  0.997963  0.253342  1
  Lu  Lu5  1  0.002828  0.531921  0.245974  1
  Ta  Ta6  1  0.996996  0.997425  0.000750  1
  W  W7  1  0.999438  0.999495  0.499020  1
  O  O8  1  0.925913  0.072686  0.750525  1
  O  O9  1  0.641366  0.358813  0.749707  1
  O  O10  1  0.321336  0.067249  0.532882  1
  O  O11  1  0.939386  0.683087  0.960224  1
  O  O12  1  0.637138  0.363757  0.249365  1
  O  O13  1  0.922400  0.672358  0.526588  1
  O  O14  1  0.327315  0.077199  0.971508  1
  O  O15  1  0.075874  0.326880  0.031598  1
  O  O16  1  0.673050  0.924079  0.470391  1
  O  O17  1  0.365353  0.635700  0.750709  1
  O  O18  1  0.683395  0.940597  0.042696  1
  O  O19  1  0.067143  0.321532  0.464475  1
  O  O20  1  0.356777  0.643800  0.250231  1
  O  O21  1  0.073816  0.924570  0.249362  1
