# generated using pymatgen
data_Lu5In4OsAu
_symmetry_space_group_name_H-M   'P 1'
_cell_length_a   3.55482100
_cell_length_b   8.11245921
_cell_length_c   18.11225026
_cell_angle_alpha   90.05628798
_cell_angle_beta   90.00000000
_cell_angle_gamma   90.00000000
_symmetry_Int_Tables_number   1
_chemical_formula_structural   Lu5In4OsAu
_chemical_formula_sum   'Lu10 In8 Os2 Au2'
_cell_volume   522.32698552
_cell_formula_units_Z   2
loop_
 _symmetry_equiv_pos_site_id
 _symmetry_equiv_pos_as_xyz
  1  'x, y, z'
loop_
 _atom_site_type_symbol
 _atom_site_label
 _atom_site_symmetry_multiplicity
 _atom_site_fract_x
 _atom_site_fract_y
 _atom_site_fract_z
 _atom_site_occupancy
  Lu  Lu0  1  0.000000  0.879910  0.082947  1
  Lu  Lu1  1  0.000000  0.739430  0.281776  1
  Lu  Lu2  1  0.000000  0.722180  0.776335  1
  Lu  Lu3  1  0.000000  0.385505  0.414364  1
  Lu  Lu4  1  0.000000  0.120090  0.917053  1
  Lu  Lu5  1  0.000000  0.260570  0.718224  1
  Lu  Lu6  1  0.000000  0.500000  0.000000  1
  Lu  Lu7  1  0.000000  0.277820  0.223665  1
  Lu  Lu8  1  0.000000  0.614495  0.585636  1
  Lu  Lu9  1  0.000000  0.000000  0.500000  1
  In  In10  1  0.500000  0.210470  0.065254  1
  In  In11  1  0.500000  0.428111  0.851584  1
  In  In12  1  0.500000  0.571889  0.148416  1
  In  In13  1  0.500000  0.081233  0.354407  1
  In  In14  1  0.500000  0.918767  0.645593  1
  In  In15  1  0.500000  0.789530  0.934746  1
  In  In16  1  0.500000  0.707556  0.432280  1
  In  In17  1  0.500000  0.292444  0.567720  1
  Os  Os18  1  0.500000  0.521526  0.695756  1
  Os  Os19  1  0.500000  0.478474  0.304244  1
  Au  Au20  1  0.500000  0.978948  0.198526  1
  Au  Au21  1  0.500000  0.021052  0.801474  1
