# generated using pymatgen
data_Sm4PBr6
_symmetry_space_group_name_H-M   'P 1'
_cell_length_a   4.09639700
_cell_length_b   13.39213500
_cell_length_c   14.13105900
_cell_angle_alpha   90.00000000
_cell_angle_beta   90.00000000
_cell_angle_gamma   90.00000000
_symmetry_Int_Tables_number   1
_chemical_formula_structural   Sm4PBr6
_chemical_formula_sum   'Sm8 P2 Br12'
_cell_volume   775.22285435
_cell_formula_units_Z   2
loop_
 _symmetry_equiv_pos_site_id
 _symmetry_equiv_pos_as_xyz
  1  'x, y, z'
loop_
 _atom_site_type_symbol
 _atom_site_label
 _atom_site_symmetry_multiplicity
 _atom_site_fract_x
 _atom_site_fract_y
 _atom_site_fract_z
 _atom_site_occupancy
  Sm  Sm0  1  0.500000  0.117782  0.342099  1
  Sm  Sm1  1  0.500000  0.882218  0.657901  1
  Sm  Sm2  1  0.500000  0.617782  0.157901  1
  Sm  Sm3  1  0.500000  0.382218  0.842099  1
  Sm  Sm4  1  0.000000  0.115933  0.576985  1
  Sm  Sm5  1  0.000000  0.884067  0.423015  1
  Sm  Sm6  1  0.000000  0.615933  0.923015  1
  Sm  Sm7  1  0.000000  0.384067  0.076985  1
  P  P8  1  0.500000  0.000000  0.500000  1
  P  P9  1  0.500000  0.500000  0.000000  1
  Br  Br10  1  0.500000  0.242904  0.162579  1
  Br  Br11  1  0.500000  0.757096  0.837421  1
  Br  Br12  1  0.500000  0.742904  0.337421  1
  Br  Br13  1  0.500000  0.257096  0.662579  1
  Br  Br14  1  0.000000  0.257241  0.412301  1
  Br  Br15  1  0.000000  0.742759  0.587699  1
  Br  Br16  1  0.000000  0.757241  0.087699  1
  Br  Br17  1  0.000000  0.242759  0.912301  1
  Br  Br18  1  0.000000  0.000193  0.241733  1
  Br  Br19  1  0.000000  0.999807  0.758267  1
  Br  Br20  1  0.000000  0.500193  0.258267  1
  Br  Br21  1  0.000000  0.499807  0.741733  1
