# generated using pymatgen
data_Lu3Sc3TcAs2
_symmetry_space_group_name_H-M   'P 1'
_cell_length_a   7.47326600
_cell_length_b   7.47326669
_cell_length_c   4.07695200
_cell_angle_alpha   90.00000000
_cell_angle_beta   90.00000000
_cell_angle_gamma   119.99999695
_symmetry_Int_Tables_number   1
_chemical_formula_structural   Lu3Sc3TcAs2
_chemical_formula_sum   'Lu3 Sc3 Tc1 As2'
_cell_volume   197.19103412
_cell_formula_units_Z   1
loop_
 _symmetry_equiv_pos_site_id
 _symmetry_equiv_pos_as_xyz
  1  'x, y, z'
loop_
 _atom_site_type_symbol
 _atom_site_label
 _atom_site_symmetry_multiplicity
 _atom_site_fract_x
 _atom_site_fract_y
 _atom_site_fract_z
 _atom_site_occupancy
  Lu  Lu0  1  0.594853  0.000000  0.000000  1
  Lu  Lu1  1  0.405147  0.405147  0.000000  1
  Lu  Lu2  1  0.000000  0.594853  0.000000  1
  Sc  Sc3  1  0.238385  0.000000  0.499999  1
  Sc  Sc4  1  0.000000  0.238385  0.499999  1
  Sc  Sc5  1  0.761615  0.761616  0.499999  1
  Tc  Tc6  1  0.000000  0.000000  0.000000  1
  As  As7  1  0.666666  0.333333  0.499999  1
  As  As8  1  0.333333  0.666667  0.499999  1
