# generated using pymatgen
data_Ca4TaTiV2O12
_symmetry_space_group_name_H-M   'P 1'
_cell_length_a   5.44109633
_cell_length_b   5.56180624
_cell_length_c   7.75021501
_cell_angle_alpha   89.68659298
_cell_angle_beta   89.68723473
_cell_angle_gamma   89.98796386
_symmetry_Int_Tables_number   1
_chemical_formula_structural   Ca4TaTiV2O12
_chemical_formula_sum   'Ca4 Ta1 Ti1 V2 O12'
_cell_volume   234.53250722
_cell_formula_units_Z   1
loop_
 _symmetry_equiv_pos_site_id
 _symmetry_equiv_pos_as_xyz
  1  'x, y, z'
loop_
 _atom_site_type_symbol
 _atom_site_label
 _atom_site_symmetry_multiplicity
 _atom_site_fract_x
 _atom_site_fract_y
 _atom_site_fract_z
 _atom_site_occupancy
  Ca  Ca0  1  0.991938  0.042013  0.737189  1
  Ca  Ca1  1  0.487981  0.449207  0.260506  1
  Ca  Ca2  1  0.512019  0.550793  0.739494  1
  Ca  Ca3  1  0.008062  0.957987  0.262811  1
  Ta  Ta4  1  0.000000  0.500000  0.000000  1
  Ti  Ti5  1  0.000000  0.500000  0.500000  1
  V  V6  1  0.500000  0.000000  0.500000  1
  V  V7  1  0.500000  0.000000  0.000000  1
  O  O8  1  0.915134  0.523029  0.250650  1
  O  O9  1  0.421954  0.978866  0.736493  1
  O  O10  1  0.578046  0.021134  0.263507  1
  O  O11  1  0.084866  0.476971  0.749350  1
  O  O12  1  0.702994  0.299302  0.958053  1
  O  O13  1  0.198665  0.205161  0.045166  1
  O  O14  1  0.795267  0.786167  0.541823  1
  O  O15  1  0.286710  0.706990  0.457329  1
  O  O16  1  0.713290  0.293010  0.542671  1
  O  O17  1  0.204733  0.213833  0.458177  1
  O  O18  1  0.297006  0.700698  0.041947  1
  O  O19  1  0.801335  0.794839  0.954834  1
