# generated using pymatgen
data_Sr6UOsO12
_symmetry_space_group_name_H-M   'P 1'
_cell_length_a   6.99146750
_cell_length_b   6.99146844
_cell_length_c   6.99146677
_cell_angle_alpha   92.57991243
_cell_angle_beta   92.57991273
_cell_angle_gamma   92.57989946
_symmetry_Int_Tables_number   1
_chemical_formula_structural   Sr6UOsO12
_chemical_formula_sum   'Sr6 U1 Os1 O12'
_cell_volume   340.67577096
_cell_formula_units_Z   1
loop_
 _symmetry_equiv_pos_site_id
 _symmetry_equiv_pos_as_xyz
  1  'x, y, z'
loop_
 _atom_site_type_symbol
 _atom_site_label
 _atom_site_symmetry_multiplicity
 _atom_site_fract_x
 _atom_site_fract_y
 _atom_site_fract_z
 _atom_site_occupancy
  Sr  Sr0  1  0.068997  0.261495  0.562357  1
  Sr  Sr1  1  0.437643  0.931003  0.738505  1
  Sr  Sr2  1  0.738505  0.437643  0.931003  1
  Sr  Sr3  1  0.261495  0.562357  0.068997  1
  Sr  Sr4  1  0.562357  0.068997  0.261495  1
  Sr  Sr5  1  0.931003  0.738505  0.437643  1
  U  U6  1  0.000000  0.000000  0.000000  1
  Os  Os7  1  0.500000  0.500000  0.500000  1
  O  O8  1  0.062393  0.286306  0.932988  1
  O  O9  1  0.067012  0.937607  0.713694  1
  O  O10  1  0.453644  0.574699  0.767750  1
  O  O11  1  0.713694  0.067012  0.937607  1
  O  O12  1  0.232250  0.546356  0.425301  1
  O  O13  1  0.425301  0.232250  0.546356  1
  O  O14  1  0.574699  0.767750  0.453644  1
  O  O15  1  0.767750  0.453644  0.574699  1
  O  O16  1  0.286306  0.932988  0.062393  1
  O  O17  1  0.546356  0.425301  0.232250  1
  O  O18  1  0.932988  0.062393  0.286306  1
  O  O19  1  0.937607  0.713694  0.067012  1
