# generated using pymatgen
data_TmZr2Fe9
_symmetry_space_group_name_H-M   'P 1'
_cell_length_a   4.96413426
_cell_length_b   4.96413495
_cell_length_c   8.43318606
_cell_angle_alpha   72.88315056
_cell_angle_beta   72.88315115
_cell_angle_gamma   59.99999855
_symmetry_Int_Tables_number   1
_chemical_formula_structural   TmZr2Fe9
_chemical_formula_sum   'Tm1 Zr2 Fe9'
_cell_volume   169.26154458
_cell_formula_units_Z   1
loop_
 _symmetry_equiv_pos_site_id
 _symmetry_equiv_pos_as_xyz
  1  'x, y, z'
loop_
 _atom_site_type_symbol
 _atom_site_label
 _atom_site_symmetry_multiplicity
 _atom_site_fract_x
 _atom_site_fract_y
 _atom_site_fract_z
 _atom_site_occupancy
  Tm  Tm0  1  0.000000  0.000000  0.000000  1
  Zr  Zr1  1  0.142308  0.142308  0.573075  1
  Zr  Zr2  1  0.857692  0.857692  0.426925  1
  Fe  Fe3  1  0.082320  0.584774  0.748131  1
  Fe  Fe4  1  0.584774  0.584774  0.748131  1
  Fe  Fe5  1  0.584774  0.082320  0.748131  1
  Fe  Fe6  1  0.917680  0.415226  0.251869  1
  Fe  Fe7  1  0.415226  0.415226  0.251869  1
  Fe  Fe8  1  0.415226  0.917680  0.251869  1
  Fe  Fe9  1  0.332770  0.332770  0.001690  1
  Fe  Fe10  1  0.667230  0.667230  0.998310  1
  Fe  Fe11  1  0.500000  0.500000  0.500000  1
