# generated using pymatgen
data_YTm11ZnCo4Bi
_symmetry_space_group_name_H-M   'P 1'
_cell_length_a   8.26790361
_cell_length_b   8.26790387
_cell_length_c   8.24231256
_cell_angle_alpha   109.80381040
_cell_angle_beta   111.35066088
_cell_angle_gamma   107.41556857
_symmetry_Int_Tables_number   1
_chemical_formula_structural   YTm11ZnCo4Bi
_chemical_formula_sum   'Y1 Tm11 Zn1 Co4 Bi1'
_cell_volume   432.50232070
_cell_formula_units_Z   1
loop_
 _symmetry_equiv_pos_site_id
 _symmetry_equiv_pos_as_xyz
  1  'x, y, z'
loop_
 _atom_site_type_symbol
 _atom_site_label
 _atom_site_symmetry_multiplicity
 _atom_site_fract_x
 _atom_site_fract_y
 _atom_site_fract_z
 _atom_site_occupancy
  Y  Y0  1  0.283935  0.184061  0.467997  1
  Tm  Tm1  1  0.714927  0.817981  0.532908  1
  Tm  Tm2  1  0.285546  0.817407  0.102953  1
  Tm  Tm3  1  0.715275  0.181659  0.896935  1
  Tm  Tm4  1  0.622090  0.314272  0.307216  1
  Tm  Tm5  1  0.379573  0.688144  0.693545  1
  Tm  Tm6  1  0.005401  0.313972  0.693545  1
  Tm  Tm7  1  0.992944  0.685126  0.307216  1
  Tm  Tm8  1  0.219621  0.428585  0.206748  1
  Tm  Tm9  1  0.782215  0.574608  0.794311  1
  Tm  Tm10  1  0.219704  0.012096  0.794311  1
  Tm  Tm11  1  0.778163  0.987127  0.206748  1
  Zn  Zn12  1  0.998291  0.000201  0.998492  1
  Co  Co13  1  0.999245  0.376557  0.375802  1
  Co  Co14  1  0.999983  0.623532  0.623516  1
  Co  Co15  1  0.388251  0.884192  0.499156  1
  Co  Co16  1  0.614964  0.110904  0.499156  1
  Bi  Bi17  1  0.499872  0.499575  0.999447  1
