# generated using pymatgen
data_Ti2V3Si2B4W5
_symmetry_space_group_name_H-M   'P 1'
_cell_length_a   6.96043060
_cell_length_b   6.96042997
_cell_length_c   6.96640501
_cell_angle_alpha   129.32368375
_cell_angle_beta   129.32368086
_cell_angle_gamma   74.66434840
_symmetry_Int_Tables_number   1
_chemical_formula_structural   Ti2V3Si2B4W5
_chemical_formula_sum   'Ti2 V3 Si2 B4 W5'
_cell_volume   196.59901528
_cell_formula_units_Z   1
loop_
 _symmetry_equiv_pos_site_id
 _symmetry_equiv_pos_as_xyz
  1  'x, y, z'
loop_
 _atom_site_type_symbol
 _atom_site_label
 _atom_site_symmetry_multiplicity
 _atom_site_fract_x
 _atom_site_fract_y
 _atom_site_fract_z
 _atom_site_occupancy
  Ti  Ti0  1  0.472323  0.306183  0.499644  1
  Ti  Ti1  1  0.806183  0.972323  0.499644  1
  V  V2  1  0.303156  0.803156  0.834865  1
  V  V3  1  0.001230  0.999019  0.999638  1
  V  V4  1  0.499019  0.501230  0.999638  1
  Si  Si5  1  0.248872  0.241625  0.996901  1
  Si  Si6  1  0.741625  0.748872  0.996901  1
  B  B7  1  0.621127  0.121127  0.739992  1
  B  B8  1  0.122335  0.382310  0.503385  1
  B  B9  1  0.882310  0.622335  0.503385  1
  B  B10  1  0.381428  0.881428  0.258900  1
  W  W11  1  0.531130  0.693718  0.498414  1
  W  W12  1  0.030292  0.530292  0.838211  1
  W  W13  1  0.692442  0.192442  0.162572  1
  W  W14  1  0.972807  0.472807  0.169498  1
  W  W15  1  0.193718  0.031130  0.498414  1
