# generated using pymatgen
data_Pr2ThAl7Cu2
_symmetry_space_group_name_H-M   'P 1'
_cell_length_a   9.25052036
_cell_length_b   9.25052123
_cell_length_c   9.25051972
_cell_angle_alpha   35.30252500
_cell_angle_beta   35.30251654
_cell_angle_gamma   35.30252111
_symmetry_Int_Tables_number   1
_chemical_formula_structural   Pr2ThAl7Cu2
_chemical_formula_sum   'Pr2 Th1 Al7 Cu2'
_cell_volume   236.16359446
_cell_formula_units_Z   1
loop_
 _symmetry_equiv_pos_site_id
 _symmetry_equiv_pos_as_xyz
  1  'x, y, z'
loop_
 _atom_site_type_symbol
 _atom_site_label
 _atom_site_symmetry_multiplicity
 _atom_site_fract_x
 _atom_site_fract_y
 _atom_site_fract_z
 _atom_site_occupancy
  Pr  Pr0  1  0.859194  0.859194  0.859194  1
  Pr  Pr1  1  0.140806  0.140806  0.140806  1
  Th  Th2  1  0.000000  0.000000  0.000000  1
  Al  Al3  1  0.420069  0.420069  0.928233  1
  Al  Al4  1  0.928233  0.420069  0.420069  1
  Al  Al5  1  0.420069  0.928233  0.420069  1
  Al  Al6  1  0.500000  0.500000  0.500000  1
  Al  Al7  1  0.579931  0.071767  0.579931  1
  Al  Al8  1  0.071767  0.579931  0.579931  1
  Al  Al9  1  0.579931  0.579931  0.071767  1
  Cu  Cu10  1  0.664439  0.664439  0.664439  1
  Cu  Cu11  1  0.335561  0.335561  0.335561  1
