# generated using pymatgen
data_ErIn3BiB4Ir9
_symmetry_space_group_name_H-M   'P 1'
_cell_length_a   5.63282200
_cell_length_b   5.63282118
_cell_length_c   10.49756700
_cell_angle_alpha   90.00000000
_cell_angle_beta   90.00000000
_cell_angle_gamma   120.00000482
_symmetry_Int_Tables_number   1
_chemical_formula_structural   ErIn3BiB4Ir9
_chemical_formula_sum   'Er1 In3 Bi1 B4 Ir9'
_cell_volume   288.45047444
_cell_formula_units_Z   1
loop_
 _symmetry_equiv_pos_site_id
 _symmetry_equiv_pos_as_xyz
  1  'x, y, z'
loop_
 _atom_site_type_symbol
 _atom_site_label
 _atom_site_symmetry_multiplicity
 _atom_site_fract_x
 _atom_site_fract_y
 _atom_site_fract_z
 _atom_site_occupancy
  Er  Er0  1  0.000000  0.000000  0.915893  1
  In  In1  1  0.666667  0.333333  0.506778  1
  In  In2  1  0.000000  0.000000  0.313517  1
  In  In3  1  0.333333  0.666667  0.506778  1
  Bi  Bi4  1  0.000000  0.000000  0.620361  1
  B  B5  1  0.666667  0.333333  0.155810  1
  B  B6  1  0.333333  0.666667  0.866781  1
  B  B7  1  0.666667  0.333333  0.866781  1
  B  B8  1  0.333333  0.666667  0.155810  1
  Ir  Ir9  1  0.000000  0.501136  0.282736  1
  Ir  Ir10  1  0.459736  0.000000  0.735468  1
  Ir  Ir11  1  0.501136  0.000000  0.282736  1
  Ir  Ir12  1  0.000000  0.493635  0.012291  1
  Ir  Ir13  1  0.540264  0.540264  0.735468  1
  Ir  Ir14  1  0.000000  0.459736  0.735468  1
  Ir  Ir15  1  0.506365  0.506365  0.012291  1
  Ir  Ir16  1  0.493635  0.000000  0.012291  1
  Ir  Ir17  1  0.498864  0.498864  0.282736  1
