# generated using pymatgen
data_PrIn2Cu2Ni7
_symmetry_space_group_name_H-M   'P 1'
_cell_length_a   4.92895300
_cell_length_b   8.27613300
_cell_length_c   8.27538400
_cell_angle_alpha   90.00000000
_cell_angle_beta   90.00000000
_cell_angle_gamma   90.00000000
_symmetry_Int_Tables_number   1
_chemical_formula_structural   PrIn2Cu2Ni7
_chemical_formula_sum   'Pr2 In4 Cu4 Ni14'
_cell_volume   337.57501342
_cell_formula_units_Z   2
loop_
 _symmetry_equiv_pos_site_id
 _symmetry_equiv_pos_as_xyz
  1  'x, y, z'
loop_
 _atom_site_type_symbol
 _atom_site_label
 _atom_site_symmetry_multiplicity
 _atom_site_fract_x
 _atom_site_fract_y
 _atom_site_fract_z
 _atom_site_occupancy
  Pr  Pr0  1  0.000000  0.500000  0.500000  1
  Pr  Pr1  1  0.000000  0.000000  0.000000  1
  In  In2  1  0.000000  0.621816  0.126383  1
  In  In3  1  0.000000  0.378184  0.873617  1
  In  In4  1  0.000000  0.878184  0.626383  1
  In  In5  1  0.000000  0.121816  0.373617  1
  Cu  Cu6  1  0.500000  0.705824  0.564955  1
  Cu  Cu7  1  0.500000  0.294176  0.435045  1
  Cu  Cu8  1  0.500000  0.794176  0.064955  1
  Cu  Cu9  1  0.500000  0.205824  0.935045  1
  Ni  Ni10  1  0.752934  0.175127  0.675347  1
  Ni  Ni11  1  0.752934  0.824873  0.324653  1
  Ni  Ni12  1  0.752934  0.324873  0.175347  1
  Ni  Ni13  1  0.752934  0.675127  0.824653  1
  Ni  Ni14  1  0.247066  0.824873  0.324653  1
  Ni  Ni15  1  0.247066  0.175127  0.675347  1
  Ni  Ni16  1  0.247066  0.675127  0.824653  1
  Ni  Ni17  1  0.247066  0.324873  0.175347  1
  Ni  Ni18  1  0.500000  0.566657  0.289894  1
  Ni  Ni19  1  0.500000  0.433343  0.710106  1
  Ni  Ni20  1  0.500000  0.066657  0.210106  1
  Ni  Ni21  1  0.500000  0.933343  0.789894  1
  Ni  Ni22  1  0.500000  0.000000  0.500000  1
  Ni  Ni23  1  0.500000  0.500000  0.000000  1
