# generated using pymatgen
data_Ce3Al9Si3Os4
_symmetry_space_group_name_H-M   'P 1'
_cell_length_a   8.81062200
_cell_length_b   8.81062245
_cell_length_c   9.50147300
_cell_angle_alpha   90.00000000
_cell_angle_beta   90.00000000
_cell_angle_gamma   119.99999829
_symmetry_Int_Tables_number   1
_chemical_formula_structural   Ce3Al9Si3Os4
_chemical_formula_sum   'Ce6 Al18 Si6 Os8'
_cell_volume   638.75562636
_cell_formula_units_Z   2
loop_
 _symmetry_equiv_pos_site_id
 _symmetry_equiv_pos_as_xyz
  1  'x, y, z'
loop_
 _atom_site_type_symbol
 _atom_site_label
 _atom_site_symmetry_multiplicity
 _atom_site_fract_x
 _atom_site_fract_y
 _atom_site_fract_z
 _atom_site_occupancy
  Ce  Ce0  1  0.807071  0.614142  0.750000  1
  Ce  Ce1  1  0.192929  0.807071  0.250000  1
  Ce  Ce2  1  0.614142  0.807071  0.250000  1
  Ce  Ce3  1  0.385858  0.192929  0.750000  1
  Ce  Ce4  1  0.807071  0.192929  0.750000  1
  Ce  Ce5  1  0.192929  0.385858  0.250000  1
  Al  Al6  1  0.165297  0.330593  0.576828  1
  Al  Al7  1  0.669407  0.834703  0.576828  1
  Al  Al8  1  0.165297  0.834703  0.576828  1
  Al  Al9  1  0.834703  0.165297  0.076828  1
  Al  Al10  1  0.834703  0.165297  0.423172  1
  Al  Al11  1  0.834703  0.669407  0.076828  1
  Al  Al12  1  0.330593  0.165297  0.076828  1
  Al  Al13  1  0.669407  0.834703  0.923172  1
  Al  Al14  1  0.165297  0.330593  0.923172  1
  Al  Al15  1  0.834703  0.669407  0.423172  1
  Al  Al16  1  0.564001  0.128001  0.250000  1
  Al  Al17  1  0.435999  0.564001  0.750000  1
  Al  Al18  1  0.128001  0.564001  0.750000  1
  Al  Al19  1  0.871999  0.435999  0.250000  1
  Al  Al20  1  0.564001  0.435999  0.250000  1
  Al  Al21  1  0.435999  0.871999  0.750000  1
  Al  Al22  1  0.165297  0.834703  0.923172  1
  Al  Al23  1  0.330593  0.165297  0.423172  1
  Si  Si24  1  0.333333  0.666667  0.465510  1
  Si  Si25  1  0.666667  0.333333  0.965510  1
  Si  Si26  1  0.666667  0.333333  0.534490  1
  Si  Si27  1  0.333333  0.666667  0.034490  1
  Si  Si28  1  0.000000  0.000000  0.250000  1
  Si  Si29  1  0.000000  0.000000  0.750000  1
  Os  Os30  1  0.000000  0.000000  0.500000  1
  Os  Os31  1  0.000000  0.000000  0.000000  1
  Os  Os32  1  0.500000  0.000000  0.500000  1
  Os  Os33  1  0.500000  0.500000  0.000000  1
  Os  Os34  1  0.000000  0.500000  0.000000  1
  Os  Os35  1  0.000000  0.500000  0.500000  1
  Os  Os36  1  0.500000  0.500000  0.500000  1
  Os  Os37  1  0.500000  0.000000  0.000000  1
