# generated using pymatgen
data_Dy2SnWF14
_symmetry_space_group_name_H-M   'P 1'
_cell_length_a   5.69674900
_cell_length_b   9.10941151
_cell_length_c   12.25711000
_cell_angle_alpha   62.78703049
_cell_angle_beta   90.00000000
_cell_angle_gamma   90.00000000
_symmetry_Int_Tables_number   1
_chemical_formula_structural   Dy2SnWF14
_chemical_formula_sum   'Dy4 Sn2 W2 F28'
_cell_volume   565.66599628
_cell_formula_units_Z   2
loop_
 _symmetry_equiv_pos_site_id
 _symmetry_equiv_pos_as_xyz
  1  'x, y, z'
loop_
 _atom_site_type_symbol
 _atom_site_label
 _atom_site_symmetry_multiplicity
 _atom_site_fract_x
 _atom_site_fract_y
 _atom_site_fract_z
 _atom_site_occupancy
  Dy  Dy0  1  0.760952  0.815325  0.764514  1
  Dy  Dy1  1  0.260952  0.184675  0.735486  1
  Dy  Dy2  1  0.241412  0.187000  0.234119  1
  Dy  Dy3  1  0.741412  0.813000  0.265881  1
  Sn  Sn4  1  0.243459  0.727426  0.042778  1
  Sn  Sn5  1  0.743459  0.272574  0.457222  1
  W  W6  1  0.756638  0.274104  0.956292  1
  W  W7  1  0.256638  0.725896  0.543708  1
  F  F8  1  0.458535  0.708554  0.920317  1
  F  F9  1  0.958535  0.291446  0.579683  1
  F  F10  1  0.545214  0.291540  0.080011  1
  F  F11  1  0.045214  0.708460  0.419989  1
  F  F12  1  0.454720  0.281095  0.549947  1
  F  F13  1  0.954720  0.718905  0.950053  1
  F  F14  1  0.549607  0.720628  0.445700  1
  F  F15  1  0.049607  0.279372  0.054300  1
  F  F16  1  0.763029  0.520106  0.858858  1
  F  F17  1  0.263029  0.479894  0.641142  1
  F  F18  1  0.232753  0.481996  0.141766  1
  F  F19  1  0.732753  0.518004  0.358234  1
  F  F20  1  0.754663  0.029095  0.054401  1
  F  F21  1  0.254663  0.970905  0.445599  1
  F  F22  1  0.240545  0.973314  0.944677  1
  F  F23  1  0.740545  0.026686  0.555323  1
  F  F24  1  0.977456  0.731742  0.649251  1
  F  F25  1  0.477456  0.268258  0.850749  1
  F  F26  1  0.015320  0.264699  0.355227  1
  F  F27  1  0.515320  0.735301  0.144773  1
  F  F28  1  0.034542  0.748443  0.168133  1
  F  F29  1  0.534542  0.251557  0.331867  1
  F  F30  1  0.964955  0.252365  0.831785  1
  F  F31  1  0.464955  0.747635  0.668215  1
  F  F32  1  0.435164  0.979235  0.234687  1
  F  F33  1  0.935164  0.020765  0.265313  1
  F  F34  1  0.571033  0.024366  0.764684  1
  F  F35  1  0.071033  0.975634  0.735316  1
