# generated using pymatgen
data_TbCo3(Ni3B2)3
_symmetry_space_group_name_H-M   'P 1'
_cell_length_a   5.97674723
_cell_length_b   5.97674681
_cell_length_c   5.97674679
_cell_angle_alpha   104.43810464
_cell_angle_beta   104.43810772
_cell_angle_gamma   104.43810363
_symmetry_Int_Tables_number   1
_chemical_formula_structural   TbCo3(Ni3B2)3
_chemical_formula_sum   'Tb1 Co3 Ni9 B6'
_cell_volume   188.85821301
_cell_formula_units_Z   1
loop_
 _symmetry_equiv_pos_site_id
 _symmetry_equiv_pos_as_xyz
  1  'x, y, z'
loop_
 _atom_site_type_symbol
 _atom_site_label
 _atom_site_symmetry_multiplicity
 _atom_site_fract_x
 _atom_site_fract_y
 _atom_site_fract_z
 _atom_site_occupancy
  Tb  Tb0  1  0.000000  0.000000  0.000000  1
  Co  Co1  1  0.866824  0.133176  0.500000  1
  Co  Co2  1  0.133176  0.500000  0.866824  1
  Co  Co3  1  0.500000  0.866824  0.133176  1
  Ni  Ni4  1  0.868574  0.500000  0.131426  1
  Ni  Ni5  1  0.500000  0.131426  0.868574  1
  Ni  Ni6  1  0.131426  0.868574  0.500000  1
  Ni  Ni7  1  0.813954  0.548553  0.546923  1
  Ni  Ni8  1  0.548553  0.546923  0.813954  1
  Ni  Ni9  1  0.546923  0.813954  0.548553  1
  Ni  Ni10  1  0.186046  0.453077  0.451447  1
  Ni  Ni11  1  0.453077  0.451447  0.186046  1
  Ni  Ni12  1  0.451447  0.186046  0.453077  1
  B  B13  1  0.328791  0.764238  0.770242  1
  B  B14  1  0.764238  0.770242  0.328791  1
  B  B15  1  0.770242  0.328791  0.764238  1
  B  B16  1  0.671209  0.229758  0.235762  1
  B  B17  1  0.229758  0.235762  0.671209  1
  B  B18  1  0.235762  0.671209  0.229758  1
