# generated using pymatgen
data_Tb4Ho5Lu11Bi12
_symmetry_space_group_name_H-M   'P 1'
_cell_length_a   8.18412208
_cell_length_b   9.41452903
_cell_length_c   11.95379256
_cell_angle_alpha   90.00819874
_cell_angle_beta   89.94171035
_cell_angle_gamma   89.99500484
_symmetry_Int_Tables_number   1
_chemical_formula_structural   Tb4Ho5Lu11Bi12
_chemical_formula_sum   'Tb4 Ho5 Lu11 Bi12'
_cell_volume   921.03510212
_cell_formula_units_Z   1
loop_
 _symmetry_equiv_pos_site_id
 _symmetry_equiv_pos_as_xyz
  1  'x, y, z'
loop_
 _atom_site_type_symbol
 _atom_site_label
 _atom_site_symmetry_multiplicity
 _atom_site_fract_x
 _atom_site_fract_y
 _atom_site_fract_z
 _atom_site_occupancy
  Tb  Tb0  1  0.313830  0.250001  0.218001  1
  Tb  Tb1  1  0.813693  0.250051  0.281933  1
  Tb  Tb2  1  0.686334  0.750366  0.781670  1
  Tb  Tb3  1  0.186354  0.750091  0.717915  1
  Ho  Ho4  1  0.352063  0.750436  0.217899  1
  Ho  Ho5  1  0.853095  0.750590  0.282652  1
  Ho  Ho6  1  0.647640  0.250359  0.782342  1
  Ho  Ho7  1  0.147573  0.250077  0.717672  1
  Ho  Ho8  1  0.691687  0.564924  0.059217  1
  Lu  Lu9  1  0.192038  0.933236  0.440892  1
  Lu  Lu10  1  0.307584  0.066628  0.940622  1
  Lu  Lu11  1  0.808080  0.433070  0.559219  1
  Lu  Lu12  1  0.308345  0.433078  0.940867  1
  Lu  Lu13  1  0.807972  0.066777  0.559136  1
  Lu  Lu14  1  0.692005  0.933326  0.059320  1
  Lu  Lu15  1  0.192046  0.566832  0.440872  1
  Lu  Lu16  1  0.477250  0.250193  0.489043  1
  Lu  Lu17  1  0.977543  0.250055  0.011116  1
  Lu  Lu18  1  0.522671  0.750029  0.511105  1
  Lu  Lu19  1  0.023387  0.750378  0.988809  1
  Bi  Bi20  1  0.402755  0.750600  0.958176  1
  Bi  Bi21  1  0.902925  0.749900  0.541703  1
  Bi  Bi22  1  0.596272  0.247318  0.041197  1
  Bi  Bi23  1  0.097069  0.250019  0.458377  1
  Bi  Bi24  1  0.565416  0.995186  0.327725  1
  Bi  Bi25  1  0.065883  0.505149  0.172651  1
  Bi  Bi26  1  0.434240  0.495112  0.672332  1
  Bi  Bi27  1  0.934621  0.005216  0.827419  1
  Bi  Bi28  1  0.434469  0.005201  0.672475  1
  Bi  Bi29  1  0.934323  0.495273  0.827340  1
  Bi  Bi30  1  0.565291  0.505193  0.327685  1
  Bi  Bi31  1  0.065547  0.995339  0.172619  1
