# generated using pymatgen
data_Tb3Lu3Al24Ru5Pt3
_symmetry_space_group_name_H-M   'P 1'
_cell_length_a   8.83385619
_cell_length_b   8.82834400
_cell_length_c   9.50080731
_cell_angle_alpha   90.23020950
_cell_angle_beta   89.99075009
_cell_angle_gamma   119.81061594
_symmetry_Int_Tables_number   1
_chemical_formula_structural   Tb3Lu3Al24Ru5Pt3
_chemical_formula_sum   'Tb3 Lu3 Al24 Ru5 Pt3'
_cell_volume   642.89769266
_cell_formula_units_Z   1
loop_
 _symmetry_equiv_pos_site_id
 _symmetry_equiv_pos_as_xyz
  1  'x, y, z'
loop_
 _atom_site_type_symbol
 _atom_site_label
 _atom_site_symmetry_multiplicity
 _atom_site_fract_x
 _atom_site_fract_y
 _atom_site_fract_z
 _atom_site_occupancy
  Tb  Tb0  1  0.615998  0.809268  0.750747  1
  Tb  Tb1  1  0.191170  0.807098  0.750411  1
  Tb  Tb2  1  0.189648  0.384172  0.751790  1
  Lu  Lu3  1  0.389194  0.192577  0.248629  1
  Lu  Lu4  1  0.806297  0.196846  0.248832  1
  Lu  Lu5  1  0.808809  0.610104  0.248165  1
  Al  Al6  1  0.438312  0.875611  0.246836  1
  Al  Al7  1  0.121172  0.559952  0.250338  1
  Al  Al8  1  0.436750  0.562742  0.250518  1
  Al  Al9  1  0.562710  0.126062  0.754112  1
  Al  Al10  1  0.877127  0.439085  0.749546  1
  Al  Al11  1  0.564220  0.436323  0.749277  1
  Al  Al12  1  0.157417  0.832804  0.420809  1
  Al  Al13  1  0.157700  0.323783  0.420873  1
  Al  Al14  1  0.678530  0.838400  0.419053  1
  Al  Al15  1  0.841588  0.167591  0.575105  1
  Al  Al16  1  0.841665  0.674667  0.575008  1
  Al  Al17  1  0.322889  0.161934  0.576748  1
  Al  Al18  1  0.837056  0.164390  0.925675  1
  Al  Al19  1  0.841850  0.674831  0.924762  1
  Al  Al20  1  0.324870  0.158200  0.924830  1
  Al  Al21  1  0.162387  0.836558  0.078440  1
  Al  Al22  1  0.157654  0.323993  0.079347  1
  Al  Al23  1  0.676438  0.842578  0.079507  1
  Al  Al24  1  0.327347  0.663303  0.526117  1
  Al  Al25  1  0.671808  0.336236  0.469590  1
  Al  Al26  1  0.669137  0.330807  0.027125  1
  Al  Al27  1  0.330677  0.669816  0.976839  1
  Al  Al28  1  0.002339  0.999990  0.249829  1
  Al  Al29  1  0.997446  0.000048  0.750155  1
  Ru  Ru30  1  0.999970  0.999976  0.499898  1
  Ru  Ru31  1  0.000042  0.000110  0.000104  1
  Ru  Ru32  1  0.998765  0.499233  0.498333  1
  Ru  Ru33  1  0.500856  0.001531  0.001838  1
  Ru  Ru34  1  0.998770  0.499439  0.001671  1
  Pt  Pt35  1  0.500487  0.000731  0.499184  1
  Pt  Pt36  1  0.500341  0.499523  0.499117  1
  Pt  Pt37  1  0.500565  0.499688  0.000841  1
