# generated using pymatgen
data_Ce4ReTcOs6
_symmetry_space_group_name_H-M   'P 1'
_cell_length_a   5.22320033
_cell_length_b   5.22320068
_cell_length_c   9.09713700
_cell_angle_alpha   90.00000000
_cell_angle_beta   90.00000000
_cell_angle_gamma   115.77983078
_symmetry_Int_Tables_number   1
_chemical_formula_structural   Ce4ReTcOs6
_chemical_formula_sum   'Ce4 Re1 Tc1 Os6'
_cell_volume   223.48496279
_cell_formula_units_Z   1
loop_
 _symmetry_equiv_pos_site_id
 _symmetry_equiv_pos_as_xyz
  1  'x, y, z'
loop_
 _atom_site_type_symbol
 _atom_site_label
 _atom_site_symmetry_multiplicity
 _atom_site_fract_x
 _atom_site_fract_y
 _atom_site_fract_z
 _atom_site_occupancy
  Ce  Ce0  1  0.334565  0.665435  0.433973  1
  Ce  Ce1  1  0.663489  0.336511  0.566764  1
  Ce  Ce2  1  0.663489  0.336511  0.933236  1
  Ce  Ce3  1  0.334565  0.665435  0.066027  1
  Re  Re4  1  0.834653  0.165347  0.250000  1
  Tc  Tc5  1  0.170802  0.829198  0.750000  1
  Os  Os6  1  0.995544  0.004456  0.500006  1
  Os  Os7  1  0.995544  0.004456  0.999994  1
  Os  Os8  1  0.835833  0.656947  0.250000  1
  Os  Os9  1  0.343053  0.164167  0.250000  1
  Os  Os10  1  0.166633  0.338170  0.750000  1
  Os  Os11  1  0.661830  0.833367  0.750000  1
