# generated using pymatgen
data_DyTh2(InRh)3
_symmetry_space_group_name_H-M   'P 1'
_cell_length_a   7.71597271
_cell_length_b   7.71597313
_cell_length_c   3.97583700
_cell_angle_alpha   90.00000000
_cell_angle_beta   90.00000000
_cell_angle_gamma   121.23856961
_symmetry_Int_Tables_number   1
_chemical_formula_structural   DyTh2(InRh)3
_chemical_formula_sum   'Dy1 Th2 In3 Rh3'
_cell_volume   202.38758622
_cell_formula_units_Z   1
loop_
 _symmetry_equiv_pos_site_id
 _symmetry_equiv_pos_as_xyz
  1  'x, y, z'
loop_
 _atom_site_type_symbol
 _atom_site_label
 _atom_site_symmetry_multiplicity
 _atom_site_fract_x
 _atom_site_fract_y
 _atom_site_fract_z
 _atom_site_occupancy
  Dy  Dy0  1  0.408813  0.408813  0.500000  1
  Th  Th1  1  0.001958  0.588198  0.500000  1
  Th  Th2  1  0.588198  0.001958  0.500000  1
  In  In3  1  0.015125  0.251565  0.000000  1
  In  In4  1  0.251565  0.015125  0.000000  1
  In  In5  1  0.733453  0.733453  0.000000  1
  Rh  Rh6  1  0.985525  0.985525  0.500000  1
  Rh  Rh7  1  0.685256  0.330107  0.000000  1
  Rh  Rh8  1  0.330107  0.685256  0.000000  1
