# generated using pymatgen
data_Nd5ThCd23P
_symmetry_space_group_name_H-M   'P 1'
_cell_length_a   10.05399327
_cell_length_b   10.05399343
_cell_length_c   10.07130700
_cell_angle_alpha   59.94301509
_cell_angle_beta   59.94301455
_cell_angle_gamma   60.11396595
_symmetry_Int_Tables_number   1
_chemical_formula_structural   Nd5ThCd23P
_chemical_formula_sum   'Nd5 Th1 Cd23 P1'
_cell_volume   719.85566891
_cell_formula_units_Z   1
loop_
 _symmetry_equiv_pos_site_id
 _symmetry_equiv_pos_as_xyz
  1  'x, y, z'
loop_
 _atom_site_type_symbol
 _atom_site_label
 _atom_site_symmetry_multiplicity
 _atom_site_fract_x
 _atom_site_fract_y
 _atom_site_fract_z
 _atom_site_occupancy
  Nd  Nd0  1  0.200586  0.798248  0.201752  1
  Nd  Nd1  1  0.798248  0.200586  0.201752  1
  Nd  Nd2  1  0.200149  0.200149  0.799851  1
  Nd  Nd3  1  0.798248  0.200586  0.799414  1
  Nd  Nd4  1  0.200586  0.798248  0.799414  1
  Th  Th5  1  0.799674  0.799674  0.200326  1
  Cd  Cd6  1  0.833571  0.833571  0.500082  1
  Cd  Cd7  1  0.834287  0.498578  0.833567  1
  Cd  Cd8  1  0.498578  0.834287  0.833567  1
  Cd  Cd9  1  0.833571  0.833571  0.832774  1
  Cd  Cd10  1  0.166433  0.166433  0.501422  1
  Cd  Cd11  1  0.167226  0.499918  0.166429  1
  Cd  Cd12  1  0.499918  0.167226  0.166429  1
  Cd  Cd13  1  0.166433  0.166433  0.165713  1
  Cd  Cd14  1  0.621492  0.621492  0.135409  1
  Cd  Cd15  1  0.621595  0.135791  0.621307  1
  Cd  Cd16  1  0.135791  0.621595  0.621307  1
  Cd  Cd17  1  0.621492  0.621492  0.621607  1
  Cd  Cd18  1  0.378693  0.378693  0.864209  1
  Cd  Cd19  1  0.378393  0.864591  0.378508  1
  Cd  Cd20  1  0.864591  0.378393  0.378508  1
  Cd  Cd21  1  0.378693  0.378693  0.378405  1
  Cd  Cd22  1  0.000424  0.000424  0.499576  1
  Cd  Cd23  1  0.500865  0.999819  0.499135  1
  Cd  Cd24  1  0.999819  0.500865  0.499135  1
  Cd  Cd25  1  0.500424  0.500424  0.999576  1
  Cd  Cd26  1  0.999819  0.500865  0.000181  1
  Cd  Cd27  1  0.500865  0.999819  0.000181  1
  Cd  Cd28  1  0.500158  0.500158  0.499842  1
  P  P29  1  0.999377  0.999377  0.000623  1
