# generated using pymatgen
data_Ce3Dy3Er4(Al2Ru3)2
_symmetry_space_group_name_H-M   'P 1'
_cell_length_a   8.41288656
_cell_length_b   8.41288599
_cell_length_c   8.41288729
_cell_angle_alpha   110.12255507
_cell_angle_beta   110.12255193
_cell_angle_gamma   110.12254153
_symmetry_Int_Tables_number   1
_chemical_formula_structural   Ce3Dy3Er4(Al2Ru3)2
_chemical_formula_sum   'Ce3 Dy3 Er4 Al4 Ru6'
_cell_volume   446.97207778
_cell_formula_units_Z   1
loop_
 _symmetry_equiv_pos_site_id
 _symmetry_equiv_pos_as_xyz
  1  'x, y, z'
loop_
 _atom_site_type_symbol
 _atom_site_label
 _atom_site_symmetry_multiplicity
 _atom_site_fract_x
 _atom_site_fract_y
 _atom_site_fract_z
 _atom_site_occupancy
  Ce  Ce0  1  0.252819  0.198650  0.944867  1
  Ce  Ce1  1  0.944867  0.252819  0.198650  1
  Ce  Ce2  1  0.198650  0.944867  0.252819  1
  Dy  Dy3  1  0.721230  0.506821  0.994991  1
  Dy  Dy4  1  0.994991  0.721230  0.506821  1
  Dy  Dy5  1  0.506821  0.994991  0.721230  1
  Er  Er6  1  0.778409  0.778409  0.778409  1
  Er  Er7  1  0.314526  0.567351  0.751244  1
  Er  Er8  1  0.751244  0.314526  0.567351  1
  Er  Er9  1  0.567351  0.751244  0.314526  1
  Al  Al10  1  0.411789  0.411789  0.411789  1
  Al  Al11  1  0.094587  0.499112  0.001058  1
  Al  Al12  1  0.001058  0.094587  0.499112  1
  Al  Al13  1  0.499112  0.001058  0.094587  1
  Ru  Ru14  1  0.899227  0.119009  0.753617  1
  Ru  Ru15  1  0.753617  0.899227  0.119009  1
  Ru  Ru16  1  0.119009  0.753617  0.899227  1
  Ru  Ru17  1  0.226190  0.597839  0.366664  1
  Ru  Ru18  1  0.366664  0.226190  0.597839  1
  Ru  Ru19  1  0.597839  0.366664  0.226190  1
