# generated using pymatgen
data_Li3CaPN3
_symmetry_space_group_name_H-M   'P 1'
_cell_length_a   6.90072541
_cell_length_b   6.90072558
_cell_length_c   6.90072533
_cell_angle_alpha   48.14834389
_cell_angle_beta   48.14833776
_cell_angle_gamma   48.14835041
_symmetry_Int_Tables_number   1
_chemical_formula_structural   Li3CaPN3
_chemical_formula_sum   'Li6 Ca2 P2 N6'
_cell_volume   167.08997469
_cell_formula_units_Z   2
loop_
 _symmetry_equiv_pos_site_id
 _symmetry_equiv_pos_as_xyz
  1  'x, y, z'
loop_
 _atom_site_type_symbol
 _atom_site_label
 _atom_site_symmetry_multiplicity
 _atom_site_fract_x
 _atom_site_fract_y
 _atom_site_fract_z
 _atom_site_occupancy
  Li  Li0  1  0.475495  0.893982  0.245331  1
  Li  Li1  1  0.893982  0.245331  0.475495  1
  Li  Li2  1  0.754669  0.524505  0.106018  1
  Li  Li3  1  0.524505  0.106018  0.754669  1
  Li  Li4  1  0.106018  0.754669  0.524505  1
  Li  Li5  1  0.245331  0.475495  0.893982  1
  Ca  Ca6  1  0.337757  0.337757  0.337757  1
  Ca  Ca7  1  0.662243  0.662243  0.662243  1
  P  P8  1  0.939408  0.939408  0.939408  1
  P  P9  1  0.060592  0.060592  0.060592  1
  N  N10  1  0.202625  0.905170  0.634154  1
  N  N11  1  0.634154  0.202625  0.905170  1
  N  N12  1  0.797375  0.094830  0.365846  1
  N  N13  1  0.094830  0.365846  0.797375  1
  N  N14  1  0.365846  0.797375  0.094830  1
  N  N15  1  0.905170  0.634154  0.202625  1
