# generated using pymatgen
data_Gd4Ho8Co5Sb
_symmetry_space_group_name_H-M   'P 1'
_cell_length_a   8.23647035
_cell_length_b   8.23647043
_cell_length_c   8.23647000
_cell_angle_alpha   106.81773217
_cell_angle_beta   110.65190836
_cell_angle_gamma   110.97634368
_symmetry_Int_Tables_number   1
_chemical_formula_structural   Gd4Ho8Co5Sb
_chemical_formula_sum   'Gd4 Ho8 Co5 Sb1'
_cell_volume   429.44024491
_cell_formula_units_Z   1
loop_
 _symmetry_equiv_pos_site_id
 _symmetry_equiv_pos_as_xyz
  1  'x, y, z'
loop_
 _atom_site_type_symbol
 _atom_site_label
 _atom_site_symmetry_multiplicity
 _atom_site_fract_x
 _atom_site_fract_y
 _atom_site_fract_z
 _atom_site_occupancy
  Gd  Gd0  1  0.194268  0.209020  0.403288  1
  Gd  Gd1  1  0.805732  0.790980  0.596712  1
  Gd  Gd2  1  0.194268  0.790980  0.985248  1
  Gd  Gd3  1  0.805732  0.209020  0.014752  1
  Ho  Ho4  1  0.474482  0.290225  0.184257  1
  Ho  Ho5  1  0.105968  0.290225  0.815743  1
  Ho  Ho6  1  0.894032  0.709775  0.184257  1
  Ho  Ho7  1  0.525518  0.709775  0.815743  1
  Ho  Ho8  1  0.307594  0.620939  0.313345  1
  Ho  Ho9  1  0.307594  0.994250  0.686655  1
  Ho  Ho10  1  0.692406  0.379061  0.686655  1
  Ho  Ho11  1  0.692406  0.005750  0.313345  1
  Co  Co12  1  0.500000  0.612404  0.112404  1
  Co  Co13  1  0.500000  0.387596  0.887596  1
  Co  Co14  1  0.373927  0.000000  0.373927  1
  Co  Co15  1  0.626073  0.000000  0.626073  1
  Co  Co16  1  0.000000  0.000000  0.000000  1
  Sb  Sb17  1  0.000000  0.500000  0.500000  1
