# generated using pymatgen
data_CaDy2Er3(Si3Ru)8
_symmetry_space_group_name_H-M   'P 1'
_cell_length_a   10.12975672
_cell_length_b   10.12975630
_cell_length_c   8.13668901
_cell_angle_alpha   89.92792274
_cell_angle_beta   90.07208508
_cell_angle_gamma   132.63198279
_symmetry_Int_Tables_number   1
_chemical_formula_structural   CaDy2Er3(Si3Ru)8
_chemical_formula_sum   'Ca1 Dy2 Er3 Si24 Ru8'
_cell_volume   614.26726637
_cell_formula_units_Z   1
loop_
 _symmetry_equiv_pos_site_id
 _symmetry_equiv_pos_as_xyz
  1  'x, y, z'
loop_
 _atom_site_type_symbol
 _atom_site_label
 _atom_site_symmetry_multiplicity
 _atom_site_fract_x
 _atom_site_fract_y
 _atom_site_fract_z
 _atom_site_occupancy
  Ca  Ca0  1  0.498179  0.998179  0.250000  1
  Dy  Dy1  1  0.001303  0.501303  0.750000  1
  Dy  Dy2  1  0.502744  0.002744  0.750000  1
  Er  Er3  1  0.997328  0.497328  0.250000  1
  Er  Er4  1  0.499809  0.499674  0.499538  1
  Er  Er5  1  0.999674  0.999809  0.000462  1
  Si  Si6  1  0.388365  0.155208  0.002401  1
  Si  Si7  1  0.655208  0.888365  0.497599  1
  Si  Si8  1  0.111686  0.344627  0.505014  1
  Si  Si9  1  0.844627  0.611686  0.994986  1
  Si  Si10  1  0.612100  0.845699  0.993346  1
  Si  Si11  1  0.345699  0.112100  0.506654  1
  Si  Si12  1  0.888154  0.655602  0.494690  1
  Si  Si13  1  0.155602  0.388154  0.005310  1
  Si  Si14  1  0.614291  0.380118  0.228183  1
  Si  Si15  1  0.880118  0.114291  0.271817  1
  Si  Si16  1  0.888294  0.121639  0.727839  1
  Si  Si17  1  0.621639  0.388294  0.772161  1
  Si  Si18  1  0.388496  0.621664  0.771514  1
  Si  Si19  1  0.121664  0.888496  0.728486  1
  Si  Si20  1  0.705182  0.294544  0.001131  1
  Si  Si21  1  0.794544  0.205182  0.498869  1
  Si  Si22  1  0.295100  0.705498  0.000284  1
  Si  Si23  1  0.205498  0.795100  0.499716  1
  Si  Si24  1  0.166246  0.167441  0.333006  1
  Si  Si25  1  0.667441  0.666246  0.166994  1
  Si  Si26  1  0.332874  0.331634  0.833115  1
  Si  Si27  1  0.831634  0.832874  0.666885  1
  Si  Si28  1  0.376025  0.609909  0.228406  1
  Si  Si29  1  0.109909  0.876025  0.271594  1
  Ru  Ru30  1  0.625991  0.626461  0.873105  1
  Ru  Ru31  1  0.126461  0.125991  0.626895  1
  Ru  Ru32  1  0.873068  0.873387  0.372829  1
  Ru  Ru33  1  0.373387  0.373068  0.127171  1
  Ru  Ru34  1  0.329161  0.668168  0.500640  1
  Ru  Ru35  1  0.168168  0.829161  0.999360  1
  Ru  Ru36  1  0.671349  0.332980  0.501398  1
  Ru  Ru37  1  0.832980  0.171349  0.998602  1
