# generated using pymatgen
data_Pr16Nd4Si15As
_symmetry_space_group_name_H-M   'P 1'
_cell_length_a   7.93113040
_cell_length_b   7.92079204
_cell_length_c   15.34581036
_cell_angle_alpha   89.92478326
_cell_angle_beta   89.65365118
_cell_angle_gamma   89.96708602
_symmetry_Int_Tables_number   1
_chemical_formula_structural   Pr16Nd4Si15As
_chemical_formula_sum   'Pr16 Nd4 Si15 As1'
_cell_volume   964.01801514
_cell_formula_units_Z   1
loop_
 _symmetry_equiv_pos_site_id
 _symmetry_equiv_pos_as_xyz
  1  'x, y, z'
loop_
 _atom_site_type_symbol
 _atom_site_label
 _atom_site_symmetry_multiplicity
 _atom_site_fract_x
 _atom_site_fract_y
 _atom_site_fract_z
 _atom_site_occupancy
  Pr  Pr0  1  0.379601  0.009825  0.446080  1
  Pr  Pr1  1  0.490568  0.877161  0.697707  1
  Pr  Pr2  1  0.510697  0.121675  0.197188  1
  Pr  Pr3  1  0.877456  0.488595  0.302029  1
  Pr  Pr4  1  0.122757  0.510750  0.803300  1
  Pr  Pr5  1  0.623670  0.988208  0.947693  1
  Pr  Pr6  1  0.007366  0.378692  0.551065  1
  Pr  Pr7  1  0.989229  0.620995  0.052916  1
  Pr  Pr8  1  0.130162  0.984231  0.875752  1
  Pr  Pr9  1  0.518890  0.627727  0.126145  1
  Pr  Pr10  1  0.480949  0.371847  0.627644  1
  Pr  Pr11  1  0.628349  0.519067  0.873860  1
  Pr  Pr12  1  0.372018  0.480207  0.374069  1
  Pr  Pr13  1  0.872873  0.018425  0.376736  1
  Pr  Pr14  1  0.981895  0.128287  0.123927  1
  Pr  Pr15  1  0.017727  0.871237  0.623152  1
  Nd  Nd16  1  0.310997  0.310166  0.000089  1
  Nd  Nd17  1  0.189289  0.809533  0.249819  1
  Nd  Nd18  1  0.804892  0.190330  0.750922  1
  Nd  Nd19  1  0.688067  0.689696  0.498505  1
  Si  Si20  1  0.330702  0.695802  0.952092  1
  Si  Si21  1  0.668062  0.304910  0.453287  1
  Si  Si22  1  0.697222  0.332405  0.048034  1
  Si  Si23  1  0.304069  0.668081  0.548149  1
  Si  Si24  1  0.804145  0.832173  0.202536  1
  Si  Si25  1  0.168394  0.195860  0.297495  1
  Si  Si26  1  0.834802  0.804365  0.797250  1
  Si  Si27  1  0.287299  0.921427  0.059660  1
  Si  Si28  1  0.577868  0.788301  0.309638  1
  Si  Si29  1  0.431599  0.210920  0.814795  1
  Si  Si30  1  0.788732  0.578668  0.689197  1
  Si  Si31  1  0.211784  0.422613  0.190441  1
  Si  Si32  1  0.708798  0.076556  0.560335  1
  Si  Si33  1  0.923950  0.288490  0.940061  1
  Si  Si34  1  0.077924  0.711332  0.440190  1
  As  As35  1  0.187199  0.171441  0.698246  1
