# generated using pymatgen
data_Nd8Dy2IrOs3
_symmetry_space_group_name_H-M   'P 1'
_cell_length_a   6.60363703
_cell_length_b   7.38499280
_cell_length_c   8.79430240
_cell_angle_alpha   96.40359356
_cell_angle_beta   112.23870059
_cell_angle_gamma   89.94118403
_symmetry_Int_Tables_number   1
_chemical_formula_structural   Nd8Dy2IrOs3
_chemical_formula_sum   'Nd8 Dy2 Ir1 Os3'
_cell_volume   394.10441565
_cell_formula_units_Z   1
loop_
 _symmetry_equiv_pos_site_id
 _symmetry_equiv_pos_as_xyz
  1  'x, y, z'
loop_
 _atom_site_type_symbol
 _atom_site_label
 _atom_site_symmetry_multiplicity
 _atom_site_fract_x
 _atom_site_fract_y
 _atom_site_fract_z
 _atom_site_occupancy
  Nd  Nd0  1  0.793440  0.084118  0.820636  1
  Nd  Nd1  1  0.975941  0.418467  0.181183  1
  Nd  Nd2  1  0.206806  0.917330  0.184535  1
  Nd  Nd3  1  0.023124  0.580417  0.819933  1
  Nd  Nd4  1  0.211653  0.184669  0.564200  1
  Nd  Nd5  1  0.645738  0.315523  0.433818  1
  Nd  Nd6  1  0.785552  0.816892  0.431134  1
  Nd  Nd7  1  0.357764  0.682717  0.565559  1
  Dy  Dy8  1  0.431458  0.250498  0.001661  1
  Dy  Dy9  1  0.568766  0.750015  0.000118  1
  Ir  Ir10  1  0.184314  0.927409  0.784502  1
  Os  Os11  1  0.602195  0.428449  0.787286  1
  Os  Os12  1  0.817003  0.071293  0.213331  1
  Os  Os13  1  0.396249  0.572201  0.212103  1
