# generated using pymatgen
data_Tb17Y3Co3Bi8Ru
_symmetry_space_group_name_H-M   'P 1'
_cell_length_a   8.05150265
_cell_length_b   8.91409200
_cell_length_c   12.48877403
_cell_angle_alpha   90.00000000
_cell_angle_beta   90.14077525
_cell_angle_gamma   90.00000000
_symmetry_Int_Tables_number   1
_chemical_formula_structural   Tb17Y3Co3Bi8Ru
_chemical_formula_sum   'Tb17 Y3 Co3 Bi8 Ru1'
_cell_volume   896.33952805
_cell_formula_units_Z   1
loop_
 _symmetry_equiv_pos_site_id
 _symmetry_equiv_pos_as_xyz
  1  'x, y, z'
loop_
 _atom_site_type_symbol
 _atom_site_label
 _atom_site_symmetry_multiplicity
 _atom_site_fract_x
 _atom_site_fract_y
 _atom_site_fract_z
 _atom_site_occupancy
  Tb  Tb0  1  0.652778  0.750000  0.296953  1
  Tb  Tb1  1  0.377937  0.750000  0.693573  1
  Tb  Tb2  1  0.619369  0.250000  0.309715  1
  Tb  Tb3  1  0.880547  0.250000  0.810371  1
  Tb  Tb4  1  0.119053  0.750000  0.188582  1
  Tb  Tb5  1  0.952565  0.750000  0.503535  1
  Tb  Tb6  1  0.047225  0.250000  0.496790  1
  Tb  Tb7  1  0.453974  0.250000  0.997300  1
  Tb  Tb8  1  0.546369  0.750000  0.002617  1
  Tb  Tb9  1  0.677658  0.039990  0.564059  1
  Tb  Tb10  1  0.322153  0.967319  0.436533  1
  Tb  Tb11  1  0.176666  0.966759  0.937170  1
  Tb  Tb12  1  0.322153  0.532681  0.436533  1
  Tb  Tb13  1  0.822872  0.034993  0.062797  1
  Tb  Tb14  1  0.677658  0.460010  0.564059  1
  Tb  Tb15  1  0.822872  0.465007  0.062797  1
  Tb  Tb16  1  0.176666  0.533241  0.937170  1
  Y  Y17  1  0.847620  0.750000  0.800298  1
  Y  Y18  1  0.151644  0.250000  0.198499  1
  Y  Y19  1  0.348187  0.250000  0.699027  1
  Co  Co20  1  0.437338  0.250000  0.490732  1
  Co  Co21  1  0.059231  0.250000  0.991406  1
  Co  Co22  1  0.939433  0.750000  0.007984  1
  Bi  Bi23  1  0.571714  0.492018  0.826395  1
  Bi  Bi24  1  0.427579  0.507394  0.173793  1
  Bi  Bi25  1  0.071902  0.507411  0.674864  1
  Bi  Bi26  1  0.427579  0.992606  0.173793  1
  Bi  Bi27  1  0.929451  0.492035  0.325522  1
  Bi  Bi28  1  0.571714  0.007982  0.826395  1
  Bi  Bi29  1  0.929451  0.007965  0.325522  1
  Bi  Bi30  1  0.071902  0.992589  0.674864  1
  Ru  Ru31  1  0.566736  0.750000  0.510354  1
