# generated using pymatgen
data_Ho10In8IrPd3
_symmetry_space_group_name_H-M   'P 1'
_cell_length_a   3.61501000
_cell_length_b   8.12595049
_cell_length_c   18.23258415
_cell_angle_alpha   90.04029398
_cell_angle_beta   90.00000000
_cell_angle_gamma   90.00000000
_symmetry_Int_Tables_number   1
_chemical_formula_structural   Ho10In8IrPd3
_chemical_formula_sum   'Ho10 In8 Ir1 Pd3'
_cell_volume   535.58917940
_cell_formula_units_Z   1
loop_
 _symmetry_equiv_pos_site_id
 _symmetry_equiv_pos_as_xyz
  1  'x, y, z'
loop_
 _atom_site_type_symbol
 _atom_site_label
 _atom_site_symmetry_multiplicity
 _atom_site_fract_x
 _atom_site_fract_y
 _atom_site_fract_z
 _atom_site_occupancy
  Ho  Ho0  1  0.000000  0.500560  0.499864  1
  Ho  Ho1  1  0.000000  0.000051  0.000733  1
  Ho  Ho2  1  0.000000  0.728787  0.277400  1
  Ho  Ho3  1  0.000000  0.260784  0.719320  1
  Ho  Ho4  1  0.000000  0.760111  0.780122  1
  Ho  Ho5  1  0.000000  0.253851  0.220104  1
  Ho  Ho6  1  0.000000  0.614134  0.086875  1
  Ho  Ho7  1  0.000000  0.383485  0.916733  1
  Ho  Ho8  1  0.000000  0.883198  0.583108  1
  Ho  Ho9  1  0.000000  0.116379  0.415386  1
  In  In10  1  0.500000  0.709471  0.932688  1
  In  In11  1  0.500000  0.290949  0.067993  1
  In  In12  1  0.500000  0.790777  0.431597  1
  In  In13  1  0.500000  0.208624  0.567271  1
  In  In14  1  0.500000  0.579905  0.649521  1
  In  In15  1  0.500000  0.421903  0.351547  1
  In  In16  1  0.500000  0.923666  0.150047  1
  In  In17  1  0.500000  0.079944  0.850245  1
  Ir  Ir18  1  0.500000  0.519711  0.195734  1
  Pd  Pd19  1  0.500000  0.476515  0.804133  1
  Pd  Pd20  1  0.500000  0.976712  0.695906  1
  Pd  Pd21  1  0.500000  0.020483  0.303674  1
