# generated using pymatgen
data_Sr8Cd15SnAu12
_symmetry_space_group_name_H-M   'P 1'
_cell_length_a   15.31360900
_cell_length_b   15.31360975
_cell_length_c   4.57278400
_cell_angle_alpha   90.00000000
_cell_angle_beta   90.00000000
_cell_angle_gamma   120.00000053
_symmetry_Int_Tables_number   1
_chemical_formula_structural   Sr8Cd15SnAu12
_chemical_formula_sum   'Sr8 Cd15 Sn1 Au12'
_cell_volume   928.68075665
_cell_formula_units_Z   1
loop_
 _symmetry_equiv_pos_site_id
 _symmetry_equiv_pos_as_xyz
  1  'x, y, z'
loop_
 _atom_site_type_symbol
 _atom_site_label
 _atom_site_symmetry_multiplicity
 _atom_site_fract_x
 _atom_site_fract_y
 _atom_site_fract_z
 _atom_site_occupancy
  Sr  Sr0  1  0.449877  0.000000  0.000000  1
  Sr  Sr1  1  0.000000  0.449877  0.000000  1
  Sr  Sr2  1  0.550123  0.550123  0.000000  1
  Sr  Sr3  1  0.333333  0.666667  0.000000  1
  Sr  Sr4  1  0.666667  0.333333  0.000000  1
  Sr  Sr5  1  0.819775  0.000000  0.500000  1
  Sr  Sr6  1  0.000000  0.819775  0.500000  1
  Sr  Sr7  1  0.180225  0.180225  0.500000  1
  Cd  Cd8  1  0.180566  0.377909  0.000000  1
  Cd  Cd9  1  0.622091  0.802657  0.000000  1
  Cd  Cd10  1  0.377909  0.180566  0.000000  1
  Cd  Cd11  1  0.197343  0.819434  0.000000  1
  Cd  Cd12  1  0.802657  0.622091  0.000000  1
  Cd  Cd13  1  0.819434  0.197343  0.000000  1
  Cd  Cd14  1  0.281008  0.000000  0.500000  1
  Cd  Cd15  1  0.000000  0.281008  0.500000  1
  Cd  Cd16  1  0.718992  0.718992  0.500000  1
  Cd  Cd17  1  0.347525  0.471653  0.500000  1
  Cd  Cd18  1  0.528347  0.875872  0.500000  1
  Cd  Cd19  1  0.471653  0.347525  0.500000  1
  Cd  Cd20  1  0.124128  0.652475  0.500000  1
  Cd  Cd21  1  0.875872  0.528347  0.500000  1
  Cd  Cd22  1  0.652475  0.124128  0.500000  1
  Sn  Sn23  1  0.000000  0.000000  0.000000  1
  Au  Au24  1  0.170465  0.493354  0.500000  1
  Au  Au25  1  0.506646  0.677111  0.500000  1
  Au  Au26  1  0.493354  0.170465  0.500000  1
  Au  Au27  1  0.322889  0.829535  0.500000  1
  Au  Au28  1  0.677111  0.506646  0.500000  1
  Au  Au29  1  0.829535  0.322889  0.500000  1
  Au  Au30  1  0.175649  0.000000  0.000000  1
  Au  Au31  1  0.000000  0.175649  0.000000  1
  Au  Au32  1  0.824351  0.824351  0.000000  1
  Au  Au33  1  0.654985  0.000000  0.000000  1
  Au  Au34  1  0.000000  0.654985  0.000000  1
  Au  Au35  1  0.345015  0.345015  0.000000  1
