# generated using pymatgen
data_Ho7Er13(IrPt)6
_symmetry_space_group_name_H-M   'P 1'
_cell_length_a   10.94287421
_cell_length_b   10.94063801
_cell_length_c   6.29224100
_cell_angle_alpha   89.99945446
_cell_angle_beta   90.01002038
_cell_angle_gamma   89.99521395
_symmetry_Int_Tables_number   1
_chemical_formula_structural   Ho7Er13(IrPt)6
_chemical_formula_sum   'Ho7 Er13 Ir6 Pt6'
_cell_volume   753.31982384
_cell_formula_units_Z   1
loop_
 _symmetry_equiv_pos_site_id
 _symmetry_equiv_pos_as_xyz
  1  'x, y, z'
loop_
 _atom_site_type_symbol
 _atom_site_label
 _atom_site_symmetry_multiplicity
 _atom_site_fract_x
 _atom_site_fract_y
 _atom_site_fract_z
 _atom_site_occupancy
  Ho  Ho0  1  0.294986  0.090368  0.372686  1
  Ho  Ho1  1  0.294971  0.909797  0.872639  1
  Ho  Ho2  1  0.705042  0.087242  0.872179  1
  Ho  Ho3  1  0.705117  0.912810  0.372164  1
  Ho  Ho4  1  0.584147  0.791833  0.872603  1
  Ho  Ho5  1  0.584077  0.208185  0.372614  1
  Ho  Ho6  1  0.411092  0.792497  0.377314  1
  Er  Er7  1  0.411159  0.207327  0.877448  1
  Er  Er8  1  0.209326  0.414350  0.624127  1
  Er  Er9  1  0.209271  0.585568  0.124117  1
  Er  Er10  1  0.794919  0.412845  0.125531  1
  Er  Er11  1  0.794916  0.587123  0.625521  1
  Er  Er12  1  0.913845  0.704596  0.127011  1
  Er  Er13  1  0.913830  0.295416  0.627023  1
  Er  Er14  1  0.090684  0.704603  0.627663  1
  Er  Er15  1  0.090734  0.295407  0.127614  1
  Er  Er16  1  0.999842  0.999933  0.499998  1
  Er  Er17  1  0.999858  0.000092  0.999961  1
  Er  Er18  1  0.497080  0.499123  0.000052  1
  Er  Er19  1  0.497175  0.500681  0.500125  1
  Ir  Ir20  1  0.346024  0.345994  0.249731  1
  Ir  Ir21  1  0.345950  0.653868  0.750154  1
  Ir  Ir22  1  0.500141  0.000043  0.121577  1
  Ir  Ir23  1  0.500179  0.000327  0.621876  1
  Ir  Ir24  1  0.999479  0.500086  0.878280  1
  Ir  Ir25  1  0.999476  0.499907  0.378293  1
  Pt  Pt26  1  0.846236  0.153812  0.250644  1
  Pt  Pt27  1  0.846222  0.846184  0.750646  1
  Pt  Pt28  1  0.152758  0.153900  0.749921  1
  Pt  Pt29  1  0.152499  0.846166  0.249777  1
  Pt  Pt30  1  0.654409  0.346440  0.750411  1
  Pt  Pt31  1  0.654555  0.653479  0.250301  1
