# generated using pymatgen
data_Hf16Ir7RhN4
_symmetry_space_group_name_H-M   'P 1'
_cell_length_a   8.72305593
_cell_length_b   8.72305561
_cell_length_c   8.72305622
_cell_angle_alpha   59.93331186
_cell_angle_beta   59.93331136
_cell_angle_gamma   59.93331674
_symmetry_Int_Tables_number   1
_chemical_formula_structural   Hf16Ir7RhN4
_chemical_formula_sum   'Hf16 Ir7 Rh1 N4'
_cell_volume   468.63375433
_cell_formula_units_Z   1
loop_
 _symmetry_equiv_pos_site_id
 _symmetry_equiv_pos_as_xyz
  1  'x, y, z'
loop_
 _atom_site_type_symbol
 _atom_site_label
 _atom_site_symmetry_multiplicity
 _atom_site_fract_x
 _atom_site_fract_y
 _atom_site_fract_z
 _atom_site_occupancy
  Hf  Hf0  1  0.122951  0.625952  0.625952  1
  Hf  Hf1  1  0.625952  0.122951  0.625952  1
  Hf  Hf2  1  0.625952  0.625952  0.122951  1
  Hf  Hf3  1  0.625179  0.625179  0.625179  1
  Hf  Hf4  1  0.815949  0.815949  0.184886  1
  Hf  Hf5  1  0.184454  0.184454  0.815744  1
  Hf  Hf6  1  0.815949  0.184886  0.815949  1
  Hf  Hf7  1  0.184454  0.815744  0.184454  1
  Hf  Hf8  1  0.184886  0.815949  0.815949  1
  Hf  Hf9  1  0.815744  0.184454  0.184454  1
  Hf  Hf10  1  0.434345  0.434345  0.066014  1
  Hf  Hf11  1  0.066585  0.066585  0.433366  1
  Hf  Hf12  1  0.434345  0.066014  0.434345  1
  Hf  Hf13  1  0.066585  0.433366  0.066585  1
  Hf  Hf14  1  0.066014  0.434345  0.434345  1
  Hf  Hf15  1  0.433366  0.066585  0.066585  1
  Ir  Ir16  1  0.767895  0.410518  0.410518  1
  Ir  Ir17  1  0.410518  0.767895  0.410518  1
  Ir  Ir18  1  0.410518  0.410518  0.767895  1
  Ir  Ir19  1  0.410978  0.410978  0.410978  1
  Ir  Ir20  1  0.478804  0.839893  0.839893  1
  Ir  Ir21  1  0.839893  0.478804  0.839893  1
  Ir  Ir22  1  0.839893  0.839893  0.478804  1
  Rh  Rh23  1  0.839231  0.839231  0.839231  1
  N  N24  1  0.625032  0.124809  0.124809  1
  N  N25  1  0.124809  0.625032  0.124809  1
  N  N26  1  0.124809  0.124809  0.625032  1
  N  N27  1  0.124911  0.124911  0.124911  1
