# generated using pymatgen
data_La4Hg2IrPd3
_symmetry_space_group_name_H-M   'P 1'
_cell_length_a   7.91629253
_cell_length_b   7.91629157
_cell_length_c   3.96288500
_cell_angle_alpha   90.00000000
_cell_angle_beta   90.00000000
_cell_angle_gamma   90.36573670
_symmetry_Int_Tables_number   1
_chemical_formula_structural   La4Hg2IrPd3
_chemical_formula_sum   'La4 Hg2 Ir1 Pd3'
_cell_volume   248.33974872
_cell_formula_units_Z   1
loop_
 _symmetry_equiv_pos_site_id
 _symmetry_equiv_pos_as_xyz
  1  'x, y, z'
loop_
 _atom_site_type_symbol
 _atom_site_label
 _atom_site_symmetry_multiplicity
 _atom_site_fract_x
 _atom_site_fract_y
 _atom_site_fract_z
 _atom_site_occupancy
  La  La0  1  0.672231  0.172231  0.500000  1
  La  La1  1  0.314996  0.814996  0.500000  1
  La  La2  1  0.176718  0.337893  0.500000  1
  La  La3  1  0.837893  0.676718  0.500000  1
  Hg  Hg4  1  0.999721  0.004644  0.000000  1
  Hg  Hg5  1  0.504644  0.499721  0.000000  1
  Ir  Ir6  1  0.126427  0.626427  0.000000  1
  Pd  Pd7  1  0.867834  0.367834  0.000000  1
  Pd  Pd8  1  0.627018  0.872515  0.000000  1
  Pd  Pd9  1  0.372515  0.127018  0.000000  1
