# generated using pymatgen
data_Pr5Nd11Cd4IrRu3
_symmetry_space_group_name_H-M   'P 1'
_cell_length_a   9.99110370
_cell_length_b   9.99252506
_cell_length_c   9.99252497
_cell_angle_alpha   59.69963527
_cell_angle_beta   59.69201751
_cell_angle_gamma   59.69202536
_symmetry_Int_Tables_number   1
_chemical_formula_structural   Pr5Nd11Cd4IrRu3
_chemical_formula_sum   'Pr5 Nd11 Cd4 Ir1 Ru3'
_cell_volume   700.52750449
_cell_formula_units_Z   1
loop_
 _symmetry_equiv_pos_site_id
 _symmetry_equiv_pos_as_xyz
  1  'x, y, z'
loop_
 _atom_site_type_symbol
 _atom_site_label
 _atom_site_symmetry_multiplicity
 _atom_site_fract_x
 _atom_site_fract_y
 _atom_site_fract_z
 _atom_site_occupancy
  Pr  Pr0  1  0.559581  0.940266  0.940266  1
  Pr  Pr1  1  0.560894  0.938091  0.562257  1
  Pr  Pr2  1  0.939837  0.560539  0.940085  1
  Pr  Pr3  1  0.560894  0.562257  0.938091  1
  Pr  Pr4  1  0.939837  0.940085  0.560539  1
  Nd  Nd5  1  0.345023  0.347151  0.347151  1
  Nd  Nd6  1  0.344671  0.347113  0.960336  1
  Nd  Nd7  1  0.344671  0.960336  0.347113  1
  Nd  Nd8  1  0.961550  0.345532  0.345532  1
  Nd  Nd9  1  0.810832  0.190453  0.190453  1
  Nd  Nd10  1  0.190317  0.810522  0.810522  1
  Nd  Nd11  1  0.190744  0.809035  0.190156  1
  Nd  Nd12  1  0.812056  0.191058  0.808117  1
  Nd  Nd13  1  0.190744  0.190156  0.809035  1
  Nd  Nd14  1  0.812056  0.808117  0.191058  1
  Nd  Nd15  1  0.938839  0.561251  0.561251  1
  Cd  Cd16  1  0.579777  0.578948  0.578948  1
  Cd  Cd17  1  0.579188  0.579233  0.261684  1
  Cd  Cd18  1  0.579188  0.261684  0.579233  1
  Cd  Cd19  1  0.261423  0.579067  0.579067  1
  Ir  Ir20  1  0.579032  0.140002  0.140002  1
  Ru  Ru21  1  0.139947  0.137092  0.137092  1
  Ru  Ru22  1  0.139448  0.138120  0.583890  1
  Ru  Ru23  1  0.139448  0.583890  0.138120  1
