# generated using pymatgen
data_La8Al8IrPd7
_symmetry_space_group_name_H-M   'P 1'
_cell_length_a   4.29490900
_cell_length_b   7.31085807
_cell_length_c   16.67651300
_cell_angle_alpha   89.79659600
_cell_angle_beta   90.00000000
_cell_angle_gamma   90.00000000
_symmetry_Int_Tables_number   1
_chemical_formula_structural   La8Al8IrPd7
_chemical_formula_sum   'La8 Al8 Ir1 Pd7'
_cell_volume   523.63037197
_cell_formula_units_Z   1
loop_
 _symmetry_equiv_pos_site_id
 _symmetry_equiv_pos_as_xyz
  1  'x, y, z'
loop_
 _atom_site_type_symbol
 _atom_site_label
 _atom_site_symmetry_multiplicity
 _atom_site_fract_x
 _atom_site_fract_y
 _atom_site_fract_z
 _atom_site_occupancy
  La  La0  1  0.250000  0.511538  0.776417  1
  La  La1  1  0.750000  0.489183  0.223536  1
  La  La2  1  0.750000  0.990194  0.277470  1
  La  La3  1  0.250000  0.016994  0.718762  1
  La  La4  1  0.250000  0.642875  0.559996  1
  La  La5  1  0.750000  0.344984  0.444675  1
  La  La6  1  0.750000  0.854656  0.059486  1
  La  La7  1  0.250000  0.144513  0.940110  1
  Al  Al8  1  0.250000  0.663717  0.354189  1
  Al  Al9  1  0.750000  0.336780  0.644475  1
  Al  Al10  1  0.750000  0.835270  0.851929  1
  Al  Al11  1  0.250000  0.165287  0.146336  1
  Al  Al12  1  0.250000  0.507231  0.061597  1
  Al  Al13  1  0.750000  0.492262  0.938463  1
  Al  Al14  1  0.750000  0.994443  0.561089  1
  Al  Al15  1  0.250000  0.008483  0.440651  1
  Ir  Ir16  1  0.250000  0.209237  0.571729  1
  Pd  Pd17  1  0.250000  0.776355  0.180728  1
  Pd  Pd18  1  0.750000  0.225054  0.819986  1
  Pd  Pd19  1  0.750000  0.725320  0.680974  1
  Pd  Pd20  1  0.250000  0.275380  0.319021  1
  Pd  Pd21  1  0.250000  0.706257  0.929303  1
  Pd  Pd22  1  0.750000  0.293442  0.070496  1
  Pd  Pd23  1  0.750000  0.790546  0.428587  1
