# generated using pymatgen
data_Dy6Lu4In5Bi
_symmetry_space_group_name_H-M   'P 1'
_cell_length_a   6.52975600
_cell_length_b   9.00919949
_cell_length_c   8.97598326
_cell_angle_alpha   120.12104533
_cell_angle_beta   89.99891031
_cell_angle_gamma   90.00021526
_symmetry_Int_Tables_number   1
_chemical_formula_structural   Dy6Lu4In5Bi
_chemical_formula_sum   'Dy6 Lu4 In5 Bi1'
_cell_volume   456.73553888
_cell_formula_units_Z   1
loop_
 _symmetry_equiv_pos_site_id
 _symmetry_equiv_pos_as_xyz
  1  'x, y, z'
loop_
 _atom_site_type_symbol
 _atom_site_label
 _atom_site_symmetry_multiplicity
 _atom_site_fract_x
 _atom_site_fract_y
 _atom_site_fract_z
 _atom_site_occupancy
  Dy  Dy0  1  0.750028  0.232339  0.000002  1
  Dy  Dy1  1  0.750008  0.764140  0.756413  1
  Dy  Dy2  1  0.749987  0.007723  0.243579  1
  Dy  Dy3  1  0.249983  0.761418  0.000002  1
  Dy  Dy4  1  0.249987  0.238922  0.237819  1
  Dy  Dy5  1  0.250010  0.001105  0.762187  1
  Lu  Lu6  1  0.495573  0.327911  0.660946  1
  Lu  Lu7  1  0.495585  0.666953  0.339058  1
  Lu  Lu8  1  0.004415  0.666970  0.339055  1
  Lu  Lu9  1  0.004413  0.327896  0.660933  1
  In  In10  1  0.749994  0.403370  0.402188  1
  In  In11  1  0.749985  0.001196  0.597813  1
  In  In12  1  0.250031  0.398560  0.000010  1
  In  In13  1  0.250000  0.599285  0.601908  1
  In  In14  1  0.250007  0.997372  0.398091  1
  Bi  Bi15  1  0.749995  0.604846  0.999994  1
