# generated using pymatgen
data_Y2Lu2Tc3Os5
_symmetry_space_group_name_H-M   'P 1'
_cell_length_a   5.27585898
_cell_length_b   5.30422650
_cell_length_c   8.94938029
_cell_angle_alpha   90.00036408
_cell_angle_beta   89.97445505
_cell_angle_gamma   120.17728195
_symmetry_Int_Tables_number   1
_chemical_formula_structural   Y2Lu2Tc3Os5
_chemical_formula_sum   'Y2 Lu2 Tc3 Os5'
_cell_volume   216.50113330
_cell_formula_units_Z   1
loop_
 _symmetry_equiv_pos_site_id
 _symmetry_equiv_pos_as_xyz
  1  'x, y, z'
loop_
 _atom_site_type_symbol
 _atom_site_label
 _atom_site_symmetry_multiplicity
 _atom_site_fract_x
 _atom_site_fract_y
 _atom_site_fract_z
 _atom_site_occupancy
  Y  Y0  1  0.335167  0.667590  0.433530  1
  Y  Y1  1  0.667280  0.333644  0.564167  1
  Lu  Lu2  1  0.667758  0.333870  0.937652  1
  Lu  Lu3  1  0.336031  0.668019  0.064879  1
  Tc  Tc4  1  0.166892  0.340728  0.752773  1
  Tc  Tc5  1  0.166887  0.826158  0.752774  1
  Tc  Tc6  1  0.337142  0.168580  0.247686  1
  Os  Os7  1  0.823825  0.653486  0.246801  1
  Os  Os8  1  0.651195  0.825586  0.753168  1
  Os  Os9  1  0.012451  0.006213  0.000791  1
  Os  Os10  1  0.823841  0.170359  0.246799  1
  Os  Os11  1  0.011533  0.005768  0.498980  1
