# generated using pymatgen
data_Cs3Er(PS4)2
_symmetry_space_group_name_H-M   'P 1'
_cell_length_a   10.05802169
_cell_length_b   6.98266700
_cell_length_c   11.98862900
_cell_angle_alpha   90.00000000
_cell_angle_beta   88.46195271
_cell_angle_gamma   90.00000000
_symmetry_Int_Tables_number   1
_chemical_formula_structural   Cs3Er(PS4)2
_chemical_formula_sum   'Cs6 Er2 P4 S16'
_cell_volume   841.67983917
_cell_formula_units_Z   2
loop_
 _symmetry_equiv_pos_site_id
 _symmetry_equiv_pos_as_xyz
  1  'x, y, z'
loop_
 _atom_site_type_symbol
 _atom_site_label
 _atom_site_symmetry_multiplicity
 _atom_site_fract_x
 _atom_site_fract_y
 _atom_site_fract_z
 _atom_site_occupancy
  Cs  Cs0  1  0.362182  0.803137  0.085534  1
  Cs  Cs1  1  0.396771  0.308445  0.343055  1
  Cs  Cs2  1  0.836841  0.308483  0.434141  1
  Cs  Cs3  1  0.163159  0.808483  0.565860  1
  Cs  Cs4  1  0.603229  0.808445  0.656945  1
  Cs  Cs5  1  0.637819  0.303137  0.914466  1
  Er  Er6  1  0.890169  0.786485  0.144315  1
  Er  Er7  1  0.109831  0.286485  0.855685  1
  P  P8  1  0.082041  0.329362  0.148711  1
  P  P9  1  0.642238  0.808794  0.305276  1
  P  P10  1  0.357762  0.308793  0.694724  1
  P  P11  1  0.917959  0.829362  0.851289  1
  S  S12  1  0.939107  0.399172  0.035097  1
  S  S13  1  0.254433  0.305706  0.053687  1
  S  S14  1  0.672460  0.039405  0.200639  1
  S  S15  1  0.666420  0.567811  0.205670  1
  S  S16  1  0.051333  0.083791  0.240540  1
  S  S17  1  0.083603  0.562443  0.254549  1
  S  S18  1  0.461646  0.812473  0.384200  1
  S  S19  1  0.805450  0.806776  0.404253  1
  S  S20  1  0.194551  0.306775  0.595747  1
  S  S21  1  0.538353  0.312472  0.615800  1
  S  S22  1  0.916397  0.062442  0.745451  1
  S  S23  1  0.948667  0.583791  0.759460  1
  S  S24  1  0.333580  0.067812  0.794330  1
  S  S25  1  0.327540  0.539403  0.799361  1
  S  S26  1  0.745566  0.805707  0.946313  1
  S  S27  1  0.060893  0.899172  0.964902  1
