# generated using pymatgen
data_La5PrTcBr10
_symmetry_space_group_name_H-M   'P 1'
_cell_length_a   7.79440524
_cell_length_b   9.77561441
_cell_length_c   9.75975798
_cell_angle_alpha   109.08646187
_cell_angle_beta   106.79508632
_cell_angle_gamma   97.33160706
_symmetry_Int_Tables_number   1
_chemical_formula_structural   La5PrTcBr10
_chemical_formula_sum   'La5 Pr1 Tc1 Br10'
_cell_volume   652.20022290
_cell_formula_units_Z   1
loop_
 _symmetry_equiv_pos_site_id
 _symmetry_equiv_pos_as_xyz
  1  'x, y, z'
loop_
 _atom_site_type_symbol
 _atom_site_label
 _atom_site_symmetry_multiplicity
 _atom_site_fract_x
 _atom_site_fract_y
 _atom_site_fract_z
 _atom_site_occupancy
  La  La0  1  0.366238  0.185875  0.141082  1
  La  La1  1  0.023620  0.900847  0.697097  1
  La  La2  1  0.127697  0.756943  0.048288  1
  La  La3  1  0.633611  0.814162  0.859827  1
  La  La4  1  0.872608  0.243404  0.952171  1
  Pr  Pr5  1  0.976789  0.099543  0.302109  1
  Tc  Tc6  1  0.000315  0.998639  0.996053  1
  Br  Br7  1  0.451018  0.077851  0.825691  1
  Br  Br8  1  0.747258  0.546279  0.916544  1
  Br  Br9  1  0.253025  0.453844  0.083844  1
  Br  Br10  1  0.909597  0.165626  0.632785  1
  Br  Br11  1  0.635931  0.722610  0.540872  1
  Br  Br12  1  0.550844  0.923177  0.175765  1
  Br  Br13  1  0.089468  0.836338  0.367268  1
  Br  Br14  1  0.803660  0.350051  0.260415  1
  Br  Br15  1  0.197735  0.648434  0.741116  1
  Br  Br16  1  0.360587  0.276379  0.459074  1
