# generated using pymatgen
data_Eu6Tm13ThSn16
_symmetry_space_group_name_H-M   'P 1'
_cell_length_a   8.05550507
_cell_length_b   8.19492897
_cell_length_c   15.44519500
_cell_angle_alpha   90.01623453
_cell_angle_beta   90.37231293
_cell_angle_gamma   89.74415281
_symmetry_Int_Tables_number   1
_chemical_formula_structural   Eu6Tm13ThSn16
_chemical_formula_sum   'Eu6 Tm13 Th1 Sn16'
_cell_volume   1019.57188611
_cell_formula_units_Z   1
loop_
 _symmetry_equiv_pos_site_id
 _symmetry_equiv_pos_as_xyz
  1  'x, y, z'
loop_
 _atom_site_type_symbol
 _atom_site_label
 _atom_site_symmetry_multiplicity
 _atom_site_fract_x
 _atom_site_fract_y
 _atom_site_fract_z
 _atom_site_occupancy
  Eu  Eu0  1  0.011866  0.173775  0.597691  1
  Eu  Eu1  1  0.492048  0.673474  0.407006  1
  Eu  Eu2  1  0.991657  0.820923  0.090714  1
  Eu  Eu3  1  0.488889  0.677885  0.091149  1
  Eu  Eu4  1  0.992525  0.826888  0.406807  1
  Eu  Eu5  1  0.509221  0.327790  0.595083  1
  Tm  Tm6  1  0.350204  0.837223  0.875919  1
  Tm  Tm7  1  0.842452  0.665933  0.626878  1
  Tm  Tm8  1  0.655461  0.165323  0.375869  1
  Tm  Tm9  1  0.145724  0.342172  0.121348  1
  Tm  Tm10  1  0.646240  0.159245  0.122692  1
  Tm  Tm11  1  0.154874  0.334866  0.376188  1
  Tm  Tm12  1  0.344795  0.835677  0.628412  1
  Tm  Tm13  1  0.852492  0.659573  0.877950  1
  Tm  Tm14  1  0.517659  0.320245  0.903373  1
  Tm  Tm15  1  0.184718  0.498143  0.751304  1
  Tm  Tm16  1  0.682945  0.001209  0.750854  1
  Tm  Tm17  1  0.812609  0.501101  0.248086  1
  Tm  Tm18  1  0.314424  0.998780  0.248601  1
  Th  Th19  1  0.009830  0.179194  0.904143  1
  Sn  Sn20  1  0.311204  0.050077  0.038320  1
  Sn  Sn21  1  0.825478  0.460284  0.458442  1
  Sn  Sn22  1  0.673226  0.960378  0.543187  1
  Sn  Sn23  1  0.197641  0.531181  0.952856  1
  Sn  Sn24  1  0.687377  0.964893  0.954200  1
  Sn  Sn25  1  0.173769  0.542483  0.543214  1
  Sn  Sn26  1  0.326419  0.039733  0.458675  1
  Sn  Sn27  1  0.803313  0.448942  0.038391  1
  Sn  Sn28  1  0.547184  0.623145  0.752771  1
  Sn  Sn29  1  0.044688  0.874486  0.753997  1
  Sn  Sn30  1  0.450745  0.374811  0.250047  1
  Sn  Sn31  1  0.952263  0.124784  0.248797  1
  Sn  Sn32  1  0.323538  0.147260  0.755318  1
  Sn  Sn33  1  0.814667  0.358345  0.752671  1
  Sn  Sn34  1  0.683914  0.860922  0.249684  1
  Sn  Sn35  1  0.183940  0.638858  0.249365  1
