# generated using pymatgen
data_Y4HoInGa2
_symmetry_space_group_name_H-M   'P 1'
_cell_length_a   7.74497400
_cell_length_b   7.74497400
_cell_length_c   14.40116000
_cell_angle_alpha   90.00000000
_cell_angle_beta   90.00000000
_cell_angle_gamma   90.00000000
_symmetry_Int_Tables_number   1
_chemical_formula_structural   Y4HoInGa2
_chemical_formula_sum   'Y16 Ho4 In4 Ga8'
_cell_volume   863.84814272
_cell_formula_units_Z   4
loop_
 _symmetry_equiv_pos_site_id
 _symmetry_equiv_pos_as_xyz
  1  'x, y, z'
loop_
 _atom_site_type_symbol
 _atom_site_label
 _atom_site_symmetry_multiplicity
 _atom_site_fract_x
 _atom_site_fract_y
 _atom_site_fract_z
 _atom_site_occupancy
  Y  Y0  1  0.673310  0.661028  0.606136  1
  Y  Y1  1  0.673310  0.338972  0.106136  1
  Y  Y2  1  0.826690  0.838972  0.393864  1
  Y  Y3  1  0.173310  0.838972  0.893864  1
  Y  Y4  1  0.326690  0.338972  0.606136  1
  Y  Y5  1  0.326690  0.661028  0.106136  1
  Y  Y6  1  0.173310  0.161028  0.393864  1
  Y  Y7  1  0.826690  0.161028  0.893864  1
  Y  Y8  1  0.661028  0.326690  0.393864  1
  Y  Y9  1  0.338972  0.326690  0.893864  1
  Y  Y10  1  0.161028  0.826690  0.606136  1
  Y  Y11  1  0.838972  0.826690  0.106136  1
  Y  Y12  1  0.338972  0.673310  0.393864  1
  Y  Y13  1  0.661028  0.673310  0.893864  1
  Y  Y14  1  0.838972  0.173310  0.606136  1
  Y  Y15  1  0.161028  0.173310  0.106136  1
  Ho  Ho16  1  0.000000  0.500000  0.759881  1
  Ho  Ho17  1  0.000000  0.500000  0.259881  1
  Ho  Ho18  1  0.500000  0.000000  0.240119  1
  Ho  Ho19  1  0.500000  0.000000  0.740119  1
  In  In20  1  0.000000  0.500000  0.496077  1
  In  In21  1  0.000000  0.500000  0.996077  1
  In  In22  1  0.500000  0.000000  0.503923  1
  In  In23  1  0.500000  0.000000  0.003923  1
  Ga  Ga24  1  0.876041  0.876041  0.750000  1
  Ga  Ga25  1  0.876041  0.123959  0.250000  1
  Ga  Ga26  1  0.623959  0.623959  0.250000  1
  Ga  Ga27  1  0.376041  0.623959  0.750000  1
  Ga  Ga28  1  0.123959  0.123959  0.750000  1
  Ga  Ga29  1  0.123959  0.876041  0.250000  1
  Ga  Ga30  1  0.376041  0.376041  0.250000  1
  Ga  Ga31  1  0.623959  0.376041  0.750000  1
