# generated using pymatgen
data_PAuBr4
_symmetry_space_group_name_H-M   'P 1'
_cell_length_a   15.69940700
_cell_length_b   6.94441346
_cell_length_c   8.31924534
_cell_angle_alpha   83.60425718
_cell_angle_beta   90.00000000
_cell_angle_gamma   90.00000000
_symmetry_Int_Tables_number   1
_chemical_formula_structural   PAuBr4
_chemical_formula_sum   'P4 Au4 Br16'
_cell_volume   901.34559798
_cell_formula_units_Z   4
loop_
 _symmetry_equiv_pos_site_id
 _symmetry_equiv_pos_as_xyz
  1  'x, y, z'
loop_
 _atom_site_type_symbol
 _atom_site_label
 _atom_site_symmetry_multiplicity
 _atom_site_fract_x
 _atom_site_fract_y
 _atom_site_fract_z
 _atom_site_occupancy
  P  P0  1  0.869063  0.488416  0.751771  1
  P  P1  1  0.630937  0.988416  0.751771  1
  P  P2  1  0.130937  0.511584  0.248229  1
  P  P3  1  0.369063  0.011584  0.248229  1
  Au  Au4  1  0.729209  0.002710  0.554769  1
  Au  Au5  1  0.229209  0.497290  0.445231  1
  Au  Au6  1  0.270791  0.997290  0.445231  1
  Au  Au7  1  0.770791  0.502710  0.554769  1
  Br  Br8  1  0.517355  0.174715  0.702093  1
  Br  Br9  1  0.982645  0.674715  0.702093  1
  Br  Br10  1  0.482645  0.825285  0.297907  1
  Br  Br11  1  0.017355  0.325285  0.297907  1
  Br  Br12  1  0.663516  0.505947  0.343815  1
  Br  Br13  1  0.163516  0.994053  0.656185  1
  Br  Br14  1  0.336484  0.494053  0.656185  1
  Br  Br15  1  0.836484  0.005947  0.343815  1
  Br  Br16  1  0.819967  0.563833  0.985869  1
  Br  Br17  1  0.319967  0.936167  0.014131  1
  Br  Br18  1  0.180033  0.436167  0.014131  1
  Br  Br19  1  0.680033  0.063833  0.985869  1
  Br  Br20  1  0.924557  0.196190  0.810208  1
  Br  Br21  1  0.424557  0.303810  0.189792  1
  Br  Br22  1  0.075443  0.803810  0.189792  1
  Br  Br23  1  0.575443  0.696190  0.810208  1
