# generated using pymatgen
data_Th2Zn2Ga10Cu
_symmetry_space_group_name_H-M   'P 1'
_cell_length_a   6.11714300
_cell_length_b   6.11714300
_cell_length_c   15.37500400
_cell_angle_alpha   90.00000000
_cell_angle_beta   90.00000000
_cell_angle_gamma   90.00000000
_symmetry_Int_Tables_number   1
_chemical_formula_structural   Th2Zn2Ga10Cu
_chemical_formula_sum   'Th4 Zn4 Ga20 Cu2'
_cell_volume   575.32401635
_cell_formula_units_Z   2
loop_
 _symmetry_equiv_pos_site_id
 _symmetry_equiv_pos_as_xyz
  1  'x, y, z'
loop_
 _atom_site_type_symbol
 _atom_site_label
 _atom_site_symmetry_multiplicity
 _atom_site_fract_x
 _atom_site_fract_y
 _atom_site_fract_z
 _atom_site_occupancy
  Th  Th0  1  0.000000  0.500000  0.754018  1
  Th  Th1  1  0.500000  0.000000  0.754018  1
  Th  Th2  1  0.000000  0.500000  0.245982  1
  Th  Th3  1  0.500000  0.000000  0.245982  1
  Zn  Zn4  1  0.500000  0.500000  0.178274  1
  Zn  Zn5  1  0.500000  0.500000  0.821726  1
  Zn  Zn6  1  0.000000  0.000000  0.821726  1
  Zn  Zn7  1  0.000000  0.000000  0.178274  1
  Ga  Ga8  1  0.673529  0.173529  0.428968  1
  Ga  Ga9  1  0.673529  0.826471  0.571032  1
  Ga  Ga10  1  0.173529  0.673529  0.571032  1
  Ga  Ga11  1  0.826471  0.326471  0.571032  1
  Ga  Ga12  1  0.500000  0.500000  0.336840  1
  Ga  Ga13  1  0.500000  0.500000  0.663160  1
  Ga  Ga14  1  0.000000  0.000000  0.663160  1
  Ga  Ga15  1  0.000000  0.000000  0.336840  1
  Ga  Ga16  1  0.250599  0.750599  0.913847  1
  Ga  Ga17  1  0.249401  0.250599  0.913847  1
  Ga  Ga18  1  0.750599  0.749401  0.913847  1
  Ga  Ga19  1  0.250599  0.249401  0.086153  1
  Ga  Ga20  1  0.749401  0.750599  0.086153  1
  Ga  Ga21  1  0.749401  0.249401  0.913847  1
  Ga  Ga22  1  0.750599  0.250599  0.086153  1
  Ga  Ga23  1  0.249401  0.749401  0.086153  1
  Ga  Ga24  1  0.326471  0.826471  0.428968  1
  Ga  Ga25  1  0.173529  0.326471  0.428968  1
  Ga  Ga26  1  0.826471  0.673529  0.428968  1
  Ga  Ga27  1  0.326471  0.173529  0.571032  1
  Cu  Cu28  1  0.500000  0.000000  0.000000  1
  Cu  Cu29  1  0.000000  0.500000  0.000000  1
