# generated using pymatgen
data_Tm3Tl3IrAu
_symmetry_space_group_name_H-M   'P 1'
_cell_length_a   7.78101700
_cell_length_b   7.78101641
_cell_length_c   3.54676000
_cell_angle_alpha   90.00000000
_cell_angle_beta   90.00000000
_cell_angle_gamma   119.99999824
_symmetry_Int_Tables_number   1
_chemical_formula_structural   Tm3Tl3IrAu
_chemical_formula_sum   'Tm3 Tl3 Ir1 Au1'
_cell_volume   185.96667957
_cell_formula_units_Z   1
loop_
 _symmetry_equiv_pos_site_id
 _symmetry_equiv_pos_as_xyz
  1  'x, y, z'
loop_
 _atom_site_type_symbol
 _atom_site_label
 _atom_site_symmetry_multiplicity
 _atom_site_fract_x
 _atom_site_fract_y
 _atom_site_fract_z
 _atom_site_occupancy
  Tm  Tm0  1  0.569663  0.980937  0.499999  1
  Tm  Tm1  1  0.411273  0.430337  0.499999  1
  Tm  Tm2  1  0.019063  0.588727  0.499999  1
  Tl  Tl3  1  0.231162  0.999591  0.000000  1
  Tl  Tl4  1  0.000409  0.231572  0.000000  1
  Tl  Tl5  1  0.768428  0.768837  0.000000  1
  Ir  Ir6  1  0.333333  0.666666  0.000000  1
  Au  Au7  1  0.666666  0.333334  0.000000  1
