# generated using pymatgen
data_TbTl(Pd2Au)2
_symmetry_space_group_name_H-M   'P 1'
_cell_length_a   6.04461200
_cell_length_b   6.03726064
_cell_length_c   7.86091200
_cell_angle_alpha   90.00063585
_cell_angle_beta   90.00133651
_cell_angle_gamma   89.89763690
_symmetry_Int_Tables_number   1
_chemical_formula_structural   TbTl(Pd2Au)2
_chemical_formula_sum   'Tb2 Tl2 Pd8 Au4'
_cell_volume   286.86700263
_cell_formula_units_Z   2
loop_
 _symmetry_equiv_pos_site_id
 _symmetry_equiv_pos_as_xyz
  1  'x, y, z'
loop_
 _atom_site_type_symbol
 _atom_site_label
 _atom_site_symmetry_multiplicity
 _atom_site_fract_x
 _atom_site_fract_y
 _atom_site_fract_z
 _atom_site_occupancy
  Tb  Tb0  1  0.250033  0.249997  0.000002  1
  Tb  Tb1  1  0.749967  0.750003  0.999998  1
  Tl  Tl2  1  0.749991  0.749999  0.500001  1
  Tl  Tl3  1  0.250010  0.250001  0.499999  1
  Pd  Pd4  1  0.500014  0.000013  0.251097  1
  Pd  Pd5  1  0.500005  0.500025  0.251044  1
  Pd  Pd6  1  0.000018  0.000012  0.251073  1
  Pd  Pd7  1  0.000027  0.500028  0.251126  1
  Pd  Pd8  1  0.999982  0.999988  0.748927  1
  Pd  Pd9  1  0.999973  0.499972  0.748874  1
  Pd  Pd10  1  0.499986  0.999987  0.748903  1
  Pd  Pd11  1  0.499995  0.499975  0.748956  1
  Au  Au12  1  0.750040  0.249995  0.000009  1
  Au  Au13  1  0.249958  0.750005  0.999991  1
  Au  Au14  1  0.749995  0.250002  0.499993  1
  Au  Au15  1  0.250005  0.749998  0.500008  1
