# generated using pymatgen
data_Hf4TaSnRh10
_symmetry_space_group_name_H-M   'P 1'
_cell_length_a   4.20964700
_cell_length_b   5.62410739
_cell_length_c   10.98149246
_cell_angle_alpha   89.45195477
_cell_angle_beta   90.00000000
_cell_angle_gamma   90.00000000
_symmetry_Int_Tables_number   1
_chemical_formula_structural   Hf4TaSnRh10
_chemical_formula_sum   'Hf4 Ta1 Sn1 Rh10'
_cell_volume   259.98050568
_cell_formula_units_Z   1
loop_
 _symmetry_equiv_pos_site_id
 _symmetry_equiv_pos_as_xyz
  1  'x, y, z'
loop_
 _atom_site_type_symbol
 _atom_site_label
 _atom_site_symmetry_multiplicity
 _atom_site_fract_x
 _atom_site_fract_y
 _atom_site_fract_z
 _atom_site_occupancy
  Hf  Hf0  1  0.500000  0.170437  0.643523  1
  Hf  Hf1  1  0.500000  0.829563  0.356477  1
  Hf  Hf2  1  0.500000  0.661232  0.855586  1
  Hf  Hf3  1  0.500000  0.338768  0.144414  1
  Ta  Ta4  1  0.000000  0.000000  0.000000  1
  Sn  Sn5  1  0.000000  0.500000  0.500000  1
  Rh  Rh6  1  0.500000  0.181130  0.895312  1
  Rh  Rh7  1  0.500000  0.818870  0.104688  1
  Rh  Rh8  1  0.500000  0.697058  0.613376  1
  Rh  Rh9  1  0.500000  0.302942  0.386624  1
  Rh  Rh10  1  0.000000  0.417728  0.746440  1
  Rh  Rh11  1  0.000000  0.582272  0.253560  1
  Rh  Rh12  1  0.000000  0.000000  0.500000  1
  Rh  Rh13  1  0.000000  0.500000  0.000000  1
  Rh  Rh14  1  0.000000  0.084568  0.239227  1
  Rh  Rh15  1  0.000000  0.915432  0.760773  1
