# generated using pymatgen
data_ZrSc3Tc2
_symmetry_space_group_name_H-M   'P 1'
_cell_length_a   4.67998800
_cell_length_b   11.11405900
_cell_length_c   4.68798200
_cell_angle_alpha   90.00000000
_cell_angle_beta   90.00000000
_cell_angle_gamma   90.00031381
_symmetry_Int_Tables_number   1
_chemical_formula_structural   ZrSc3Tc2
_chemical_formula_sum   'Zr2 Sc6 Tc4'
_cell_volume   243.83911473
_cell_formula_units_Z   2
loop_
 _symmetry_equiv_pos_site_id
 _symmetry_equiv_pos_as_xyz
  1  'x, y, z'
loop_
 _atom_site_type_symbol
 _atom_site_label
 _atom_site_symmetry_multiplicity
 _atom_site_fract_x
 _atom_site_fract_y
 _atom_site_fract_z
 _atom_site_occupancy
  Zr  Zr0  1  0.416668  0.636447  0.500000  1
  Zr  Zr1  1  0.916657  0.863541  0.500000  1
  Sc  Sc2  1  0.416660  0.133033  0.000000  1
  Sc  Sc3  1  0.916663  0.366985  0.000000  1
  Sc  Sc4  1  0.916666  0.637626  0.000000  1
  Sc  Sc5  1  0.416658  0.862323  0.000000  1
  Sc  Sc6  1  0.916660  0.137020  0.500000  1
  Sc  Sc7  1  0.416665  0.363036  0.500000  1
  Tc  Tc8  1  0.916658  0.995874  0.000000  1
  Tc  Tc9  1  0.416667  0.504127  0.000000  1
  Tc  Tc10  1  0.416655  0.995588  0.500000  1
  Tc  Tc11  1  0.916665  0.504396  0.500000  1
