# generated using pymatgen
data_Ba2GdNpO6
_symmetry_space_group_name_H-M   'P 1'
_cell_length_a   6.21709666
_cell_length_b   6.21709656
_cell_length_c   6.25687000
_cell_angle_alpha   120.06282330
_cell_angle_beta   120.06282274
_cell_angle_gamma   60.02488816
_symmetry_Int_Tables_number   1
_chemical_formula_structural   Ba2GdNpO6
_chemical_formula_sum   'Ba2 Gd1 Np1 O6'
_cell_volume   170.87785543
_cell_formula_units_Z   1
loop_
 _symmetry_equiv_pos_site_id
 _symmetry_equiv_pos_as_xyz
  1  'x, y, z'
loop_
 _atom_site_type_symbol
 _atom_site_label
 _atom_site_symmetry_multiplicity
 _atom_site_fract_x
 _atom_site_fract_y
 _atom_site_fract_z
 _atom_site_occupancy
  Ba  Ba0  1  0.249135  0.249135  0.243599  1
  Ba  Ba1  1  0.750865  0.750865  0.756400  1
  Gd  Gd2  1  0.000000  0.000000  0.499999  1
  Np  Np3  1  0.500000  0.500000  0.000000  1
  O  O4  1  0.704928  0.220391  0.202203  1
  O  O5  1  0.220391  0.704928  0.202203  1
  O  O6  1  0.740900  0.740900  0.310165  1
  O  O7  1  0.259100  0.259100  0.689833  1
  O  O8  1  0.779608  0.295072  0.797796  1
  O  O9  1  0.295072  0.779608  0.797796  1
