# generated using pymatgen
data_La3Th(CuP)8
_symmetry_space_group_name_H-M   'P 1'
_cell_length_a   3.92866400
_cell_length_b   8.97054605
_cell_length_c   10.04874847
_cell_angle_alpha   89.82440179
_cell_angle_beta   90.00000000
_cell_angle_gamma   90.00000000
_symmetry_Int_Tables_number   1
_chemical_formula_structural   La3Th(CuP)8
_chemical_formula_sum   'La3 Th1 Cu8 P8'
_cell_volume   354.13895668
_cell_formula_units_Z   1
loop_
 _symmetry_equiv_pos_site_id
 _symmetry_equiv_pos_as_xyz
  1  'x, y, z'
loop_
 _atom_site_type_symbol
 _atom_site_label
 _atom_site_symmetry_multiplicity
 _atom_site_fract_x
 _atom_site_fract_y
 _atom_site_fract_z
 _atom_site_occupancy
  La  La0  1  0.250000  0.255426  0.678915  1
  La  La1  1  0.750000  0.745870  0.321128  1
  La  La2  1  0.250000  0.756501  0.820721  1
  Th  Th3  1  0.750000  0.243161  0.179607  1
  Cu  Cu4  1  0.750000  0.080860  0.452875  1
  Cu  Cu5  1  0.250000  0.922640  0.545671  1
  Cu  Cu6  1  0.750000  0.575822  0.048974  1
  Cu  Cu7  1  0.250000  0.419992  0.949536  1
  Cu  Cu8  1  0.250000  0.946316  0.110925  1
  Cu  Cu9  1  0.750000  0.048629  0.893515  1
  Cu  Cu10  1  0.250000  0.454143  0.393206  1
  Cu  Cu11  1  0.750000  0.549839  0.606734  1
  P  P12  1  0.250000  0.161643  0.967423  1
  P  P13  1  0.750000  0.835726  0.039512  1
  P  P14  1  0.250000  0.663670  0.537404  1
  P  P15  1  0.750000  0.339459  0.458322  1
  P  P16  1  0.250000  0.510085  0.170069  1
  P  P17  1  0.750000  0.479276  0.827536  1
  P  P18  1  0.250000  0.031086  0.326677  1
  P  P19  1  0.750000  0.979855  0.671248  1
