# generated using pymatgen
data_Ce3TmTi2(AlIr2)2
_symmetry_space_group_name_H-M   'P 1'
_cell_length_a   7.03108164
_cell_length_b   4.28660300
_cell_length_c   7.99986183
_cell_angle_alpha   90.00000000
_cell_angle_beta   89.90420446
_cell_angle_gamma   90.00000000
_symmetry_Int_Tables_number   1
_chemical_formula_structural   Ce3TmTi2(AlIr2)2
_chemical_formula_sum   'Ce3 Tm1 Ti2 Al2 Ir4'
_cell_volume   241.11114359
_cell_formula_units_Z   1
loop_
 _symmetry_equiv_pos_site_id
 _symmetry_equiv_pos_as_xyz
  1  'x, y, z'
loop_
 _atom_site_type_symbol
 _atom_site_label
 _atom_site_symmetry_multiplicity
 _atom_site_fract_x
 _atom_site_fract_y
 _atom_site_fract_z
 _atom_site_occupancy
  Ce  Ce0  1  0.470866  0.250000  0.319150  1
  Ce  Ce1  1  0.037523  0.750000  0.819999  1
  Ce  Ce2  1  0.539511  0.750000  0.685253  1
  Tm  Tm3  1  0.970811  0.250000  0.181066  1
  Ti  Ti4  1  0.119485  0.750000  0.435688  1
  Ti  Ti5  1  0.628339  0.750000  0.059609  1
  Al  Al6  1  0.863427  0.250000  0.560071  1
  Al  Al7  1  0.362242  0.250000  0.938165  1
  Ir  Ir8  1  0.738606  0.250000  0.892793  1
  Ir  Ir9  1  0.235719  0.250000  0.603969  1
  Ir  Ir10  1  0.267033  0.750000  0.125579  1
  Ir  Ir11  1  0.766439  0.750000  0.378658  1
