# generated using pymatgen
data_TbPr6Y9(CdIr)4
_symmetry_space_group_name_H-M   'P 1'
_cell_length_a   9.81398402
_cell_length_b   9.81398294
_cell_length_c   9.81398454
_cell_angle_alpha   59.90996565
_cell_angle_beta   59.90997045
_cell_angle_gamma   59.90996387
_symmetry_Int_Tables_number   1
_chemical_formula_structural   TbPr6Y9(CdIr)4
_chemical_formula_sum   'Tb1 Pr6 Y9 Cd4 Ir4'
_cell_volume   667.01114709
_cell_formula_units_Z   1
loop_
 _symmetry_equiv_pos_site_id
 _symmetry_equiv_pos_as_xyz
  1  'x, y, z'
loop_
 _atom_site_type_symbol
 _atom_site_label
 _atom_site_symmetry_multiplicity
 _atom_site_fract_x
 _atom_site_fract_y
 _atom_site_fract_z
 _atom_site_occupancy
  Tb  Tb0  1  0.346958  0.346958  0.346958  1
  Pr  Pr1  1  0.940869  0.559100  0.559100  1
  Pr  Pr2  1  0.558360  0.941343  0.941343  1
  Pr  Pr3  1  0.559100  0.940869  0.559100  1
  Pr  Pr4  1  0.941343  0.558360  0.941343  1
  Pr  Pr5  1  0.559100  0.559100  0.940869  1
  Pr  Pr6  1  0.941343  0.941343  0.558360  1
  Y  Y7  1  0.348130  0.348130  0.956722  1
  Y  Y8  1  0.348130  0.956722  0.348130  1
  Y  Y9  1  0.956722  0.348130  0.348130  1
  Y  Y10  1  0.811321  0.188072  0.188072  1
  Y  Y11  1  0.186720  0.812073  0.812073  1
  Y  Y12  1  0.188072  0.811321  0.188072  1
  Y  Y13  1  0.812073  0.186720  0.812073  1
  Y  Y14  1  0.188072  0.188072  0.811321  1
  Y  Y15  1  0.812073  0.812073  0.186720  1
  Cd  Cd16  1  0.579121  0.579121  0.579121  1
  Cd  Cd17  1  0.579487  0.579487  0.261901  1
  Cd  Cd18  1  0.579487  0.261901  0.579487  1
  Cd  Cd19  1  0.261901  0.579487  0.579487  1
  Ir  Ir20  1  0.141237  0.141237  0.141237  1
  Ir  Ir21  1  0.141966  0.141966  0.576453  1
  Ir  Ir22  1  0.141966  0.576453  0.141966  1
  Ir  Ir23  1  0.576453  0.141966  0.141966  1
