# generated using pymatgen
data_YTa6TlBr18
_symmetry_space_group_name_H-M   'P 1'
_cell_length_a   10.74923744
_cell_length_b   10.74923687
_cell_length_c   10.74923700
_cell_angle_alpha   55.43239007
_cell_angle_beta   55.43238571
_cell_angle_gamma   55.43239420
_symmetry_Int_Tables_number   1
_chemical_formula_structural   YTa6TlBr18
_chemical_formula_sum   'Y1 Ta6 Tl1 Br18'
_cell_volume   785.08266665
_cell_formula_units_Z   1
loop_
 _symmetry_equiv_pos_site_id
 _symmetry_equiv_pos_as_xyz
  1  'x, y, z'
loop_
 _atom_site_type_symbol
 _atom_site_label
 _atom_site_symmetry_multiplicity
 _atom_site_fract_x
 _atom_site_fract_y
 _atom_site_fract_z
 _atom_site_occupancy
  Y  Y0  1  0.498196  0.498196  0.498196  1
  Ta  Ta1  1  0.811130  0.140900  0.917281  1
  Ta  Ta2  1  0.917281  0.811130  0.140900  1
  Ta  Ta3  1  0.140900  0.917281  0.811130  1
  Ta  Ta4  1  0.189816  0.859599  0.082017  1
  Ta  Ta5  1  0.082017  0.189816  0.859599  1
  Ta  Ta6  1  0.859599  0.082017  0.189816  1
  Tl  Tl7  1  0.221347  0.221347  0.221347  1
  Br  Br8  1  0.864451  0.411950  0.725725  1
  Br  Br9  1  0.725725  0.864451  0.411950  1
  Br  Br10  1  0.411950  0.725725  0.864451  1
  Br  Br11  1  0.134813  0.588109  0.276412  1
  Br  Br12  1  0.276412  0.134813  0.588109  1
  Br  Br13  1  0.588109  0.276412  0.134813  1
  Br  Br14  1  0.533187  0.340361  0.805874  1
  Br  Br15  1  0.805874  0.533187  0.340361  1
  Br  Br16  1  0.340361  0.805874  0.533187  1
  Br  Br17  1  0.463767  0.661135  0.196134  1
  Br  Br18  1  0.196134  0.463767  0.661135  1
  Br  Br19  1  0.661135  0.196134  0.463767  1
  Br  Br20  1  0.662606  0.938550  0.071275  1
  Br  Br21  1  0.071275  0.662606  0.938550  1
  Br  Br22  1  0.938550  0.071275  0.662606  1
  Br  Br23  1  0.339733  0.060854  0.925915  1
  Br  Br24  1  0.925915  0.339733  0.060854  1
  Br  Br25  1  0.060854  0.925915  0.339733  1
