# generated using pymatgen
data_Rb3Hg2Cl7
_symmetry_space_group_name_H-M   'P 1'
_cell_length_a   7.41610636
_cell_length_b   11.67311412
_cell_length_c   11.78720335
_cell_angle_alpha   118.95380252
_cell_angle_beta   107.22638919
_cell_angle_gamma   90.80413608
_symmetry_Int_Tables_number   1
_chemical_formula_structural   Rb3Hg2Cl7
_chemical_formula_sum   'Rb6 Hg4 Cl14'
_cell_volume   837.55366945
_cell_formula_units_Z   2
loop_
 _symmetry_equiv_pos_site_id
 _symmetry_equiv_pos_as_xyz
  1  'x, y, z'
loop_
 _atom_site_type_symbol
 _atom_site_label
 _atom_site_symmetry_multiplicity
 _atom_site_fract_x
 _atom_site_fract_y
 _atom_site_fract_z
 _atom_site_occupancy
  Rb  Rb0  1  0.614781  0.091701  0.217109  1
  Rb  Rb1  1  0.385219  0.908299  0.782891  1
  Rb  Rb2  1  0.089639  0.812010  0.218402  1
  Rb  Rb3  1  0.910361  0.187990  0.781598  1
  Rb  Rb4  1  0.870145  0.592425  0.713356  1
  Rb  Rb5  1  0.129855  0.407575  0.286644  1
  Hg  Hg6  1  0.490256  0.661369  0.985353  1
  Hg  Hg7  1  0.509744  0.338631  0.014647  1
  Hg  Hg8  1  0.352567  0.271158  0.567291  1
  Hg  Hg9  1  0.647433  0.728842  0.432709  1
  Cl  Cl10  1  0.328462  0.161488  0.703457  1
  Cl  Cl11  1  0.671538  0.838512  0.296543  1
  Cl  Cl12  1  0.303840  0.511321  0.659158  1
  Cl  Cl13  1  0.696160  0.488679  0.340842  1
  Cl  Cl14  1  0.727167  0.809727  0.967786  1
  Cl  Cl15  1  0.272833  0.190273  0.032214  1
  Cl  Cl16  1  0.735609  0.496045  0.988244  1
  Cl  Cl17  1  0.264391  0.503955  0.011756  1
  Cl  Cl18  1  0.245087  0.815129  0.984049  1
  Cl  Cl19  1  0.754913  0.184871  0.015951  1
  Cl  Cl20  1  0.694261  0.271957  0.553895  1
  Cl  Cl21  1  0.305739  0.728043  0.446105  1
  Cl  Cl22  1  0.124306  0.136276  0.319456  1
  Cl  Cl23  1  0.875694  0.863724  0.680544  1
