# generated using pymatgen
data_Nb4CrSiB2
_symmetry_space_group_name_H-M   'P 1'
_cell_length_a   7.23559150
_cell_length_b   7.23559130
_cell_length_c   7.23559258
_cell_angle_alpha   130.08865684
_cell_angle_beta   130.08866020
_cell_angle_gamma   73.26507352
_symmetry_Int_Tables_number   1
_chemical_formula_structural   Nb4CrSiB2
_chemical_formula_sum   'Nb8 Cr2 Si2 B4'
_cell_volume   216.45599734
_cell_formula_units_Z   2
loop_
 _symmetry_equiv_pos_site_id
 _symmetry_equiv_pos_as_xyz
  1  'x, y, z'
loop_
 _atom_site_type_symbol
 _atom_site_label
 _atom_site_symmetry_multiplicity
 _atom_site_fract_x
 _atom_site_fract_y
 _atom_site_fract_z
 _atom_site_occupancy
  Nb  Nb0  1  0.807144  0.307144  0.841996  1
  Nb  Nb1  1  0.192856  0.692856  0.158004  1
  Nb  Nb2  1  0.465148  0.965148  0.158004  1
  Nb  Nb3  1  0.307144  0.465148  0.500000  1
  Nb  Nb4  1  0.034852  0.192856  0.500000  1
  Nb  Nb5  1  0.534852  0.034852  0.841996  1
  Nb  Nb6  1  0.692856  0.534852  0.500000  1
  Nb  Nb7  1  0.965148  0.807144  0.500000  1
  Cr  Cr8  1  0.000000  0.000000  0.000000  1
  Cr  Cr9  1  0.500000  0.500000  0.000000  1
  Si  Si10  1  0.250000  0.250000  0.000000  1
  Si  Si11  1  0.750000  0.750000  0.000000  1
  B  B12  1  0.118283  0.618283  0.736566  1
  B  B13  1  0.881717  0.381717  0.263434  1
  B  B14  1  0.618283  0.881717  0.500000  1
  B  B15  1  0.381717  0.118283  0.500000  1
