# generated using pymatgen
data_Tb4Sc4TcPt3
_symmetry_space_group_name_H-M   'P 1'
_cell_length_a   4.48725700
_cell_length_b   7.05825826
_cell_length_c   8.56967400
_cell_angle_alpha   87.92072783
_cell_angle_beta   90.00000000
_cell_angle_gamma   90.00000000
_symmetry_Int_Tables_number   1
_chemical_formula_structural   Tb4Sc4TcPt3
_chemical_formula_sum   'Tb4 Sc4 Tc1 Pt3'
_cell_volume   271.24188258
_cell_formula_units_Z   1
loop_
 _symmetry_equiv_pos_site_id
 _symmetry_equiv_pos_as_xyz
  1  'x, y, z'
loop_
 _atom_site_type_symbol
 _atom_site_label
 _atom_site_symmetry_multiplicity
 _atom_site_fract_x
 _atom_site_fract_y
 _atom_site_fract_z
 _atom_site_occupancy
  Tb  Tb0  1  0.250000  0.019095  0.671803  1
  Tb  Tb1  1  0.250000  0.521604  0.820168  1
  Tb  Tb2  1  0.750000  0.988997  0.329902  1
  Tb  Tb3  1  0.750000  0.469737  0.184282  1
  Sc  Sc4  1  0.250000  0.136143  0.069556  1
  Sc  Sc5  1  0.250000  0.645016  0.426053  1
  Sc  Sc6  1  0.750000  0.859746  0.931519  1
  Sc  Sc7  1  0.750000  0.356986  0.566602  1
  Tc  Tc8  1  0.250000  0.264868  0.391648  1
  Pt  Pt9  1  0.250000  0.754886  0.097695  1
  Pt  Pt10  1  0.750000  0.738984  0.612057  1
  Pt  Pt11  1  0.750000  0.243939  0.898716  1
