# generated using pymatgen
data_Mg3Sc3Co16Si6Ge
_symmetry_space_group_name_H-M   'P 1'
_cell_length_a   8.05003464
_cell_length_b   8.05003338
_cell_length_c   8.04621300
_cell_angle_alpha   59.98427760
_cell_angle_beta   59.98428145
_cell_angle_gamma   59.99999872
_symmetry_Int_Tables_number   1
_chemical_formula_structural   Mg3Sc3Co16Si6Ge
_chemical_formula_sum   'Mg3 Sc3 Co16 Si6 Ge1'
_cell_volume   368.61136227
_cell_formula_units_Z   1
loop_
 _symmetry_equiv_pos_site_id
 _symmetry_equiv_pos_as_xyz
  1  'x, y, z'
loop_
 _atom_site_type_symbol
 _atom_site_label
 _atom_site_symmetry_multiplicity
 _atom_site_fract_x
 _atom_site_fract_y
 _atom_site_fract_z
 _atom_site_occupancy
  Mg  Mg0  1  0.703827  0.703827  0.295537  1
  Mg  Mg1  1  0.296808  0.703827  0.295537  1
  Mg  Mg2  1  0.703827  0.296808  0.295537  1
  Sc  Sc3  1  0.285802  0.285802  0.713385  1
  Sc  Sc4  1  0.715011  0.285802  0.713385  1
  Sc  Sc5  1  0.285802  0.715011  0.713385  1
  Co  Co6  1  0.880385  0.880385  0.358843  1
  Co  Co7  1  0.878430  0.364267  0.878871  1
  Co  Co8  1  0.364267  0.878430  0.878871  1
  Co  Co9  1  0.878430  0.878430  0.878871  1
  Co  Co10  1  0.121510  0.121510  0.635471  1
  Co  Co11  1  0.119643  0.640195  0.120521  1
  Co  Co12  1  0.640195  0.119643  0.120521  1
  Co  Co13  1  0.119643  0.119643  0.120521  1
  Co  Co14  1  0.676229  0.676229  0.971311  1
  Co  Co15  1  0.672950  0.979852  0.674248  1
  Co  Co16  1  0.979852  0.672950  0.674248  1
  Co  Co17  1  0.672950  0.672950  0.674248  1
  Co  Co18  1  0.328564  0.328564  0.014307  1
  Co  Co19  1  0.325508  0.022038  0.326946  1
  Co  Co20  1  0.022038  0.325508  0.326946  1
  Co  Co21  1  0.325508  0.325508  0.326946  1
  Si  Si22  1  0.999912  0.999912  0.495687  1
  Si  Si23  1  0.504489  0.999912  0.495687  1
  Si  Si24  1  0.999912  0.504489  0.495687  1
  Si  Si25  1  0.498624  0.498624  0.003249  1
  Si  Si26  1  0.999501  0.498624  0.003249  1
  Si  Si27  1  0.498624  0.999501  0.003249  1
  Ge  Ge28  1  0.001755  0.001755  0.994734  1
