# generated using pymatgen
data_Tb6Gd11Lu3Sn16
_symmetry_space_group_name_H-M   'P 1'
_cell_length_a   7.98276803
_cell_length_b   8.12683858
_cell_length_c   15.82076100
_cell_angle_alpha   90.01673716
_cell_angle_beta   90.00490219
_cell_angle_gamma   89.98633529
_symmetry_Int_Tables_number   1
_chemical_formula_structural   Tb6Gd11Lu3Sn16
_chemical_formula_sum   'Tb6 Gd11 Lu3 Sn16'
_cell_volume   1026.36652764
_cell_formula_units_Z   1
loop_
 _symmetry_equiv_pos_site_id
 _symmetry_equiv_pos_as_xyz
  1  'x, y, z'
loop_
 _atom_site_type_symbol
 _atom_site_label
 _atom_site_symmetry_multiplicity
 _atom_site_fract_x
 _atom_site_fract_y
 _atom_site_fract_z
 _atom_site_occupancy
  Tb  Tb0  1  0.517142  0.321946  0.096490  1
  Tb  Tb1  1  0.016552  0.179066  0.404125  1
  Tb  Tb2  1  0.516943  0.322662  0.403809  1
  Tb  Tb3  1  0.016432  0.178229  0.095933  1
  Tb  Tb4  1  0.482827  0.678461  0.903436  1
  Tb  Tb5  1  0.983687  0.821421  0.596257  1
  Gd  Gd6  1  0.637132  0.164775  0.622353  1
  Gd  Gd7  1  0.138116  0.334062  0.877581  1
  Gd  Gd8  1  0.361312  0.833779  0.122788  1
  Gd  Gd9  1  0.861359  0.665646  0.377030  1
  Gd  Gd10  1  0.362117  0.834393  0.377733  1
  Gd  Gd11  1  0.861991  0.665679  0.122866  1
  Gd  Gd12  1  0.638804  0.164856  0.877839  1
  Gd  Gd13  1  0.138797  0.334608  0.622142  1
  Gd  Gd14  1  0.482423  0.677471  0.595787  1
  Gd  Gd15  1  0.984177  0.821546  0.904609  1
  Gd  Gd16  1  0.808131  0.497946  0.749077  1
  Lu  Lu17  1  0.306511  0.002874  0.749800  1
  Lu  Lu18  1  0.193333  0.502046  0.250036  1
  Lu  Lu19  1  0.692608  0.998229  0.250164  1
  Sn  Sn20  1  0.700665  0.968234  0.457345  1
  Sn  Sn21  1  0.200267  0.531912  0.042317  1
  Sn  Sn22  1  0.301239  0.033817  0.957815  1
  Sn  Sn23  1  0.799825  0.465654  0.540967  1
  Sn  Sn24  1  0.299560  0.032557  0.542796  1
  Sn  Sn25  1  0.799558  0.466809  0.958470  1
  Sn  Sn26  1  0.698445  0.967333  0.042854  1
  Sn  Sn27  1  0.198793  0.532807  0.457364  1
  Sn  Sn28  1  0.438661  0.382695  0.750264  1
  Sn  Sn29  1  0.941289  0.113715  0.749465  1
  Sn  Sn30  1  0.558801  0.615783  0.250196  1
  Sn  Sn31  1  0.059150  0.885057  0.250177  1
  Sn  Sn32  1  0.670808  0.855364  0.749966  1
  Sn  Sn33  1  0.175367  0.649258  0.749846  1
  Sn  Sn34  1  0.328091  0.148543  0.250378  1
  Sn  Sn35  1  0.829089  0.350767  0.249920  1
