# generated using pymatgen
data_CsPaPtS3
_symmetry_space_group_name_H-M   'P 1'
_cell_length_a   8.07742642
_cell_length_b   8.07742618
_cell_length_c   10.18338600
_cell_angle_alpha   90.00000000
_cell_angle_beta   90.00000000
_cell_angle_gamma   151.10009649
_symmetry_Int_Tables_number   1
_chemical_formula_structural   CsPaPtS3
_chemical_formula_sum   'Cs2 Pa2 Pt2 S6'
_cell_volume   321.09818720
_cell_formula_units_Z   2
loop_
 _symmetry_equiv_pos_site_id
 _symmetry_equiv_pos_as_xyz
  1  'x, y, z'
loop_
 _atom_site_type_symbol
 _atom_site_label
 _atom_site_symmetry_multiplicity
 _atom_site_fract_x
 _atom_site_fract_y
 _atom_site_fract_z
 _atom_site_occupancy
  Cs  Cs0  1  0.753630  0.246370  0.250000  1
  Cs  Cs1  1  0.246370  0.753630  0.750000  1
  Pa  Pa2  1  0.500000  0.500000  0.000000  1
  Pa  Pa3  1  0.500000  0.500000  0.500000  1
  Pt  Pt4  1  0.030470  0.969530  0.250000  1
  Pt  Pt5  1  0.969530  0.030470  0.750000  1
  S  S6  1  0.113289  0.886710  0.049128  1
  S  S7  1  0.441773  0.558226  0.250000  1
  S  S8  1  0.113289  0.886710  0.450872  1
  S  S9  1  0.886710  0.113289  0.549127  1
  S  S10  1  0.558226  0.441773  0.750000  1
  S  S11  1  0.886710  0.113289  0.950872  1
