# generated using pymatgen
data_Tb2Dy2Ga4Ir3Pt
_symmetry_space_group_name_H-M   'P 1'
_cell_length_a   4.38591700
_cell_length_b   6.84939705
_cell_length_c   7.78130147
_cell_angle_alpha   89.98696313
_cell_angle_beta   90.00000000
_cell_angle_gamma   90.00000000
_symmetry_Int_Tables_number   1
_chemical_formula_structural   Tb2Dy2Ga4Ir3Pt
_chemical_formula_sum   'Tb2 Dy2 Ga4 Ir3 Pt1'
_cell_volume   233.75719199
_cell_formula_units_Z   1
loop_
 _symmetry_equiv_pos_site_id
 _symmetry_equiv_pos_as_xyz
  1  'x, y, z'
loop_
 _atom_site_type_symbol
 _atom_site_label
 _atom_site_symmetry_multiplicity
 _atom_site_fract_x
 _atom_site_fract_y
 _atom_site_fract_z
 _atom_site_occupancy
  Tb  Tb0  1  0.250000  0.973992  0.308846  1
  Tb  Tb1  1  0.250000  0.478968  0.187869  1
  Dy  Dy2  1  0.750000  0.019896  0.695229  1
  Dy  Dy3  1  0.750000  0.521738  0.808938  1
  Ga  Ga4  1  0.250000  0.343468  0.573158  1
  Ga  Ga5  1  0.250000  0.841022  0.928293  1
  Ga  Ga6  1  0.750000  0.663237  0.429317  1
  Ga  Ga7  1  0.750000  0.157599  0.067882  1
  Ir  Ir8  1  0.250000  0.230160  0.891991  1
  Ir  Ir9  1  0.250000  0.730304  0.607375  1
  Ir  Ir10  1  0.750000  0.769425  0.106993  1
  Pt  Pt11  1  0.750000  0.270190  0.394108  1
