# generated using pymatgen
data_La2NiI
_symmetry_space_group_name_H-M   'P 1'
_cell_length_a   8.39475145
_cell_length_b   8.39475032
_cell_length_c   8.39474998
_cell_angle_alpha   29.25109505
_cell_angle_beta   29.25110565
_cell_angle_gamma   29.25109453
_symmetry_Int_Tables_number   1
_chemical_formula_structural   La2NiI
_chemical_formula_sum   'La2 Ni1 I1'
_cell_volume   124.98219371
_cell_formula_units_Z   1
loop_
 _symmetry_equiv_pos_site_id
 _symmetry_equiv_pos_as_xyz
  1  'x, y, z'
loop_
 _atom_site_type_symbol
 _atom_site_label
 _atom_site_symmetry_multiplicity
 _atom_site_fract_x
 _atom_site_fract_y
 _atom_site_fract_z
 _atom_site_occupancy
  La  La0  1  0.228304  0.228304  0.228304  1
  La  La1  1  0.771696  0.771696  0.771696  1
  Ni  Ni2  1  0.500000  0.500000  0.500000  1
  I  I3  1  0.000000  0.000000  0.000000  1
