# generated using pymatgen
data_HoLu9(Co2Rh)2
_symmetry_space_group_name_H-M   'P 1'
_cell_length_a   6.95360918
_cell_length_b   6.95360985
_cell_length_c   8.57538025
_cell_angle_alpha   113.90927959
_cell_angle_beta   113.93209008
_cell_angle_gamma   89.99557577
_symmetry_Int_Tables_number   1
_chemical_formula_structural   HoLu9(Co2Rh)2
_chemical_formula_sum   'Ho1 Lu9 Co4 Rh2'
_cell_volume   339.70619835
_cell_formula_units_Z   1
loop_
 _symmetry_equiv_pos_site_id
 _symmetry_equiv_pos_as_xyz
  1  'x, y, z'
loop_
 _atom_site_type_symbol
 _atom_site_label
 _atom_site_symmetry_multiplicity
 _atom_site_fract_x
 _atom_site_fract_y
 _atom_site_fract_z
 _atom_site_occupancy
  Ho  Ho0  1  0.535533  0.681114  0.716648  1
  Lu  Lu1  1  0.000666  0.000457  0.000339  1
  Lu  Lu2  1  0.499881  0.499673  0.000339  1
  Lu  Lu3  1  0.463942  0.318176  0.282119  1
  Lu  Lu4  1  0.963692  0.463726  0.282410  1
  Lu  Lu5  1  0.318684  0.818718  0.282410  1
  Lu  Lu6  1  0.818829  0.963989  0.282818  1
  Lu  Lu7  1  0.180755  0.036597  0.717351  1
  Lu  Lu8  1  0.681546  0.181279  0.717388  1
  Lu  Lu9  1  0.036110  0.535841  0.717388  1
  Co  Co10  1  0.613762  0.114466  0.000572  1
  Co  Co11  1  0.113821  0.386432  0.000252  1
  Co  Co12  1  0.886711  0.613353  0.000063  1
  Co  Co13  1  0.386106  0.886810  0.000572  1
  Rh  Rh14  1  0.249499  0.249202  0.499664  1
  Rh  Rh15  1  0.750462  0.750165  0.499664  1
