# generated using pymatgen
data_Ti8Al15PtRh6
_symmetry_space_group_name_H-M   'P 1'
_cell_length_a   8.67374076
_cell_length_b   8.65231321
_cell_length_c   8.66707524
_cell_angle_alpha   120.03047452
_cell_angle_beta   119.84915806
_cell_angle_gamma   90.08800042
_symmetry_Int_Tables_number   1
_chemical_formula_structural   Ti8Al15PtRh6
_chemical_formula_sum   'Ti8 Al15 Pt1 Rh6'
_cell_volume   460.41663100
_cell_formula_units_Z   1
loop_
 _symmetry_equiv_pos_site_id
 _symmetry_equiv_pos_as_xyz
  1  'x, y, z'
loop_
 _atom_site_type_symbol
 _atom_site_label
 _atom_site_symmetry_multiplicity
 _atom_site_fract_x
 _atom_site_fract_y
 _atom_site_fract_z
 _atom_site_occupancy
  Ti  Ti0  1  0.789938  0.289661  0.073192  1
  Ti  Ti1  1  0.217172  0.289251  0.499479  1
  Ti  Ti2  1  0.210088  0.709877  0.500332  1
  Ti  Ti3  1  0.216092  0.717063  0.926243  1
  Ti  Ti4  1  0.789581  0.716666  0.500864  1
  Ti  Ti5  1  0.782363  0.283498  0.499369  1
  Ti  Ti6  1  0.383910  0.124774  0.747408  1
  Ti  Ti7  1  0.379275  0.635362  0.256864  1
  Al  Al8  1  0.997275  0.497032  0.499832  1
  Al  Al9  1  0.153458  0.344550  0.191534  1
  Al  Al10  1  0.155175  0.962561  0.811693  1
  Al  Al11  1  0.151912  0.349601  0.806219  1
  Al  Al12  1  0.542737  0.346778  0.196320  1
  Al  Al13  1  0.845672  0.652499  0.806813  1
  Al  Al14  1  0.844371  0.039581  0.190078  1
  Al  Al15  1  0.842236  0.650937  0.186434  1
  Al  Al16  1  0.464848  0.654117  0.810137  1
  Al  Al17  1  0.379027  0.122022  0.257695  1
  Al  Al18  1  0.863054  0.123204  0.745601  1
  Al  Al19  1  0.617715  0.876279  0.253453  1
  Al  Al20  1  0.621070  0.365316  0.743369  1
  Al  Al21  1  0.620680  0.877408  0.742376  1
  Al  Al22  1  0.136429  0.876918  0.254556  1
  Pt  Pt23  1  0.000703  0.999680  0.500902  1
  Rh  Rh24  1  0.498839  0.999932  0.999335  1
  Rh  Rh25  1  0.497644  0.497950  0.000609  1
  Rh  Rh26  1  0.498326  0.499503  0.498167  1
  Rh  Rh27  1  0.001375  0.499334  0.001200  1
  Rh  Rh28  1  0.999269  0.999188  0.999602  1
  Rh  Rh29  1  0.499761  0.999457  0.500324  1
