# generated using pymatgen
data_Dy2Th3Sn3C
_symmetry_space_group_name_H-M   'P 1'
_cell_length_a   9.22650400
_cell_length_b   9.22650376
_cell_length_c   6.51476600
_cell_angle_alpha   90.00000000
_cell_angle_beta   90.00000000
_cell_angle_gamma   120.00000802
_symmetry_Int_Tables_number   1
_chemical_formula_structural   Dy2Th3Sn3C
_chemical_formula_sum   'Dy4 Th6 Sn6 C2'
_cell_volume   480.29023321
_cell_formula_units_Z   2
loop_
 _symmetry_equiv_pos_site_id
 _symmetry_equiv_pos_as_xyz
  1  'x, y, z'
loop_
 _atom_site_type_symbol
 _atom_site_label
 _atom_site_symmetry_multiplicity
 _atom_site_fract_x
 _atom_site_fract_y
 _atom_site_fract_z
 _atom_site_occupancy
  Dy  Dy0  1  0.666667  0.333333  0.500000  1
  Dy  Dy1  1  0.333333  0.666667  0.500000  1
  Dy  Dy2  1  0.333333  0.666667  0.000000  1
  Dy  Dy3  1  0.666667  0.333333  0.000000  1
  Th  Th4  1  0.777365  0.777365  0.250000  1
  Th  Th5  1  0.222635  0.000000  0.250000  1
  Th  Th6  1  0.000000  0.222635  0.250000  1
  Th  Th7  1  0.222635  0.222635  0.750000  1
  Th  Th8  1  0.777365  0.000000  0.750000  1
  Th  Th9  1  0.000000  0.777365  0.750000  1
  Sn  Sn10  1  0.406031  0.406031  0.250000  1
  Sn  Sn11  1  0.593969  0.000000  0.250000  1
  Sn  Sn12  1  0.000000  0.593969  0.250000  1
  Sn  Sn13  1  0.593969  0.593969  0.750000  1
  Sn  Sn14  1  0.406031  0.000000  0.750000  1
  Sn  Sn15  1  0.000000  0.406031  0.750000  1
  C  C16  1  0.000000  0.000000  0.500000  1
  C  C17  1  0.000000  0.000000  0.000000  1
