# generated using pymatgen
data_Tm4Mg3ZnPt4
_symmetry_space_group_name_H-M   'P 1'
_cell_length_a   4.17765300
_cell_length_b   6.92336717
_cell_length_c   8.46903630
_cell_angle_alpha   88.64470064
_cell_angle_beta   90.00000000
_cell_angle_gamma   90.00000000
_symmetry_Int_Tables_number   1
_chemical_formula_structural   Tm4Mg3ZnPt4
_chemical_formula_sum   'Tm4 Mg3 Zn1 Pt4'
_cell_volume   244.88501514
_cell_formula_units_Z   1
loop_
 _symmetry_equiv_pos_site_id
 _symmetry_equiv_pos_as_xyz
  1  'x, y, z'
loop_
 _atom_site_type_symbol
 _atom_site_label
 _atom_site_symmetry_multiplicity
 _atom_site_fract_x
 _atom_site_fract_y
 _atom_site_fract_z
 _atom_site_occupancy
  Tm  Tm0  1  0.250000  0.536743  0.169958  1
  Tm  Tm1  1  0.750000  0.450301  0.832032  1
  Tm  Tm2  1  0.750000  0.960563  0.680018  1
  Tm  Tm3  1  0.250000  0.043685  0.318596  1
  Mg  Mg4  1  0.250000  0.634577  0.560686  1
  Mg  Mg5  1  0.750000  0.365561  0.441188  1
  Mg  Mg6  1  0.750000  0.872070  0.054370  1
  Zn  Zn7  1  0.250000  0.135278  0.941830  1
  Pt  Pt8  1  0.250000  0.746697  0.870194  1
  Pt  Pt9  1  0.750000  0.253920  0.130993  1
  Pt  Pt10  1  0.750000  0.758644  0.371621  1
  Pt  Pt11  1  0.250000  0.241961  0.628513  1
