# generated using pymatgen
data_Na4CeHfSe6
_symmetry_space_group_name_H-M   'P 1'
_cell_length_a   7.15680087
_cell_length_b   7.15680013
_cell_length_c   7.31916022
_cell_angle_alpha   80.52013090
_cell_angle_beta   80.52012947
_cell_angle_gamma   119.99702786
_symmetry_Int_Tables_number   1
_chemical_formula_structural   Na4CeHfSe6
_chemical_formula_sum   'Na4 Ce1 Hf1 Se6'
_cell_volume   306.55214219
_cell_formula_units_Z   1
loop_
 _symmetry_equiv_pos_site_id
 _symmetry_equiv_pos_as_xyz
  1  'x, y, z'
loop_
 _atom_site_type_symbol
 _atom_site_label
 _atom_site_symmetry_multiplicity
 _atom_site_fract_x
 _atom_site_fract_y
 _atom_site_fract_z
 _atom_site_occupancy
  Na  Na0  1  0.000000  0.000000  0.000000  1
  Na  Na1  1  0.500334  0.499666  0.500000  1
  Na  Na2  1  0.841504  0.158496  0.500000  1
  Na  Na3  1  0.158706  0.841294  0.500000  1
  Ce  Ce4  1  0.332280  0.667720  0.000000  1
  Hf  Hf5  1  0.668291  0.331709  0.000000  1
  Se  Se6  1  0.573457  0.939762  0.227855  1
  Se  Se7  1  0.726898  0.711490  0.772855  1
  Se  Se8  1  0.442895  0.093113  0.773653  1
  Se  Se9  1  0.060238  0.426543  0.772145  1
  Se  Se10  1  0.906887  0.557105  0.226347  1
  Se  Se11  1  0.288510  0.273102  0.227145  1
