# generated using pymatgen
data_Sr9Yb3(HoSn2)8
_symmetry_space_group_name_H-M   'P 1'
_cell_length_a   8.04295149
_cell_length_b   8.58552562
_cell_length_c   16.34322500
_cell_angle_alpha   90.00000000
_cell_angle_beta   90.00000000
_cell_angle_gamma   89.92997589
_symmetry_Int_Tables_number   1
_chemical_formula_structural   Sr9Yb3(HoSn2)8
_chemical_formula_sum   'Sr9 Yb3 Ho8 Sn16'
_cell_volume   1128.54731811
_cell_formula_units_Z   1
loop_
 _symmetry_equiv_pos_site_id
 _symmetry_equiv_pos_as_xyz
  1  'x, y, z'
loop_
 _atom_site_type_symbol
 _atom_site_label
 _atom_site_symmetry_multiplicity
 _atom_site_fract_x
 _atom_site_fract_y
 _atom_site_fract_z
 _atom_site_occupancy
  Sr  Sr0  1  0.500911  0.682374  0.592270  1
  Sr  Sr1  1  0.003167  0.820693  0.907158  1
  Sr  Sr2  1  0.498098  0.318824  0.094299  1
  Sr  Sr3  1  0.997821  0.181185  0.405618  1
  Sr  Sr4  1  0.498098  0.318824  0.405701  1
  Sr  Sr5  1  0.997821  0.181185  0.094382  1
  Sr  Sr6  1  0.500911  0.682374  0.907730  1
  Sr  Sr7  1  0.003167  0.820693  0.592842  1
  Sr  Sr8  1  0.828375  0.512752  0.750000  1
  Yb  Yb9  1  0.331102  0.991150  0.750000  1
  Yb  Yb10  1  0.168426  0.492606  0.250000  1
  Yb  Yb11  1  0.668327  0.007222  0.250000  1
  Ho  Ho12  1  0.668696  0.167626  0.621872  1
  Ho  Ho13  1  0.169772  0.330147  0.878300  1
  Ho  Ho14  1  0.331022  0.831442  0.122965  1
  Ho  Ho15  1  0.830936  0.668304  0.376832  1
  Ho  Ho16  1  0.331022  0.831442  0.377035  1
  Ho  Ho17  1  0.830936  0.668304  0.123168  1
  Ho  Ho18  1  0.668696  0.167626  0.878128  1
  Ho  Ho19  1  0.169772  0.330147  0.621700  1
  Sn  Sn20  1  0.665321  0.960054  0.459212  1
  Sn  Sn21  1  0.165409  0.539990  0.040801  1
  Sn  Sn22  1  0.335261  0.039693  0.960200  1
  Sn  Sn23  1  0.834921  0.459326  0.538043  1
  Sn  Sn24  1  0.335261  0.039693  0.539800  1
  Sn  Sn25  1  0.834921  0.459326  0.961957  1
  Sn  Sn26  1  0.665321  0.960054  0.040788  1
  Sn  Sn27  1  0.165409  0.539990  0.459199  1
  Sn  Sn28  1  0.458789  0.361294  0.750000  1
  Sn  Sn29  1  0.967572  0.128121  0.750000  1
  Sn  Sn30  1  0.534562  0.630144  0.250000  1
  Sn  Sn31  1  0.034822  0.869657  0.250000  1
  Sn  Sn32  1  0.707458  0.889203  0.750000  1
  Sn  Sn33  1  0.220083  0.619051  0.750000  1
  Sn  Sn34  1  0.288970  0.117141  0.250000  1
  Sn  Sn35  1  0.788845  0.382348  0.250000  1
