# generated using pymatgen
data_Tb3TmMg2Rh3
_symmetry_space_group_name_H-M   'P 1'
_cell_length_a   7.46690000
_cell_length_b   7.44140003
_cell_length_c   4.09007600
_cell_angle_alpha   90.00000000
_cell_angle_beta   90.00000000
_cell_angle_gamma   120.11341265
_symmetry_Int_Tables_number   1
_chemical_formula_structural   Tb3TmMg2Rh3
_chemical_formula_sum   'Tb3 Tm1 Mg2 Rh3'
_cell_volume   196.58914785
_cell_formula_units_Z   1
loop_
 _symmetry_equiv_pos_site_id
 _symmetry_equiv_pos_as_xyz
  1  'x, y, z'
loop_
 _atom_site_type_symbol
 _atom_site_label
 _atom_site_symmetry_multiplicity
 _atom_site_fract_x
 _atom_site_fract_y
 _atom_site_fract_z
 _atom_site_occupancy
  Tb  Tb0  1  0.393052  0.000000  0.500001  1
  Tb  Tb1  1  0.016949  0.431701  0.500001  1
  Tb  Tb2  1  0.585248  0.568300  0.500001  1
  Tm  Tm3  1  0.751924  0.000000  0.000000  1
  Mg  Mg4  1  0.246317  0.246915  0.000000  1
  Mg  Mg5  1  0.999402  0.753084  0.000000  1
  Rh  Rh6  1  0.668575  0.328407  0.000000  1
  Rh  Rh7  1  0.340168  0.671594  0.000000  1
  Rh  Rh8  1  0.998364  0.000000  0.500001  1
