# generated using pymatgen
data_Np2Hg(AsRh2)6
_symmetry_space_group_name_H-M   'P 1'
_cell_length_a   10.10760700
_cell_length_b   10.10760724
_cell_length_c   4.03480100
_cell_angle_alpha   90.00000000
_cell_angle_beta   90.00000000
_cell_angle_gamma   119.99999594
_symmetry_Int_Tables_number   1
_chemical_formula_structural   Np2Hg(AsRh2)6
_chemical_formula_sum   'Np2 Hg1 As6 Rh12'
_cell_volume   356.98459439
_cell_formula_units_Z   1
loop_
 _symmetry_equiv_pos_site_id
 _symmetry_equiv_pos_as_xyz
  1  'x, y, z'
loop_
 _atom_site_type_symbol
 _atom_site_label
 _atom_site_symmetry_multiplicity
 _atom_site_fract_x
 _atom_site_fract_y
 _atom_site_fract_z
 _atom_site_occupancy
  Np  Np0  1  0.333333  0.666667  0.765174  1
  Np  Np1  1  0.666667  0.333333  0.245779  1
  Hg  Hg2  1  0.000000  0.000000  0.497050  1
  As  As3  1  0.884553  0.600607  0.745573  1
  As  As4  1  0.399393  0.283947  0.745573  1
  As  As5  1  0.716053  0.115447  0.745573  1
  As  As6  1  0.117573  0.407654  0.265604  1
  As  As7  1  0.592346  0.709919  0.265604  1
  As  As8  1  0.290081  0.882427  0.265604  1
  Rh  Rh9  1  0.610786  0.545909  0.752944  1
  Rh  Rh10  1  0.454091  0.064877  0.752944  1
  Rh  Rh11  1  0.935123  0.389214  0.752944  1
  Rh  Rh12  1  0.383471  0.446270  0.257314  1
  Rh  Rh13  1  0.553730  0.937202  0.257314  1
  Rh  Rh14  1  0.062798  0.616529  0.257314  1
  Rh  Rh15  1  0.132884  0.842016  0.768998  1
  Rh  Rh16  1  0.157984  0.290868  0.768998  1
  Rh  Rh17  1  0.709132  0.867116  0.768998  1
  Rh  Rh18  1  0.874216  0.166429  0.241660  1
  Rh  Rh19  1  0.833571  0.707787  0.241660  1
  Rh  Rh20  1  0.292213  0.125784  0.241660  1
