# generated using pymatgen
data_Lu5Al2GeC4
_symmetry_space_group_name_H-M   'P 1'
_cell_length_a   10.55458300
_cell_length_b   10.55458300
_cell_length_c   3.45260500
_cell_angle_alpha   90.00000000
_cell_angle_beta   90.00000000
_cell_angle_gamma   90.00000000
_symmetry_Int_Tables_number   1
_chemical_formula_structural   Lu5Al2GeC4
_chemical_formula_sum   'Lu10 Al4 Ge2 C8'
_cell_volume   384.61751192
_cell_formula_units_Z   2
loop_
 _symmetry_equiv_pos_site_id
 _symmetry_equiv_pos_as_xyz
  1  'x, y, z'
loop_
 _atom_site_type_symbol
 _atom_site_label
 _atom_site_symmetry_multiplicity
 _atom_site_fract_x
 _atom_site_fract_y
 _atom_site_fract_z
 _atom_site_occupancy
  Lu  Lu0  1  0.550434  0.728310  0.500000  1
  Lu  Lu1  1  0.449566  0.271690  0.500000  1
  Lu  Lu2  1  0.050434  0.771690  0.500000  1
  Lu  Lu3  1  0.949566  0.228310  0.500000  1
  Lu  Lu4  1  0.271690  0.550434  0.500000  1
  Lu  Lu5  1  0.728310  0.449566  0.500000  1
  Lu  Lu6  1  0.228310  0.050434  0.500000  1
  Lu  Lu7  1  0.771690  0.949566  0.500000  1
  Lu  Lu8  1  0.500000  0.000000  0.000000  1
  Lu  Lu9  1  0.000000  0.500000  0.000000  1
  Al  Al10  1  0.703168  0.203168  0.000000  1
  Al  Al11  1  0.296832  0.796832  0.000000  1
  Al  Al12  1  0.203168  0.296832  0.000000  1
  Al  Al13  1  0.796832  0.703168  0.000000  1
  Ge  Ge14  1  0.500000  0.500000  0.000000  1
  Ge  Ge15  1  0.000000  0.000000  0.000000  1
  C  C16  1  0.629274  0.129274  0.500000  1
  C  C17  1  0.370726  0.870726  0.500000  1
  C  C18  1  0.129274  0.370726  0.500000  1
  C  C19  1  0.870726  0.629274  0.500000  1
  C  C20  1  0.161832  0.661832  0.000000  1
  C  C21  1  0.838168  0.338168  0.000000  1
  C  C22  1  0.661832  0.838168  0.000000  1
  C  C23  1  0.338168  0.161832  0.000000  1
