# generated using pymatgen
data_KRb19(ZrAs3)4
_symmetry_space_group_name_H-M   'P 1'
_cell_length_a   8.89470652
_cell_length_b   9.45390316
_cell_length_c   18.53730938
_cell_angle_alpha   60.47931537
_cell_angle_beta   90.47522738
_cell_angle_gamma   90.22765687
_symmetry_Int_Tables_number   1
_chemical_formula_structural   KRb19(ZrAs3)4
_chemical_formula_sum   'K1 Rb19 Zr4 As12'
_cell_volume   1356.38369671
_cell_formula_units_Z   1
loop_
 _symmetry_equiv_pos_site_id
 _symmetry_equiv_pos_as_xyz
  1  'x, y, z'
loop_
 _atom_site_type_symbol
 _atom_site_label
 _atom_site_symmetry_multiplicity
 _atom_site_fract_x
 _atom_site_fract_y
 _atom_site_fract_z
 _atom_site_occupancy
  K  K0  1  0.544575  0.542892  0.750588  1
  Rb  Rb1  1  0.175739  0.841178  0.742492  1
  Rb  Rb2  1  0.675844  0.153406  0.759333  1
  Rb  Rb3  1  0.824278  0.155607  0.258009  1
  Rb  Rb4  1  0.323891  0.843999  0.241229  1
  Rb  Rb5  1  0.165522  0.163877  0.420141  1
  Rb  Rb6  1  0.659383  0.836895  0.080676  1
  Rb  Rb7  1  0.836115  0.838437  0.580254  1
  Rb  Rb8  1  0.339351  0.169543  0.916373  1
  Rb  Rb9  1  0.007358  0.084694  0.087238  1
  Rb  Rb10  1  0.508653  0.916964  0.410316  1
  Rb  Rb11  1  0.990582  0.916209  0.909723  1
  Rb  Rb12  1  0.493751  0.079265  0.592199  1
  Rb  Rb13  1  0.512262  0.269295  0.079184  1
  Rb  Rb14  1  0.019010  0.732105  0.422514  1
  Rb  Rb15  1  0.479097  0.731815  0.918644  1
  Rb  Rb16  1  0.985054  0.266200  0.580499  1
  Rb  Rb17  1  0.971023  0.545202  0.255226  1
  Rb  Rb18  1  0.472021  0.455200  0.245637  1
  Rb  Rb19  1  0.031478  0.455843  0.745372  1
  Zr  Zr20  1  0.375326  0.495090  0.580926  1
  Zr  Zr21  1  0.866383  0.505220  0.919517  1
  Zr  Zr22  1  0.628917  0.503823  0.421826  1
  Zr  Zr23  1  0.124755  0.496026  0.079444  1
  As  As24  1  0.327696  0.486444  0.439384  1
  As  As25  1  0.823186  0.516708  0.060405  1
  As  As26  1  0.676617  0.513289  0.563387  1
  As  As27  1  0.167410  0.484146  0.938931  1
  As  As28  1  0.201498  0.224411  0.214934  1
  As  As29  1  0.703092  0.774799  0.286377  1
  As  As30  1  0.792130  0.775706  0.783096  1
  As  As31  1  0.298581  0.223676  0.715211  1
  As  As32  1  0.250516  0.754715  0.075188  1
  As  As33  1  0.750896  0.246206  0.424244  1
  As  As34  1  0.741808  0.247870  0.922419  1
  As  As35  1  0.256203  0.753241  0.579066  1
