# generated using pymatgen
data_Nd5Dy5(SiHg)4
_symmetry_space_group_name_H-M   'P 1'
_cell_length_a   9.17204834
_cell_length_b   8.75273453
_cell_length_c   7.66004409
_cell_angle_alpha   90.02566124
_cell_angle_beta   90.11704762
_cell_angle_gamma   129.42087962
_symmetry_Int_Tables_number   1
_chemical_formula_structural   Nd5Dy5(SiHg)4
_chemical_formula_sum   'Nd5 Dy5 Si4 Hg4'
_cell_volume   475.04973439
_cell_formula_units_Z   1
loop_
 _symmetry_equiv_pos_site_id
 _symmetry_equiv_pos_as_xyz
  1  'x, y, z'
loop_
 _atom_site_type_symbol
 _atom_site_label
 _atom_site_symmetry_multiplicity
 _atom_site_fract_x
 _atom_site_fract_y
 _atom_site_fract_z
 _atom_site_occupancy
  Nd  Nd0  1  0.066430  0.335709  0.322817  1
  Nd  Nd1  1  0.933124  0.666456  0.676901  1
  Nd  Nd2  1  0.432635  0.167304  0.820386  1
  Nd  Nd3  1  0.794055  0.544888  0.180848  1
  Nd  Nd4  1  0.566549  0.834205  0.180181  1
  Dy  Dy5  1  0.212536  0.455989  0.821923  1
  Dy  Dy6  1  0.710488  0.952197  0.677618  1
  Dy  Dy7  1  0.286070  0.044086  0.323957  1
  Dy  Dy8  1  0.999593  0.000416  0.000623  1
  Dy  Dy9  1  0.498101  0.500251  0.499677  1
  Si  Si10  1  0.379674  0.383679  0.118863  1
  Si  Si11  1  0.615697  0.614769  0.879822  1
  Si  Si12  1  0.117113  0.116818  0.619849  1
  Si  Si13  1  0.883372  0.889029  0.382994  1
  Hg  Hg14  1  0.815448  0.248506  0.969930  1
  Hg  Hg15  1  0.194903  0.753555  0.017363  1
  Hg  Hg16  1  0.680647  0.238277  0.480536  1
  Hg  Hg17  1  0.313564  0.753865  0.525711  1
