# generated using pymatgen
data_Y2HoLu5(Si3Rh)4
_symmetry_space_group_name_H-M   'P 1'
_cell_length_a   8.13890806
_cell_length_b   8.13170652
_cell_length_c   7.77176100
_cell_angle_alpha   90.00000000
_cell_angle_beta   90.00000000
_cell_angle_gamma   119.97074181
_symmetry_Int_Tables_number   1
_chemical_formula_structural   Y2HoLu5(Si3Rh)4
_chemical_formula_sum   'Y2 Ho1 Lu5 Si12 Rh4'
_cell_volume   445.58018828
_cell_formula_units_Z   1
loop_
 _symmetry_equiv_pos_site_id
 _symmetry_equiv_pos_as_xyz
  1  'x, y, z'
loop_
 _atom_site_type_symbol
 _atom_site_label
 _atom_site_symmetry_multiplicity
 _atom_site_fract_x
 _atom_site_fract_y
 _atom_site_fract_z
 _atom_site_occupancy
  Y  Y0  1  0.000269  0.000134  0.250000  1
  Y  Y1  1  0.999699  0.999850  0.750000  1
  Ho  Ho2  1  0.019012  0.509507  0.750000  1
  Lu  Lu3  1  0.509147  0.490756  0.250000  1
  Lu  Lu4  1  0.509147  0.018390  0.250000  1
  Lu  Lu5  1  0.981558  0.490779  0.250000  1
  Lu  Lu6  1  0.491218  0.509212  0.750000  1
  Lu  Lu7  1  0.491218  0.982007  0.750000  1
  Si  Si8  1  0.167736  0.832832  0.499221  1
  Si  Si9  1  0.167736  0.334902  0.499221  1
  Si  Si10  1  0.664927  0.832463  0.500031  1
  Si  Si11  1  0.832393  0.167321  0.499529  1
  Si  Si12  1  0.832393  0.665074  0.499529  1
  Si  Si13  1  0.334782  0.167392  0.499734  1
  Si  Si14  1  0.832393  0.167321  0.000471  1
  Si  Si15  1  0.832393  0.665074  0.000471  1
  Si  Si16  1  0.334782  0.167392  0.000266  1
  Si  Si17  1  0.167736  0.832832  0.000779  1
  Si  Si18  1  0.167736  0.334902  0.000779  1
  Si  Si19  1  0.664927  0.832463  0.999969  1
  Rh  Rh20  1  0.334082  0.667042  0.463853  1
  Rh  Rh21  1  0.665317  0.332658  0.533509  1
  Rh  Rh22  1  0.665317  0.332658  0.966491  1
  Rh  Rh23  1  0.334082  0.667042  0.036147  1
