# generated using pymatgen
data_YLuGa3Cu
_symmetry_space_group_name_H-M   'P 1'
_cell_length_a   4.35443200
_cell_length_b   4.35443273
_cell_length_c   7.15481500
_cell_angle_alpha   90.00000000
_cell_angle_beta   90.00000000
_cell_angle_gamma   120.00000963
_symmetry_Int_Tables_number   1
_chemical_formula_structural   YLuGa3Cu
_chemical_formula_sum   'Y1 Lu1 Ga3 Cu1'
_cell_volume   117.48761758
_cell_formula_units_Z   1
loop_
 _symmetry_equiv_pos_site_id
 _symmetry_equiv_pos_as_xyz
  1  'x, y, z'
loop_
 _atom_site_type_symbol
 _atom_site_label
 _atom_site_symmetry_multiplicity
 _atom_site_fract_x
 _atom_site_fract_y
 _atom_site_fract_z
 _atom_site_occupancy
  Y  Y0  1  0.333333  0.666667  0.240402  1
  Lu  Lu1  1  0.333333  0.666667  0.770541  1
  Ga  Ga2  1  0.000000  0.000000  0.013815  1
  Ga  Ga3  1  0.000000  0.000000  0.462784  1
  Ga  Ga4  1  0.666667  0.333333  0.555958  1
  Cu  Cu5  1  0.666667  0.333333  0.956499  1
