# generated using pymatgen
data_Tb3YPa2(Co3P2)6
_symmetry_space_group_name_H-M   'P 1'
_cell_length_a   3.72029200
_cell_length_b   10.53561100
_cell_length_c   12.16042600
_cell_angle_alpha   90.00202453
_cell_angle_beta   90.00000000
_cell_angle_gamma   90.00000000
_symmetry_Int_Tables_number   1
_chemical_formula_structural   Tb3YPa2(Co3P2)6
_chemical_formula_sum   'Tb3 Y1 Pa2 Co18 P12'
_cell_volume   476.63457687
_cell_formula_units_Z   1
loop_
 _symmetry_equiv_pos_site_id
 _symmetry_equiv_pos_as_xyz
  1  'x, y, z'
loop_
 _atom_site_type_symbol
 _atom_site_label
 _atom_site_symmetry_multiplicity
 _atom_site_fract_x
 _atom_site_fract_y
 _atom_site_fract_z
 _atom_site_occupancy
  Tb  Tb0  1  0.500000  0.815168  0.205242  1
  Tb  Tb1  1  0.500000  0.184823  0.205209  1
  Tb  Tb2  1  0.000000  0.684845  0.794753  1
  Y  Y3  1  0.000000  0.315104  0.794754  1
  Pa  Pa4  1  0.000000  0.500015  0.528803  1
  Pa  Pa5  1  0.500000  0.999999  0.471214  1
  Co  Co6  1  0.500000  0.500003  0.158461  1
  Co  Co7  1  0.000000  0.000015  0.841492  1
  Co  Co8  1  0.500000  0.499988  0.696114  1
  Co  Co9  1  0.000000  0.000001  0.303914  1
  Co  Co10  1  0.000000  0.499987  0.985122  1
  Co  Co11  1  0.500000  0.000023  0.014902  1
  Co  Co12  1  0.500000  0.334045  0.993870  1
  Co  Co13  1  0.500000  0.665930  0.993890  1
  Co  Co14  1  0.000000  0.165932  0.006101  1
  Co  Co15  1  0.000000  0.834082  0.006110  1
  Co  Co16  1  0.500000  0.301511  0.431754  1
  Co  Co17  1  0.500000  0.698491  0.431749  1
  Co  Co18  1  0.000000  0.198457  0.568286  1
  Co  Co19  1  0.000000  0.801537  0.568258  1
  Co  Co20  1  0.500000  0.880490  0.710397  1
  Co  Co21  1  0.500000  0.119548  0.710424  1
  Co  Co22  1  0.000000  0.619544  0.289595  1
  Co  Co23  1  0.000000  0.380465  0.289590  1
  P  P24  1  0.500000  0.499982  0.879445  1
  P  P25  1  0.000000  0.000008  0.120514  1
  P  P26  1  0.500000  0.500000  0.343444  1
  P  P27  1  0.000000  0.999996  0.656556  1
  P  P28  1  0.500000  0.306655  0.616640  1
  P  P29  1  0.500000  0.693348  0.616590  1
  P  P30  1  0.000000  0.193335  0.383408  1
  P  P31  1  0.000000  0.806661  0.383409  1
  P  P32  1  0.500000  0.847757  0.894802  1
  P  P33  1  0.500000  0.152262  0.894776  1
  P  P34  1  0.000000  0.652267  0.105203  1
  P  P35  1  0.000000  0.347728  0.105209  1
