# generated using pymatgen
data_Tb6MnCr(Co4P3)4
_symmetry_space_group_name_H-M   'P 1'
_cell_length_a   3.69209300
_cell_length_b   10.54877700
_cell_length_c   12.22458300
_cell_angle_alpha   90.00000000
_cell_angle_beta   90.00000000
_cell_angle_gamma   90.00000000
_symmetry_Int_Tables_number   1
_chemical_formula_structural   Tb6MnCr(Co4P3)4
_chemical_formula_sum   'Tb6 Mn1 Cr1 Co16 P12'
_cell_volume   476.11163750
_cell_formula_units_Z   1
loop_
 _symmetry_equiv_pos_site_id
 _symmetry_equiv_pos_as_xyz
  1  'x, y, z'
loop_
 _atom_site_type_symbol
 _atom_site_label
 _atom_site_symmetry_multiplicity
 _atom_site_fract_x
 _atom_site_fract_y
 _atom_site_fract_z
 _atom_site_occupancy
  Tb  Tb0  1  0.000000  0.500000  0.522412  1
  Tb  Tb1  1  0.500000  0.000000  0.477770  1
  Tb  Tb2  1  0.500000  0.818019  0.204980  1
  Tb  Tb3  1  0.500000  0.181981  0.204980  1
  Tb  Tb4  1  0.000000  0.682647  0.794803  1
  Tb  Tb5  1  0.000000  0.317353  0.794803  1
  Mn  Mn6  1  0.500000  0.500000  0.158456  1
  Cr  Cr7  1  0.000000  0.000000  0.844335  1
  Co  Co8  1  0.500000  0.500000  0.703183  1
  Co  Co9  1  0.000000  0.000000  0.297201  1
  Co  Co10  1  0.000000  0.500000  0.986092  1
  Co  Co11  1  0.500000  0.000000  0.012723  1
  Co  Co12  1  0.500000  0.332957  0.993920  1
  Co  Co13  1  0.500000  0.667043  0.993920  1
  Co  Co14  1  0.000000  0.166949  0.006331  1
  Co  Co15  1  0.000000  0.833051  0.006331  1
  Co  Co16  1  0.500000  0.296652  0.430428  1
  Co  Co17  1  0.500000  0.703348  0.430428  1
  Co  Co18  1  0.000000  0.203687  0.569379  1
  Co  Co19  1  0.000000  0.796313  0.569379  1
  Co  Co20  1  0.500000  0.879917  0.709066  1
  Co  Co21  1  0.500000  0.120083  0.709066  1
  Co  Co22  1  0.000000  0.620389  0.290515  1
  Co  Co23  1  0.000000  0.379611  0.290515  1
  P  P24  1  0.500000  0.500000  0.883166  1
  P  P25  1  0.000000  0.000000  0.117027  1
  P  P26  1  0.500000  0.500000  0.344540  1
  P  P27  1  0.000000  0.000000  0.654868  1
  P  P28  1  0.500000  0.310564  0.615763  1
  P  P29  1  0.500000  0.689436  0.615763  1
  P  P30  1  0.000000  0.189454  0.384132  1
  P  P31  1  0.000000  0.810546  0.384132  1
  P  P32  1  0.500000  0.847222  0.892912  1
  P  P33  1  0.500000  0.152778  0.892912  1
  P  P34  1  0.000000  0.652219  0.106882  1
  P  P35  1  0.000000  0.347781  0.106882  1
