# generated using pymatgen
data_Th3MgIn2CuIr2
_symmetry_space_group_name_H-M   'P 1'
_cell_length_a   7.71435702
_cell_length_b   7.71435548
_cell_length_c   3.99716300
_cell_angle_alpha   90.00000000
_cell_angle_beta   90.00000000
_cell_angle_gamma   120.25788992
_symmetry_Int_Tables_number   1
_chemical_formula_structural   Th3MgIn2CuIr2
_chemical_formula_sum   'Th3 Mg1 In2 Cu1 Ir2'
_cell_volume   205.46952089
_cell_formula_units_Z   1
loop_
 _symmetry_equiv_pos_site_id
 _symmetry_equiv_pos_as_xyz
  1  'x, y, z'
loop_
 _atom_site_type_symbol
 _atom_site_label
 _atom_site_symmetry_multiplicity
 _atom_site_fract_x
 _atom_site_fract_y
 _atom_site_fract_z
 _atom_site_occupancy
  Th  Th0  1  0.421647  0.001660  0.500000  1
  Th  Th1  1  0.001660  0.421647  0.500000  1
  Th  Th2  1  0.575570  0.575570  0.500000  1
  Mg  Mg3  1  0.241463  0.241463  0.000000  1
  In  In4  1  0.760775  0.999718  0.000000  1
  In  In5  1  0.999718  0.760775  0.000000  1
  Cu  Cu6  1  0.010613  0.010613  0.500000  1
  Ir  Ir7  1  0.330219  0.658335  0.000000  1
  Ir  Ir8  1  0.658335  0.330219  0.000000  1
