# generated using pymatgen
data_Tm12Fe3AgBi
_symmetry_space_group_name_H-M   'P 1'
_cell_length_a   8.21434541
_cell_length_b   8.21434436
_cell_length_c   8.21434508
_cell_angle_alpha   110.28903547
_cell_angle_beta   107.35654204
_cell_angle_gamma   110.78896173
_symmetry_Int_Tables_number   1
_chemical_formula_structural   Tm12Fe3AgBi
_chemical_formula_sum   'Tm12 Fe3 Ag1 Bi1'
_cell_volume   426.23238748
_cell_formula_units_Z   1
loop_
 _symmetry_equiv_pos_site_id
 _symmetry_equiv_pos_as_xyz
  1  'x, y, z'
loop_
 _atom_site_type_symbol
 _atom_site_label
 _atom_site_symmetry_multiplicity
 _atom_site_fract_x
 _atom_site_fract_y
 _atom_site_fract_z
 _atom_site_occupancy
  Tm  Tm0  1  0.193708  0.448242  0.254535  1
  Tm  Tm1  1  0.806292  0.551758  0.745465  1
  Tm  Tm2  1  0.193708  0.939174  0.745465  1
  Tm  Tm3  1  0.968759  0.190770  0.777988  1
  Tm  Tm4  1  0.806292  0.060826  0.254535  1
  Tm  Tm5  1  0.031241  0.809230  0.222012  1
  Tm  Tm6  1  0.412781  0.190770  0.222012  1
  Tm  Tm7  1  0.587219  0.809230  0.777988  1
  Tm  Tm8  1  0.302354  0.314254  0.616608  1
  Tm  Tm9  1  0.697646  0.685746  0.383392  1
  Tm  Tm10  1  0.697646  0.314254  0.011901  1
  Tm  Tm11  1  0.302354  0.685746  0.988099  1
  Fe  Fe12  1  0.383539  0.383539  0.000000  1
  Fe  Fe13  1  0.616461  0.616461  0.000000  1
  Fe  Fe14  1  0.000000  0.000000  0.000000  1
  Ag  Ag15  1  0.000000  0.500000  0.500000  1
  Bi  Bi16  1  0.500000  0.000000  0.500000  1
