# generated using pymatgen
data_Ba4Fe4NiPtN6
_symmetry_space_group_name_H-M   'P 1'
_cell_length_a   6.78169873
_cell_length_b   6.78169790
_cell_length_c   6.73942571
_cell_angle_alpha   88.67624500
_cell_angle_beta   88.67623486
_cell_angle_gamma   117.66454965
_symmetry_Int_Tables_number   1
_chemical_formula_structural   Ba4Fe4NiPtN6
_chemical_formula_sum   'Ba4 Fe4 Ni1 Pt1 N6'
_cell_volume   274.24838870
_cell_formula_units_Z   1
loop_
 _symmetry_equiv_pos_site_id
 _symmetry_equiv_pos_as_xyz
  1  'x, y, z'
loop_
 _atom_site_type_symbol
 _atom_site_label
 _atom_site_symmetry_multiplicity
 _atom_site_fract_x
 _atom_site_fract_y
 _atom_site_fract_z
 _atom_site_occupancy
  Ba  Ba0  1  0.833171  0.672950  0.902554  1
  Ba  Ba1  1  0.327050  0.166829  0.597446  1
  Ba  Ba2  1  0.165702  0.328485  0.098063  1
  Ba  Ba3  1  0.671515  0.834298  0.401937  1
  Fe  Fe4  1  0.560842  0.155146  0.101499  1
  Fe  Fe5  1  0.453351  0.855202  0.884928  1
  Fe  Fe6  1  0.844854  0.439158  0.398501  1
  Fe  Fe7  1  0.144798  0.546649  0.615072  1
  Ni  Ni8  1  0.807455  0.192545  0.750000  1
  Pt  Pt9  1  0.190482  0.809518  0.250000  1
  N  N10  1  0.386926  0.613074  0.750000  1
  N  N11  1  0.614231  0.385769  0.250000  1
  N  N12  1  0.008691  0.707262  0.513686  1
  N  N13  1  0.724367  0.026172  0.990747  1
  N  N14  1  0.973828  0.275633  0.509253  1
  N  N15  1  0.292738  0.991309  0.986314  1
