# generated using pymatgen
data_Gd8Al3Si12Au
_symmetry_space_group_name_H-M   'P 1'
_cell_length_a   8.12360200
_cell_length_b   8.12360276
_cell_length_c   8.33004600
_cell_angle_alpha   90.00000000
_cell_angle_beta   90.00000000
_cell_angle_gamma   120.00000506
_symmetry_Int_Tables_number   1
_chemical_formula_structural   Gd8Al3Si12Au
_chemical_formula_sum   'Gd8 Al3 Si12 Au1'
_cell_volume   476.07494448
_cell_formula_units_Z   1
loop_
 _symmetry_equiv_pos_site_id
 _symmetry_equiv_pos_as_xyz
  1  'x, y, z'
loop_
 _atom_site_type_symbol
 _atom_site_label
 _atom_site_symmetry_multiplicity
 _atom_site_fract_x
 _atom_site_fract_y
 _atom_site_fract_z
 _atom_site_occupancy
  Gd  Gd0  1  0.499046  0.500954  0.747272  1
  Gd  Gd1  1  0.499367  0.500633  0.252678  1
  Gd  Gd2  1  0.001909  0.500954  0.747272  1
  Gd  Gd3  1  0.001267  0.500633  0.252678  1
  Gd  Gd4  1  0.499046  0.998091  0.747272  1
  Gd  Gd5  1  0.499367  0.998733  0.252678  1
  Gd  Gd6  1  0.000000  0.000000  0.748617  1
  Gd  Gd7  1  0.000000  0.000000  0.251615  1
  Al  Al8  1  0.333333  0.666667  0.000496  1
  Al  Al9  1  0.333333  0.666667  0.499539  1
  Al  Al10  1  0.666667  0.333333  0.500259  1
  Si  Si11  1  0.836565  0.163435  0.999983  1
  Si  Si12  1  0.164385  0.835615  0.999995  1
  Si  Si13  1  0.326871  0.163435  0.999983  1
  Si  Si14  1  0.165674  0.834326  0.499626  1
  Si  Si15  1  0.671229  0.835615  0.999995  1
  Si  Si16  1  0.836233  0.163767  0.500418  1
  Si  Si17  1  0.836565  0.673129  0.999983  1
  Si  Si18  1  0.668653  0.834326  0.499626  1
  Si  Si19  1  0.164385  0.328771  0.999995  1
  Si  Si20  1  0.327533  0.163767  0.500418  1
  Si  Si21  1  0.165674  0.331347  0.499626  1
  Si  Si22  1  0.836233  0.672467  0.500418  1
  Au  Au23  1  0.666667  0.333333  0.999562  1
