# generated using pymatgen
data_Y4HfPd13Pt2
_symmetry_space_group_name_H-M   'P 1'
_cell_length_a   4.11527900
_cell_length_b   4.10874300
_cell_length_c   20.57210900
_cell_angle_alpha   90.00000000
_cell_angle_beta   90.00000000
_cell_angle_gamma   90.00000000
_symmetry_Int_Tables_number   1
_chemical_formula_structural   Y4HfPd13Pt2
_chemical_formula_sum   'Y4 Hf1 Pd13 Pt2'
_cell_volume   347.84605153
_cell_formula_units_Z   1
loop_
 _symmetry_equiv_pos_site_id
 _symmetry_equiv_pos_as_xyz
  1  'x, y, z'
loop_
 _atom_site_type_symbol
 _atom_site_label
 _atom_site_symmetry_multiplicity
 _atom_site_fract_x
 _atom_site_fract_y
 _atom_site_fract_z
 _atom_site_occupancy
  Y  Y0  1  0.000000  0.000000  0.197352  1
  Y  Y1  1  0.000000  0.000000  0.398637  1
  Y  Y2  1  0.000000  0.000000  0.601343  1
  Y  Y3  1  0.000000  0.000000  0.802481  1
  Hf  Hf4  1  0.000000  0.000000  0.000814  1
  Pd  Pd5  1  0.500000  0.500000  0.195612  1
  Pd  Pd6  1  0.500000  0.500000  0.399134  1
  Pd  Pd7  1  0.500000  0.500000  0.600909  1
  Pd  Pd8  1  0.500000  0.500000  0.804263  1
  Pd  Pd9  1  0.500000  0.000000  0.297431  1
  Pd  Pd10  1  0.500000  0.000000  0.500011  1
  Pd  Pd11  1  0.500000  0.000000  0.702573  1
  Pd  Pd12  1  0.500000  0.000000  0.906292  1
  Pd  Pd13  1  0.000000  0.500000  0.093924  1
  Pd  Pd14  1  0.000000  0.500000  0.297571  1
  Pd  Pd15  1  0.000000  0.500000  0.500023  1
  Pd  Pd16  1  0.000000  0.500000  0.702542  1
  Pd  Pd17  1  0.000000  0.500000  0.906048  1
  Pt  Pt18  1  0.500000  0.500000  0.999754  1
  Pt  Pt19  1  0.500000  0.000000  0.093285  1
