# generated using pymatgen
data_Rb8Li4Ho3TmAs8
_symmetry_space_group_name_H-M   'P 1'
_cell_length_a   10.58542277
_cell_length_b   10.58542371
_cell_length_c   6.82342615
_cell_angle_alpha   90.01809190
_cell_angle_beta   89.98190316
_cell_angle_gamma   99.63637788
_symmetry_Int_Tables_number   1
_chemical_formula_structural   Rb8Li4Ho3TmAs8
_chemical_formula_sum   'Rb8 Li4 Ho3 Tm1 As8'
_cell_volume   753.78476234
_cell_formula_units_Z   1
loop_
 _symmetry_equiv_pos_site_id
 _symmetry_equiv_pos_as_xyz
  1  'x, y, z'
loop_
 _atom_site_type_symbol
 _atom_site_label
 _atom_site_symmetry_multiplicity
 _atom_site_fract_x
 _atom_site_fract_y
 _atom_site_fract_z
 _atom_site_occupancy
  Rb  Rb0  1  0.568488  0.931730  0.750123  1
  Rb  Rb1  1  0.931730  0.568488  0.249877  1
  Rb  Rb2  1  0.431729  0.068246  0.249904  1
  Rb  Rb3  1  0.068246  0.431729  0.750096  1
  Rb  Rb4  1  0.677636  0.322362  0.785529  1
  Rb  Rb5  1  0.822379  0.177434  0.285392  1
  Rb  Rb6  1  0.322362  0.677636  0.214471  1
  Rb  Rb7  1  0.177434  0.822379  0.714608  1
  Li  Li8  1  0.618272  0.618272  0.000000  1
  Li  Li9  1  0.881977  0.881977  0.500000  1
  Li  Li10  1  0.381992  0.381992  0.000000  1
  Li  Li11  1  0.117923  0.117923  0.500000  1
  Ho  Ho12  1  0.631977  0.631977  0.500000  1
  Ho  Ho13  1  0.131257  0.131257  0.000000  1
  Ho  Ho14  1  0.368271  0.368271  0.500000  1
  Tm  Tm15  1  0.868571  0.868571  0.000000  1
  As  As16  1  0.343393  0.156578  0.749981  1
  As  As17  1  0.156578  0.343393  0.250019  1
  As  As18  1  0.657929  0.843373  0.248408  1
  As  As19  1  0.843373  0.657929  0.751592  1
  As  As20  1  0.909251  0.089144  0.765729  1
  As  As21  1  0.590421  0.409668  0.264718  1
  As  As22  1  0.089144  0.909251  0.234271  1
  As  As23  1  0.409668  0.590421  0.735282  1
