# generated using pymatgen
data_Tb3LuCo18(P6Ru)2
_symmetry_space_group_name_H-M   'P 1'
_cell_length_a   3.67088300
_cell_length_b   10.32865386
_cell_length_c   11.75043296
_cell_angle_alpha   89.95347651
_cell_angle_beta   90.00000000
_cell_angle_gamma   90.00000000
_symmetry_Int_Tables_number   1
_chemical_formula_structural   Tb3LuCo18(P6Ru)2
_chemical_formula_sum   'Tb3 Lu1 Co18 P12 Ru2'
_cell_volume   445.52080732
_cell_formula_units_Z   1
loop_
 _symmetry_equiv_pos_site_id
 _symmetry_equiv_pos_as_xyz
  1  'x, y, z'
loop_
 _atom_site_type_symbol
 _atom_site_label
 _atom_site_symmetry_multiplicity
 _atom_site_fract_x
 _atom_site_fract_y
 _atom_site_fract_z
 _atom_site_occupancy
  Tb  Tb0  1  0.250000  0.582251  0.702099  1
  Tb  Tb1  1  0.250000  0.917488  0.202138  1
  Tb  Tb2  1  0.750000  0.086365  0.795376  1
  Lu  Lu3  1  0.750000  0.413816  0.296023  1
  Co  Co4  1  0.750000  0.283920  0.008352  1
  Co  Co5  1  0.750000  0.216510  0.507769  1
  Co  Co6  1  0.250000  0.405187  0.485558  1
  Co  Co7  1  0.250000  0.094276  0.988267  1
  Co  Co8  1  0.750000  0.589815  0.508842  1
  Co  Co9  1  0.750000  0.909234  0.009719  1
  Co  Co10  1  0.250000  0.221848  0.177020  1
  Co  Co11  1  0.250000  0.279967  0.676092  1
  Co  Co12  1  0.750000  0.778280  0.823225  1
  Co  Co13  1  0.750000  0.721014  0.322941  1
  Co  Co14  1  0.250000  0.886511  0.701370  1
  Co  Co15  1  0.250000  0.611442  0.203112  1
  Co  Co16  1  0.750000  0.117938  0.300689  1
  Co  Co17  1  0.750000  0.383821  0.801446  1
  Co  Co18  1  0.250000  0.464410  0.934183  1
  Co  Co19  1  0.250000  0.036591  0.431899  1
  Co  Co20  1  0.750000  0.531566  0.070923  1
  Co  Co21  1  0.750000  0.967613  0.568427  1
  P  P22  1  0.250000  0.417195  0.114323  1
  P  P23  1  0.250000  0.083201  0.611315  1
  P  P24  1  0.750000  0.578504  0.888514  1
  P  P25  1  0.750000  0.921680  0.386998  1
  P  P26  1  0.250000  0.271446  0.869404  1
  P  P27  1  0.250000  0.231167  0.368027  1
  P  P28  1  0.750000  0.727870  0.132837  1
  P  P29  1  0.750000  0.771964  0.632434  1
  P  P30  1  0.250000  0.593243  0.390071  1
  P  P31  1  0.250000  0.904638  0.890689  1
  P  P32  1  0.750000  0.396333  0.608211  1
  P  P33  1  0.750000  0.103635  0.108192  1
  Ru  Ru34  1  0.250000  0.715071  0.992545  1
  Ru  Ru35  1  0.250000  0.784189  0.490973  1
