# generated using pymatgen
data_Ce2Al20Tc3Pt
_symmetry_space_group_name_H-M   'P 1'
_cell_length_a   6.92182303
_cell_length_b   6.91450419
_cell_length_c   9.21945707
_cell_angle_alpha   89.67074359
_cell_angle_beta   89.80409639
_cell_angle_gamma   97.18012477
_symmetry_Int_Tables_number   1
_chemical_formula_structural   Ce2Al20Tc3Pt
_chemical_formula_sum   'Ce2 Al20 Tc3 Pt1'
_cell_volume   437.78091536
_cell_formula_units_Z   1
loop_
 _symmetry_equiv_pos_site_id
 _symmetry_equiv_pos_as_xyz
  1  'x, y, z'
loop_
 _atom_site_type_symbol
 _atom_site_label
 _atom_site_symmetry_multiplicity
 _atom_site_fract_x
 _atom_site_fract_y
 _atom_site_fract_z
 _atom_site_occupancy
  Ce  Ce0  1  0.868706  0.121509  0.748740  1
  Ce  Ce1  1  0.131294  0.878491  0.251260  1
  Al  Al2  1  0.590700  0.860994  0.250674  1
  Al  Al3  1  0.778411  0.520928  0.256290  1
  Al  Al4  1  0.160500  0.844958  0.896950  1
  Al  Al5  1  0.409300  0.139006  0.749326  1
  Al  Al6  1  0.617167  0.374935  0.948874  1
  Al  Al7  1  0.842497  0.159490  0.399769  1
  Al  Al8  1  0.772234  0.777070  0.997338  1
  Al  Al9  1  0.858101  0.590307  0.747580  1
  Al  Al10  1  0.839500  0.155042  0.103050  1
  Al  Al11  1  0.221589  0.479072  0.743710  1
  Al  Al12  1  0.157503  0.840510  0.600231  1
  Al  Al13  1  0.773631  0.774820  0.500219  1
  Al  Al14  1  0.481590  0.220141  0.248535  1
  Al  Al15  1  0.623098  0.376144  0.547639  1
  Al  Al16  1  0.226369  0.225180  0.499781  1
  Al  Al17  1  0.376902  0.623856  0.452361  1
  Al  Al18  1  0.141899  0.409693  0.252420  1
  Al  Al19  1  0.518410  0.779859  0.751465  1
  Al  Al20  1  0.382833  0.625065  0.051126  1
  Al  Al21  1  0.227766  0.222930  0.002662  1
  Tc  Tc22  1  0.500000  0.000000  0.000000  1
  Tc  Tc23  1  0.500000  0.000000  0.500000  1
  Tc  Tc24  1  0.000000  0.500000  0.500000  1
  Pt  Pt25  1  0.000000  0.500000  0.000000  1
