# generated using pymatgen
data_Dy(Ho2Zn)4
_symmetry_space_group_name_H-M   'P 1'
_cell_length_a   8.56768171
_cell_length_b   8.56768002
_cell_length_c   8.56323398
_cell_angle_alpha   94.91362767
_cell_angle_beta   94.97614385
_cell_angle_gamma   145.86264593
_symmetry_Int_Tables_number   1
_chemical_formula_structural   Dy(Ho2Zn)4
_chemical_formula_sum   'Dy1 Ho8 Zn4'
_cell_volume   337.19493894
_cell_formula_units_Z   1
loop_
 _symmetry_equiv_pos_site_id
 _symmetry_equiv_pos_as_xyz
  1  'x, y, z'
loop_
 _atom_site_type_symbol
 _atom_site_label
 _atom_site_symmetry_multiplicity
 _atom_site_fract_x
 _atom_site_fract_y
 _atom_site_fract_z
 _atom_site_occupancy
  Dy  Dy0  1  0.499999  0.499999  0.000000  1
  Ho  Ho1  1  0.182456  0.887157  0.069614  1
  Ho  Ho2  1  0.113135  0.182527  0.295662  1
  Ho  Ho3  1  0.884099  0.401724  0.285824  1
  Ho  Ho4  1  0.598156  0.884166  0.482324  1
  Ho  Ho5  1  0.401843  0.115833  0.517675  1
  Ho  Ho6  1  0.115900  0.598275  0.714176  1
  Ho  Ho7  1  0.886864  0.817472  0.704338  1
  Ho  Ho8  1  0.817543  0.112842  0.930386  1
  Zn  Zn9  1  0.393955  0.735857  0.129813  1
  Zn  Zn10  1  0.736097  0.605778  0.341878  1
  Zn  Zn11  1  0.263902  0.394221  0.658122  1
  Zn  Zn12  1  0.606044  0.264142  0.870187  1
