# generated using pymatgen
data_Hf2TaRe3Si2Ge
_symmetry_space_group_name_H-M   'P 1'
_cell_length_a   6.94986500
_cell_length_b   6.99498822
_cell_length_c   3.38480600
_cell_angle_alpha   90.00000000
_cell_angle_beta   90.00000000
_cell_angle_gamma   120.16124355
_symmetry_Int_Tables_number   1
_chemical_formula_structural   Hf2TaRe3Si2Ge
_chemical_formula_sum   'Hf2 Ta1 Re3 Si2 Ge1'
_cell_volume   142.27213015
_cell_formula_units_Z   1
loop_
 _symmetry_equiv_pos_site_id
 _symmetry_equiv_pos_as_xyz
  1  'x, y, z'
loop_
 _atom_site_type_symbol
 _atom_site_label
 _atom_site_symmetry_multiplicity
 _atom_site_fract_x
 _atom_site_fract_y
 _atom_site_fract_z
 _atom_site_occupancy
  Hf  Hf0  1  0.397944  0.405040  0.500000  1
  Hf  Hf1  1  0.596763  0.996316  0.500000  1
  Ta  Ta2  1  0.006475  0.602008  0.500000  1
  Re  Re3  1  0.746178  0.747197  0.000000  1
  Re  Re4  1  0.249245  0.991695  0.000000  1
  Re  Re5  1  0.004457  0.256764  0.000000  1
  Si  Si6  1  0.328864  0.666147  0.000000  1
  Si  Si7  1  0.000014  0.998539  0.500000  1
  Ge  Ge8  1  0.670060  0.336294  0.000000  1
