# generated using pymatgen
data_Dy5ErAl24Os5Pt3
_symmetry_space_group_name_H-M   'P 1'
_cell_length_a   8.81688498
_cell_length_b   8.83920548
_cell_length_c   9.54976641
_cell_angle_alpha   90.14427332
_cell_angle_beta   89.71653466
_cell_angle_gamma   119.52726008
_symmetry_Int_Tables_number   1
_chemical_formula_structural   Dy5ErAl24Os5Pt3
_chemical_formula_sum   'Dy5 Er1 Al24 Os5 Pt3'
_cell_volume   647.58330427
_cell_formula_units_Z   1
loop_
 _symmetry_equiv_pos_site_id
 _symmetry_equiv_pos_as_xyz
  1  'x, y, z'
loop_
 _atom_site_type_symbol
 _atom_site_label
 _atom_site_symmetry_multiplicity
 _atom_site_fract_x
 _atom_site_fract_y
 _atom_site_fract_z
 _atom_site_occupancy
  Dy  Dy0  1  0.187952  0.383582  0.251074  1
  Dy  Dy1  1  0.812206  0.616376  0.748999  1
  Dy  Dy2  1  0.613599  0.813894  0.252220  1
  Dy  Dy3  1  0.386633  0.186035  0.747797  1
  Dy  Dy4  1  0.195291  0.808812  0.251577  1
  Er  Er5  1  0.803298  0.191778  0.748139  1
  Al  Al6  1  0.335294  0.671249  0.028711  1
  Al  Al7  1  0.665047  0.328809  0.970609  1
  Al  Al8  1  0.669167  0.331370  0.527927  1
  Al  Al9  1  0.330951  0.668553  0.472561  1
  Al  Al10  1  0.157610  0.325301  0.575524  1
  Al  Al11  1  0.841938  0.674289  0.425008  1
  Al  Al12  1  0.673509  0.840949  0.575851  1
  Al  Al13  1  0.836791  0.675997  0.077763  1
  Al  Al14  1  0.326875  0.159389  0.424616  1
  Al  Al15  1  0.162863  0.323673  0.921817  1
  Al  Al16  1  0.163697  0.834864  0.576528  1
  Al  Al17  1  0.325670  0.158895  0.076638  1
  Al  Al18  1  0.836346  0.165043  0.424150  1
  Al  Al19  1  0.674782  0.841543  0.922863  1
  Al  Al20  1  0.831699  0.159373  0.077526  1
  Al  Al21  1  0.168445  0.840666  0.921759  1
  Al  Al22  1  0.561263  0.125434  0.249955  1
  Al  Al23  1  0.439282  0.874717  0.750013  1
  Al  Al24  1  0.873922  0.437555  0.252714  1
  Al  Al25  1  0.125743  0.561734  0.747473  1
  Al  Al26  1  0.562324  0.436632  0.249882  1
  Al  Al27  1  0.437699  0.563306  0.750151  1
  Al  Al28  1  0.998820  0.003092  0.250232  1
  Al  Al29  1  0.000419  0.997743  0.749776  1
  Os  Os30  1  0.500439  0.000246  0.999665  1
  Os  Os31  1  0.500363  0.000170  0.500302  1
  Os  Os32  1  0.999833  0.499647  0.500296  1
  Os  Os33  1  0.000111  0.999923  0.999977  1
  Os  Os34  1  0.000082  0.999885  0.500024  1
  Pt  Pt35  1  0.999925  0.499672  0.999845  1
  Pt  Pt36  1  0.500070  0.499916  0.999944  1
  Pt  Pt37  1  0.500041  0.499890  0.500098  1
