# generated using pymatgen
data_Hf3TaVGa3
_symmetry_space_group_name_H-M   'P 1'
_cell_length_a   7.85971000
_cell_length_b   7.85970768
_cell_length_c   5.35753800
_cell_angle_alpha   90.00000000
_cell_angle_beta   90.00000000
_cell_angle_gamma   119.99999294
_symmetry_Int_Tables_number   1
_chemical_formula_structural   Hf3TaVGa3
_chemical_formula_sum   'Hf6 Ta2 V2 Ga6'
_cell_volume   286.62154898
_cell_formula_units_Z   2
loop_
 _symmetry_equiv_pos_site_id
 _symmetry_equiv_pos_as_xyz
  1  'x, y, z'
loop_
 _atom_site_type_symbol
 _atom_site_label
 _atom_site_symmetry_multiplicity
 _atom_site_fract_x
 _atom_site_fract_y
 _atom_site_fract_z
 _atom_site_occupancy
  Hf  Hf0  1  0.754104  0.754104  0.751850  1
  Hf  Hf1  1  0.245896  0.000000  0.751850  1
  Hf  Hf2  1  0.000000  0.245896  0.751850  1
  Hf  Hf3  1  0.245896  0.245896  0.248150  1
  Hf  Hf4  1  0.754104  0.000000  0.248150  1
  Hf  Hf5  1  0.000000  0.754104  0.248150  1
  Ta  Ta6  1  0.666667  0.333333  0.000000  1
  Ta  Ta7  1  0.333333  0.666667  0.000000  1
  V  V8  1  0.333333  0.666667  0.500000  1
  V  V9  1  0.666667  0.333333  0.500000  1
  Ga  Ga10  1  0.400059  0.400059  0.738862  1
  Ga  Ga11  1  0.599941  0.000000  0.738862  1
  Ga  Ga12  1  0.000000  0.599941  0.738862  1
  Ga  Ga13  1  0.599941  0.599941  0.261138  1
  Ga  Ga14  1  0.400059  0.000000  0.261138  1
  Ga  Ga15  1  0.000000  0.400059  0.261138  1
