# generated using pymatgen
data_Y8Re2B24RuRh
_symmetry_space_group_name_H-M   'P 1'
_cell_length_a   3.68305300
_cell_length_b   9.17261079
_cell_length_c   11.56851698
_cell_angle_alpha   89.67757716
_cell_angle_beta   90.00000000
_cell_angle_gamma   90.00000000
_symmetry_Int_Tables_number   1
_chemical_formula_structural   Y8Re2B24RuRh
_chemical_formula_sum   'Y8 Re2 B24 Ru1 Rh1'
_cell_volume   390.81546975
_cell_formula_units_Z   1
loop_
 _symmetry_equiv_pos_site_id
 _symmetry_equiv_pos_as_xyz
  1  'x, y, z'
loop_
 _atom_site_type_symbol
 _atom_site_label
 _atom_site_symmetry_multiplicity
 _atom_site_fract_x
 _atom_site_fract_y
 _atom_site_fract_z
 _atom_site_occupancy
  Y  Y0  1  0.000000  0.820671  0.090587  1
  Y  Y1  1  0.000000  0.181748  0.913759  1
  Y  Y2  1  0.000000  0.324142  0.415059  1
  Y  Y3  1  0.000000  0.673246  0.581694  1
  Y  Y4  1  0.000000  0.443514  0.128489  1
  Y  Y5  1  0.000000  0.555897  0.871486  1
  Y  Y6  1  0.000000  0.943471  0.372144  1
  Y  Y7  1  0.000000  0.058389  0.626985  1
  Re  Re8  1  0.000000  0.637807  0.320384  1
  Re  Re9  1  0.000000  0.362072  0.679830  1
  B  B10  1  0.500000  0.053728  0.066693  1
  B  B11  1  0.500000  0.945853  0.934073  1
  B  B12  1  0.500000  0.552717  0.432342  1
  B  B13  1  0.500000  0.447033  0.567226  1
  B  B14  1  0.500000  0.247682  0.080466  1
  B  B15  1  0.500000  0.751489  0.921060  1
  B  B16  1  0.500000  0.747776  0.418554  1
  B  B17  1  0.500000  0.252074  0.581310  1
  B  B18  1  0.500000  0.289761  0.233224  1
  B  B19  1  0.500000  0.709834  0.766212  1
  B  B20  1  0.500000  0.791658  0.265846  1
  B  B21  1  0.500000  0.208354  0.734744  1
  B  B22  1  0.500000  0.130940  0.313813  1
  B  B23  1  0.500000  0.868323  0.683924  1
  B  B24  1  0.500000  0.631664  0.185651  1
  B  B25  1  0.500000  0.368574  0.814883  1
  B  B26  1  0.500000  0.482538  0.287140  1
  B  B27  1  0.500000  0.517250  0.712441  1
  B  B28  1  0.500000  0.983321  0.212009  1
  B  B29  1  0.500000  0.016797  0.787658  1
  B  B30  1  0.500000  0.106060  0.470450  1
  B  B31  1  0.500000  0.893189  0.530024  1
  B  B32  1  0.500000  0.608220  0.029319  1
  B  B33  1  0.500000  0.393339  0.970503  1
  Ru  Ru34  1  0.000000  0.137388  0.178160  1
  Rh  Rh35  1  0.000000  0.863482  0.821855  1
