# generated using pymatgen
data_YHoU(InIr)3
_symmetry_space_group_name_H-M   'P 1'
_cell_length_a   7.48900400
_cell_length_b   7.49144572
_cell_length_c   3.85424300
_cell_angle_alpha   90.00000000
_cell_angle_beta   90.00000000
_cell_angle_gamma   117.43620805
_symmetry_Int_Tables_number   1
_chemical_formula_structural   YHoU(InIr)3
_chemical_formula_sum   'Y1 Ho1 U1 In3 Ir3'
_cell_volume   191.91507338
_cell_formula_units_Z   1
loop_
 _symmetry_equiv_pos_site_id
 _symmetry_equiv_pos_as_xyz
  1  'x, y, z'
loop_
 _atom_site_type_symbol
 _atom_site_label
 _atom_site_symmetry_multiplicity
 _atom_site_fract_x
 _atom_site_fract_y
 _atom_site_fract_z
 _atom_site_occupancy
  Y  Y0  1  0.404454  0.000122  0.000000  1
  Ho  Ho1  1  0.000027  0.404235  0.000000  1
  U  U2  1  0.583515  0.583510  0.000000  1
  In  In3  1  0.011643  0.740411  0.500000  1
  In  In4  1  0.243496  0.243870  0.500000  1
  In  In5  1  0.740943  0.011880  0.500000  1
  Ir  Ir6  1  0.986849  0.987521  0.000000  1
  Ir  Ir7  1  0.662758  0.367130  0.500000  1
  Ir  Ir8  1  0.366316  0.661323  0.500000  1
