# generated using pymatgen
data_Zr4Mn2(PtRh)5
_symmetry_space_group_name_H-M   'P 1'
_cell_length_a   5.61118428
_cell_length_b   5.61118395
_cell_length_c   8.30836002
_cell_angle_alpha   89.99502855
_cell_angle_beta   89.99503131
_cell_angle_gamma   93.64691702
_symmetry_Int_Tables_number   1
_chemical_formula_structural   Zr4Mn2(PtRh)5
_chemical_formula_sum   'Zr4 Mn2 Pt5 Rh5'
_cell_volume   261.06220001
_cell_formula_units_Z   1
loop_
 _symmetry_equiv_pos_site_id
 _symmetry_equiv_pos_as_xyz
  1  'x, y, z'
loop_
 _atom_site_type_symbol
 _atom_site_label
 _atom_site_symmetry_multiplicity
 _atom_site_fract_x
 _atom_site_fract_y
 _atom_site_fract_z
 _atom_site_occupancy
  Zr  Zr0  1  0.777716  0.222006  0.500015  1
  Zr  Zr1  1  0.222668  0.779240  0.999946  1
  Zr  Zr2  1  0.222006  0.777716  0.500015  1
  Zr  Zr3  1  0.779240  0.222668  0.999946  1
  Mn  Mn4  1  0.502551  0.502551  0.749216  1
  Mn  Mn5  1  0.495716  0.495716  0.250698  1
  Pt  Pt6  1  0.722308  0.722308  0.001603  1
  Pt  Pt7  1  0.499316  0.001564  0.749956  1
  Pt  Pt8  1  0.499956  0.000266  0.250023  1
  Pt  Pt9  1  0.001564  0.499316  0.749956  1
  Pt  Pt10  1  0.000266  0.499956  0.250023  1
  Rh  Rh11  1  0.722772  0.722772  0.498579  1
  Rh  Rh12  1  0.275999  0.275999  0.998594  1
  Rh  Rh13  1  0.276860  0.276860  0.501409  1
  Rh  Rh14  1  0.001195  0.001195  0.249926  1
  Rh  Rh15  1  0.999866  0.999866  0.750097  1
