# generated using pymatgen
data_TbYCo2(Re2C)2
_symmetry_space_group_name_H-M   'P 1'
_cell_length_a   5.67138302
_cell_length_b   5.67138461
_cell_length_c   7.48126900
_cell_angle_alpha   90.00000000
_cell_angle_beta   90.00000000
_cell_angle_gamma   140.30025792
_symmetry_Int_Tables_number   1
_chemical_formula_structural   TbYCo2(Re2C)2
_chemical_formula_sum   'Tb1 Y1 Co2 Re4 C2'
_cell_volume   153.70713320
_cell_formula_units_Z   1
loop_
 _symmetry_equiv_pos_site_id
 _symmetry_equiv_pos_as_xyz
  1  'x, y, z'
loop_
 _atom_site_type_symbol
 _atom_site_label
 _atom_site_symmetry_multiplicity
 _atom_site_fract_x
 _atom_site_fract_y
 _atom_site_fract_z
 _atom_site_occupancy
  Tb  Tb0  1  0.534388  0.465612  0.250000  1
  Y  Y1  1  0.465602  0.534398  0.750000  1
  Co  Co2  1  0.259556  0.740444  0.250000  1
  Co  Co3  1  0.740407  0.259593  0.750000  1
  Re  Re4  1  0.822479  0.177521  0.065461  1
  Re  Re5  1  0.177522  0.822478  0.934526  1
  Re  Re6  1  0.177522  0.822478  0.565474  1
  Re  Re7  1  0.822479  0.177521  0.434539  1
  C  C8  1  0.000023  0.999977  0.999958  1
  C  C9  1  0.000023  0.999977  0.500042  1
