# generated using pymatgen
data_Zr6Zn6N
_symmetry_space_group_name_H-M   'P 1'
_cell_length_a   8.57652789
_cell_length_b   8.57652754
_cell_length_c   8.57652700
_cell_angle_alpha   59.99999821
_cell_angle_beta   59.99999958
_cell_angle_gamma   59.99999390
_symmetry_Int_Tables_number   1
_chemical_formula_structural   Zr6Zn6N
_chemical_formula_sum   'Zr12 Zn12 N2'
_cell_volume   446.08685384
_cell_formula_units_Z   2
loop_
 _symmetry_equiv_pos_site_id
 _symmetry_equiv_pos_as_xyz
  1  'x, y, z'
loop_
 _atom_site_type_symbol
 _atom_site_label
 _atom_site_symmetry_multiplicity
 _atom_site_fract_x
 _atom_site_fract_y
 _atom_site_fract_z
 _atom_site_occupancy
  Zr  Zr0  1  0.189851  0.810149  0.189851  1
  Zr  Zr1  1  0.439851  0.060149  0.439851  1
  Zr  Zr2  1  0.439851  0.060149  0.060149  1
  Zr  Zr3  1  0.439851  0.439851  0.060149  1
  Zr  Zr4  1  0.189851  0.810149  0.810149  1
  Zr  Zr5  1  0.060149  0.439851  0.060149  1
  Zr  Zr6  1  0.810149  0.810149  0.189851  1
  Zr  Zr7  1  0.060149  0.439851  0.439851  1
  Zr  Zr8  1  0.189851  0.189851  0.810149  1
  Zr  Zr9  1  0.810149  0.189851  0.189851  1
  Zr  Zr10  1  0.810149  0.189851  0.810149  1
  Zr  Zr11  1  0.060149  0.060149  0.439851  1
  Zn  Zn12  1  0.831361  0.505918  0.831361  1
  Zn  Zn13  1  0.418639  0.418639  0.744082  1
  Zn  Zn14  1  0.744082  0.418639  0.418639  1
  Zn  Zn15  1  0.418639  0.418639  0.418639  1
  Zn  Zn16  1  0.831361  0.831361  0.505918  1
  Zn  Zn17  1  0.418639  0.744082  0.418639  1
  Zn  Zn18  1  0.831361  0.831361  0.831361  1
  Zn  Zn19  1  0.505918  0.831361  0.831361  1
  Zn  Zn20  1  0.625000  0.125000  0.625000  1
  Zn  Zn21  1  0.625000  0.625000  0.125000  1
  Zn  Zn22  1  0.125000  0.625000  0.625000  1
  Zn  Zn23  1  0.625000  0.625000  0.625000  1
  N  N24  1  0.000000  0.000000  0.000000  1
  N  N25  1  0.250000  0.250000  0.250000  1
