# generated using pymatgen
data_PuAl(SeO3)4
_symmetry_space_group_name_H-M   'P 1'
_cell_length_a   8.62014822
_cell_length_b   4.90853503
_cell_length_c   7.10423100
_cell_angle_alpha   68.67804080
_cell_angle_beta   89.26502455
_cell_angle_gamma   89.49251844
_symmetry_Int_Tables_number   1
_chemical_formula_structural   PuAl(SeO3)4
_chemical_formula_sum   'Pu1 Al1 Se4 O12'
_cell_volume   279.99523719
_cell_formula_units_Z   1
loop_
 _symmetry_equiv_pos_site_id
 _symmetry_equiv_pos_as_xyz
  1  'x, y, z'
loop_
 _atom_site_type_symbol
 _atom_site_label
 _atom_site_symmetry_multiplicity
 _atom_site_fract_x
 _atom_site_fract_y
 _atom_site_fract_z
 _atom_site_occupancy
  Pu  Pu0  1  0.500000  0.500000  0.500000  1
  Al  Al1  1  0.000000  0.500000  0.000000  1
  Se  Se2  1  0.667552  0.163125  0.156058  1
  Se  Se3  1  0.120828  0.876073  0.297634  1
  Se  Se4  1  0.332448  0.836875  0.843942  1
  Se  Se5  1  0.879172  0.123927  0.702366  1
  O  O6  1  0.144929  0.173580  0.079703  1
  O  O7  1  0.662569  0.850667  0.381034  1
  O  O8  1  0.855071  0.826420  0.920297  1
  O  O9  1  0.337431  0.149333  0.618966  1
  O  O10  1  0.067431  0.598735  0.224989  1
  O  O11  1  0.551582  0.399858  0.226223  1
  O  O12  1  0.672969  0.217795  0.660657  1
  O  O13  1  0.148221  0.739390  0.811868  1
  O  O14  1  0.327031  0.782205  0.339343  1
  O  O15  1  0.851779  0.260610  0.188132  1
  O  O16  1  0.448418  0.600142  0.773777  1
  O  O17  1  0.932569  0.401265  0.775011  1
