# generated using pymatgen
data_Pu4VRe(TcB8)2
_symmetry_space_group_name_H-M   'P 1'
_cell_length_a   3.56609800
_cell_length_b   5.98910866
_cell_length_c   11.59067845
_cell_angle_alpha   90.11568080
_cell_angle_beta   90.00000000
_cell_angle_gamma   90.00000000
_symmetry_Int_Tables_number   1
_chemical_formula_structural   Pu4VRe(TcB8)2
_chemical_formula_sum   'Pu4 V1 Re1 Tc2 B16'
_cell_volume   247.55028968
_cell_formula_units_Z   1
loop_
 _symmetry_equiv_pos_site_id
 _symmetry_equiv_pos_as_xyz
  1  'x, y, z'
loop_
 _atom_site_type_symbol
 _atom_site_label
 _atom_site_symmetry_multiplicity
 _atom_site_fract_x
 _atom_site_fract_y
 _atom_site_fract_z
 _atom_site_occupancy
  Pu  Pu0  1  0.000000  0.626546  0.348896  1
  Pu  Pu1  1  0.000000  0.373709  0.649630  1
  Pu  Pu2  1  0.000000  0.124810  0.151447  1
  Pu  Pu3  1  0.000000  0.874138  0.849197  1
  V  V4  1  0.000000  0.630332  0.085796  1
  Re  Re5  1  0.000000  0.371658  0.915065  1
  Tc  Tc6  1  0.000000  0.136160  0.410222  1
  Tc  Tc7  1  0.000000  0.863509  0.590052  1
  B  B8  1  0.500000  0.786306  0.185693  1
  B  B9  1  0.500000  0.213685  0.814537  1
  B  B10  1  0.500000  0.286654  0.313148  1
  B  B11  1  0.500000  0.712694  0.686456  1
  B  B12  1  0.500000  0.864995  0.032753  1
  B  B13  1  0.500000  0.134872  0.967942  1
  B  B14  1  0.500000  0.364988  0.467818  1
  B  B15  1  0.500000  0.634816  0.531387  1
  B  B16  1  0.500000  0.885614  0.452708  1
  B  B17  1  0.500000  0.113666  0.546806  1
  B  B18  1  0.500000  0.385535  0.047372  1
  B  B19  1  0.500000  0.614935  0.953287  1
  B  B20  1  0.500000  0.974141  0.307551  1
  B  B21  1  0.500000  0.025963  0.692237  1
  B  B22  1  0.500000  0.476402  0.191927  1
  B  B23  1  0.500000  0.523873  0.808073  1
