# generated using pymatgen
data_AcHo6Sn23Ru6
_symmetry_space_group_name_H-M   'P 1'
_cell_length_a   9.89156100
_cell_length_b   9.89155929
_cell_length_c   10.12401100
_cell_angle_alpha   90.00000000
_cell_angle_beta   90.00000000
_cell_angle_gamma   119.99999569
_symmetry_Int_Tables_number   1
_chemical_formula_structural   AcHo6Sn23Ru6
_chemical_formula_sum   'Ac1 Ho6 Sn23 Ru6'
_cell_volume   857.85295379
_cell_formula_units_Z   1
loop_
 _symmetry_equiv_pos_site_id
 _symmetry_equiv_pos_as_xyz
  1  'x, y, z'
loop_
 _atom_site_type_symbol
 _atom_site_label
 _atom_site_symmetry_multiplicity
 _atom_site_fract_x
 _atom_site_fract_y
 _atom_site_fract_z
 _atom_site_occupancy
  Ac  Ac0  1  0.000000  0.000000  0.000000  1
  Ho  Ho1  1  0.514969  0.485031  0.696949  1
  Ho  Ho2  1  0.514969  0.029938  0.696949  1
  Ho  Ho3  1  0.970062  0.485031  0.696949  1
  Ho  Ho4  1  0.029938  0.514969  0.303051  1
  Ho  Ho5  1  0.485031  0.970062  0.303051  1
  Ho  Ho6  1  0.485031  0.514969  0.303051  1
  Sn  Sn7  1  0.666667  0.333333  0.178172  1
  Sn  Sn8  1  0.666667  0.333333  0.871361  1
  Sn  Sn9  1  0.333333  0.666667  0.128639  1
  Sn  Sn10  1  0.352127  0.352127  0.000000  1
  Sn  Sn11  1  0.000000  0.647873  0.000000  1
  Sn  Sn12  1  0.647873  0.000000  0.000000  1
  Sn  Sn13  1  0.647873  0.647873  0.000000  1
  Sn  Sn14  1  0.333333  0.666667  0.821828  1
  Sn  Sn15  1  0.440378  0.220190  0.462201  1
  Sn  Sn16  1  0.220190  0.779810  0.537799  1
  Sn  Sn17  1  0.220190  0.440378  0.537799  1
  Sn  Sn18  1  0.559622  0.779810  0.537799  1
  Sn  Sn19  1  0.119807  0.880193  0.277317  1
  Sn  Sn20  1  0.779810  0.559622  0.462201  1
  Sn  Sn21  1  0.779810  0.220190  0.462201  1
  Sn  Sn22  1  0.352127  0.000000  0.000000  1
  Sn  Sn23  1  0.119807  0.239612  0.277317  1
  Sn  Sn24  1  0.760388  0.880193  0.277317  1
  Sn  Sn25  1  0.239612  0.119807  0.722683  1
  Sn  Sn26  1  0.880193  0.760388  0.722683  1
  Sn  Sn27  1  0.880193  0.119807  0.722683  1
  Sn  Sn28  1  0.000000  0.000000  0.500000  1
  Sn  Sn29  1  0.000000  0.352127  0.000000  1
  Ru  Ru30  1  0.170928  0.829072  0.796978  1
  Ru  Ru31  1  0.170928  0.341856  0.796978  1
  Ru  Ru32  1  0.658144  0.829072  0.796978  1
  Ru  Ru33  1  0.341856  0.170928  0.203022  1
  Ru  Ru34  1  0.829072  0.658144  0.203022  1
  Ru  Ru35  1  0.829072  0.170928  0.203022  1
