# generated using pymatgen
data_Ta12Cr5Os7C4
_symmetry_space_group_name_H-M   'P 1'
_cell_length_a   8.27363756
_cell_length_b   8.27363725
_cell_length_c   8.27363700
_cell_angle_alpha   59.88623751
_cell_angle_beta   59.88624291
_cell_angle_gamma   59.88623826
_symmetry_Int_Tables_number   1
_chemical_formula_structural   Ta12Cr5Os7C4
_chemical_formula_sum   'Ta12 Cr5 Os7 C4'
_cell_volume   399.44044549
_cell_formula_units_Z   1
loop_
 _symmetry_equiv_pos_site_id
 _symmetry_equiv_pos_as_xyz
  1  'x, y, z'
loop_
 _atom_site_type_symbol
 _atom_site_label
 _atom_site_symmetry_multiplicity
 _atom_site_fract_x
 _atom_site_fract_y
 _atom_site_fract_z
 _atom_site_occupancy
  Ta  Ta0  1  0.808383  0.808383  0.188075  1
  Ta  Ta1  1  0.193153  0.193153  0.806075  1
  Ta  Ta2  1  0.808383  0.188075  0.808383  1
  Ta  Ta3  1  0.193153  0.806075  0.193153  1
  Ta  Ta4  1  0.188075  0.808383  0.808383  1
  Ta  Ta5  1  0.806075  0.193153  0.193153  1
  Ta  Ta6  1  0.442778  0.442778  0.057049  1
  Ta  Ta7  1  0.057258  0.057258  0.442545  1
  Ta  Ta8  1  0.442778  0.057049  0.442778  1
  Ta  Ta9  1  0.057258  0.442545  0.057258  1
  Ta  Ta10  1  0.057049  0.442778  0.442778  1
  Ta  Ta11  1  0.442545  0.057258  0.057258  1
  Cr  Cr12  1  0.118157  0.631614  0.631614  1
  Cr  Cr13  1  0.631614  0.118157  0.631614  1
  Cr  Cr14  1  0.631614  0.631614  0.118157  1
  Cr  Cr15  1  0.625091  0.625091  0.625091  1
  Cr  Cr16  1  0.829602  0.829602  0.829602  1
  Os  Os17  1  0.745772  0.417705  0.417705  1
  Os  Os18  1  0.417705  0.745772  0.417705  1
  Os  Os19  1  0.417705  0.417705  0.745772  1
  Os  Os20  1  0.417903  0.417903  0.417903  1
  Os  Os21  1  0.502694  0.833121  0.833121  1
  Os  Os22  1  0.833121  0.502694  0.833121  1
  Os  Os23  1  0.833121  0.833121  0.502694  1
  C  C24  1  0.624719  0.124796  0.124796  1
  C  C25  1  0.124796  0.624719  0.124796  1
  C  C26  1  0.124796  0.124796  0.624719  1
  C  C27  1  0.124699  0.124699  0.124699  1
