# generated using pymatgen
data_Sr3CaNiO6
_symmetry_space_group_name_H-M   'P 1'
_cell_length_a   6.77333883
_cell_length_b   6.77333877
_cell_length_c   6.77333979
_cell_angle_alpha   91.41794505
_cell_angle_beta   91.41794527
_cell_angle_gamma   91.41793646
_symmetry_Int_Tables_number   1
_chemical_formula_structural   Sr3CaNiO6
_chemical_formula_sum   'Sr6 Ca2 Ni2 O12'
_cell_volume   310.45782224
_cell_formula_units_Z   2
loop_
 _symmetry_equiv_pos_site_id
 _symmetry_equiv_pos_as_xyz
  1  'x, y, z'
loop_
 _atom_site_type_symbol
 _atom_site_label
 _atom_site_symmetry_multiplicity
 _atom_site_fract_x
 _atom_site_fract_y
 _atom_site_fract_z
 _atom_site_occupancy
  Sr  Sr0  1  0.883136  0.250000  0.616864  1
  Sr  Sr1  1  0.383136  0.116864  0.750000  1
  Sr  Sr2  1  0.750000  0.383136  0.116864  1
  Sr  Sr3  1  0.250000  0.616864  0.883136  1
  Sr  Sr4  1  0.616864  0.883136  0.250000  1
  Sr  Sr5  1  0.116864  0.750000  0.383136  1
  Ca  Ca6  1  0.750000  0.750000  0.750000  1
  Ca  Ca7  1  0.250000  0.250000  0.250000  1
  Ni  Ni8  1  0.500000  0.500000  0.500000  1
  Ni  Ni9  1  0.000000  0.000000  0.000000  1
  O  O10  1  0.921418  0.724011  0.050014  1
  O  O11  1  0.449986  0.775989  0.578582  1
  O  O12  1  0.050014  0.921418  0.724011  1
  O  O13  1  0.275989  0.949986  0.078582  1
  O  O14  1  0.949986  0.078582  0.275989  1
  O  O15  1  0.724011  0.050014  0.921418  1
  O  O16  1  0.578582  0.449986  0.775989  1
  O  O17  1  0.775989  0.578582  0.449986  1
  O  O18  1  0.421418  0.550014  0.224011  1
  O  O19  1  0.224011  0.421418  0.550014  1
  O  O20  1  0.550014  0.224011  0.421418  1
  O  O21  1  0.078582  0.275989  0.949986  1
