# generated using pymatgen
data_LaTiCdSbO7
_symmetry_space_group_name_H-M   'P 1'
_cell_length_a   7.38939531
_cell_length_b   7.38939553
_cell_length_c   7.38939559
_cell_angle_alpha   120.61573776
_cell_angle_beta   118.45348462
_cell_angle_gamma   90.81804416
_symmetry_Int_Tables_number   1
_chemical_formula_structural   LaTiCdSbO7
_chemical_formula_sum   'La2 Ti2 Cd2 Sb2 O14'
_cell_volume   287.15613433
_cell_formula_units_Z   2
loop_
 _symmetry_equiv_pos_site_id
 _symmetry_equiv_pos_as_xyz
  1  'x, y, z'
loop_
 _atom_site_type_symbol
 _atom_site_label
 _atom_site_symmetry_multiplicity
 _atom_site_fract_x
 _atom_site_fract_y
 _atom_site_fract_z
 _atom_site_occupancy
  La  La0  1  0.000000  0.000000  0.000000  1
  La  La1  1  0.500000  0.000000  0.500000  1
  Ti  Ti2  1  0.500000  0.500000  0.500000  1
  Ti  Ti3  1  0.500000  0.000000  0.000000  1
  Cd  Cd4  1  0.000000  0.000000  0.500000  1
  Cd  Cd5  1  0.000000  0.500000  0.000000  1
  Sb  Sb6  1  0.500000  0.500000  0.000000  1
  Sb  Sb7  1  0.000000  0.500000  0.500000  1
  O  O8  1  0.116675  0.866675  0.250000  1
  O  O9  1  0.883325  0.133325  0.750000  1
  O  O10  1  0.429345  0.179345  0.250000  1
  O  O11  1  0.827409  0.577409  0.250000  1
  O  O12  1  0.435839  0.576088  0.258484  1
  O  O13  1  0.817604  0.177354  0.241516  1
  O  O14  1  0.435839  0.177354  0.859751  1
  O  O15  1  0.817604  0.576088  0.640249  1
  O  O16  1  0.570655  0.820655  0.750000  1
  O  O17  1  0.172591  0.422591  0.750000  1
  O  O18  1  0.564161  0.423912  0.741516  1
  O  O19  1  0.182396  0.822646  0.758484  1
  O  O20  1  0.564161  0.822646  0.140249  1
  O  O21  1  0.182396  0.423912  0.359751  1
