# generated using pymatgen
data_LiNd3SnS7
_symmetry_space_group_name_H-M   'P 1'
_cell_length_a   10.13273500
_cell_length_b   10.13264772
_cell_length_c   6.12961200
_cell_angle_alpha   90.00000000
_cell_angle_beta   90.00000000
_cell_angle_gamma   120.00326640
_symmetry_Int_Tables_number   1
_chemical_formula_structural   LiNd3SnS7
_chemical_formula_sum   'Li2 Nd6 Sn2 S14'
_cell_volume   545.00307153
_cell_formula_units_Z   2
loop_
 _symmetry_equiv_pos_site_id
 _symmetry_equiv_pos_as_xyz
  1  'x, y, z'
loop_
 _atom_site_type_symbol
 _atom_site_label
 _atom_site_symmetry_multiplicity
 _atom_site_fract_x
 _atom_site_fract_y
 _atom_site_fract_z
 _atom_site_occupancy
  Li  Li0  1  0.999997  0.999998  0.498366  1
  Li  Li1  1  0.000003  0.000002  0.998366  1
  Nd  Nd2  1  0.641223  0.781470  0.217690  1
  Nd  Nd3  1  0.218538  0.859764  0.217690  1
  Nd  Nd4  1  0.140245  0.358785  0.217695  1
  Nd  Nd5  1  0.358777  0.218530  0.717689  1
  Nd  Nd6  1  0.781461  0.140236  0.717690  1
  Nd  Nd7  1  0.859755  0.641215  0.717696  1
  Sn  Sn8  1  0.666667  0.333323  0.147621  1
  Sn  Sn9  1  0.333333  0.666677  0.647622  1
  S  S10  1  0.333327  0.666669  0.035562  1
  S  S11  1  0.852997  0.099212  0.276394  1
  S  S12  1  0.246224  0.147012  0.276397  1
  S  S13  1  0.900785  0.753781  0.276402  1
  S  S14  1  0.428197  0.514982  0.476066  1
  S  S15  1  0.485042  0.913247  0.476054  1
  S  S16  1  0.086765  0.571812  0.476063  1
  S  S17  1  0.666672  0.333330  0.535563  1
  S  S18  1  0.147004  0.900788  0.776393  1
  S  S19  1  0.099215  0.246219  0.776402  1
  S  S20  1  0.753776  0.852988  0.776397  1
  S  S21  1  0.571803  0.485018  0.976065  1
  S  S22  1  0.514958  0.086753  0.976052  1
  S  S23  1  0.913235  0.428188  0.976062  1
