# generated using pymatgen
data_PrGdFe5(PIr)7
_symmetry_space_group_name_H-M   'P 1'
_cell_length_a   9.39592100
_cell_length_b   9.40610182
_cell_length_c   3.87615100
_cell_angle_alpha   90.00000000
_cell_angle_beta   90.00000000
_cell_angle_gamma   120.15773343
_symmetry_Int_Tables_number   1
_chemical_formula_structural   PrGdFe5(PIr)7
_chemical_formula_sum   'Pr1 Gd1 Fe5 P7 Ir7'
_cell_volume   296.20192402
_cell_formula_units_Z   1
loop_
 _symmetry_equiv_pos_site_id
 _symmetry_equiv_pos_as_xyz
  1  'x, y, z'
loop_
 _atom_site_type_symbol
 _atom_site_label
 _atom_site_symmetry_multiplicity
 _atom_site_fract_x
 _atom_site_fract_y
 _atom_site_fract_z
 _atom_site_occupancy
  Pr  Pr0  1  0.334519  0.670381  0.000000  1
  Gd  Gd1  1  0.667000  0.333620  0.500000  1
  Fe  Fe2  1  0.158011  0.897406  0.000000  1
  Fe  Fe3  1  0.107414  0.263028  0.000000  1
  Fe  Fe4  1  0.732561  0.839805  0.000000  1
  Fe  Fe5  1  0.878292  0.087262  0.500000  1
  Fe  Fe6  1  0.911054  0.786954  0.500000  1
  P  P7  1  0.407152  0.106698  0.000000  1
  P  P8  1  0.892203  0.294671  0.000000  1
  P  P9  1  0.707046  0.598117  0.000000  1
  P  P10  1  0.108463  0.721746  0.500000  1
  P  P11  1  0.278964  0.397621  0.500000  1
  P  P12  1  0.614530  0.888969  0.500000  1
  P  P13  1  0.994010  0.996637  0.000000  1
  Ir  Ir14  1  0.424785  0.362695  0.000000  1
  Ir  Ir15  1  0.635434  0.061357  0.000000  1
  Ir  Ir16  1  0.940473  0.574242  0.000000  1
  Ir  Ir17  1  0.381711  0.946104  0.500000  1
  Ir  Ir18  1  0.051018  0.433134  0.500000  1
  Ir  Ir19  1  0.563653  0.613746  0.500000  1
  Ir  Ir20  1  0.211709  0.125810  0.500000  1
