# generated using pymatgen
data_PrY7(Si3Ir)4
_symmetry_space_group_name_H-M   'P 1'
_cell_length_a   8.19648700
_cell_length_b   8.19648678
_cell_length_c   8.04119000
_cell_angle_alpha   90.00000000
_cell_angle_beta   90.00000000
_cell_angle_gamma   119.99999685
_symmetry_Int_Tables_number   1
_chemical_formula_structural   PrY7(Si3Ir)4
_chemical_formula_sum   'Pr1 Y7 Si12 Ir4'
_cell_volume   467.84981989
_cell_formula_units_Z   1
loop_
 _symmetry_equiv_pos_site_id
 _symmetry_equiv_pos_as_xyz
  1  'x, y, z'
loop_
 _atom_site_type_symbol
 _atom_site_label
 _atom_site_symmetry_multiplicity
 _atom_site_fract_x
 _atom_site_fract_y
 _atom_site_fract_z
 _atom_site_occupancy
  Pr  Pr0  1  0.000000  0.000000  0.250000  1
  Y  Y1  1  0.000000  0.000000  0.750000  1
  Y  Y2  1  0.509069  0.490931  0.250000  1
  Y  Y3  1  0.509069  0.018137  0.250000  1
  Y  Y4  1  0.981863  0.490931  0.250000  1
  Y  Y5  1  0.490750  0.509250  0.750000  1
  Y  Y6  1  0.490750  0.981499  0.750000  1
  Y  Y7  1  0.018501  0.509250  0.750000  1
  Si  Si8  1  0.167606  0.832394  0.503004  1
  Si  Si9  1  0.167606  0.335210  0.503004  1
  Si  Si10  1  0.664790  0.832394  0.503004  1
  Si  Si11  1  0.832278  0.167722  0.502346  1
  Si  Si12  1  0.832278  0.664558  0.502346  1
  Si  Si13  1  0.335442  0.167722  0.502346  1
  Si  Si14  1  0.832278  0.167722  0.997654  1
  Si  Si15  1  0.832278  0.664558  0.997654  1
  Si  Si16  1  0.335442  0.167722  0.997654  1
  Si  Si17  1  0.167606  0.832394  0.996996  1
  Si  Si18  1  0.167606  0.335210  0.996996  1
  Si  Si19  1  0.664790  0.832394  0.996996  1
  Ir  Ir20  1  0.333333  0.666667  0.468848  1
  Ir  Ir21  1  0.666667  0.333333  0.533890  1
  Ir  Ir22  1  0.666667  0.333333  0.966110  1
  Ir  Ir23  1  0.333333  0.666667  0.031152  1
