# generated using pymatgen
data_CePrAl20Ru3Rh
_symmetry_space_group_name_H-M   'P 1'
_cell_length_a   6.89049836
_cell_length_b   6.88753163
_cell_length_c   9.20203012
_cell_angle_alpha   90.11307923
_cell_angle_beta   90.13554290
_cell_angle_gamma   97.21044015
_symmetry_Int_Tables_number   1
_chemical_formula_structural   CePrAl20Ru3Rh
_chemical_formula_sum   'Ce1 Pr1 Al20 Ru3 Rh1'
_cell_volume   433.25882556
_cell_formula_units_Z   1
loop_
 _symmetry_equiv_pos_site_id
 _symmetry_equiv_pos_as_xyz
  1  'x, y, z'
loop_
 _atom_site_type_symbol
 _atom_site_label
 _atom_site_symmetry_multiplicity
 _atom_site_fract_x
 _atom_site_fract_y
 _atom_site_fract_z
 _atom_site_occupancy
  Ce  Ce0  1  0.121405  0.875386  0.250186  1
  Pr  Pr1  1  0.876213  0.125965  0.750019  1
  Al  Al2  1  0.589317  0.859484  0.250704  1
  Al  Al3  1  0.778425  0.518559  0.249841  1
  Al  Al4  1  0.159270  0.839224  0.897831  1
  Al  Al5  1  0.410711  0.140381  0.749139  1
  Al  Al6  1  0.623553  0.379530  0.948696  1
  Al  Al7  1  0.840758  0.158940  0.398616  1
  Al  Al8  1  0.774969  0.773169  0.001464  1
  Al  Al9  1  0.860636  0.589609  0.749597  1
  Al  Al10  1  0.841848  0.159977  0.102888  1
  Al  Al11  1  0.222088  0.481923  0.750207  1
  Al  Al12  1  0.160186  0.840330  0.600886  1
  Al  Al13  1  0.774632  0.774191  0.499010  1
  Al  Al14  1  0.480691  0.222657  0.252294  1
  Al  Al15  1  0.623174  0.377551  0.549967  1
  Al  Al16  1  0.225381  0.225725  0.499621  1
  Al  Al17  1  0.376970  0.622523  0.449337  1
  Al  Al18  1  0.139445  0.410263  0.250433  1
  Al  Al19  1  0.518659  0.776353  0.747498  1
  Al  Al20  1  0.376431  0.620739  0.052045  1
  Al  Al21  1  0.225317  0.226729  0.000124  1
  Ru  Ru22  1  0.498994  0.999368  0.499224  1
  Ru  Ru23  1  0.000732  0.501055  0.000809  1
  Ru  Ru24  1  0.000680  0.501052  0.499251  1
  Rh  Rh25  1  0.499515  0.999318  0.000313  1
