# generated using pymatgen
data_YMnHgPt3
_symmetry_space_group_name_H-M   'P 1'
_cell_length_a   5.51183104
_cell_length_b   5.51183045
_cell_length_c   5.26288554
_cell_angle_alpha   58.42252821
_cell_angle_beta   58.42253345
_cell_angle_gamma   60.00000758
_symmetry_Int_Tables_number   1
_chemical_formula_structural   YMnHgPt3
_chemical_formula_sum   'Y1 Mn1 Hg1 Pt3'
_cell_volume   110.28671779
_cell_formula_units_Z   1
loop_
 _symmetry_equiv_pos_site_id
 _symmetry_equiv_pos_as_xyz
  1  'x, y, z'
loop_
 _atom_site_type_symbol
 _atom_site_label
 _atom_site_symmetry_multiplicity
 _atom_site_fract_x
 _atom_site_fract_y
 _atom_site_fract_z
 _atom_site_occupancy
  Y  Y0  1  0.004270  0.004270  0.987190  1
  Mn  Mn1  1  0.622838  0.622838  0.131484  1
  Hg  Hg2  1  0.251885  0.251885  0.244346  1
  Pt  Pt3  1  0.623270  0.124465  0.628993  1
  Pt  Pt4  1  0.623270  0.623270  0.628993  1
  Pt  Pt5  1  0.124465  0.623270  0.628993  1
