# generated using pymatgen
data_Li2Ho8Sc9Si16Ag
_symmetry_space_group_name_H-M   'P 1'
_cell_length_a   6.92667501
_cell_length_b   7.39758555
_cell_length_c   14.00847700
_cell_angle_alpha   90.00000000
_cell_angle_beta   90.00000000
_cell_angle_gamma   89.85512275
_symmetry_Int_Tables_number   1
_chemical_formula_structural   Li2Ho8Sc9Si16Ag
_chemical_formula_sum   'Li2 Ho8 Sc9 Si16 Ag1'
_cell_volume   717.80146602
_cell_formula_units_Z   1
loop_
 _symmetry_equiv_pos_site_id
 _symmetry_equiv_pos_as_xyz
  1  'x, y, z'
loop_
 _atom_site_type_symbol
 _atom_site_label
 _atom_site_symmetry_multiplicity
 _atom_site_fract_x
 _atom_site_fract_y
 _atom_site_fract_z
 _atom_site_occupancy
  Li  Li0  1  0.841118  0.492902  0.250000  1
  Li  Li1  1  0.341291  0.007833  0.250000  1
  Ho  Ho2  1  0.014450  0.181566  0.099900  1
  Ho  Ho3  1  0.990362  0.815437  0.902289  1
  Ho  Ho4  1  0.485048  0.673578  0.902740  1
  Ho  Ho5  1  0.990362  0.815437  0.597711  1
  Ho  Ho6  1  0.513609  0.316980  0.098508  1
  Ho  Ho7  1  0.014450  0.181566  0.400100  1
  Ho  Ho8  1  0.513609  0.316980  0.401492  1
  Ho  Ho9  1  0.485048  0.673578  0.597260  1
  Sc  Sc10  1  0.658326  0.997340  0.750000  1
  Sc  Sc11  1  0.323773  0.183944  0.626608  1
  Sc  Sc12  1  0.668950  0.822460  0.373212  1
  Sc  Sc13  1  0.170126  0.680280  0.372378  1
  Sc  Sc14  1  0.668950  0.822460  0.126788  1
  Sc  Sc15  1  0.834606  0.326654  0.626454  1
  Sc  Sc16  1  0.323773  0.183944  0.873392  1
  Sc  Sc17  1  0.834606  0.326654  0.873546  1
  Sc  Sc18  1  0.170126  0.680280  0.127622  1
  Si  Si19  1  0.027357  0.097085  0.750000  1
  Si  Si20  1  0.969798  0.899212  0.250000  1
  Si  Si21  1  0.470248  0.603468  0.250000  1
  Si  Si22  1  0.534881  0.387382  0.750000  1
  Si  Si23  1  0.288747  0.881409  0.750000  1
  Si  Si24  1  0.716490  0.119292  0.250000  1
  Si  Si25  1  0.219785  0.381005  0.250000  1
  Si  Si26  1  0.778611  0.628549  0.750000  1
  Si  Si27  1  0.159761  0.460806  0.530300  1
  Si  Si28  1  0.840052  0.536841  0.464220  1
  Si  Si29  1  0.340732  0.963672  0.465735  1
  Si  Si30  1  0.840052  0.536841  0.035780  1
  Si  Si31  1  0.656383  0.032058  0.539555  1
  Si  Si32  1  0.159761  0.460806  0.969700  1
  Si  Si33  1  0.656383  0.032058  0.960445  1
  Si  Si34  1  0.340732  0.963672  0.034265  1
  Ag  Ag35  1  0.157647  0.515976  0.750000  1
