# generated using pymatgen
data_Y2Tm(ThSn2)2
_symmetry_space_group_name_H-M   'P 1'
_cell_length_a   8.11277300
_cell_length_b   8.22368800
_cell_length_c   15.57116800
_cell_angle_alpha   90.00000000
_cell_angle_beta   90.00000000
_cell_angle_gamma   90.00000000
_symmetry_Int_Tables_number   1
_chemical_formula_structural   Y2Tm(ThSn2)2
_chemical_formula_sum   'Y8 Tm4 Th8 Sn16'
_cell_volume   1038.86027582
_cell_formula_units_Z   4
loop_
 _symmetry_equiv_pos_site_id
 _symmetry_equiv_pos_as_xyz
  1  'x, y, z'
loop_
 _atom_site_type_symbol
 _atom_site_label
 _atom_site_symmetry_multiplicity
 _atom_site_fract_x
 _atom_site_fract_y
 _atom_site_fract_z
 _atom_site_occupancy
  Y  Y0  1  0.361231  0.837521  0.876049  1
  Y  Y1  1  0.861231  0.662479  0.623951  1
  Y  Y2  1  0.638769  0.162479  0.376049  1
  Y  Y3  1  0.138769  0.337521  0.123951  1
  Y  Y4  1  0.638769  0.162479  0.123951  1
  Y  Y5  1  0.138769  0.337521  0.376049  1
  Y  Y6  1  0.361231  0.837521  0.623951  1
  Y  Y7  1  0.861231  0.662479  0.876049  1
  Tm  Tm8  1  0.191476  0.497563  0.750000  1
  Tm  Tm9  1  0.691476  0.002437  0.750000  1
  Tm  Tm10  1  0.808524  0.502437  0.250000  1
  Tm  Tm11  1  0.308524  0.997563  0.250000  1
  Th  Th12  1  0.518648  0.321434  0.903676  1
  Th  Th13  1  0.018648  0.178566  0.596324  1
  Th  Th14  1  0.481352  0.678566  0.403676  1
  Th  Th15  1  0.981352  0.821434  0.096324  1
  Th  Th16  1  0.481352  0.678566  0.096324  1
  Th  Th17  1  0.981352  0.821434  0.403676  1
  Th  Th18  1  0.518648  0.321434  0.596324  1
  Th  Th19  1  0.018648  0.178566  0.903676  1
  Sn  Sn20  1  0.298557  0.039158  0.042641  1
  Sn  Sn21  1  0.798557  0.460842  0.457359  1
  Sn  Sn22  1  0.701443  0.960842  0.542641  1
  Sn  Sn23  1  0.201443  0.539158  0.957359  1
  Sn  Sn24  1  0.701443  0.960842  0.957359  1
  Sn  Sn25  1  0.201443  0.539158  0.542641  1
  Sn  Sn26  1  0.298557  0.039158  0.457359  1
  Sn  Sn27  1  0.798557  0.460842  0.042641  1
  Sn  Sn28  1  0.556374  0.621724  0.750000  1
  Sn  Sn29  1  0.056374  0.878276  0.750000  1
  Sn  Sn30  1  0.443626  0.378276  0.250000  1
  Sn  Sn31  1  0.943626  0.121724  0.250000  1
  Sn  Sn32  1  0.326134  0.144313  0.750000  1
  Sn  Sn33  1  0.826134  0.355687  0.750000  1
  Sn  Sn34  1  0.673866  0.855687  0.250000  1
  Sn  Sn35  1  0.173866  0.644313  0.250000  1
