# generated using pymatgen
data_Ca7Er(Si3Rh4)2
_symmetry_space_group_name_H-M   'P 1'
_cell_length_a   10.77753683
_cell_length_b   10.77696052
_cell_length_c   7.54097229
_cell_angle_alpha   72.74793091
_cell_angle_beta   72.69959458
_cell_angle_gamma   30.77545024
_symmetry_Int_Tables_number   1
_chemical_formula_structural   Ca7Er(Si3Rh4)2
_chemical_formula_sum   'Ca7 Er1 Si6 Rh8'
_cell_volume   426.37375988
_cell_formula_units_Z   1
loop_
 _symmetry_equiv_pos_site_id
 _symmetry_equiv_pos_as_xyz
  1  'x, y, z'
loop_
 _atom_site_type_symbol
 _atom_site_label
 _atom_site_symmetry_multiplicity
 _atom_site_fract_x
 _atom_site_fract_y
 _atom_site_fract_z
 _atom_site_occupancy
  Ca  Ca0  1  0.209960  0.447708  0.409458  1
  Ca  Ca1  1  0.545345  0.794890  0.090483  1
  Ca  Ca2  1  0.449935  0.204972  0.911037  1
  Ca  Ca3  1  0.931785  0.204026  0.332009  1
  Ca  Ca4  1  0.794864  0.068679  0.166745  1
  Ca  Ca5  1  0.069728  0.794543  0.665626  1
  Ca  Ca6  1  0.201601  0.933474  0.833122  1
  Er  Er7  1  0.783046  0.559390  0.593864  1
  Si  Si8  1  0.598292  0.402958  0.748329  1
  Si  Si9  1  0.404354  0.596918  0.249203  1
  Si  Si10  1  0.304878  0.043112  0.436292  1
  Si  Si11  1  0.967071  0.688242  0.059848  1
  Si  Si12  1  0.689506  0.963920  0.562336  1
  Si  Si13  1  0.037725  0.312093  0.935301  1
  Rh  Rh14  1  0.302048  0.575629  0.026114  1
  Rh  Rh15  1  0.579381  0.298741  0.525187  1
  Rh  Rh16  1  0.703643  0.422033  0.967646  1
  Rh  Rh17  1  0.065864  0.375184  0.193688  1
  Rh  Rh18  1  0.654264  0.897894  0.318833  1
  Rh  Rh19  1  0.428302  0.697715  0.473999  1
  Rh  Rh20  1  0.912221  0.643100  0.812848  1
  Rh  Rh21  1  0.366186  0.074781  0.688029  1
