# generated using pymatgen
data_PrSc2Ir9
_symmetry_space_group_name_H-M   'P 1'
_cell_length_a   8.95849100
_cell_length_b   8.95849100
_cell_length_c   5.13485600
_cell_angle_alpha   90.00000000
_cell_angle_beta   90.00000000
_cell_angle_gamma   90.00000000
_symmetry_Int_Tables_number   1
_chemical_formula_structural   PrSc2Ir9
_chemical_formula_sum   'Pr2 Sc4 Ir18'
_cell_volume   412.09561406
_cell_formula_units_Z   2
loop_
 _symmetry_equiv_pos_site_id
 _symmetry_equiv_pos_as_xyz
  1  'x, y, z'
loop_
 _atom_site_type_symbol
 _atom_site_label
 _atom_site_symmetry_multiplicity
 _atom_site_fract_x
 _atom_site_fract_y
 _atom_site_fract_z
 _atom_site_occupancy
  Pr  Pr0  1  0.500000  0.500000  0.000000  1
  Pr  Pr1  1  0.000000  0.000000  0.000000  1
  Sc  Sc2  1  0.119254  0.619254  0.000000  1
  Sc  Sc3  1  0.880746  0.380746  0.000000  1
  Sc  Sc4  1  0.380746  0.119254  0.000000  1
  Sc  Sc5  1  0.619254  0.880746  0.000000  1
  Ir  Ir6  1  0.318685  0.818685  0.758237  1
  Ir  Ir7  1  0.681315  0.181315  0.758237  1
  Ir  Ir8  1  0.181315  0.318685  0.758237  1
  Ir  Ir9  1  0.818685  0.681315  0.758237  1
  Ir  Ir10  1  0.681315  0.181315  0.241763  1
  Ir  Ir11  1  0.318685  0.818685  0.241763  1
  Ir  Ir12  1  0.818685  0.681315  0.241763  1
  Ir  Ir13  1  0.181315  0.318685  0.241763  1
  Ir  Ir14  1  0.556416  0.706195  0.500000  1
  Ir  Ir15  1  0.443584  0.293805  0.500000  1
  Ir  Ir16  1  0.943584  0.206195  0.500000  1
  Ir  Ir17  1  0.056416  0.793805  0.500000  1
  Ir  Ir18  1  0.706195  0.443584  0.500000  1
  Ir  Ir19  1  0.293805  0.556416  0.500000  1
  Ir  Ir20  1  0.206195  0.056416  0.500000  1
  Ir  Ir21  1  0.793805  0.943584  0.500000  1
  Ir  Ir22  1  0.000000  0.500000  0.500000  1
  Ir  Ir23  1  0.500000  0.000000  0.500000  1
