# generated using pymatgen
data_Sm2HoRuI3
_symmetry_space_group_name_H-M   'P 1'
_cell_length_a   4.28147600
_cell_length_b   8.95943289
_cell_length_c   12.40930791
_cell_angle_alpha   85.88814957
_cell_angle_beta   90.00000000
_cell_angle_gamma   90.00000000
_symmetry_Int_Tables_number   1
_chemical_formula_structural   Sm2HoRuI3
_chemical_formula_sum   'Sm4 Ho2 Ru2 I6'
_cell_volume   474.79077153
_cell_formula_units_Z   2
loop_
 _symmetry_equiv_pos_site_id
 _symmetry_equiv_pos_as_xyz
  1  'x, y, z'
loop_
 _atom_site_type_symbol
 _atom_site_label
 _atom_site_symmetry_multiplicity
 _atom_site_fract_x
 _atom_site_fract_y
 _atom_site_fract_z
 _atom_site_occupancy
  Sm  Sm0  1  0.750000  0.096791  0.682761  1
  Sm  Sm1  1  0.250000  0.903209  0.317239  1
  Sm  Sm2  1  0.250000  0.266738  0.898954  1
  Sm  Sm3  1  0.750000  0.733262  0.101046  1
  Ho  Ho4  1  0.750000  0.126246  0.122595  1
  Ho  Ho5  1  0.250000  0.873754  0.877405  1
  Ru  Ru6  1  0.750000  0.053555  0.907497  1
  Ru  Ru7  1  0.250000  0.946445  0.092503  1
  I  I8  1  0.250000  0.353767  0.637686  1
  I  I9  1  0.750000  0.646233  0.362314  1
  I  I10  1  0.750000  0.146791  0.389810  1
  I  I11  1  0.250000  0.853209  0.610190  1
  I  I12  1  0.250000  0.422930  0.134418  1
  I  I13  1  0.750000  0.577070  0.865582  1
