# generated using pymatgen
data_RbOsBr6
_symmetry_space_group_name_H-M   'P 1'
_cell_length_a   7.19359676
_cell_length_b   7.19359729
_cell_length_c   12.88533000
_cell_angle_alpha   79.64016635
_cell_angle_beta   79.64016551
_cell_angle_gamma   55.83504371
_symmetry_Int_Tables_number   1
_chemical_formula_structural   RbOsBr6
_chemical_formula_sum   'Rb2 Os2 Br12'
_cell_volume   540.17019858
_cell_formula_units_Z   2
loop_
 _symmetry_equiv_pos_site_id
 _symmetry_equiv_pos_as_xyz
  1  'x, y, z'
loop_
 _atom_site_type_symbol
 _atom_site_label
 _atom_site_symmetry_multiplicity
 _atom_site_fract_x
 _atom_site_fract_y
 _atom_site_fract_z
 _atom_site_occupancy
  Rb  Rb0  1  0.912924  0.087076  0.750000  1
  Rb  Rb1  1  0.087076  0.912924  0.250000  1
  Os  Os2  1  0.000000  0.500000  0.000000  1
  Os  Os3  1  0.500000  0.000000  0.500000  1
  Br  Br4  1  0.526816  0.313572  0.396405  1
  Br  Br5  1  0.313572  0.526816  0.896405  1
  Br  Br6  1  0.686428  0.473184  0.103595  1
  Br  Br7  1  0.380392  0.192298  0.664160  1
  Br  Br8  1  0.619608  0.807702  0.335840  1
  Br  Br9  1  0.097726  0.204095  0.465890  1
  Br  Br10  1  0.902274  0.795905  0.534110  1
  Br  Br11  1  0.473184  0.686428  0.603595  1
  Br  Br12  1  0.204095  0.097726  0.965890  1
  Br  Br13  1  0.807702  0.619608  0.835840  1
  Br  Br14  1  0.192298  0.380392  0.164160  1
  Br  Br15  1  0.795905  0.902274  0.034110  1
