# generated using pymatgen
data_Ti10Ga5PO
_symmetry_space_group_name_H-M   'P 1'
_cell_length_a   7.55901977
_cell_length_b   7.55984858
_cell_length_c   5.20966392
_cell_angle_alpha   90.36829331
_cell_angle_beta   89.81583348
_cell_angle_gamma   120.00363184
_symmetry_Int_Tables_number   1
_chemical_formula_structural   Ti10Ga5PO
_chemical_formula_sum   'Ti10 Ga5 P1 O1'
_cell_volume   257.80661129
_cell_formula_units_Z   1
loop_
 _symmetry_equiv_pos_site_id
 _symmetry_equiv_pos_as_xyz
  1  'x, y, z'
loop_
 _atom_site_type_symbol
 _atom_site_label
 _atom_site_symmetry_multiplicity
 _atom_site_fract_x
 _atom_site_fract_y
 _atom_site_fract_z
 _atom_site_occupancy
  Ti  Ti0  1  0.000000  0.756849  0.256586  1
  Ti  Ti1  1  0.228888  0.235841  0.253896  1
  Ti  Ti2  1  0.771112  0.006953  0.253896  1
  Ti  Ti3  1  0.000000  0.241635  0.747541  1
  Ti  Ti4  1  0.767545  0.770239  0.746675  1
  Ti  Ti5  1  0.232455  0.002694  0.746675  1
  Ti  Ti6  1  0.322645  0.657497  0.496694  1
  Ti  Ti7  1  0.677355  0.334851  0.496694  1
  Ti  Ti8  1  0.676223  0.333980  0.002464  1
  Ti  Ti9  1  0.323777  0.657758  0.002464  1
  Ga  Ga10  1  0.602528  0.603710  0.245584  1
  Ga  Ga11  1  0.397472  0.001183  0.245584  1
  Ga  Ga12  1  0.000000  0.609106  0.754522  1
  Ga  Ga13  1  0.404536  0.399234  0.754289  1
  Ga  Ga14  1  0.595464  0.994699  0.754289  1
  P  P15  1  0.000000  0.391289  0.240042  1
  O  O16  1  0.000000  0.002482  0.502104  1
