# generated using pymatgen
data_Ac4Cd2RhAu3
_symmetry_space_group_name_H-M   'P 1'
_cell_length_a   8.30134700
_cell_length_b   8.30134723
_cell_length_c   4.02755600
_cell_angle_alpha   90.00000000
_cell_angle_beta   90.00000000
_cell_angle_gamma   89.76600133
_symmetry_Int_Tables_number   1
_chemical_formula_structural   Ac4Cd2RhAu3
_chemical_formula_sum   'Ac4 Cd2 Rh1 Au3'
_cell_volume   277.54609015
_cell_formula_units_Z   1
loop_
 _symmetry_equiv_pos_site_id
 _symmetry_equiv_pos_as_xyz
  1  'x, y, z'
loop_
 _atom_site_type_symbol
 _atom_site_label
 _atom_site_symmetry_multiplicity
 _atom_site_fract_x
 _atom_site_fract_y
 _atom_site_fract_z
 _atom_site_occupancy
  Ac  Ac0  1  0.655561  0.177737  0.500000  1
  Ac  Ac1  1  0.322263  0.844439  0.500000  1
  Ac  Ac2  1  0.186606  0.313394  0.500000  1
  Ac  Ac3  1  0.828947  0.671053  0.500000  1
  Cd  Cd4  1  0.002071  0.003090  0.000000  1
  Cd  Cd5  1  0.496910  0.497929  0.000000  1
  Rh  Rh6  1  0.373226  0.126774  0.000000  1
  Au  Au7  1  0.132352  0.623449  0.000000  1
  Au  Au8  1  0.876551  0.367648  0.000000  1
  Au  Au9  1  0.625514  0.874486  0.000000  1
