# generated using pymatgen
data_Hf2V3Fe
_symmetry_space_group_name_H-M   'P 1'
_cell_length_a   5.03996615
_cell_length_b   5.16826634
_cell_length_c   5.03996652
_cell_angle_alpha   120.73935290
_cell_angle_beta   118.33017225
_cell_angle_gamma   90.07281434
_symmetry_Int_Tables_number   1
_chemical_formula_structural   Hf2V3Fe
_chemical_formula_sum   'Hf2 V3 Fe1'
_cell_volume   94.02149323
_cell_formula_units_Z   1
loop_
 _symmetry_equiv_pos_site_id
 _symmetry_equiv_pos_as_xyz
  1  'x, y, z'
loop_
 _atom_site_type_symbol
 _atom_site_label
 _atom_site_symmetry_multiplicity
 _atom_site_fract_x
 _atom_site_fract_y
 _atom_site_fract_z
 _atom_site_occupancy
  Hf  Hf0  1  0.873956  0.625104  0.251148  1
  Hf  Hf1  1  0.126044  0.374896  0.748852  1
  V  V2  1  0.000000  0.000000  0.000000  1
  V  V3  1  0.500000  0.000000  0.500000  1
  V  V4  1  0.500000  0.500000  0.500000  1
  Fe  Fe5  1  0.500000  0.000000  0.000000  1
