# generated using pymatgen
data_Dy2Y3Co16(P4W)3
_symmetry_space_group_name_H-M   'P 1'
_cell_length_a   12.08096700
_cell_length_b   12.08096597
_cell_length_c   3.70904700
_cell_angle_alpha   90.00000000
_cell_angle_beta   90.00000000
_cell_angle_gamma   119.99999461
_symmetry_Int_Tables_number   1
_chemical_formula_structural   Dy2Y3Co16(P4W)3
_chemical_formula_sum   'Dy2 Y3 Co16 P12 W3'
_cell_volume   468.80944302
_cell_formula_units_Z   1
loop_
 _symmetry_equiv_pos_site_id
 _symmetry_equiv_pos_as_xyz
  1  'x, y, z'
loop_
 _atom_site_type_symbol
 _atom_site_label
 _atom_site_symmetry_multiplicity
 _atom_site_fract_x
 _atom_site_fract_y
 _atom_site_fract_z
 _atom_site_occupancy
  Dy  Dy0  1  0.666667  0.333333  0.000000  1
  Dy  Dy1  1  0.333333  0.666667  0.000000  1
  Y  Y2  1  0.185072  0.185072  0.500000  1
  Y  Y3  1  0.814928  0.000000  0.500000  1
  Y  Y4  1  0.000000  0.814928  0.500000  1
  Co  Co5  1  0.823234  0.198717  0.000000  1
  Co  Co6  1  0.801283  0.624517  0.000000  1
  Co  Co7  1  0.375483  0.176766  0.000000  1
  Co  Co8  1  0.198717  0.823234  0.000000  1
  Co  Co9  1  0.624517  0.801283  0.000000  1
  Co  Co10  1  0.176766  0.375483  0.000000  1
  Co  Co11  1  0.644114  0.126968  0.500000  1
  Co  Co12  1  0.873032  0.517147  0.500000  1
  Co  Co13  1  0.482853  0.355886  0.500000  1
  Co  Co14  1  0.126968  0.644114  0.500000  1
  Co  Co15  1  0.517147  0.873032  0.500000  1
  Co  Co16  1  0.355886  0.482853  0.500000  1
  Co  Co17  1  0.718812  0.718812  0.500000  1
  Co  Co18  1  0.281188  0.000000  0.500000  1
  Co  Co19  1  0.000000  0.281188  0.500000  1
  Co  Co20  1  0.000000  0.000000  0.000000  1
  P  P21  1  0.359861  0.359861  0.000000  1
  P  P22  1  0.640139  0.000000  0.000000  1
  P  P23  1  0.000000  0.640139  0.000000  1
  P  P24  1  0.834151  0.313786  0.500000  1
  P  P25  1  0.686214  0.520365  0.500000  1
  P  P26  1  0.479635  0.165849  0.500000  1
  P  P27  1  0.313786  0.834151  0.500000  1
  P  P28  1  0.520365  0.686214  0.500000  1
  P  P29  1  0.165849  0.479635  0.500000  1
  P  P30  1  0.822020  0.822020  0.000000  1
  P  P31  1  0.177980  0.000000  0.000000  1
  P  P32  1  0.000000  0.177980  0.000000  1
  W  W33  1  0.553828  0.553828  0.000000  1
  W  W34  1  0.446172  0.000000  0.000000  1
  W  W35  1  0.000000  0.446172  0.000000  1
