# generated using pymatgen
data_Tb3LuAl24Pd2Pt7
_symmetry_space_group_name_H-M   'P 1'
_cell_length_a   7.53566820
_cell_length_b   7.54251789
_cell_length_c   13.18683100
_cell_angle_alpha   84.60930605
_cell_angle_beta   100.91362395
_cell_angle_gamma   119.84423822
_symmetry_Int_Tables_number   1
_chemical_formula_structural   Tb3LuAl24Pd2Pt7
_chemical_formula_sum   'Tb3 Lu1 Al24 Pd2 Pt7'
_cell_volume   638.35462462
_cell_formula_units_Z   1
loop_
 _symmetry_equiv_pos_site_id
 _symmetry_equiv_pos_as_xyz
  1  'x, y, z'
loop_
 _atom_site_type_symbol
 _atom_site_label
 _atom_site_symmetry_multiplicity
 _atom_site_fract_x
 _atom_site_fract_y
 _atom_site_fract_z
 _atom_site_occupancy
  Tb  Tb0  1  0.732449  0.998787  0.192166  1
  Tb  Tb1  1  0.268159  0.001777  0.807736  1
  Tb  Tb2  1  0.062053  0.667917  0.192225  1
  Lu  Lu3  1  0.937172  0.331207  0.806355  1
  Al  Al4  1  0.807341  0.870178  0.815428  1
  Al  Al5  1  0.191998  0.131113  0.184550  1
  Al  Al6  1  0.981445  0.665131  0.943605  1
  Al  Al7  1  0.018489  0.333876  0.054262  1
  Al  Al8  1  0.396968  0.662811  0.816544  1
  Al  Al9  1  0.600727  0.335983  0.183590  1
  Al  Al10  1  0.882418  0.664770  0.670093  1
  Al  Al11  1  0.118116  0.334535  0.331059  1
  Al  Al12  1  0.604099  0.459433  0.815940  1
  Al  Al13  1  0.396593  0.541770  0.183888  1
  Al  Al14  1  0.229888  0.339951  0.669171  1
  Al  Al15  1  0.770171  0.660148  0.331930  1
  Al  Al16  1  0.853346  0.333007  0.558868  1
  Al  Al17  1  0.185827  0.999019  0.559005  1
  Al  Al18  1  0.814319  0.000833  0.441519  1
  Al  Al19  1  0.352014  0.999625  0.055292  1
  Al  Al20  1  0.648760  0.001162  0.943867  1
  Al  Al21  1  0.556517  0.993720  0.670066  1
  Al  Al22  1  0.444370  0.006289  0.330790  1
  Al  Al23  1  0.521006  0.667246  0.561864  1
  Al  Al24  1  0.479438  0.332592  0.438906  1
  Al  Al25  1  0.682583  0.667582  0.046126  1
  Al  Al26  1  0.315712  0.332843  0.952456  1
  Al  Al27  1  0.146838  0.666957  0.441547  1
  Pd  Pd28  1  0.328456  0.671812  0.999552  1
  Pd  Pd29  1  0.000353  0.000128  0.999356  1
  Pt  Pt30  1  0.546876  0.324576  0.637858  1
  Pt  Pt31  1  0.454177  0.674716  0.363521  1
  Pt  Pt32  1  0.888001  0.008549  0.638890  1
  Pt  Pt33  1  0.112996  0.992362  0.362090  1
  Pt  Pt34  1  0.670990  0.328326  0.999452  1
  Pt  Pt35  1  0.203934  0.665987  0.638813  1
  Pt  Pt36  1  0.795399  0.333279  0.361619  1
