# generated using pymatgen
data_Sc5Ta(Co5B2)2
_symmetry_space_group_name_H-M   'P 1'
_cell_length_a   8.87722500
_cell_length_b   8.87722500
_cell_length_c   3.01217500
_cell_angle_alpha   90.00000000
_cell_angle_beta   90.00000000
_cell_angle_gamma   90.00000000
_symmetry_Int_Tables_number   1
_chemical_formula_structural   Sc5Ta(Co5B2)2
_chemical_formula_sum   'Sc5 Ta1 Co10 B4'
_cell_volume   237.37482348
_cell_formula_units_Z   1
loop_
 _symmetry_equiv_pos_site_id
 _symmetry_equiv_pos_as_xyz
  1  'x, y, z'
loop_
 _atom_site_type_symbol
 _atom_site_label
 _atom_site_symmetry_multiplicity
 _atom_site_fract_x
 _atom_site_fract_y
 _atom_site_fract_z
 _atom_site_occupancy
  Sc  Sc0  1  0.000000  0.000000  0.000000  1
  Sc  Sc1  1  0.825849  0.324581  0.000000  1
  Sc  Sc2  1  0.324581  0.174151  0.000000  1
  Sc  Sc3  1  0.675419  0.825849  0.000000  1
  Sc  Sc4  1  0.174151  0.675419  0.000000  1
  Ta  Ta5  1  0.500000  0.500000  0.000000  1
  Co  Co6  1  0.500000  0.000000  0.500000  1
  Co  Co7  1  0.000000  0.500000  0.500000  1
  Co  Co8  1  0.073820  0.231371  0.500000  1
  Co  Co9  1  0.231371  0.926180  0.500000  1
  Co  Co10  1  0.768629  0.073820  0.500000  1
  Co  Co11  1  0.926180  0.768629  0.500000  1
  Co  Co12  1  0.433292  0.723170  0.500000  1
  Co  Co13  1  0.566708  0.276830  0.500000  1
  Co  Co14  1  0.723170  0.566708  0.500000  1
  Co  Co15  1  0.276830  0.433292  0.500000  1
  B  B16  1  0.619679  0.117738  0.000000  1
  B  B17  1  0.117738  0.380321  0.000000  1
  B  B18  1  0.882262  0.619679  0.000000  1
  B  B19  1  0.380321  0.882262  0.000000  1
