# generated using pymatgen
data_Hf2ScCo6(B2Ir)3
_symmetry_space_group_name_H-M   'P 1'
_cell_length_a   5.84000326
_cell_length_b   5.84000188
_cell_length_c   5.84000302
_cell_angle_alpha   95.22374887
_cell_angle_beta   95.22374939
_cell_angle_gamma   95.22373540
_symmetry_Int_Tables_number   1
_chemical_formula_structural   Hf2ScCo6(B2Ir)3
_chemical_formula_sum   'Hf2 Sc1 Co6 B6 Ir3'
_cell_volume   196.53256955
_cell_formula_units_Z   1
loop_
 _symmetry_equiv_pos_site_id
 _symmetry_equiv_pos_as_xyz
  1  'x, y, z'
loop_
 _atom_site_type_symbol
 _atom_site_label
 _atom_site_symmetry_multiplicity
 _atom_site_fract_x
 _atom_site_fract_y
 _atom_site_fract_z
 _atom_site_occupancy
  Hf  Hf0  1  0.998030  0.998030  0.998030  1
  Hf  Hf1  1  0.333647  0.333647  0.333647  1
  Sc  Sc2  1  0.667845  0.667845  0.667845  1
  Co  Co3  1  0.692017  0.207839  0.692017  1
  Co  Co4  1  0.692017  0.692017  0.207839  1
  Co  Co5  1  0.207839  0.692017  0.692017  1
  Co  Co6  1  0.308444  0.791055  0.308444  1
  Co  Co7  1  0.308444  0.308444  0.791055  1
  Co  Co8  1  0.791055  0.308444  0.308444  1
  B  B9  1  0.385918  0.999891  0.615232  1
  B  B10  1  0.615232  0.385918  0.999891  1
  B  B11  1  0.999891  0.615232  0.385918  1
  B  B12  1  0.615232  0.999891  0.385918  1
  B  B13  1  0.385918  0.615232  0.999891  1
  B  B14  1  0.999891  0.385918  0.615232  1
  Ir  Ir15  1  0.497737  0.000422  0.000422  1
  Ir  Ir16  1  0.000422  0.497737  0.000422  1
  Ir  Ir17  1  0.000422  0.000422  0.497737  1
