# generated using pymatgen
data_Nd2YTh11Ir6
_symmetry_space_group_name_H-M   'P 1'
_cell_length_a   10.01925360
_cell_length_b   10.09300278
_cell_length_c   6.37554591
_cell_angle_alpha   90.32664103
_cell_angle_beta   89.78418328
_cell_angle_gamma   120.14297463
_symmetry_Int_Tables_number   1
_chemical_formula_structural   Nd2YTh11Ir6
_chemical_formula_sum   'Nd2 Y1 Th11 Ir6'
_cell_volume   557.53094960
_cell_formula_units_Z   1
loop_
 _symmetry_equiv_pos_site_id
 _symmetry_equiv_pos_as_xyz
  1  'x, y, z'
loop_
 _atom_site_type_symbol
 _atom_site_label
 _atom_site_symmetry_multiplicity
 _atom_site_fract_x
 _atom_site_fract_y
 _atom_site_fract_z
 _atom_site_occupancy
  Nd  Nd0  1  0.079164  0.538085  0.294533  1
  Nd  Nd1  1  0.922803  0.461687  0.796330  1
  Y  Y2  1  0.460804  0.540216  0.296343  1
  Th  Th3  1  0.254058  0.128913  0.499357  1
  Th  Th4  1  0.542278  0.084030  0.796124  1
  Th  Th5  1  0.745570  0.873034  0.999924  1
  Th  Th6  1  0.664301  0.332036  0.292471  1
  Th  Th7  1  0.127497  0.871548  0.998864  1
  Th  Th8  1  0.457909  0.914103  0.293820  1
  Th  Th9  1  0.542521  0.458312  0.797220  1
  Th  Th10  1  0.873338  0.128094  0.500203  1
  Th  Th11  1  0.125806  0.253536  0.997680  1
  Th  Th12  1  0.870080  0.744219  0.496726  1
  Th  Th13  1  0.335658  0.667408  0.782699  1
  Ir  Ir14  1  0.807413  0.626315  0.058306  1
  Ir  Ir15  1  0.808010  0.182099  0.060504  1
  Ir  Ir16  1  0.626948  0.817553  0.553360  1
  Ir  Ir17  1  0.375461  0.188664  0.051311  1
  Ir  Ir18  1  0.187965  0.371209  0.561809  1
  Ir  Ir19  1  0.192416  0.818938  0.556414  1
