# generated using pymatgen
data_RbLi4NbO5
_symmetry_space_group_name_H-M   'P 1'
_cell_length_a   5.87892015
_cell_length_b   5.99241235
_cell_length_c   8.53015453
_cell_angle_alpha   89.08161209
_cell_angle_beta   100.46074942
_cell_angle_gamma   119.38681698
_symmetry_Int_Tables_number   1
_chemical_formula_structural   RbLi4NbO5
_chemical_formula_sum   'Rb2 Li8 Nb2 O10'
_cell_volume   256.55095679
_cell_formula_units_Z   2
loop_
 _symmetry_equiv_pos_site_id
 _symmetry_equiv_pos_as_xyz
  1  'x, y, z'
loop_
 _atom_site_type_symbol
 _atom_site_label
 _atom_site_symmetry_multiplicity
 _atom_site_fract_x
 _atom_site_fract_y
 _atom_site_fract_z
 _atom_site_occupancy
  Rb  Rb0  1  0.604653  0.754023  0.406305  1
  Rb  Rb1  1  0.395347  0.245977  0.593695  1
  Li  Li2  1  0.336090  0.996385  0.883541  1
  Li  Li3  1  0.663910  0.003615  0.116459  1
  Li  Li4  1  0.588965  0.383677  0.079758  1
  Li  Li5  1  0.886076  0.342044  0.374946  1
  Li  Li6  1  0.091950  0.392648  0.094299  1
  Li  Li7  1  0.411035  0.616323  0.920242  1
  Li  Li8  1  0.113924  0.657956  0.625054  1
  Li  Li9  1  0.908050  0.607352  0.905701  1
  Nb  Nb10  1  0.142590  0.937339  0.200512  1
  Nb  Nb11  1  0.857410  0.062661  0.799488  1
  O  O12  1  0.778894  0.758125  0.042611  1
  O  O13  1  0.522434  0.186942  0.266325  1
  O  O14  1  0.221106  0.241875  0.957389  1
  O  O15  1  0.257619  0.757084  0.053452  1
  O  O16  1  0.477566  0.813058  0.733675  1
  O  O17  1  0.920964  0.279947  0.630066  1
  O  O18  1  0.030578  0.173678  0.270331  1
  O  O19  1  0.742381  0.242916  0.946548  1
  O  O20  1  0.079036  0.720053  0.369934  1
  O  O21  1  0.969422  0.826322  0.729669  1
