# generated using pymatgen
data_NaSc(IO3)4
_symmetry_space_group_name_H-M   'P 1'
_cell_length_a   5.07040800
_cell_length_b   7.22224757
_cell_length_c   15.78810773
_cell_angle_alpha   78.46081687
_cell_angle_beta   90.00000000
_cell_angle_gamma   90.00000000
_symmetry_Int_Tables_number   1
_chemical_formula_structural   NaSc(IO3)4
_chemical_formula_sum   'Na2 Sc2 I8 O24'
_cell_volume   566.47080861
_cell_formula_units_Z   2
loop_
 _symmetry_equiv_pos_site_id
 _symmetry_equiv_pos_as_xyz
  1  'x, y, z'
loop_
 _atom_site_type_symbol
 _atom_site_label
 _atom_site_symmetry_multiplicity
 _atom_site_fract_x
 _atom_site_fract_y
 _atom_site_fract_z
 _atom_site_occupancy
  Na  Na0  1  0.500000  0.500000  0.000000  1
  Na  Na1  1  0.000000  0.500000  0.500000  1
  Sc  Sc2  1  0.500000  0.000000  0.000000  1
  Sc  Sc3  1  0.000000  0.000000  0.500000  1
  I  I4  1  0.907889  0.667040  0.163332  1
  I  I5  1  0.407889  0.332960  0.336668  1
  I  I6  1  0.092111  0.332960  0.836668  1
  I  I7  1  0.592111  0.667040  0.663332  1
  I  I8  1  0.990765  0.179674  0.138023  1
  I  I9  1  0.490765  0.820326  0.361977  1
  I  I10  1  0.009235  0.820326  0.861977  1
  I  I11  1  0.509235  0.179674  0.638023  1
  O  O12  1  0.673637  0.752381  0.072501  1
  O  O13  1  0.173637  0.247619  0.427499  1
  O  O14  1  0.326363  0.247619  0.927499  1
  O  O15  1  0.826363  0.752381  0.572501  1
  O  O16  1  0.802599  0.831388  0.231798  1
  O  O17  1  0.302599  0.168612  0.268202  1
  O  O18  1  0.197401  0.168612  0.768202  1
  O  O19  1  0.697401  0.831388  0.731798  1
  O  O20  1  0.726177  0.448795  0.207099  1
  O  O21  1  0.226177  0.551205  0.292901  1
  O  O22  1  0.273823  0.551205  0.792901  1
  O  O23  1  0.773823  0.448795  0.707099  1
  O  O24  1  0.736281  0.190309  0.051650  1
  O  O25  1  0.236281  0.809691  0.448350  1
  O  O26  1  0.263719  0.809691  0.948350  1
  O  O27  1  0.763719  0.190309  0.551650  1
  O  O28  1  0.211890  0.005503  0.101741  1
  O  O29  1  0.711890  0.994497  0.398259  1
  O  O30  1  0.788110  0.994497  0.898259  1
  O  O31  1  0.288110  0.005503  0.601741  1
  O  O32  1  0.151145  0.400981  0.092120  1
  O  O33  1  0.651145  0.599019  0.407880  1
  O  O34  1  0.848855  0.599019  0.907880  1
  O  O35  1  0.348855  0.400981  0.592120  1
