# generated using pymatgen
data_PrEu3Mg4Ir3Rh
_symmetry_space_group_name_H-M   'P 1'
_cell_length_a   4.25687500
_cell_length_b   7.24296570
_cell_length_c   8.53044392
_cell_angle_alpha   89.94443197
_cell_angle_beta   90.00000000
_cell_angle_gamma   90.00000000
_symmetry_Int_Tables_number   1
_chemical_formula_structural   PrEu3Mg4Ir3Rh
_chemical_formula_sum   'Pr1 Eu3 Mg4 Ir3 Rh1'
_cell_volume   263.01393220
_cell_formula_units_Z   1
loop_
 _symmetry_equiv_pos_site_id
 _symmetry_equiv_pos_as_xyz
  1  'x, y, z'
loop_
 _atom_site_type_symbol
 _atom_site_label
 _atom_site_symmetry_multiplicity
 _atom_site_fract_x
 _atom_site_fract_y
 _atom_site_fract_z
 _atom_site_occupancy
  Pr  Pr0  1  0.750000  0.466513  0.827539  1
  Eu  Eu1  1  0.250000  0.032087  0.323796  1
  Eu  Eu2  1  0.750000  0.964713  0.675695  1
  Eu  Eu3  1  0.250000  0.532860  0.176946  1
  Mg  Mg4  1  0.250000  0.132604  0.944262  1
  Mg  Mg5  1  0.750000  0.863253  0.058604  1
  Mg  Mg6  1  0.250000  0.638847  0.555789  1
  Mg  Mg7  1  0.750000  0.365934  0.440023  1
  Ir  Ir8  1  0.750000  0.237981  0.125888  1
  Ir  Ir9  1  0.250000  0.757718  0.869061  1
  Ir  Ir10  1  0.750000  0.737886  0.370088  1
  Rh  Rh11  1  0.250000  0.269607  0.632309  1
