# generated using pymatgen
data_Pr11Sm4Ho5Sn16
_symmetry_space_group_name_H-M   'P 1'
_cell_length_a   8.21006335
_cell_length_b   8.38988172
_cell_length_c   15.89160900
_cell_angle_alpha   90.07221147
_cell_angle_beta   89.69106428
_cell_angle_gamma   90.10527684
_symmetry_Int_Tables_number   1
_chemical_formula_structural   Pr11Sm4Ho5Sn16
_chemical_formula_sum   'Pr11 Sm4 Ho5 Sn16'
_cell_volume   1094.61862024
_cell_formula_units_Z   1
loop_
 _symmetry_equiv_pos_site_id
 _symmetry_equiv_pos_as_xyz
  1  'x, y, z'
loop_
 _atom_site_type_symbol
 _atom_site_label
 _atom_site_symmetry_multiplicity
 _atom_site_fract_x
 _atom_site_fract_y
 _atom_site_fract_z
 _atom_site_occupancy
  Pr  Pr0  1  0.136189  0.337293  0.378561  1
  Pr  Pr1  1  0.363951  0.838139  0.621681  1
  Pr  Pr2  1  0.862906  0.663554  0.880247  1
  Pr  Pr3  1  0.515594  0.319287  0.902843  1
  Pr  Pr4  1  0.017965  0.180773  0.599286  1
  Pr  Pr5  1  0.483152  0.681106  0.401613  1
  Pr  Pr6  1  0.985086  0.818499  0.097224  1
  Pr  Pr7  1  0.485929  0.681073  0.095811  1
  Pr  Pr8  1  0.983081  0.818993  0.401152  1
  Pr  Pr9  1  0.517150  0.319250  0.599482  1
  Pr  Pr10  1  0.013612  0.180064  0.902937  1
  Sm  Sm11  1  0.861906  0.661621  0.622698  1
  Sm  Sm12  1  0.637620  0.161071  0.378127  1
  Sm  Sm13  1  0.141044  0.337119  0.119793  1
  Sm  Sm14  1  0.638506  0.163564  0.122890  1
  Ho  Ho15  1  0.357994  0.837891  0.875245  1
  Ho  Ho16  1  0.194555  0.502910  0.751228  1
  Ho  Ho17  1  0.693054  0.997448  0.750431  1
  Ho  Ho18  1  0.806009  0.497150  0.250046  1
  Ho  Ho19  1  0.305782  0.002408  0.248747  1
  Sn  Sn20  1  0.302090  0.035386  0.040081  1
  Sn  Sn21  1  0.793451  0.463947  0.457120  1
  Sn  Sn22  1  0.707950  0.963996  0.543797  1
  Sn  Sn23  1  0.207886  0.540792  0.956120  1
  Sn  Sn24  1  0.689337  0.963362  0.956665  1
  Sn  Sn25  1  0.201483  0.535140  0.545731  1
  Sn  Sn26  1  0.297623  0.034807  0.454494  1
  Sn  Sn27  1  0.799646  0.460911  0.045505  1
  Sn  Sn28  1  0.558254  0.620354  0.751484  1
  Sn  Sn29  1  0.058751  0.882620  0.751478  1
  Sn  Sn30  1  0.441699  0.380767  0.249224  1
  Sn  Sn31  1  0.940373  0.119030  0.247983  1
  Sn  Sn32  1  0.321370  0.146178  0.752394  1
  Sn  Sn33  1  0.821569  0.353425  0.750913  1
  Sn  Sn34  1  0.678198  0.854219  0.249037  1
  Sn  Sn35  1  0.179230  0.645851  0.247929  1
