# generated using pymatgen
data_Hf4Ta2B4IrRu9
_symmetry_space_group_name_H-M   'P 1'
_cell_length_a   9.48994508
_cell_length_b   9.48313308
_cell_length_c   3.09966200
_cell_angle_alpha   90.00000000
_cell_angle_beta   90.00000000
_cell_angle_gamma   90.01469457
_symmetry_Int_Tables_number   1
_chemical_formula_structural   Hf4Ta2B4IrRu9
_chemical_formula_sum   'Hf4 Ta2 B4 Ir1 Ru9'
_cell_volume   278.95225015
_cell_formula_units_Z   1
loop_
 _symmetry_equiv_pos_site_id
 _symmetry_equiv_pos_as_xyz
  1  'x, y, z'
loop_
 _atom_site_type_symbol
 _atom_site_label
 _atom_site_symmetry_multiplicity
 _atom_site_fract_x
 _atom_site_fract_y
 _atom_site_fract_z
 _atom_site_occupancy
  Hf  Hf0  1  0.828585  0.675409  0.000000  1
  Hf  Hf1  1  0.175421  0.323843  0.000000  1
  Hf  Hf2  1  0.320173  0.826169  0.000000  1
  Hf  Hf3  1  0.676473  0.176502  0.000000  1
  Ta  Ta4  1  0.498357  0.495063  0.000000  1
  Ta  Ta5  1  0.999883  0.000965  0.000000  1
  B  B6  1  0.623049  0.883745  0.000000  1
  B  B7  1  0.377358  0.120159  0.000000  1
  B  B8  1  0.121426  0.621246  0.000000  1
  B  B9  1  0.879088  0.378690  0.000000  1
  Ir  Ir10  1  0.570576  0.717557  0.500000  1
  Ru  Ru11  1  0.429633  0.280332  0.500000  1
  Ru  Ru12  1  0.070783  0.782180  0.500000  1
  Ru  Ru13  1  0.928045  0.218187  0.500000  1
  Ru  Ru14  1  0.282955  0.571709  0.500000  1
  Ru  Ru15  1  0.718133  0.431425  0.500000  1
  Ru  Ru16  1  0.217652  0.070757  0.500000  1
  Ru  Ru17  1  0.781557  0.927720  0.500000  1
  Ru  Ru18  1  0.499763  0.998690  0.500000  1
  Ru  Ru19  1  0.001090  0.499651  0.500000  1
