# generated using pymatgen
data_Dy20Ir9Os2Rh
_symmetry_space_group_name_H-M   'P 1'
_cell_length_a   10.85311400
_cell_length_b   10.85311400
_cell_length_c   6.41888200
_cell_angle_alpha   90.00000000
_cell_angle_beta   90.00000000
_cell_angle_gamma   90.00000000
_symmetry_Int_Tables_number   1
_chemical_formula_structural   Dy20Ir9Os2Rh
_chemical_formula_sum   'Dy20 Ir9 Os2 Rh1'
_cell_volume   756.08064674
_cell_formula_units_Z   1
loop_
 _symmetry_equiv_pos_site_id
 _symmetry_equiv_pos_as_xyz
  1  'x, y, z'
loop_
 _atom_site_type_symbol
 _atom_site_label
 _atom_site_symmetry_multiplicity
 _atom_site_fract_x
 _atom_site_fract_y
 _atom_site_fract_z
 _atom_site_occupancy
  Dy  Dy0  1  0.294195  0.086425  0.378489  1
  Dy  Dy1  1  0.294157  0.913596  0.878563  1
  Dy  Dy2  1  0.705843  0.086404  0.878563  1
  Dy  Dy3  1  0.705805  0.913575  0.378489  1
  Dy  Dy4  1  0.586404  0.794157  0.878563  1
  Dy  Dy5  1  0.586425  0.205805  0.378489  1
  Dy  Dy6  1  0.413575  0.794195  0.378489  1
  Dy  Dy7  1  0.413596  0.205843  0.878563  1
  Dy  Dy8  1  0.209396  0.411653  0.619628  1
  Dy  Dy9  1  0.209565  0.588473  0.121986  1
  Dy  Dy10  1  0.790435  0.411527  0.121986  1
  Dy  Dy11  1  0.790604  0.588347  0.619628  1
  Dy  Dy12  1  0.911527  0.709565  0.121986  1
  Dy  Dy13  1  0.911653  0.290604  0.619628  1
  Dy  Dy14  1  0.088347  0.709396  0.619628  1
  Dy  Dy15  1  0.088473  0.290435  0.121986  1
  Dy  Dy16  1  0.000000  0.000000  0.498910  1
  Dy  Dy17  1  0.000000  0.000000  0.998821  1
  Dy  Dy18  1  0.500000  0.500000  0.998821  1
  Dy  Dy19  1  0.500000  0.500000  0.498910  1
  Ir  Ir20  1  0.848944  0.154131  0.250346  1
  Ir  Ir21  1  0.849036  0.845692  0.750529  1
  Ir  Ir22  1  0.150964  0.154308  0.750529  1
  Ir  Ir23  1  0.151056  0.845869  0.250346  1
  Ir  Ir24  1  0.654308  0.349036  0.750529  1
  Ir  Ir25  1  0.654131  0.651056  0.250346  1
  Ir  Ir26  1  0.345869  0.348944  0.250346  1
  Ir  Ir27  1  0.345692  0.650964  0.750529  1
  Ir  Ir28  1  0.000000  0.500000  0.377554  1
  Os  Os29  1  0.500000  0.000000  0.125375  1
  Os  Os30  1  0.500000  0.000000  0.625278  1
  Rh  Rh31  1  0.000000  0.500000  0.878162  1
