# generated using pymatgen
data_Sr8In16AgAu11
_symmetry_space_group_name_H-M   'P 1'
_cell_length_a   15.16961900
_cell_length_b   15.25768382
_cell_length_c   4.63877200
_cell_angle_alpha   90.00000000
_cell_angle_beta   90.00000000
_cell_angle_gamma   119.80925438
_symmetry_Int_Tables_number   1
_chemical_formula_structural   Sr8In16AgAu11
_chemical_formula_sum   'Sr8 In16 Ag1 Au11'
_cell_volume   931.59786944
_cell_formula_units_Z   1
loop_
 _symmetry_equiv_pos_site_id
 _symmetry_equiv_pos_as_xyz
  1  'x, y, z'
loop_
 _atom_site_type_symbol
 _atom_site_label
 _atom_site_symmetry_multiplicity
 _atom_site_fract_x
 _atom_site_fract_y
 _atom_site_fract_z
 _atom_site_occupancy
  Sr  Sr0  1  0.453029  0.000000  0.000000  1
  Sr  Sr1  1  0.998832  0.453188  0.000000  1
  Sr  Sr2  1  0.545645  0.546812  0.000000  1
  Sr  Sr3  1  0.332269  0.667080  0.000000  1
  Sr  Sr4  1  0.665190  0.332920  0.000000  1
  Sr  Sr5  1  0.824114  0.000000  0.500000  1
  Sr  Sr6  1  0.999456  0.819427  0.500000  1
  Sr  Sr7  1  0.180029  0.180573  0.500000  1
  In  In8  1  0.180594  0.379260  0.000000  1
  In  In9  1  0.620174  0.801595  0.000000  1
  In  In10  1  0.379472  0.181878  0.000000  1
  In  In11  1  0.197594  0.818122  0.000000  1
  In  In12  1  0.801337  0.620740  0.000000  1
  In  In13  1  0.818580  0.198405  0.000000  1
  In  In14  1  0.281324  0.000000  0.500000  1
  In  In15  1  0.000866  0.279573  0.500000  1
  In  In16  1  0.721292  0.720427  0.500000  1
  In  In17  1  0.348091  0.472659  0.500000  1
  In  In18  1  0.528007  0.876817  0.500000  1
  In  In19  1  0.470855  0.348029  0.500000  1
  In  In20  1  0.122826  0.651971  0.500000  1
  In  In21  1  0.875433  0.527341  0.500000  1
  In  In22  1  0.651191  0.123183  0.500000  1
  In  In23  1  0.003580  0.000000  0.000000  1
  Ag  Ag24  1  0.181323  0.000000  0.000000  1
  Au  Au25  1  0.171365  0.492792  0.500000  1
  Au  Au26  1  0.507132  0.680000  0.500000  1
  Au  Au27  1  0.491812  0.172597  0.500000  1
  Au  Au28  1  0.319215  0.827403  0.500000  1
  Au  Au29  1  0.678572  0.507208  0.500000  1
  Au  Au30  1  0.827133  0.320000  0.500000  1
  Au  Au31  1  0.000363  0.176310  0.000000  1
  Au  Au32  1  0.824052  0.823690  0.000000  1
  Au  Au33  1  0.661510  0.000000  0.000000  1
  Au  Au34  1  0.999397  0.661050  0.000000  1
  Au  Au35  1  0.338348  0.338950  0.000000  1
