# generated using pymatgen
data_Y5Ho(P2Ir3)6
_symmetry_space_group_name_H-M   'P 1'
_cell_length_a   3.97964400
_cell_length_b   11.19671700
_cell_length_c   12.79868900
_cell_angle_alpha   90.00099328
_cell_angle_beta   90.00000000
_cell_angle_gamma   90.00000000
_symmetry_Int_Tables_number   1
_chemical_formula_structural   Y5Ho(P2Ir3)6
_chemical_formula_sum   'Y5 Ho1 P12 Ir18'
_cell_volume   570.29611282
_cell_formula_units_Z   1
loop_
 _symmetry_equiv_pos_site_id
 _symmetry_equiv_pos_as_xyz
  1  'x, y, z'
loop_
 _atom_site_type_symbol
 _atom_site_label
 _atom_site_symmetry_multiplicity
 _atom_site_fract_x
 _atom_site_fract_y
 _atom_site_fract_z
 _atom_site_occupancy
  Y  Y0  1  0.000000  0.499995  0.522718  1
  Y  Y1  1  0.500000  0.999999  0.477290  1
  Y  Y2  1  0.500000  0.815216  0.204168  1
  Y  Y3  1  0.500000  0.184795  0.204159  1
  Y  Y4  1  0.000000  0.684788  0.795837  1
  Ho  Ho5  1  0.000000  0.315082  0.795835  1
  P  P6  1  0.500000  0.314978  0.617979  1
  P  P7  1  0.500000  0.684980  0.617799  1
  P  P8  1  0.000000  0.184996  0.382189  1
  P  P9  1  0.000000  0.815006  0.382181  1
  P  P10  1  0.500000  0.499774  0.875647  1
  P  P11  1  0.000000  0.000000  0.124312  1
  P  P12  1  0.500000  0.845275  0.893759  1
  P  P13  1  0.500000  0.154993  0.893669  1
  P  P14  1  0.000000  0.654711  0.106247  1
  P  P15  1  0.000000  0.345300  0.106260  1
  P  P16  1  0.500000  0.499999  0.359639  1
  P  P17  1  0.000000  0.999961  0.640323  1
  Ir  Ir18  1  0.000000  0.499812  0.971175  1
  Ir  Ir19  1  0.500000  0.000032  0.028603  1
  Ir  Ir20  1  0.500000  0.294798  0.430309  1
  Ir  Ir21  1  0.500000  0.705184  0.430289  1
  Ir  Ir22  1  0.000000  0.205323  0.569884  1
  Ir  Ir23  1  0.000000  0.794769  0.569728  1
  Ir  Ir24  1  0.500000  0.869547  0.713825  1
  Ir  Ir25  1  0.500000  0.130892  0.714030  1
  Ir  Ir26  1  0.000000  0.630454  0.286175  1
  Ir  Ir27  1  0.000000  0.369545  0.286187  1
  Ir  Ir28  1  0.500000  0.336648  0.001176  1
  Ir  Ir29  1  0.500000  0.663290  0.001302  1
  Ir  Ir30  1  0.000000  0.163457  0.998500  1
  Ir  Ir31  1  0.000000  0.836661  0.998701  1
  Ir  Ir32  1  0.500000  0.499992  0.181501  1
  Ir  Ir33  1  0.000000  0.000062  0.818456  1
  Ir  Ir34  1  0.500000  0.499689  0.699462  1
  Ir  Ir35  1  0.000000  0.999997  0.300686  1
