# generated using pymatgen
data_Ho16AgHg3Rh4
_symmetry_space_group_name_H-M   'P 1'
_cell_length_a   9.56139596
_cell_length_b   9.54857708
_cell_length_c   9.55090827
_cell_angle_alpha   59.89068858
_cell_angle_beta   59.96585860
_cell_angle_gamma   59.95863719
_symmetry_Int_Tables_number   1
_chemical_formula_structural   Ho16AgHg3Rh4
_chemical_formula_sum   'Ho16 Ag1 Hg3 Rh4'
_cell_volume   615.71810607
_cell_formula_units_Z   1
loop_
 _symmetry_equiv_pos_site_id
 _symmetry_equiv_pos_as_xyz
  1  'x, y, z'
loop_
 _atom_site_type_symbol
 _atom_site_label
 _atom_site_symmetry_multiplicity
 _atom_site_fract_x
 _atom_site_fract_y
 _atom_site_fract_z
 _atom_site_occupancy
  Ho  Ho0  1  0.185388  0.188350  0.813179  1
  Ho  Ho1  1  0.600500  0.603440  0.195591  1
  Ho  Ho2  1  0.439733  0.059762  0.439038  1
  Ho  Ho3  1  0.439702  0.437427  0.060591  1
  Ho  Ho4  1  0.813084  0.188340  0.813155  1
  Ho  Ho5  1  0.185768  0.813357  0.186926  1
  Ho  Ho6  1  0.439384  0.060263  0.060966  1
  Ho  Ho7  1  0.186356  0.813273  0.814015  1
  Ho  Ho8  1  0.062286  0.437447  0.060565  1
  Ho  Ho9  1  0.813937  0.813344  0.186965  1
  Ho  Ho10  1  0.196677  0.602025  0.601116  1
  Ho  Ho11  1  0.061469  0.438251  0.438793  1
  Ho  Ho12  1  0.061446  0.059777  0.439054  1
  Ho  Ho13  1  0.813331  0.187740  0.185625  1
  Ho  Ho14  1  0.601497  0.194448  0.602541  1
  Ho  Ho15  1  0.600200  0.602007  0.601103  1
  Ag  Ag16  1  0.832827  0.501130  0.833191  1
  Hg  Hg17  1  0.835309  0.833042  0.835208  1
  Hg  Hg18  1  0.835517  0.833339  0.495630  1
  Hg  Hg19  1  0.496454  0.833039  0.835214  1
  Rh  Rh20  1  0.392558  0.821066  0.393789  1
  Rh  Rh21  1  0.392352  0.392733  0.393426  1
  Rh  Rh22  1  0.821501  0.392768  0.393410  1
  Rh  Rh23  1  0.392725  0.393635  0.820910  1
