# generated using pymatgen
data_Tb7DyHf10(ZrSi8)2
_symmetry_space_group_name_H-M   'P 1'
_cell_length_a   7.30029301
_cell_length_b   7.30015966
_cell_length_c   13.41877601
_cell_angle_alpha   90.00356673
_cell_angle_beta   90.00094049
_cell_angle_gamma   89.96437529
_symmetry_Int_Tables_number   1
_chemical_formula_structural   Tb7DyHf10(ZrSi8)2
_chemical_formula_sum   'Tb7 Dy1 Hf10 Zr2 Si16'
_cell_volume   715.13077607
_cell_formula_units_Z   1
loop_
 _symmetry_equiv_pos_site_id
 _symmetry_equiv_pos_as_xyz
  1  'x, y, z'
loop_
 _atom_site_type_symbol
 _atom_site_label
 _atom_site_symmetry_multiplicity
 _atom_site_fract_x
 _atom_site_fract_y
 _atom_site_fract_z
 _atom_site_occupancy
  Tb  Tb0  1  0.003591  0.656250  0.715106  1
  Tb  Tb1  1  0.156237  0.496433  0.465023  1
  Tb  Tb2  1  0.503559  0.843746  0.034963  1
  Tb  Tb3  1  0.843748  0.503546  0.965057  1
  Tb  Tb4  1  0.496443  0.156261  0.534952  1
  Tb  Tb5  1  0.343743  0.996407  0.784885  1
  Tb  Tb6  1  0.656269  0.003609  0.284889  1
  Dy  Dy7  1  0.996464  0.343791  0.215109  1
  Hf  Hf8  1  0.325402  0.674534  0.250002  1
  Hf  Hf9  1  0.674562  0.325441  0.749998  1
  Hf  Hf10  1  0.149469  0.995313  0.374401  1
  Hf  Hf11  1  0.850517  0.004713  0.874416  1
  Hf  Hf12  1  0.504413  0.649788  0.624339  1
  Hf  Hf13  1  0.350198  0.495584  0.875665  1
  Hf  Hf14  1  0.495615  0.350205  0.124356  1
  Hf  Hf15  1  0.649813  0.504369  0.375642  1
  Hf  Hf16  1  0.995295  0.149494  0.625582  1
  Hf  Hf17  1  0.004703  0.850548  0.125592  1
  Zr  Zr18  1  0.174291  0.174310  0.000017  1
  Zr  Zr19  1  0.825708  0.825693  0.499995  1
  Si  Si20  1  0.363522  0.295083  0.316977  1
  Si  Si21  1  0.636412  0.704935  0.816993  1
  Si  Si22  1  0.205995  0.863577  0.567107  1
  Si  Si23  1  0.136419  0.794007  0.932890  1
  Si  Si24  1  0.794054  0.136482  0.067154  1
  Si  Si25  1  0.863578  0.206018  0.432873  1
  Si  Si26  1  0.295069  0.363590  0.683005  1
  Si  Si27  1  0.704975  0.636360  0.183006  1
  Si  Si28  1  0.295461  0.048146  0.186285  1
  Si  Si29  1  0.704499  0.951888  0.686286  1
  Si  Si30  1  0.450469  0.794870  0.435469  1
  Si  Si31  1  0.205087  0.549480  0.064566  1
  Si  Si32  1  0.549536  0.205140  0.935465  1
  Si  Si33  1  0.794870  0.450468  0.564530  1
  Si  Si34  1  0.048107  0.295500  0.813713  1
  Si  Si35  1  0.951907  0.704419  0.313692  1
