# generated using pymatgen
data_Y5Ho4Lu7(CdPt)4
_symmetry_space_group_name_H-M   'P 1'
_cell_length_a   9.61601315
_cell_length_b   9.59874112
_cell_length_c   9.59874026
_cell_angle_alpha   59.97364009
_cell_angle_beta   59.94046248
_cell_angle_gamma   59.94046084
_symmetry_Int_Tables_number   1
_chemical_formula_structural   Y5Ho4Lu7(CdPt)4
_chemical_formula_sum   'Y5 Ho4 Lu7 Cd4 Pt4'
_cell_volume   625.79301976
_cell_formula_units_Z   1
loop_
 _symmetry_equiv_pos_site_id
 _symmetry_equiv_pos_as_xyz
  1  'x, y, z'
loop_
 _atom_site_type_symbol
 _atom_site_label
 _atom_site_symmetry_multiplicity
 _atom_site_fract_x
 _atom_site_fract_y
 _atom_site_fract_z
 _atom_site_occupancy
  Y  Y0  1  0.562710  0.937290  0.937290  1
  Y  Y1  1  0.564828  0.935250  0.563460  1
  Y  Y2  1  0.936462  0.563460  0.935250  1
  Y  Y3  1  0.564828  0.563460  0.935250  1
  Y  Y4  1  0.936462  0.935250  0.563460  1
  Ho  Ho5  1  0.350884  0.353135  0.353135  1
  Ho  Ho6  1  0.352658  0.354372  0.940312  1
  Ho  Ho7  1  0.352658  0.940312  0.354372  1
  Ho  Ho8  1  0.942847  0.353135  0.353135  1
  Lu  Lu9  1  0.811316  0.188684  0.188684  1
  Lu  Lu10  1  0.187471  0.812529  0.812529  1
  Lu  Lu11  1  0.187399  0.811723  0.188824  1
  Lu  Lu12  1  0.812054  0.188824  0.811723  1
  Lu  Lu13  1  0.187399  0.188824  0.811723  1
  Lu  Lu14  1  0.812054  0.811723  0.188824  1
  Lu  Lu15  1  0.936529  0.563471  0.563471  1
  Cd  Cd16  1  0.582836  0.581588  0.581588  1
  Cd  Cd17  1  0.581944  0.581523  0.254590  1
  Cd  Cd18  1  0.581944  0.254590  0.581523  1
  Cd  Cd19  1  0.253990  0.581588  0.581588  1
  Pt  Pt20  1  0.143142  0.141860  0.141860  1
  Pt  Pt21  1  0.142223  0.141907  0.573647  1
  Pt  Pt22  1  0.142223  0.573647  0.141907  1
  Pt  Pt23  1  0.573139  0.141860  0.141860  1
