# generated using pymatgen
data_La10YbPr5(MgIr)4
_symmetry_space_group_name_H-M   'P 1'
_cell_length_a   10.13591982
_cell_length_b   10.14169748
_cell_length_c   10.14169735
_cell_angle_alpha   60.10608899
_cell_angle_beta   60.01884167
_cell_angle_gamma   60.01884429
_symmetry_Int_Tables_number   1
_chemical_formula_structural   La10YbPr5(MgIr)4
_chemical_formula_sum   'La10 Yb1 Pr5 Mg4 Ir4'
_cell_volume   737.97269304
_cell_formula_units_Z   1
loop_
 _symmetry_equiv_pos_site_id
 _symmetry_equiv_pos_as_xyz
  1  'x, y, z'
loop_
 _atom_site_type_symbol
 _atom_site_label
 _atom_site_symmetry_multiplicity
 _atom_site_fract_x
 _atom_site_fract_y
 _atom_site_fract_z
 _atom_site_occupancy
  La  La0  1  0.345419  0.345208  0.345208  1
  La  La1  1  0.345897  0.344936  0.963271  1
  La  La2  1  0.345897  0.963271  0.344936  1
  La  La3  1  0.964168  0.345208  0.345208  1
  La  La4  1  0.810857  0.189143  0.189143  1
  La  La5  1  0.189123  0.810877  0.810877  1
  La  La6  1  0.188508  0.811067  0.191035  1
  La  La7  1  0.809390  0.191035  0.811067  1
  La  La8  1  0.188508  0.191035  0.811067  1
  La  La9  1  0.809390  0.811067  0.191035  1
  Yb  Yb10  1  0.937780  0.562220  0.562220  1
  Pr  Pr11  1  0.564768  0.935232  0.935232  1
  Pr  Pr12  1  0.564461  0.935375  0.564295  1
  Pr  Pr13  1  0.935868  0.564295  0.935375  1
  Pr  Pr14  1  0.564461  0.564295  0.935375  1
  Pr  Pr15  1  0.935868  0.935375  0.564295  1
  Mg  Mg16  1  0.577173  0.579384  0.579384  1
  Mg  Mg17  1  0.579206  0.579221  0.262367  1
  Mg  Mg18  1  0.579206  0.262367  0.579221  1
  Mg  Mg19  1  0.264059  0.579384  0.579384  1
  Ir  Ir20  1  0.140708  0.140563  0.140563  1
  Ir  Ir21  1  0.140559  0.140460  0.578421  1
  Ir  Ir22  1  0.140559  0.578421  0.140460  1
  Ir  Ir23  1  0.578165  0.140563  0.140563  1
