# generated using pymatgen
data_Tm4ReRu7
_symmetry_space_group_name_H-M   'P 1'
_cell_length_a   5.22801306
_cell_length_b   5.39082800
_cell_length_c   8.85103100
_cell_angle_alpha   90.00000000
_cell_angle_beta   90.00000000
_cell_angle_gamma   121.03566295
_symmetry_Int_Tables_number   1
_chemical_formula_structural   Tm4ReRu7
_chemical_formula_sum   'Tm4 Re1 Ru7'
_cell_volume   213.74160038
_cell_formula_units_Z   1
loop_
 _symmetry_equiv_pos_site_id
 _symmetry_equiv_pos_as_xyz
  1  'x, y, z'
loop_
 _atom_site_type_symbol
 _atom_site_label
 _atom_site_symmetry_multiplicity
 _atom_site_fract_x
 _atom_site_fract_y
 _atom_site_fract_z
 _atom_site_occupancy
  Tm  Tm0  1  0.325972  0.662987  0.432737  1
  Tm  Tm1  1  0.651436  0.325717  0.565582  1
  Tm  Tm2  1  0.651436  0.325717  0.934418  1
  Tm  Tm3  1  0.325972  0.662987  0.067263  1
  Re  Re4  1  0.691951  0.845976  0.750000  1
  Ru  Ru5  1  0.972875  0.986438  0.500081  1
  Ru  Ru6  1  0.972875  0.986438  0.999919  1
  Ru  Ru7  1  0.837860  0.167573  0.250000  1
  Ru  Ru8  1  0.837860  0.670286  0.250000  1
  Ru  Ru9  1  0.363406  0.181703  0.250000  1
  Ru  Ru10  1  0.184179  0.823927  0.750000  1
  Ru  Ru11  1  0.184179  0.360253  0.750000  1
