# generated using pymatgen
data_Sc8CdIn(PbAu4)2
_symmetry_space_group_name_H-M   'P 1'
_cell_length_a   7.79487300
_cell_length_b   7.79487300
_cell_length_c   6.94874700
_cell_angle_alpha   90.00000000
_cell_angle_beta   90.00000000
_cell_angle_gamma   90.00000000
_symmetry_Int_Tables_number   1
_chemical_formula_structural   Sc8CdIn(PbAu4)2
_chemical_formula_sum   'Sc8 Cd1 In1 Pb2 Au8'
_cell_volume   422.20618101
_cell_formula_units_Z   1
loop_
 _symmetry_equiv_pos_site_id
 _symmetry_equiv_pos_as_xyz
  1  'x, y, z'
loop_
 _atom_site_type_symbol
 _atom_site_label
 _atom_site_symmetry_multiplicity
 _atom_site_fract_x
 _atom_site_fract_y
 _atom_site_fract_z
 _atom_site_occupancy
  Sc  Sc0  1  0.150194  0.152392  0.000778  1
  Sc  Sc1  1  0.849806  0.847608  0.000778  1
  Sc  Sc2  1  0.652392  0.349806  0.499222  1
  Sc  Sc3  1  0.347608  0.650194  0.499222  1
  Sc  Sc4  1  0.682047  0.317995  0.000627  1
  Sc  Sc5  1  0.317953  0.682005  0.000627  1
  Sc  Sc6  1  0.817995  0.817953  0.499373  1
  Sc  Sc7  1  0.182005  0.182047  0.499373  1
  Cd  Cd8  1  0.500000  0.000000  0.250000  1
  In  In9  1  0.000000  0.500000  0.750000  1
  Pb  Pb10  1  0.500000  0.000000  0.750000  1
  Pb  Pb11  1  0.000000  0.500000  0.250000  1
  Au  Au12  1  0.375697  0.363850  0.220158  1
  Au  Au13  1  0.634352  0.625499  0.779971  1
  Au  Au14  1  0.624303  0.636150  0.220158  1
  Au  Au15  1  0.874501  0.134352  0.720029  1
  Au  Au16  1  0.863850  0.124303  0.279842  1
  Au  Au17  1  0.365648  0.374501  0.779971  1
  Au  Au18  1  0.136150  0.875697  0.279842  1
  Au  Au19  1  0.125499  0.865648  0.720029  1
