# generated using pymatgen
data_Al3SiNi4
_symmetry_space_group_name_H-M   'P 1'
_cell_length_a   4.57994104
_cell_length_b   4.57985599
_cell_length_c   4.57960161
_cell_angle_alpha   89.04860236
_cell_angle_beta   90.99242832
_cell_angle_gamma   89.00632429
_symmetry_Int_Tables_number   1
_chemical_formula_structural   Al3SiNi4
_chemical_formula_sum   'Al3 Si1 Ni4'
_cell_volume   96.01671437
_cell_formula_units_Z   1
loop_
 _symmetry_equiv_pos_site_id
 _symmetry_equiv_pos_as_xyz
  1  'x, y, z'
loop_
 _atom_site_type_symbol
 _atom_site_label
 _atom_site_symmetry_multiplicity
 _atom_site_fract_x
 _atom_site_fract_y
 _atom_site_fract_z
 _atom_site_occupancy
  Al  Al0  1  0.350472  0.656824  0.157829  1
  Al  Al1  1  0.657827  0.149403  0.343237  1
  Al  Al2  1  0.843235  0.842086  0.850520  1
  Si  Si3  1  0.156202  0.343873  0.656201  1
  Ni  Ni4  1  0.861889  0.637916  0.361851  1
  Ni  Ni5  1  0.641416  0.353961  0.843114  1
  Ni  Ni6  1  0.342996  0.858817  0.645969  1
  Ni  Ni7  1  0.145963  0.157120  0.141279  1
