# generated using pymatgen
data_Tb9Y7Cd4RuPt3
_symmetry_space_group_name_H-M   'P 1'
_cell_length_a   9.73714625
_cell_length_b   9.73714608
_cell_length_c   9.73655257
_cell_angle_alpha   59.60436707
_cell_angle_beta   59.60436736
_cell_angle_gamma   59.65117562
_symmetry_Int_Tables_number   1
_chemical_formula_structural   Tb9Y7Cd4RuPt3
_chemical_formula_sum   'Tb9 Y7 Cd4 Ru1 Pt3'
_cell_volume   647.12218109
_cell_formula_units_Z   1
loop_
 _symmetry_equiv_pos_site_id
 _symmetry_equiv_pos_as_xyz
  1  'x, y, z'
loop_
 _atom_site_type_symbol
 _atom_site_label
 _atom_site_symmetry_multiplicity
 _atom_site_fract_x
 _atom_site_fract_y
 _atom_site_fract_z
 _atom_site_occupancy
  Tb  Tb0  1  0.352009  0.352009  0.352054  1
  Tb  Tb1  1  0.349361  0.349361  0.948983  1
  Tb  Tb2  1  0.349244  0.949271  0.349011  1
  Tb  Tb3  1  0.949271  0.349244  0.349011  1
  Tb  Tb4  1  0.814755  0.188744  0.189118  1
  Tb  Tb5  1  0.189194  0.809437  0.809791  1
  Tb  Tb6  1  0.188744  0.814755  0.189118  1
  Tb  Tb7  1  0.809437  0.189194  0.809791  1
  Tb  Tb8  1  0.189196  0.189196  0.814663  1
  Y  Y9  1  0.809218  0.809218  0.189560  1
  Y  Y10  1  0.935520  0.564907  0.564931  1
  Y  Y11  1  0.560725  0.936177  0.936233  1
  Y  Y12  1  0.564907  0.935520  0.564931  1
  Y  Y13  1  0.936177  0.560725  0.936233  1
  Y  Y14  1  0.564778  0.564778  0.936049  1
  Y  Y15  1  0.936335  0.936335  0.560758  1
  Cd  Cd16  1  0.580629  0.580629  0.580158  1
  Cd  Cd17  1  0.581768  0.581768  0.254138  1
  Cd  Cd18  1  0.581466  0.254328  0.581609  1
  Cd  Cd19  1  0.254328  0.581466  0.581609  1
  Ru  Ru20  1  0.143067  0.143067  0.142942  1
  Pt  Pt21  1  0.143651  0.143651  0.572099  1
  Pt  Pt22  1  0.144314  0.571906  0.143604  1
  Pt  Pt23  1  0.571906  0.144314  0.143604  1
