# generated using pymatgen
data_DyHo3V4(WO6)4
_symmetry_space_group_name_H-M   'P 1'
_cell_length_a   5.22099403
_cell_length_b   7.42784105
_cell_length_c   11.17483610
_cell_angle_alpha   89.98914789
_cell_angle_beta   89.98963693
_cell_angle_gamma   90.00680321
_symmetry_Int_Tables_number   1
_chemical_formula_structural   DyHo3V4(WO6)4
_chemical_formula_sum   'Dy1 Ho3 V4 W4 O24'
_cell_volume   433.36810206
_cell_formula_units_Z   1
loop_
 _symmetry_equiv_pos_site_id
 _symmetry_equiv_pos_as_xyz
  1  'x, y, z'
loop_
 _atom_site_type_symbol
 _atom_site_label
 _atom_site_symmetry_multiplicity
 _atom_site_fract_x
 _atom_site_fract_y
 _atom_site_fract_z
 _atom_site_occupancy
  Dy  Dy0  1  0.544019  0.250849  0.045219  1
  Ho  Ho1  1  0.044563  0.750946  0.454803  1
  Ho  Ho2  1  0.955443  0.250925  0.545211  1
  Ho  Ho3  1  0.455398  0.750930  0.954740  1
  V  V4  1  0.050404  0.997651  0.134094  1
  V  V5  1  0.550498  0.497821  0.366015  1
  V  V6  1  0.449492  0.997798  0.634048  1
  V  V7  1  0.949505  0.497978  0.865864  1
  W  W8  1  0.056400  0.506256  0.143838  1
  W  W9  1  0.556547  0.005956  0.356352  1
  W  W10  1  0.443535  0.506035  0.643783  1
  W  W11  1  0.943450  0.005894  0.856096  1
  O  O12  1  0.755454  0.959269  0.019882  1
  O  O13  1  0.764125  0.547210  0.029703  1
  O  O14  1  0.181722  0.749498  0.115556  1
  O  O15  1  0.933439  0.258140  0.143330  1
  O  O16  1  0.375809  0.432507  0.206149  1
  O  O17  1  0.393041  0.068752  0.213330  1
  O  O18  1  0.893227  0.569051  0.286888  1
  O  O19  1  0.876048  0.932138  0.294096  1
  O  O20  1  0.432348  0.758153  0.356890  1
  O  O21  1  0.681618  0.249423  0.384452  1
  O  O22  1  0.263922  0.046904  0.470277  1
  O  O23  1  0.255221  0.459689  0.480054  1
  O  O24  1  0.744811  0.959675  0.519940  1
  O  O25  1  0.736109  0.546911  0.529747  1
  O  O26  1  0.318379  0.749411  0.615522  1
  O  O27  1  0.567652  0.258163  0.643120  1
  O  O28  1  0.123974  0.432141  0.705886  1
  O  O29  1  0.106756  0.068992  0.713052  1
  O  O30  1  0.606586  0.569021  0.786882  1
  O  O31  1  0.623858  0.932121  0.794128  1
  O  O32  1  0.067721  0.758113  0.856817  1
  O  O33  1  0.819237  0.249398  0.884052  1
  O  O34  1  0.235521  0.046432  0.970187  1
  O  O35  1  0.244169  0.460244  0.979991  1
