# generated using pymatgen
data_CsBi(PO3)4
_symmetry_space_group_name_H-M   'P 1'
_cell_length_a   9.13806400
_cell_length_b   10.64252234
_cell_length_c   13.16750000
_cell_angle_alpha   56.28383502
_cell_angle_beta   90.00000000
_cell_angle_gamma   90.00000000
_symmetry_Int_Tables_number   1
_chemical_formula_structural   CsBi(PO3)4
_chemical_formula_sum   'Cs4 Bi4 P16 O48'
_cell_volume   1065.17196973
_cell_formula_units_Z   4
loop_
 _symmetry_equiv_pos_site_id
 _symmetry_equiv_pos_as_xyz
  1  'x, y, z'
loop_
 _atom_site_type_symbol
 _atom_site_label
 _atom_site_symmetry_multiplicity
 _atom_site_fract_x
 _atom_site_fract_y
 _atom_site_fract_z
 _atom_site_occupancy
  Cs  Cs0  1  0.437104  0.773971  0.038950  1
  Cs  Cs1  1  0.062896  0.773971  0.538950  1
  Cs  Cs2  1  0.562896  0.226029  0.961050  1
  Cs  Cs3  1  0.937104  0.226029  0.461050  1
  Bi  Bi4  1  0.722292  0.684032  0.319705  1
  Bi  Bi5  1  0.777708  0.684032  0.819705  1
  Bi  Bi6  1  0.277708  0.315968  0.680295  1
  Bi  Bi7  1  0.222292  0.315968  0.180295  1
  P  P8  1  0.324955  0.673512  0.365090  1
  P  P9  1  0.175045  0.673512  0.865090  1
  P  P10  1  0.675045  0.326488  0.634910  1
  P  P11  1  0.824955  0.326488  0.134910  1
  P  P12  1  0.530438  0.035058  0.713565  1
  P  P13  1  0.969562  0.035058  0.213565  1
  P  P14  1  0.469562  0.964942  0.286435  1
  P  P15  1  0.030438  0.964942  0.786435  1
  P  P16  1  0.894832  0.798617  0.026455  1
  P  P17  1  0.605168  0.798617  0.526455  1
  P  P18  1  0.105168  0.201383  0.973545  1
  P  P19  1  0.394832  0.201383  0.473545  1
  P  P20  1  0.091308  0.612624  0.242710  1
  P  P21  1  0.408692  0.612624  0.742710  1
  P  P22  1  0.908692  0.387376  0.757290  1
  P  P23  1  0.591308  0.387376  0.257290  1
  O  O24  1  0.597292  0.881339  0.791959  1
  O  O25  1  0.902708  0.881339  0.291959  1
  O  O26  1  0.402708  0.118661  0.208041  1
  O  O27  1  0.097292  0.118661  0.708041  1
  O  O28  1  0.460686  0.049176  0.593881  1
  O  O29  1  0.039314  0.049176  0.093881  1
  O  O30  1  0.539314  0.950824  0.406119  1
  O  O31  1  0.960686  0.950824  0.906119  1
  O  O32  1  0.419511  0.077246  0.774942  1
  O  O33  1  0.080489  0.077246  0.274942  1
  O  O34  1  0.580489  0.922754  0.225058  1
  O  O35  1  0.919511  0.922754  0.725058  1
  O  O36  1  0.464757  0.630072  0.331845  1
  O  O37  1  0.035243  0.630072  0.831845  1
  O  O38  1  0.535243  0.369928  0.668155  1
  O  O39  1  0.964757  0.369928  0.168155  1
  O  O40  1  0.660570  0.697361  0.488577  1
  O  O41  1  0.839430  0.697361  0.988577  1
  O  O42  1  0.339430  0.302639  0.511423  1
  O  O43  1  0.160570  0.302639  0.011423  1
  O  O44  1  0.791029  0.839674  0.092061  1
  O  O45  1  0.708971  0.839674  0.592061  1
  O  O46  1  0.208971  0.160326  0.907939  1
  O  O47  1  0.291029  0.160326  0.407939  1
  O  O48  1  0.744420  0.428329  0.511851  1
  O  O49  1  0.755580  0.428329  0.011851  1
  O  O50  1  0.255580  0.571671  0.488149  1
  O  O51  1  0.244420  0.571671  0.988149  1
  O  O52  1  0.206444  0.719224  0.257329  1
  O  O53  1  0.293556  0.719224  0.757329  1
  O  O54  1  0.793556  0.280776  0.742671  1
  O  O55  1  0.706444  0.280776  0.242671  1
  O  O56  1  0.047367  0.731883  0.101711  1
  O  O57  1  0.452633  0.731883  0.601711  1
  O  O58  1  0.952633  0.268117  0.898289  1
  O  O59  1  0.547367  0.268117  0.398289  1
  O  O60  1  0.675724  0.515254  0.246471  1
  O  O61  1  0.824276  0.515254  0.746471  1
  O  O62  1  0.324276  0.484746  0.753529  1
  O  O63  1  0.175724  0.484746  0.253529  1
  O  O64  1  0.962074  0.576285  0.325227  1
  O  O65  1  0.537926  0.576285  0.825227  1
  O  O66  1  0.037926  0.423715  0.674773  1
  O  O67  1  0.462074  0.423715  0.174773  1
  O  O68  1  0.659629  0.161928  0.654442  1
  O  O69  1  0.840371  0.161928  0.154442  1
  O  O70  1  0.340371  0.838072  0.345558  1
  O  O71  1  0.159629  0.838072  0.845558  1
