# generated using pymatgen
data_La2CeCo3Si7
_symmetry_space_group_name_H-M   'P 1'
_cell_length_a   13.13589800
_cell_length_b   13.13589839
_cell_length_c   4.17053700
_cell_angle_alpha   90.00000000
_cell_angle_beta   90.00000000
_cell_angle_gamma   161.88383967
_symmetry_Int_Tables_number   1
_chemical_formula_structural   La2CeCo3Si7
_chemical_formula_sum   'La2 Ce1 Co3 Si7'
_cell_volume   223.76616628
_cell_formula_units_Z   1
loop_
 _symmetry_equiv_pos_site_id
 _symmetry_equiv_pos_as_xyz
  1  'x, y, z'
loop_
 _atom_site_type_symbol
 _atom_site_label
 _atom_site_symmetry_multiplicity
 _atom_site_fract_x
 _atom_site_fract_y
 _atom_site_fract_z
 _atom_site_occupancy
  La  La0  1  0.685061  0.314939  0.500000  1
  La  La1  1  0.319320  0.680680  0.500000  1
  Ce  Ce2  1  0.002386  0.997614  0.000000  1
  Co  Co3  1  0.866719  0.133281  0.000000  1
  Co  Co4  1  0.131798  0.868202  0.000000  1
  Co  Co5  1  0.451835  0.548165  0.500000  1
  Si  Si6  1  0.592502  0.407498  0.000000  1
  Si  Si7  1  0.410938  0.589062  0.000000  1
  Si  Si8  1  0.775963  0.224037  0.000000  1
  Si  Si9  1  0.224944  0.775056  0.000000  1
  Si  Si10  1  0.910137  0.089863  0.500000  1
  Si  Si11  1  0.092075  0.907925  0.500000  1
  Si  Si12  1  0.536325  0.463675  0.500000  1
