# generated using pymatgen
data_Tm6Al24Ir3Ru3Pt2
_symmetry_space_group_name_H-M   'P 1'
_cell_length_a   8.80023404
_cell_length_b   8.80608358
_cell_length_c   9.45227644
_cell_angle_alpha   90.08404158
_cell_angle_beta   89.68663124
_cell_angle_gamma   119.93533922
_symmetry_Int_Tables_number   1
_chemical_formula_structural   Tm6Al24Ir3Ru3Pt2
_chemical_formula_sum   'Tm6 Al24 Ir3 Ru3 Pt2'
_cell_volume   634.77485838
_cell_formula_units_Z   1
loop_
 _symmetry_equiv_pos_site_id
 _symmetry_equiv_pos_as_xyz
  1  'x, y, z'
loop_
 _atom_site_type_symbol
 _atom_site_label
 _atom_site_symmetry_multiplicity
 _atom_site_fract_x
 _atom_site_fract_y
 _atom_site_fract_z
 _atom_site_occupancy
  Tm  Tm0  1  0.806863  0.191678  0.750895  1
  Tm  Tm1  1  0.193137  0.808322  0.249105  1
  Tm  Tm2  1  0.385268  0.191249  0.748516  1
  Tm  Tm3  1  0.614732  0.808751  0.251484  1
  Tm  Tm4  1  0.808448  0.615459  0.749399  1
  Tm  Tm5  1  0.191552  0.384541  0.250601  1
  Al  Al6  1  0.663553  0.332055  0.968125  1
  Al  Al7  1  0.336447  0.667945  0.031875  1
  Al  Al8  1  0.329292  0.666930  0.469282  1
  Al  Al9  1  0.670708  0.333070  0.530718  1
  Al  Al10  1  0.838258  0.164802  0.423733  1
  Al  Al11  1  0.161742  0.835198  0.576267  1
  Al  Al12  1  0.325101  0.159160  0.423282  1
  Al  Al13  1  0.165822  0.840824  0.922351  1
  Al  Al14  1  0.674899  0.840840  0.576718  1
  Al  Al15  1  0.834178  0.159176  0.077649  1
  Al  Al16  1  0.842819  0.675128  0.423389  1
  Al  Al17  1  0.674159  0.836793  0.923521  1
  Al  Al18  1  0.157181  0.324872  0.576611  1
  Al  Al19  1  0.325841  0.163207  0.076479  1
  Al  Al20  1  0.165849  0.324326  0.922700  1
  Al  Al21  1  0.834151  0.675674  0.077300  1
  Al  Al22  1  0.437483  0.562912  0.752356  1
  Al  Al23  1  0.562517  0.437088  0.247644  1
  Al  Al24  1  0.123876  0.561712  0.746211  1
  Al  Al25  1  0.876124  0.438288  0.253789  1
  Al  Al26  1  0.438334  0.875864  0.750312  1
  Al  Al27  1  0.561666  0.124136  0.249688  1
  Al  Al28  1  0.000869  0.999668  0.749994  1
  Al  Al29  1  0.999131  0.000332  0.250006  1
  Ir  Ir30  1  0.500000  0.500000  0.000000  1
  Ir  Ir31  1  0.500000  0.000000  0.000000  1
  Ir  Ir32  1  0.500000  0.000000  0.500000  1
  Ru  Ru33  1  0.000000  0.500000  0.500000  1
  Ru  Ru34  1  0.000000  0.000000  0.000000  1
  Ru  Ru35  1  0.000000  0.000000  0.500000  1
  Pt  Pt36  1  0.000000  0.500000  0.000000  1
  Pt  Pt37  1  0.500000  0.500000  0.500000  1
