# generated using pymatgen
data_ZrPa2Ga5
_symmetry_space_group_name_H-M   'P 1'
_cell_length_a   5.93328166
_cell_length_b   5.93328323
_cell_length_c   9.37189700
_cell_angle_alpha   90.00000000
_cell_angle_beta   90.00000000
_cell_angle_gamma   103.02224264
_symmetry_Int_Tables_number   1
_chemical_formula_structural   ZrPa2Ga5
_chemical_formula_sum   'Zr2 Pa4 Ga10'
_cell_volume   321.44193045
_cell_formula_units_Z   2
loop_
 _symmetry_equiv_pos_site_id
 _symmetry_equiv_pos_as_xyz
  1  'x, y, z'
loop_
 _atom_site_type_symbol
 _atom_site_label
 _atom_site_symmetry_multiplicity
 _atom_site_fract_x
 _atom_site_fract_y
 _atom_site_fract_z
 _atom_site_occupancy
  Zr  Zr0  1  0.643058  0.643058  0.250000  1
  Zr  Zr1  1  0.356942  0.356942  0.750000  1
  Pa  Pa2  1  0.793760  0.206240  0.000000  1
  Pa  Pa3  1  0.206240  0.793760  0.000000  1
  Pa  Pa4  1  0.206240  0.793760  0.500000  1
  Pa  Pa5  1  0.793760  0.206240  0.500000  1
  Ga  Ga6  1  0.076532  0.485054  0.250000  1
  Ga  Ga7  1  0.923468  0.514946  0.750000  1
  Ga  Ga8  1  0.485054  0.076532  0.250000  1
  Ga  Ga9  1  0.514946  0.923468  0.750000  1
  Ga  Ga10  1  0.021167  0.021167  0.250000  1
  Ga  Ga11  1  0.978833  0.978833  0.750000  1
  Ga  Ga12  1  0.319005  0.319005  0.051040  1
  Ga  Ga13  1  0.680995  0.680995  0.948960  1
  Ga  Ga14  1  0.680995  0.680995  0.551040  1
  Ga  Ga15  1  0.319005  0.319005  0.448960  1
