# generated using pymatgen
data_Na4Ca2GeAs4
_symmetry_space_group_name_H-M   'P 1'
_cell_length_a   9.53765539
_cell_length_b   9.53765451
_cell_length_c   7.19576671
_cell_angle_alpha   89.03895493
_cell_angle_beta   89.03895742
_cell_angle_gamma   119.64496701
_symmetry_Int_Tables_number   1
_chemical_formula_structural   Na4Ca2GeAs4
_chemical_formula_sum   'Na8 Ca4 Ge2 As8'
_cell_volume   568.58009555
_cell_formula_units_Z   2
loop_
 _symmetry_equiv_pos_site_id
 _symmetry_equiv_pos_as_xyz
  1  'x, y, z'
loop_
 _atom_site_type_symbol
 _atom_site_label
 _atom_site_symmetry_multiplicity
 _atom_site_fract_x
 _atom_site_fract_y
 _atom_site_fract_z
 _atom_site_occupancy
  Na  Na0  1  0.475023  0.946053  0.384816  1
  Na  Na1  1  0.946053  0.475023  0.884816  1
  Na  Na2  1  0.859128  0.712660  0.181545  1
  Na  Na3  1  0.293492  0.139852  0.211526  1
  Na  Na4  1  0.848368  0.142592  0.197829  1
  Na  Na5  1  0.139852  0.293492  0.711526  1
  Na  Na6  1  0.712660  0.859128  0.681545  1
  Na  Na7  1  0.142592  0.848368  0.697829  1
  Ca  Ca8  1  0.049424  0.525925  0.384656  1
  Ca  Ca9  1  0.480464  0.527494  0.381560  1
  Ca  Ca10  1  0.525925  0.049424  0.884656  1
  Ca  Ca11  1  0.527494  0.480464  0.881560  1
  Ge  Ge12  1  0.662870  0.329532  0.498698  1
  Ge  Ge13  1  0.329532  0.662870  0.998698  1
  As  As14  1  0.197234  0.382038  0.126699  1
  As  As15  1  0.617011  0.805549  0.093114  1
  As  As16  1  0.195956  0.811220  0.107305  1
  As  As17  1  0.805549  0.617011  0.593114  1
  As  As18  1  0.382038  0.197234  0.626699  1
  As  As19  1  0.811220  0.195956  0.607305  1
  As  As20  1  0.661907  0.336055  0.152231  1
  As  As21  1  0.336055  0.661907  0.652231  1
