# generated using pymatgen
data_BaDyZn3GaO7
_symmetry_space_group_name_H-M   'P 1'
_cell_length_a   6.41415000
_cell_length_b   6.41416644
_cell_length_c   10.43282000
_cell_angle_alpha   90.00000000
_cell_angle_beta   90.00000000
_cell_angle_gamma   120.00005503
_symmetry_Int_Tables_number   1
_chemical_formula_structural   BaDyZn3GaO7
_chemical_formula_sum   'Ba2 Dy2 Zn6 Ga2 O14'
_cell_volume   371.71616037
_cell_formula_units_Z   2
loop_
 _symmetry_equiv_pos_site_id
 _symmetry_equiv_pos_as_xyz
  1  'x, y, z'
loop_
 _atom_site_type_symbol
 _atom_site_label
 _atom_site_symmetry_multiplicity
 _atom_site_fract_x
 _atom_site_fract_y
 _atom_site_fract_z
 _atom_site_occupancy
  Ba  Ba0  1  0.666678  0.333354  0.468234  1
  Ba  Ba1  1  0.333320  0.666645  0.968234  1
  Dy  Dy2  1  0.333332  0.666667  0.316228  1
  Dy  Dy3  1  0.666668  0.333334  0.816228  1
  Zn  Zn4  1  0.829024  0.657846  0.132036  1
  Zn  Zn5  1  0.828819  0.170972  0.132038  1
  Zn  Zn6  1  0.342154  0.171176  0.132036  1
  Zn  Zn7  1  0.170978  0.342155  0.632036  1
  Zn  Zn8  1  0.171182  0.829028  0.632036  1
  Zn  Zn9  1  0.657845  0.828825  0.632036  1
  Ga  Ga10  1  0.000000  0.999997  0.381802  1
  Ga  Ga11  1  0.000000  0.000003  0.881802  1
  O  O12  1  0.016135  0.507948  0.182046  1
  O  O13  1  0.492048  0.508183  0.182046  1
  O  O14  1  0.491810  0.983859  0.182044  1
  O  O15  1  0.999999  0.999999  0.200532  1
  O  O16  1  0.681403  0.839794  0.438653  1
  O  O17  1  0.158397  0.318596  0.438654  1
  O  O18  1  0.160193  0.841595  0.438654  1
  O  O19  1  0.983866  0.492053  0.682046  1
  O  O20  1  0.508190  0.016141  0.682044  1
  O  O21  1  0.507950  0.491816  0.682046  1
  O  O22  1  0.000001  0.000001  0.700532  1
  O  O23  1  0.841604  0.681405  0.938652  1
  O  O24  1  0.318598  0.160207  0.938653  1
  O  O25  1  0.839810  0.158406  0.938652  1
