# generated using pymatgen
data_CaCdGaPt3
_symmetry_space_group_name_H-M   'P 1'
_cell_length_a   5.54102688
_cell_length_b   5.54102785
_cell_length_c   5.22695200
_cell_angle_alpha   57.99157911
_cell_angle_beta   57.99158507
_cell_angle_gamma   59.99999440
_symmetry_Int_Tables_number   1
_chemical_formula_structural   CaCdGaPt3
_chemical_formula_sum   'Ca1 Cd1 Ga1 Pt3'
_cell_volume   109.91077782
_cell_formula_units_Z   1
loop_
 _symmetry_equiv_pos_site_id
 _symmetry_equiv_pos_as_xyz
  1  'x, y, z'
loop_
 _atom_site_type_symbol
 _atom_site_label
 _atom_site_symmetry_multiplicity
 _atom_site_fract_x
 _atom_site_fract_y
 _atom_site_fract_z
 _atom_site_occupancy
  Ca  Ca0  1  0.003699  0.003699  0.988904  1
  Cd  Cd1  1  0.252020  0.252020  0.243938  1
  Ga  Ga2  1  0.622936  0.622936  0.131192  1
  Pt  Pt3  1  0.623551  0.124244  0.628656  1
  Pt  Pt4  1  0.124244  0.623551  0.628656  1
  Pt  Pt5  1  0.623551  0.623551  0.628656  1
