# generated using pymatgen
data_HoEr9Cd2In2(HgPd)4
_symmetry_space_group_name_H-M   'P 1'
_cell_length_a   3.60133600
_cell_length_b   7.97628407
_cell_length_c   18.24689500
_cell_angle_alpha   90.00767173
_cell_angle_beta   90.00000000
_cell_angle_gamma   90.00000000
_symmetry_Int_Tables_number   1
_chemical_formula_structural   HoEr9Cd2In2(HgPd)4
_chemical_formula_sum   'Ho1 Er9 Cd2 In2 Hg4 Pd4'
_cell_volume   524.14714457
_cell_formula_units_Z   1
loop_
 _symmetry_equiv_pos_site_id
 _symmetry_equiv_pos_as_xyz
  1  'x, y, z'
loop_
 _atom_site_type_symbol
 _atom_site_label
 _atom_site_symmetry_multiplicity
 _atom_site_fract_x
 _atom_site_fract_y
 _atom_site_fract_z
 _atom_site_occupancy
  Ho  Ho0  1  0.000000  0.500000  0.500000  1
  Er  Er1  1  0.000000  0.000000  0.000000  1
  Er  Er2  1  0.000000  0.740489  0.284409  1
  Er  Er3  1  0.000000  0.259511  0.715591  1
  Er  Er4  1  0.000000  0.755336  0.783477  1
  Er  Er5  1  0.000000  0.244664  0.216523  1
  Er  Er6  1  0.000000  0.610200  0.083522  1
  Er  Er7  1  0.000000  0.389800  0.916478  1
  Er  Er8  1  0.000000  0.889138  0.583410  1
  Er  Er9  1  0.000000  0.110862  0.416590  1
  Cd  Cd10  1  0.500000  0.580571  0.649117  1
  Cd  Cd11  1  0.500000  0.419429  0.350883  1
  In  In12  1  0.500000  0.920327  0.149145  1
  In  In13  1  0.500000  0.079673  0.850855  1
  Hg  Hg14  1  0.500000  0.713113  0.934453  1
  Hg  Hg15  1  0.500000  0.286887  0.065547  1
  Hg  Hg16  1  0.500000  0.785213  0.433885  1
  Hg  Hg17  1  0.500000  0.214787  0.566115  1
  Pd  Pd18  1  0.500000  0.531510  0.197032  1
  Pd  Pd19  1  0.500000  0.468490  0.802968  1
  Pd  Pd20  1  0.500000  0.968614  0.697729  1
  Pd  Pd21  1  0.500000  0.031386  0.302271  1
