# generated using pymatgen
data_Lu16Tl6ZnOs
_symmetry_space_group_name_H-M   'P 1'
_cell_length_a   10.31515400
_cell_length_b   10.31515451
_cell_length_c   6.79829900
_cell_angle_alpha   90.00000000
_cell_angle_beta   90.00000000
_cell_angle_gamma   119.99999836
_symmetry_Int_Tables_number   1
_chemical_formula_structural   Lu16Tl6ZnOs
_chemical_formula_sum   'Lu16 Tl6 Zn1 Os1'
_cell_volume   626.44414488
_cell_formula_units_Z   1
loop_
 _symmetry_equiv_pos_site_id
 _symmetry_equiv_pos_as_xyz
  1  'x, y, z'
loop_
 _atom_site_type_symbol
 _atom_site_label
 _atom_site_symmetry_multiplicity
 _atom_site_fract_x
 _atom_site_fract_y
 _atom_site_fract_z
 _atom_site_occupancy
  Lu  Lu0  1  0.466873  0.533127  0.479912  1
  Lu  Lu1  1  0.066254  0.533127  0.479912  1
  Lu  Lu2  1  0.466873  0.933746  0.479912  1
  Lu  Lu3  1  0.522983  0.477017  0.974480  1
  Lu  Lu4  1  0.954033  0.477017  0.974480  1
  Lu  Lu5  1  0.522983  0.045967  0.974480  1
  Lu  Lu6  1  0.826296  0.173704  0.272436  1
  Lu  Lu7  1  0.347407  0.173704  0.272436  1
  Lu  Lu8  1  0.826296  0.652593  0.272436  1
  Lu  Lu9  1  0.177146  0.822854  0.771192  1
  Lu  Lu10  1  0.645708  0.822854  0.771192  1
  Lu  Lu11  1  0.177146  0.354292  0.771192  1
  Lu  Lu12  1  0.333333  0.666667  0.104932  1
  Lu  Lu13  1  0.666667  0.333333  0.620440  1
  Lu  Lu14  1  0.000000  0.000000  0.494488  1
  Lu  Lu15  1  0.000000  0.000000  0.001084  1
  Tl  Tl16  1  0.161828  0.838172  0.236999  1
  Tl  Tl17  1  0.676344  0.838172  0.236999  1
  Tl  Tl18  1  0.161828  0.323656  0.236999  1
  Tl  Tl19  1  0.835277  0.164723  0.739696  1
  Tl  Tl20  1  0.329444  0.164723  0.739696  1
  Tl  Tl21  1  0.835277  0.670556  0.739696  1
  Zn  Zn22  1  0.666667  0.333333  0.194107  1
  Os  Os23  1  0.333333  0.666667  0.705362  1
