# generated using pymatgen
data_Eu4ScTi2MoO14
_symmetry_space_group_name_H-M   'P 1'
_cell_length_a   7.44946836
_cell_length_b   7.41666281
_cell_length_c   7.44946758
_cell_angle_alpha   59.24443140
_cell_angle_beta   59.35272234
_cell_angle_gamma   59.24443131
_symmetry_Int_Tables_number   1
_chemical_formula_structural   Eu4ScTi2MoO14
_chemical_formula_sum   'Eu4 Sc1 Ti2 Mo1 O14'
_cell_volume   286.26511680
_cell_formula_units_Z   1
loop_
 _symmetry_equiv_pos_site_id
 _symmetry_equiv_pos_as_xyz
  1  'x, y, z'
loop_
 _atom_site_type_symbol
 _atom_site_label
 _atom_site_symmetry_multiplicity
 _atom_site_fract_x
 _atom_site_fract_y
 _atom_site_fract_z
 _atom_site_occupancy
  Eu  Eu0  1  0.625000  0.125000  0.125000  1
  Eu  Eu1  1  0.125000  0.625000  0.125000  1
  Eu  Eu2  1  0.125000  0.125000  0.625000  1
  Eu  Eu3  1  0.125000  0.125000  0.125000  1
  Sc  Sc4  1  0.625000  0.125000  0.625000  1
  Ti  Ti5  1  0.125000  0.625000  0.625000  1
  Ti  Ti6  1  0.625000  0.625000  0.125000  1
  Mo  Mo7  1  0.625000  0.625000  0.625000  1
  O  O8  1  0.249550  0.253064  0.249550  1
  O  O9  1  0.000450  0.996936  0.000450  1
  O  O10  1  0.697929  0.684506  0.313714  1
  O  O11  1  0.280248  0.302945  0.705663  1
  O  O12  1  0.704072  0.307879  0.704072  1
  O  O13  1  0.304823  0.684888  0.304823  1
  O  O14  1  0.313714  0.684506  0.697929  1
  O  O15  1  0.705663  0.302945  0.280248  1
  O  O16  1  0.552071  0.565494  0.936286  1
  O  O17  1  0.969752  0.947055  0.544337  1
  O  O18  1  0.545928  0.942121  0.545928  1
  O  O19  1  0.945177  0.565112  0.945177  1
  O  O20  1  0.936286  0.565494  0.552071  1
  O  O21  1  0.544337  0.947055  0.969752  1
