# generated using pymatgen
data_TmLu3Al17SiRh6
_symmetry_space_group_name_H-M   'P 1'
_cell_length_a   7.51823540
_cell_length_b   7.49575777
_cell_length_c   9.37920621
_cell_angle_alpha   89.99617333
_cell_angle_beta   89.92125879
_cell_angle_gamma   119.51890915
_symmetry_Int_Tables_number   1
_chemical_formula_structural   TmLu3Al17SiRh6
_chemical_formula_sum   'Tm1 Lu3 Al17 Si1 Rh6'
_cell_volume   459.95212747
_cell_formula_units_Z   1
loop_
 _symmetry_equiv_pos_site_id
 _symmetry_equiv_pos_as_xyz
  1  'x, y, z'
loop_
 _atom_site_type_symbol
 _atom_site_label
 _atom_site_symmetry_multiplicity
 _atom_site_fract_x
 _atom_site_fract_y
 _atom_site_fract_z
 _atom_site_occupancy
  Tm  Tm0  1  0.993712  0.663978  0.247176  1
  Lu  Lu1  1  0.005490  0.327836  0.755817  1
  Lu  Lu2  1  0.678778  0.004429  0.246784  1
  Lu  Lu3  1  0.326333  0.005002  0.749935  1
  Al  Al4  1  0.127734  0.127634  0.249428  1
  Al  Al5  1  0.870621  0.872827  0.749365  1
  Al  Al6  1  0.998544  0.668354  0.921680  1
  Al  Al7  1  0.000098  0.664569  0.576336  1
  Al  Al8  1  0.335106  0.998555  0.423159  1
  Al  Al9  1  0.001796  0.335156  0.429503  1
  Al  Al10  1  0.663992  0.000413  0.575966  1
  Al  Al11  1  0.658668  0.995273  0.921423  1
  Al  Al12  1  0.334535  0.998480  0.076764  1
  Al  Al13  1  0.333940  0.332591  0.553523  1
  Al  Al14  1  0.668656  0.669644  0.447005  1
  Al  Al15  1  0.667612  0.669202  0.054325  1
  Al  Al16  1  0.336591  0.333048  0.947714  1
  Al  Al17  1  0.341496  0.552894  0.250275  1
  Al  Al18  1  0.660625  0.447690  0.750213  1
  Al  Al19  1  0.546904  0.339850  0.249542  1
  Al  Al20  1  0.447930  0.657424  0.749399  1
  Si  Si21  1  0.001916  0.335457  0.076577  1
  Rh  Rh22  1  0.680882  0.327871  0.001953  1
  Rh  Rh23  1  0.318142  0.663304  0.999442  1
  Rh  Rh24  1  0.327008  0.671498  0.499561  1
  Rh  Rh25  1  0.673358  0.327826  0.498208  1
  Rh  Rh26  1  0.998837  0.008208  0.999375  1
  Rh  Rh27  1  0.000698  0.000987  0.499558  1
