# generated using pymatgen
data_Dy18Lu2Si15Rh
_symmetry_space_group_name_H-M   'P 1'
_cell_length_a   7.41784562
_cell_length_b   7.65448538
_cell_length_c   14.54213431
_cell_angle_alpha   89.67194323
_cell_angle_beta   89.61294178
_cell_angle_gamma   90.16886346
_symmetry_Int_Tables_number   1
_chemical_formula_structural   Dy18Lu2Si15Rh
_chemical_formula_sum   'Dy18 Lu2 Si15 Rh1'
_cell_volume   825.66328893
_cell_formula_units_Z   1
loop_
 _symmetry_equiv_pos_site_id
 _symmetry_equiv_pos_as_xyz
  1  'x, y, z'
loop_
 _atom_site_type_symbol
 _atom_site_label
 _atom_site_symmetry_multiplicity
 _atom_site_fract_x
 _atom_site_fract_y
 _atom_site_fract_z
 _atom_site_occupancy
  Dy  Dy0  1  0.848184  0.487771  0.757957  1
  Dy  Dy1  1  0.353393  0.009646  0.752376  1
  Dy  Dy2  1  0.975258  0.817301  0.098530  1
  Dy  Dy3  1  0.471157  0.682746  0.400678  1
  Dy  Dy4  1  0.528509  0.321173  0.901108  1
  Dy  Dy5  1  0.030041  0.184545  0.599494  1
  Dy  Dy6  1  0.028805  0.184610  0.902084  1
  Dy  Dy7  1  0.529934  0.317664  0.598424  1
  Dy  Dy8  1  0.473407  0.682250  0.100443  1
  Dy  Dy9  1  0.969469  0.817501  0.399538  1
  Dy  Dy10  1  0.683969  0.812171  0.882993  1
  Dy  Dy11  1  0.179167  0.681688  0.621439  1
  Dy  Dy12  1  0.816861  0.334523  0.118330  1
  Dy  Dy13  1  0.314374  0.176979  0.375492  1
  Dy  Dy14  1  0.320735  0.179276  0.124258  1
  Dy  Dy15  1  0.818504  0.319998  0.376593  1
  Dy  Dy16  1  0.176499  0.675517  0.878852  1
  Dy  Dy17  1  0.683177  0.819048  0.622122  1
  Lu  Lu18  1  0.648385  0.992988  0.248765  1
  Lu  Lu19  1  0.148172  0.510291  0.247860  1
  Si  Si20  1  0.766643  0.631830  0.251334  1
  Si  Si21  1  0.267075  0.869262  0.250552  1
  Si  Si22  1  0.733830  0.123235  0.748803  1
  Si  Si23  1  0.236062  0.372929  0.746668  1
  Si  Si24  1  0.016879  0.105420  0.248312  1
  Si  Si25  1  0.520685  0.397756  0.251416  1
  Si  Si26  1  0.472482  0.605840  0.746900  1
  Si  Si27  1  0.977337  0.897293  0.748281  1
  Si  Si28  1  0.354990  0.972284  0.539609  1
  Si  Si29  1  0.646782  0.026910  0.043330  1
  Si  Si30  1  0.146855  0.471294  0.458788  1
  Si  Si31  1  0.154998  0.473531  0.042781  1
  Si  Si32  1  0.642959  0.027747  0.458047  1
  Si  Si33  1  0.353228  0.968660  0.962323  1
  Si  Si34  1  0.854663  0.528743  0.538315  1
  Rh  Rh35  1  0.856530  0.519577  0.957210  1
