# generated using pymatgen
data_SmHf6Zr2(In2Co)7
_symmetry_space_group_name_H-M   'P 1'
_cell_length_a   9.44953749
_cell_length_b   9.44954012
_cell_length_c   9.45100092
_cell_angle_alpha   60.12478329
_cell_angle_beta   60.10639183
_cell_angle_gamma   60.11357323
_symmetry_Int_Tables_number   1
_chemical_formula_structural   SmHf6Zr2(In2Co)7
_chemical_formula_sum   'Sm1 Hf6 Zr2 In14 Co7'
_cell_volume   598.29206787
_cell_formula_units_Z   1
loop_
 _symmetry_equiv_pos_site_id
 _symmetry_equiv_pos_as_xyz
  1  'x, y, z'
loop_
 _atom_site_type_symbol
 _atom_site_label
 _atom_site_symmetry_multiplicity
 _atom_site_fract_x
 _atom_site_fract_y
 _atom_site_fract_z
 _atom_site_occupancy
  Sm  Sm0  1  0.500001  0.499762  0.500235  1
  Hf  Hf1  1  0.119076  0.642768  0.118975  1
  Hf  Hf2  1  0.357338  0.880622  0.881621  1
  Hf  Hf3  1  0.880438  0.880253  0.881660  1
  Hf  Hf4  1  0.642647  0.118273  0.119488  1
  Hf  Hf5  1  0.880785  0.881015  0.357247  1
  Hf  Hf6  1  0.119541  0.118440  0.119647  1
  Zr  Zr7  1  0.878754  0.362569  0.880112  1
  Zr  Zr8  1  0.121342  0.119894  0.637446  1
  In  In9  1  0.500083  0.845849  0.154063  1
  In  In10  1  0.500871  0.845543  0.500399  1
  In  In11  1  0.500132  0.153577  0.500117  1
  In  In12  1  0.499951  0.499921  0.846384  1
  In  In13  1  0.154354  0.499662  0.499331  1
  In  In14  1  0.845917  0.153108  0.500493  1
  In  In15  1  0.153521  0.845950  0.500053  1
  In  In16  1  0.499979  0.153740  0.846295  1
  In  In17  1  0.154106  0.499430  0.846971  1
  In  In18  1  0.499116  0.499472  0.154540  1
  In  In19  1  0.845692  0.500670  0.500279  1
  In  In20  1  0.846453  0.500047  0.154020  1
  In  In21  1  0.250686  0.251520  0.247246  1
  In  In22  1  0.749337  0.752762  0.748463  1
  Co  Co23  1  0.780926  0.781085  0.218556  1
  Co  Co24  1  0.999941  0.997814  0.002208  1
  Co  Co25  1  0.218816  0.781729  0.218647  1
  Co  Co26  1  0.218350  0.780302  0.781945  1
  Co  Co27  1  0.220222  0.218373  0.781995  1
  Co  Co28  1  0.779999  0.217760  0.781860  1
  Co  Co29  1  0.781627  0.218091  0.219704  1
