# generated using pymatgen
data_Er3Ga6Ni7Pd2
_symmetry_space_group_name_H-M   'P 1'
_cell_length_a   4.14033800
_cell_length_b   8.68577586
_cell_length_c   9.10817323
_cell_angle_alpha   58.84405451
_cell_angle_beta   90.00000000
_cell_angle_gamma   90.00000000
_symmetry_Int_Tables_number   1
_chemical_formula_structural   Er3Ga6Ni7Pd2
_chemical_formula_sum   'Er3 Ga6 Ni7 Pd2'
_cell_volume   280.30371557
_cell_formula_units_Z   1
loop_
 _symmetry_equiv_pos_site_id
 _symmetry_equiv_pos_as_xyz
  1  'x, y, z'
loop_
 _atom_site_type_symbol
 _atom_site_label
 _atom_site_symmetry_multiplicity
 _atom_site_fract_x
 _atom_site_fract_y
 _atom_site_fract_z
 _atom_site_occupancy
  Er  Er0  1  0.500000  0.328040  0.332964  1
  Er  Er1  1  0.500000  0.671133  0.660179  1
  Er  Er2  1  0.000000  0.999681  0.988676  1
  Ga  Ga3  1  0.500000  0.727881  0.278934  1
  Ga  Ga4  1  0.500000  0.271722  0.007319  1
  Ga  Ga5  1  0.500000  0.999084  0.709491  1
  Ga  Ga6  1  0.000000  0.477925  0.536150  1
  Ga  Ga7  1  0.000000  0.523587  0.012735  1
  Ga  Ga8  1  0.000000  0.001402  0.468889  1
  Ni  Ni9  1  0.000000  0.196711  0.169564  1
  Ni  Ni10  1  0.000000  0.172816  0.607473  1
  Ni  Ni11  1  0.000000  0.608669  0.227940  1
  Ni  Ni12  1  0.000000  0.826498  0.778166  1
  Ni  Ni13  1  0.000000  0.390345  0.836853  1
  Ni  Ni14  1  0.000000  0.804499  0.365262  1
  Ni  Ni15  1  0.500000  0.000451  0.295384  1
  Pd  Pd16  1  0.500000  0.285241  0.719394  1
  Pd  Pd17  1  0.500000  0.714217  0.004724  1
