# generated using pymatgen
data_Y8TaNb11Si15Ge
_symmetry_space_group_name_H-M   'P 1'
_cell_length_a   6.89458284
_cell_length_b   7.09269024
_cell_length_c   13.47163900
_cell_angle_alpha   90.04661819
_cell_angle_beta   89.92555436
_cell_angle_gamma   90.03104064
_symmetry_Int_Tables_number   1
_chemical_formula_structural   Y8TaNb11Si15Ge
_chemical_formula_sum   'Y8 Ta1 Nb11 Si15 Ge1'
_cell_volume   658.77763949
_cell_formula_units_Z   1
loop_
 _symmetry_equiv_pos_site_id
 _symmetry_equiv_pos_as_xyz
  1  'x, y, z'
loop_
 _atom_site_type_symbol
 _atom_site_label
 _atom_site_symmetry_multiplicity
 _atom_site_fract_x
 _atom_site_fract_y
 _atom_site_fract_z
 _atom_site_occupancy
  Y  Y0  1  0.503468  0.328829  0.095894  1
  Y  Y1  1  0.002435  0.170618  0.403616  1
  Y  Y2  1  0.499723  0.673204  0.596760  1
  Y  Y3  1  0.996386  0.828632  0.904465  1
  Y  Y4  1  0.496307  0.670993  0.904290  1
  Y  Y5  1  0.996404  0.829552  0.596233  1
  Y  Y6  1  0.503971  0.327391  0.403216  1
  Y  Y7  1  0.003449  0.171503  0.095693  1
  Ta  Ta8  1  0.663937  0.009543  0.750229  1
  Nb  Nb9  1  0.163894  0.490265  0.751879  1
  Nb  Nb10  1  0.335578  0.991304  0.249735  1
  Nb  Nb11  1  0.835893  0.509299  0.249850  1
  Nb  Nb12  1  0.835790  0.323968  0.625957  1
  Nb  Nb13  1  0.337658  0.175421  0.874800  1
  Nb  Nb14  1  0.162368  0.675509  0.125170  1
  Nb  Nb15  1  0.662053  0.824948  0.374226  1
  Nb  Nb16  1  0.160673  0.677950  0.372957  1
  Nb  Nb17  1  0.661579  0.824209  0.125118  1
  Nb  Nb18  1  0.837305  0.324179  0.874764  1
  Nb  Nb19  1  0.340333  0.171927  0.626709  1
  Si  Si20  1  0.796773  0.625337  0.750271  1
  Si  Si21  1  0.296135  0.874194  0.750642  1
  Si  Si22  1  0.203619  0.375454  0.249674  1
  Si  Si23  1  0.703814  0.124707  0.249517  1
  Si  Si24  1  0.542458  0.375457  0.750412  1
  Si  Si25  1  0.042215  0.124160  0.750117  1
  Si  Si26  1  0.457106  0.624517  0.249891  1
  Si  Si27  1  0.956593  0.876276  0.248962  1
  Si  Si28  1  0.663250  0.037332  0.540466  1
  Si  Si29  1  0.162131  0.462956  0.959512  1
  Si  Si30  1  0.337287  0.963208  0.040563  1
  Si  Si31  1  0.833721  0.537845  0.458666  1
  Si  Si32  1  0.337117  0.962506  0.459542  1
  Si  Si33  1  0.837831  0.536935  0.040786  1
  Si  Si34  1  0.662385  0.036713  0.959154  1
  Ge  Ge35  1  0.168359  0.463161  0.540263  1
