# generated using pymatgen
data_Mn11Ge(W6C)2
_symmetry_space_group_name_H-M   'P 1'
_cell_length_a   7.79744819
_cell_length_b   7.79744796
_cell_length_c   7.79744910
_cell_angle_alpha   59.95288462
_cell_angle_beta   59.95288484
_cell_angle_gamma   59.95288976
_symmetry_Int_Tables_number   1
_chemical_formula_structural   Mn11Ge(W6C)2
_chemical_formula_sum   'Mn11 Ge1 W12 C2'
_cell_volume   334.87154222
_cell_formula_units_Z   1
loop_
 _symmetry_equiv_pos_site_id
 _symmetry_equiv_pos_as_xyz
  1  'x, y, z'
loop_
 _atom_site_type_symbol
 _atom_site_label
 _atom_site_symmetry_multiplicity
 _atom_site_fract_x
 _atom_site_fract_y
 _atom_site_fract_z
 _atom_site_occupancy
  Mn  Mn0  1  0.421384  0.421384  0.736515  1
  Mn  Mn1  1  0.421384  0.736515  0.421384  1
  Mn  Mn2  1  0.736515  0.421384  0.421384  1
  Mn  Mn3  1  0.423122  0.423122  0.423122  1
  Mn  Mn4  1  0.827278  0.827278  0.510839  1
  Mn  Mn5  1  0.827278  0.510839  0.827278  1
  Mn  Mn6  1  0.510839  0.827278  0.827278  1
  Mn  Mn7  1  0.620587  0.620587  0.126689  1
  Mn  Mn8  1  0.620587  0.126689  0.620587  1
  Mn  Mn9  1  0.126689  0.620587  0.620587  1
  Mn  Mn10  1  0.624251  0.624251  0.624251  1
  Ge  Ge11  1  0.832647  0.832647  0.832647  1
  W  W12  1  0.055063  0.055063  0.443645  1
  W  W13  1  0.444139  0.056220  0.444139  1
  W  W14  1  0.056220  0.444139  0.444139  1
  W  W15  1  0.444139  0.444139  0.056220  1
  W  W16  1  0.055063  0.443645  0.055063  1
  W  W17  1  0.443645  0.055063  0.055063  1
  W  W18  1  0.195963  0.195963  0.805302  1
  W  W19  1  0.804905  0.201404  0.804905  1
  W  W20  1  0.201404  0.804905  0.804905  1
  W  W21  1  0.804905  0.804905  0.201404  1
  W  W22  1  0.195963  0.805302  0.195963  1
  W  W23  1  0.805302  0.195963  0.195963  1
  C  C24  1  0.249727  0.249727  0.249727  1
  C  C25  1  0.001001  0.001001  0.001001  1
