# generated using pymatgen
data_Cs3GdBr6
_symmetry_space_group_name_H-M   'P 1'
_cell_length_a   10.05317600
_cell_length_b   10.05317600
_cell_length_c   8.29383100
_cell_angle_alpha   90.00000000
_cell_angle_beta   90.00000000
_cell_angle_gamma   90.00000000
_symmetry_Int_Tables_number   1
_chemical_formula_structural   Cs3GdBr6
_chemical_formula_sum   'Cs6 Gd2 Br12'
_cell_volume   838.22720750
_cell_formula_units_Z   2
loop_
 _symmetry_equiv_pos_site_id
 _symmetry_equiv_pos_as_xyz
  1  'x, y, z'
loop_
 _atom_site_type_symbol
 _atom_site_label
 _atom_site_symmetry_multiplicity
 _atom_site_fract_x
 _atom_site_fract_y
 _atom_site_fract_z
 _atom_site_occupancy
  Cs  Cs0  1  0.000000  0.000000  0.500000  1
  Cs  Cs1  1  0.000000  0.000000  0.000000  1
  Cs  Cs2  1  0.233774  0.587214  0.500000  1
  Cs  Cs3  1  0.766226  0.412786  0.500000  1
  Cs  Cs4  1  0.412786  0.233774  0.000000  1
  Cs  Cs5  1  0.587214  0.766226  0.000000  1
  Gd  Gd6  1  0.500000  0.000000  0.500000  1
  Gd  Gd7  1  0.000000  0.500000  0.000000  1
  Br  Br8  1  0.692429  0.059858  0.741393  1
  Br  Br9  1  0.307571  0.940142  0.741393  1
  Br  Br10  1  0.940142  0.692429  0.241393  1
  Br  Br11  1  0.059858  0.307571  0.241393  1
  Br  Br12  1  0.307571  0.940142  0.258607  1
  Br  Br13  1  0.692429  0.059858  0.258607  1
  Br  Br14  1  0.059858  0.307571  0.758607  1
  Br  Br15  1  0.940142  0.692429  0.758607  1
  Br  Br16  1  0.569599  0.727601  0.500000  1
  Br  Br17  1  0.430401  0.272399  0.500000  1
  Br  Br18  1  0.272399  0.569599  0.000000  1
  Br  Br19  1  0.727601  0.430401  0.000000  1
