# generated using pymatgen
data_Lu2Hf2Sc2Pb5
_symmetry_space_group_name_H-M   'P 1'
_cell_length_a   6.16658151
_cell_length_b   9.18451556
_cell_length_c   11.24096987
_cell_angle_alpha   114.11243555
_cell_angle_beta   105.91974062
_cell_angle_gamma   89.99999846
_symmetry_Int_Tables_number   1
_chemical_formula_structural   Lu2Hf2Sc2Pb5
_chemical_formula_sum   'Lu4 Hf4 Sc4 Pb10'
_cell_volume   554.24478327
_cell_formula_units_Z   2
loop_
 _symmetry_equiv_pos_site_id
 _symmetry_equiv_pos_as_xyz
  1  'x, y, z'
loop_
 _atom_site_type_symbol
 _atom_site_label
 _atom_site_symmetry_multiplicity
 _atom_site_fract_x
 _atom_site_fract_y
 _atom_site_fract_z
 _atom_site_occupancy
  Lu  Lu0  1  0.145721  0.257488  0.291442  1
  Lu  Lu1  1  0.854279  0.742512  0.708558  1
  Lu  Lu2  1  0.645721  0.033954  0.291442  1
  Lu  Lu3  1  0.354279  0.966046  0.708558  1
  Hf  Hf4  1  0.556350  0.306350  0.612700  1
  Hf  Hf5  1  0.443650  0.693650  0.387300  1
  Hf  Hf6  1  0.943650  0.693650  0.387300  1
  Hf  Hf7  1  0.056350  0.306350  0.612700  1
  Sc  Sc8  1  0.438838  0.673502  0.877676  1
  Sc  Sc9  1  0.561162  0.326498  0.122324  1
  Sc  Sc10  1  0.938838  0.204174  0.877676  1
  Sc  Sc11  1  0.061162  0.795826  0.122324  1
  Pb  Pb12  1  0.292765  0.592480  0.585530  1
  Pb  Pb13  1  0.707235  0.407520  0.414470  1
  Pb  Pb14  1  0.792765  0.993050  0.585530  1
  Pb  Pb15  1  0.207235  0.006950  0.414470  1
  Pb  Pb16  1  0.250000  0.000000  0.000000  1
  Pb  Pb17  1  0.750000  0.000000  0.000000  1
  Pb  Pb18  1  0.072466  0.470747  0.144934  1
  Pb  Pb19  1  0.927534  0.529253  0.855066  1
  Pb  Pb20  1  0.572466  0.674187  0.144934  1
  Pb  Pb21  1  0.427534  0.325813  0.855066  1
