# generated using pymatgen
data_Yb14SmPa5Pt16
_symmetry_space_group_name_H-M   'P 1'
_cell_length_a   7.54826085
_cell_length_b   7.65049481
_cell_length_c   14.59924763
_cell_angle_alpha   90.14692600
_cell_angle_beta   89.95154342
_cell_angle_gamma   90.10545231
_symmetry_Int_Tables_number   1
_chemical_formula_structural   Yb14SmPa5Pt16
_chemical_formula_sum   'Yb14 Sm1 Pa5 Pt16'
_cell_volume   843.07183834
_cell_formula_units_Z   1
loop_
 _symmetry_equiv_pos_site_id
 _symmetry_equiv_pos_as_xyz
  1  'x, y, z'
loop_
 _atom_site_type_symbol
 _atom_site_label
 _atom_site_symmetry_multiplicity
 _atom_site_fract_x
 _atom_site_fract_y
 _atom_site_fract_z
 _atom_site_occupancy
  Yb  Yb0  1  0.646963  0.161014  0.880585  1
  Yb  Yb1  1  0.148435  0.335656  0.621772  1
  Yb  Yb2  1  0.494291  0.676697  0.599227  1
  Yb  Yb3  1  0.991797  0.826905  0.901012  1
  Yb  Yb4  1  0.503707  0.319616  0.090988  1
  Yb  Yb5  1  0.004556  0.179146  0.408384  1
  Yb  Yb6  1  0.502477  0.321261  0.407483  1
  Yb  Yb7  1  0.000882  0.179545  0.092647  1
  Yb  Yb8  1  0.499075  0.682878  0.901000  1
  Yb  Yb9  1  0.992302  0.815053  0.598900  1
  Yb  Yb10  1  0.806558  0.508365  0.748919  1
  Yb  Yb11  1  0.313687  0.988766  0.750800  1
  Yb  Yb12  1  0.198189  0.475471  0.249506  1
  Yb  Yb13  1  0.699265  0.022550  0.248918  1
  Sm  Sm14  1  0.649828  0.157173  0.622036  1
  Pa  Pa15  1  0.153402  0.347310  0.878176  1
  Pa  Pa16  1  0.349945  0.843326  0.120292  1
  Pa  Pa17  1  0.851386  0.658093  0.377302  1
  Pa  Pa18  1  0.352623  0.840291  0.378040  1
  Pa  Pa19  1  0.853664  0.656473  0.120210  1
  Pt  Pt20  1  0.687198  0.944934  0.452654  1
  Pt  Pt21  1  0.194051  0.554165  0.039704  1
  Pt  Pt22  1  0.297394  0.053045  0.964919  1
  Pt  Pt23  1  0.807099  0.463549  0.533738  1
  Pt  Pt24  1  0.307536  0.026846  0.536168  1
  Pt  Pt25  1  0.821488  0.465371  0.959442  1
  Pt  Pt26  1  0.678621  0.943040  0.046094  1
  Pt  Pt27  1  0.181282  0.554776  0.454443  1
  Pt  Pt28  1  0.440941  0.367290  0.752926  1
  Pt  Pt29  1  0.956633  0.135770  0.762119  1
  Pt  Pt30  1  0.550575  0.643928  0.248279  1
  Pt  Pt31  1  0.052754  0.853458  0.248610  1
  Pt  Pt32  1  0.693489  0.868171  0.749152  1
  Pt  Pt33  1  0.175049  0.630633  0.755532  1
  Pt  Pt34  1  0.322926  0.118054  0.250473  1
  Pt  Pt35  1  0.819932  0.381382  0.249552  1
