# generated using pymatgen
data_Nd3EuAl2Cr2O12
_symmetry_space_group_name_H-M   'P 1'
_cell_length_a   5.41496646
_cell_length_b   5.45731642
_cell_length_c   7.68238028
_cell_angle_alpha   89.86915698
_cell_angle_beta   89.80051033
_cell_angle_gamma   90.09590819
_symmetry_Int_Tables_number   1
_chemical_formula_structural   Nd3EuAl2Cr2O12
_chemical_formula_sum   'Nd3 Eu1 Al2 Cr2 O12'
_cell_volume   227.02115442
_cell_formula_units_Z   1
loop_
 _symmetry_equiv_pos_site_id
 _symmetry_equiv_pos_as_xyz
  1  'x, y, z'
loop_
 _atom_site_type_symbol
 _atom_site_label
 _atom_site_symmetry_multiplicity
 _atom_site_fract_x
 _atom_site_fract_y
 _atom_site_fract_z
 _atom_site_occupancy
  Nd  Nd0  1  0.507774  0.539046  0.249814  1
  Nd  Nd1  1  0.991200  0.039646  0.249635  1
  Nd  Nd2  1  0.491013  0.462330  0.750003  1
  Eu  Eu3  1  0.005740  0.966301  0.749975  1
  Al  Al4  1  0.999859  0.501072  0.998872  1
  Al  Al5  1  0.499661  0.999264  0.500857  1
  Cr  Cr6  1  0.999489  0.500485  0.500865  1
  Cr  Cr7  1  0.499282  0.000065  0.999001  1
  O  O8  1  0.426119  0.985225  0.255675  1
  O  O9  1  0.073822  0.485018  0.244227  1
  O  O10  1  0.575197  0.015541  0.744199  1
  O  O11  1  0.926354  0.514090  0.755816  1
  O  O12  1  0.791090  0.779895  0.040033  1
  O  O13  1  0.708171  0.279928  0.459356  1
  O  O14  1  0.219666  0.208203  0.539623  1
  O  O15  1  0.281669  0.705983  0.962423  1
  O  O16  1  0.208176  0.218134  0.959791  1
  O  O17  1  0.294238  0.717742  0.538631  1
  O  O18  1  0.780455  0.791123  0.461367  1
  O  O19  1  0.721022  0.290910  0.039837  1
