# generated using pymatgen
data_Nd2Al20Ru3Rh
_symmetry_space_group_name_H-M   'P 1'
_cell_length_a   6.88610787
_cell_length_b   6.89351346
_cell_length_c   9.20188765
_cell_angle_alpha   90.12821172
_cell_angle_beta   90.07484357
_cell_angle_gamma   96.84842414
_symmetry_Int_Tables_number   1
_chemical_formula_structural   Nd2Al20Ru3Rh
_chemical_formula_sum   'Nd2 Al20 Ru3 Rh1'
_cell_volume   433.69057211
_cell_formula_units_Z   1
loop_
 _symmetry_equiv_pos_site_id
 _symmetry_equiv_pos_as_xyz
  1  'x, y, z'
loop_
 _atom_site_type_symbol
 _atom_site_label
 _atom_site_symmetry_multiplicity
 _atom_site_fract_x
 _atom_site_fract_y
 _atom_site_fract_z
 _atom_site_occupancy
  Nd  Nd0  1  0.874422  0.124581  0.749837  1
  Nd  Nd1  1  0.125578  0.875419  0.250163  1
  Al  Al2  1  0.619711  0.376648  0.552221  1
  Al  Al3  1  0.380289  0.623352  0.447779  1
  Al  Al4  1  0.377934  0.622607  0.050620  1
  Al  Al5  1  0.622066  0.377393  0.949380  1
  Al  Al6  1  0.228946  0.227201  0.499091  1
  Al  Al7  1  0.771054  0.772799  0.500909  1
  Al  Al8  1  0.772493  0.773100  0.999599  1
  Al  Al9  1  0.227507  0.226900  0.000401  1
  Al  Al10  1  0.840748  0.159931  0.100871  1
  Al  Al11  1  0.159252  0.840069  0.899129  1
  Al  Al12  1  0.161187  0.841056  0.602948  1
  Al  Al13  1  0.838813  0.158944  0.397052  1
  Al  Al14  1  0.858748  0.588868  0.750909  1
  Al  Al15  1  0.141252  0.411132  0.249091  1
  Al  Al16  1  0.410975  0.140386  0.750533  1
  Al  Al17  1  0.589025  0.859614  0.249467  1
  Al  Al18  1  0.222563  0.482614  0.752931  1
  Al  Al19  1  0.777437  0.517386  0.247069  1
  Al  Al20  1  0.517217  0.780004  0.749733  1
  Al  Al21  1  0.482783  0.219996  0.250267  1
  Ru  Ru22  1  0.000000  0.500000  0.000000  1
  Ru  Ru23  1  0.500000  0.000000  0.000000  1
  Ru  Ru24  1  0.500000  0.000000  0.500000  1
  Rh  Rh25  1  0.000000  0.500000  0.500000  1
