# generated using pymatgen
data_Y3ErAl18Ir4PdPt
_symmetry_space_group_name_H-M   'P 1'
_cell_length_a   7.57484720
_cell_length_b   7.57357691
_cell_length_c   9.47770293
_cell_angle_alpha   89.98368805
_cell_angle_beta   89.96441589
_cell_angle_gamma   119.59774429
_symmetry_Int_Tables_number   1
_chemical_formula_structural   Y3ErAl18Ir4PdPt
_chemical_formula_sum   'Y3 Er1 Al18 Ir4 Pd1 Pt1'
_cell_volume   472.77509579
_cell_formula_units_Z   1
loop_
 _symmetry_equiv_pos_site_id
 _symmetry_equiv_pos_as_xyz
  1  'x, y, z'
loop_
 _atom_site_type_symbol
 _atom_site_label
 _atom_site_symmetry_multiplicity
 _atom_site_fract_x
 _atom_site_fract_y
 _atom_site_fract_z
 _atom_site_occupancy
  Y  Y0  1  0.995420  0.671027  0.249672  1
  Y  Y1  1  0.004379  0.328734  0.750414  1
  Y  Y2  1  0.670878  0.995283  0.249610  1
  Er  Er3  1  0.328920  0.004355  0.750427  1
  Al  Al4  1  0.130443  0.129473  0.248318  1
  Al  Al5  1  0.871118  0.869749  0.751605  1
  Al  Al6  1  0.003710  0.334721  0.075529  1
  Al  Al7  1  0.003483  0.669734  0.924047  1
  Al  Al8  1  0.999479  0.661321  0.576613  1
  Al  Al9  1  0.339263  0.001147  0.424590  1
  Al  Al10  1  0.001669  0.339021  0.423475  1
  Al  Al11  1  0.660423  0.998387  0.577183  1
  Al  Al12  1  0.664785  0.996402  0.923888  1
  Al  Al13  1  0.330930  0.997274  0.074758  1
  Al  Al14  1  0.336681  0.336077  0.555186  1
  Al  Al15  1  0.663323  0.663247  0.445552  1
  Al  Al16  1  0.666239  0.669563  0.053928  1
  Al  Al17  1  0.330573  0.333363  0.945323  1
  Al  Al18  1  0.339723  0.548918  0.249861  1
  Al  Al19  1  0.659885  0.452692  0.747942  1
  Al  Al20  1  0.546436  0.339145  0.252102  1
  Al  Al21  1  0.451047  0.660660  0.750093  1
  Ir  Ir22  1  0.328281  0.671930  0.999751  1
  Ir  Ir23  1  0.328245  0.671968  0.500221  1
  Ir  Ir24  1  0.672062  0.327708  0.500207  1
  Ir  Ir25  1  0.000153  0.000360  0.999722  1
  Pd  Pd26  1  0.000365  0.999929  0.500128  1
  Pt  Pt27  1  0.672087  0.327813  0.999853  1
