# generated using pymatgen
data_Sc3GaNi3P2
_symmetry_space_group_name_H-M   'P 1'
_cell_length_a   6.32454500
_cell_length_b   6.32454556
_cell_length_c   3.78116300
_cell_angle_alpha   90.00000000
_cell_angle_beta   90.00000000
_cell_angle_gamma   120.00000228
_symmetry_Int_Tables_number   1
_chemical_formula_structural   Sc3GaNi3P2
_chemical_formula_sum   'Sc3 Ga1 Ni3 P2'
_cell_volume   130.98290975
_cell_formula_units_Z   1
loop_
 _symmetry_equiv_pos_site_id
 _symmetry_equiv_pos_as_xyz
  1  'x, y, z'
loop_
 _atom_site_type_symbol
 _atom_site_label
 _atom_site_symmetry_multiplicity
 _atom_site_fract_x
 _atom_site_fract_y
 _atom_site_fract_z
 _atom_site_occupancy
  Sc  Sc0  1  0.000000  0.428033  0.500000  1
  Sc  Sc1  1  0.571967  0.571967  0.500000  1
  Sc  Sc2  1  0.428033  0.000000  0.500000  1
  Ga  Ga3  1  0.000000  0.000000  0.500000  1
  Ni  Ni4  1  0.000000  0.744068  0.000000  1
  Ni  Ni5  1  0.255932  0.255932  0.000000  1
  Ni  Ni6  1  0.744068  0.000000  0.000000  1
  P  P7  1  0.666667  0.333333  0.000000  1
  P  P8  1  0.333333  0.666667  0.000000  1
