# generated using pymatgen
data_Dy5Ho2FeBr12
_symmetry_space_group_name_H-M   'P 1'
_cell_length_a   9.24314343
_cell_length_b   9.10653585
_cell_length_c   9.22966630
_cell_angle_alpha   106.74413948
_cell_angle_beta   106.97444954
_cell_angle_gamma   106.90274240
_symmetry_Int_Tables_number   1
_chemical_formula_structural   Dy5Ho2FeBr12
_chemical_formula_sum   'Dy5 Ho2 Fe1 Br12'
_cell_volume   649.21322958
_cell_formula_units_Z   1
loop_
 _symmetry_equiv_pos_site_id
 _symmetry_equiv_pos_as_xyz
  1  'x, y, z'
loop_
 _atom_site_type_symbol
 _atom_site_label
 _atom_site_symmetry_multiplicity
 _atom_site_fract_x
 _atom_site_fract_y
 _atom_site_fract_z
 _atom_site_occupancy
  Dy  Dy0  1  0.805151  0.520133  0.598271  1
  Dy  Dy1  1  0.405779  0.206286  0.478513  1
  Dy  Dy2  1  0.479234  0.402158  0.195767  1
  Dy  Dy3  1  0.593759  0.793309  0.521082  1
  Dy  Dy4  1  0.521900  0.597393  0.804252  1
  Ho  Ho5  1  0.999290  0.000825  0.000119  1
  Ho  Ho6  1  0.197333  0.479664  0.402195  1
  Fe  Fe7  1  0.500657  0.499927  0.500020  1
  Br  Br8  1  0.668226  0.963015  0.885296  1
  Br  Br9  1  0.719709  0.177514  0.569059  1
  Br  Br10  1  0.886409  0.667586  0.963733  1
  Br  Br11  1  0.278184  0.819844  0.430077  1
  Br  Br12  1  0.178787  0.570175  0.720535  1
  Br  Br13  1  0.039542  0.115765  0.332261  1
  Br  Br14  1  0.571418  0.723737  0.181350  1
  Br  Br15  1  0.114095  0.334594  0.038327  1
  Br  Br16  1  0.822694  0.429623  0.278055  1
  Br  Br17  1  0.427478  0.275495  0.818066  1
  Br  Br18  1  0.960250  0.886260  0.668552  1
  Br  Br19  1  0.330104  0.036698  0.114470  1
