# generated using pymatgen
data_Dy12AlSi4Ag
_symmetry_space_group_name_H-M   'P 1'
_cell_length_a   8.49085136
_cell_length_b   8.49085125
_cell_length_c   8.49085200
_cell_angle_alpha   111.90942744
_cell_angle_beta   111.42363251
_cell_angle_gamma   105.16495106
_symmetry_Int_Tables_number   1
_chemical_formula_structural   Dy12AlSi4Ag
_chemical_formula_sum   'Dy12 Al1 Si4 Ag1'
_cell_volume   469.24291613
_cell_formula_units_Z   1
loop_
 _symmetry_equiv_pos_site_id
 _symmetry_equiv_pos_as_xyz
  1  'x, y, z'
loop_
 _atom_site_type_symbol
 _atom_site_label
 _atom_site_symmetry_multiplicity
 _atom_site_fract_x
 _atom_site_fract_y
 _atom_site_fract_z
 _atom_site_occupancy
  Dy  Dy0  1  0.443090  0.243440  0.199651  1
  Dy  Dy1  1  0.556910  0.756560  0.800349  1
  Dy  Dy2  1  0.043787  0.243440  0.800349  1
  Dy  Dy3  1  0.956213  0.756560  0.199651  1
  Dy  Dy4  1  0.182168  0.271518  0.453685  1
  Dy  Dy5  1  0.817832  0.728482  0.546315  1
  Dy  Dy6  1  0.182168  0.728482  0.910649  1
  Dy  Dy7  1  0.817832  0.271518  0.089351  1
  Dy  Dy8  1  0.323465  0.617960  0.294496  1
  Dy  Dy9  1  0.676535  0.382040  0.705504  1
  Dy  Dy10  1  0.323465  0.028970  0.705504  1
  Dy  Dy11  1  0.676535  0.971030  0.294496  1
  Al  Al12  1  0.500000  0.500000  0.000000  1
  Si  Si13  1  0.359900  0.000000  0.359900  1
  Si  Si14  1  0.640100  0.000000  0.640100  1
  Si  Si15  1  0.116757  0.616757  0.500000  1
  Si  Si16  1  0.883243  0.383243  0.500000  1
  Ag  Ag17  1  0.000000  0.000000  0.000000  1
