# generated using pymatgen
data_Lu4CdPbAu4
_symmetry_space_group_name_H-M   'P 1'
_cell_length_a   8.01005600
_cell_length_b   8.01005600
_cell_length_c   3.59285300
_cell_angle_alpha   90.00000000
_cell_angle_beta   90.00000000
_cell_angle_gamma   90.00000000
_symmetry_Int_Tables_number   1
_chemical_formula_structural   Lu4CdPbAu4
_chemical_formula_sum   'Lu4 Cd1 Pb1 Au4'
_cell_volume   230.52103100
_cell_formula_units_Z   1
loop_
 _symmetry_equiv_pos_site_id
 _symmetry_equiv_pos_as_xyz
  1  'x, y, z'
loop_
 _atom_site_type_symbol
 _atom_site_label
 _atom_site_symmetry_multiplicity
 _atom_site_fract_x
 _atom_site_fract_y
 _atom_site_fract_z
 _atom_site_occupancy
  Lu  Lu0  1  0.170741  0.337616  0.000000  1
  Lu  Lu1  1  0.829259  0.662384  0.000000  1
  Lu  Lu2  1  0.662384  0.170741  0.000000  1
  Lu  Lu3  1  0.337616  0.829259  0.000000  1
  Cd  Cd4  1  0.500000  0.500000  0.500000  1
  Pb  Pb5  1  0.000000  0.000000  0.500000  1
  Au  Au6  1  0.373893  0.132852  0.500000  1
  Au  Au7  1  0.626107  0.867148  0.500000  1
  Au  Au8  1  0.867148  0.373893  0.500000  1
  Au  Au9  1  0.132852  0.626107  0.500000  1
