# generated using pymatgen
data_Y3BeZnSiIr6
_symmetry_space_group_name_H-M   'P 1'
_cell_length_a   5.53714300
_cell_length_b   5.53714281
_cell_length_c   15.30028000
_cell_angle_alpha   90.00000000
_cell_angle_beta   90.00000000
_cell_angle_gamma   120.00000708
_symmetry_Int_Tables_number   1
_chemical_formula_structural   Y3BeZnSiIr6
_chemical_formula_sum   'Y6 Be2 Zn2 Si2 Ir12'
_cell_volume   406.25754892
_cell_formula_units_Z   2
loop_
 _symmetry_equiv_pos_site_id
 _symmetry_equiv_pos_as_xyz
  1  'x, y, z'
loop_
 _atom_site_type_symbol
 _atom_site_label
 _atom_site_symmetry_multiplicity
 _atom_site_fract_x
 _atom_site_fract_y
 _atom_site_fract_z
 _atom_site_occupancy
  Y  Y0  1  0.333333  0.666667  0.536951  1
  Y  Y1  1  0.666667  0.333333  0.463049  1
  Y  Y2  1  0.666667  0.333333  0.036951  1
  Y  Y3  1  0.333333  0.666667  0.963049  1
  Y  Y4  1  0.333333  0.666667  0.750000  1
  Y  Y5  1  0.666667  0.333333  0.250000  1
  Be  Be6  1  0.000000  0.000000  0.250000  1
  Be  Be7  1  0.000000  0.000000  0.750000  1
  Zn  Zn8  1  0.000000  0.000000  0.000000  1
  Zn  Zn9  1  0.000000  0.000000  0.500000  1
  Si  Si10  1  0.333333  0.666667  0.250000  1
  Si  Si11  1  0.666667  0.333333  0.750000  1
  Ir  Ir12  1  0.164613  0.329227  0.135123  1
  Ir  Ir13  1  0.835387  0.670773  0.864877  1
  Ir  Ir14  1  0.670773  0.835387  0.135123  1
  Ir  Ir15  1  0.835387  0.670773  0.635123  1
  Ir  Ir16  1  0.329227  0.164613  0.864877  1
  Ir  Ir17  1  0.164613  0.329227  0.364877  1
  Ir  Ir18  1  0.164613  0.835387  0.135123  1
  Ir  Ir19  1  0.329227  0.164613  0.635123  1
  Ir  Ir20  1  0.835387  0.164613  0.864877  1
  Ir  Ir21  1  0.670773  0.835387  0.364877  1
  Ir  Ir22  1  0.835387  0.164613  0.635123  1
  Ir  Ir23  1  0.164613  0.835387  0.364877  1
