# generated using pymatgen
data_Dy5HoLu4(Si3H)2
_symmetry_space_group_name_H-M   'P 1'
_cell_length_a   8.37901342
_cell_length_b   8.37901572
_cell_length_c   6.13499000
_cell_angle_alpha   90.00000000
_cell_angle_beta   90.00000000
_cell_angle_gamma   119.96354113
_symmetry_Int_Tables_number   1
_chemical_formula_structural   Dy5HoLu4(Si3H)2
_chemical_formula_sum   'Dy5 Ho1 Lu4 Si6 H2'
_cell_volume   373.15547465
_cell_formula_units_Z   1
loop_
 _symmetry_equiv_pos_site_id
 _symmetry_equiv_pos_as_xyz
  1  'x, y, z'
loop_
 _atom_site_type_symbol
 _atom_site_label
 _atom_site_symmetry_multiplicity
 _atom_site_fract_x
 _atom_site_fract_y
 _atom_site_fract_z
 _atom_site_occupancy
  Dy  Dy0  1  0.250481  0.000027  0.750000  1
  Dy  Dy1  1  0.000027  0.250481  0.750000  1
  Dy  Dy2  1  0.250544  0.250544  0.250000  1
  Dy  Dy3  1  0.749512  0.999937  0.250000  1
  Dy  Dy4  1  0.999937  0.749512  0.250000  1
  Ho  Ho5  1  0.749224  0.749224  0.750000  1
  Lu  Lu6  1  0.666685  0.333421  0.999980  1
  Lu  Lu7  1  0.333421  0.666685  0.999980  1
  Lu  Lu8  1  0.333421  0.666685  0.500020  1
  Lu  Lu9  1  0.666685  0.333421  0.500020  1
  Si  Si10  1  0.391815  0.391815  0.750000  1
  Si  Si11  1  0.608565  0.999748  0.750000  1
  Si  Si12  1  0.999748  0.608565  0.750000  1
  Si  Si13  1  0.608469  0.608469  0.250000  1
  Si  Si14  1  0.391566  0.999992  0.250000  1
  Si  Si15  1  0.999992  0.391566  0.250000  1
  H  H16  1  0.999954  0.999954  0.500115  1
  H  H17  1  0.999954  0.999954  0.999885  1
