# generated using pymatgen
data_TbSc2Co9(SiB2)2
_symmetry_space_group_name_H-M   'P 1'
_cell_length_a   5.04891605
_cell_length_b   5.04851869
_cell_length_c   9.26014600
_cell_angle_alpha   89.99992698
_cell_angle_beta   90.00010316
_cell_angle_gamma   120.00158605
_symmetry_Int_Tables_number   1
_chemical_formula_structural   TbSc2Co9(SiB2)2
_chemical_formula_sum   'Tb1 Sc2 Co9 Si2 B4'
_cell_volume   204.41070794
_cell_formula_units_Z   1
loop_
 _symmetry_equiv_pos_site_id
 _symmetry_equiv_pos_as_xyz
  1  'x, y, z'
loop_
 _atom_site_type_symbol
 _atom_site_label
 _atom_site_symmetry_multiplicity
 _atom_site_fract_x
 _atom_site_fract_y
 _atom_site_fract_z
 _atom_site_occupancy
  Tb  Tb0  1  0.999993  0.000001  0.999941  1
  Sc  Sc1  1  0.999999  0.999996  0.341294  1
  Sc  Sc2  1  0.999991  0.999999  0.658722  1
  Co  Co3  1  0.500015  0.000036  0.499973  1
  Co  Co4  1  0.500013  0.499983  0.499979  1
  Co  Co5  1  0.999960  0.499982  0.499978  1
  Co  Co6  1  0.499987  0.999988  0.198954  1
  Co  Co7  1  0.499987  0.500007  0.198950  1
  Co  Co8  1  0.000007  0.500007  0.198908  1
  Co  Co9  1  0.499994  0.999997  0.801050  1
  Co  Co10  1  0.499992  0.500001  0.801066  1
  Co  Co11  1  0.999998  0.500001  0.801121  1
  Si  Si12  1  0.333523  0.666804  0.999976  1
  Si  Si13  1  0.666463  0.333200  0.999974  1
  B  B14  1  0.333192  0.666572  0.346656  1
  B  B15  1  0.666797  0.333427  0.346661  1
  B  B16  1  0.666808  0.333435  0.653398  1
  B  B17  1  0.333182  0.666564  0.653403  1
