# generated using pymatgen
data_PaBe12Fe
_symmetry_space_group_name_H-M   'P 1'
_cell_length_a   7.25699618
_cell_length_b   7.38881960
_cell_length_c   7.21124412
_cell_angle_alpha   59.59554691
_cell_angle_beta   59.75757139
_cell_angle_gamma   58.98550025
_symmetry_Int_Tables_number   1
_chemical_formula_structural   PaBe12Fe
_chemical_formula_sum   'Pa2 Be24 Fe2'
_cell_volume   269.94566351
_cell_formula_units_Z   2
loop_
 _symmetry_equiv_pos_site_id
 _symmetry_equiv_pos_as_xyz
  1  'x, y, z'
loop_
 _atom_site_type_symbol
 _atom_site_label
 _atom_site_symmetry_multiplicity
 _atom_site_fract_x
 _atom_site_fract_y
 _atom_site_fract_z
 _atom_site_occupancy
  Pa  Pa0  1  0.237527  0.262473  0.237527  1
  Pa  Pa1  1  0.762473  0.737527  0.762473  1
  Be  Be2  1  0.500000  0.500000  0.500000  1
  Be  Be3  1  0.000000  0.000000  0.000000  1
  Be  Be4  1  0.568332  0.785905  0.431668  1
  Be  Be5  1  0.431668  0.214095  0.568332  1
  Be  Be6  1  0.298958  0.938599  0.701042  1
  Be  Be7  1  0.701042  0.061401  0.298958  1
  Be  Be8  1  0.932371  0.279995  0.067629  1
  Be  Be9  1  0.067629  0.720005  0.932371  1
  Be  Be10  1  0.205780  0.799606  0.558800  1
  Be  Be11  1  0.794220  0.200394  0.441200  1
  Be  Be12  1  0.441200  0.564185  0.794220  1
  Be  Be13  1  0.558800  0.435815  0.205780  1
  Be  Be14  1  0.709894  0.281965  0.937941  1
  Be  Be15  1  0.290106  0.718035  0.062059  1
  Be  Be16  1  0.062059  0.929800  0.290106  1
  Be  Be17  1  0.937941  0.070200  0.709894  1
  Be  Be18  1  0.556708  0.208425  0.794849  1
  Be  Be19  1  0.443292  0.791575  0.205151  1
  Be  Be20  1  0.794849  0.440018  0.556708  1
  Be  Be21  1  0.205151  0.559982  0.443292  1
  Be  Be22  1  0.937396  0.710734  0.290485  1
  Be  Be23  1  0.062604  0.289266  0.709515  1
  Be  Be24  1  0.290485  0.061384  0.937396  1
  Be  Be25  1  0.709515  0.938616  0.062604  1
  Fe  Fe26  1  0.807253  0.554293  0.192747  1
  Fe  Fe27  1  0.192747  0.445707  0.807253  1
