# generated using pymatgen
data_Tm20Si12C
_symmetry_space_group_name_H-M   'P 1'
_cell_length_a   6.25270120
_cell_length_b   8.30551428
_cell_length_c   14.45346500
_cell_angle_alpha   90.00000690
_cell_angle_beta   90.00000000
_cell_angle_gamma   89.95789586
_symmetry_Int_Tables_number   1
_chemical_formula_structural   Tm20Si12C
_chemical_formula_sum   'Tm20 Si12 C1'
_cell_volume   750.59568352
_cell_formula_units_Z   1
loop_
 _symmetry_equiv_pos_site_id
 _symmetry_equiv_pos_as_xyz
  1  'x, y, z'
loop_
 _atom_site_type_symbol
 _atom_site_label
 _atom_site_symmetry_multiplicity
 _atom_site_fract_x
 _atom_site_fract_y
 _atom_site_fract_z
 _atom_site_occupancy
  Tm  Tm0  1  0.500000  0.999999  0.335080  1
  Tm  Tm1  1  0.499998  0.500000  0.829987  1
  Tm  Tm2  1  0.499998  0.500000  0.170013  1
  Tm  Tm3  1  0.500000  0.999999  0.664920  1
  Tm  Tm4  1  0.000002  0.499998  0.162856  1
  Tm  Tm5  1  0.000000  0.000002  0.669482  1
  Tm  Tm6  1  0.000000  0.000002  0.330518  1
  Tm  Tm7  1  0.000002  0.499998  0.837144  1
  Tm  Tm8  1  0.726193  0.235206  0.000000  1
  Tm  Tm9  1  0.750726  0.743296  0.500000  1
  Tm  Tm10  1  0.751820  0.378624  0.379333  1
  Tm  Tm11  1  0.729254  0.881017  0.882325  1
  Tm  Tm12  1  0.729254  0.881017  0.117675  1
  Tm  Tm13  1  0.751820  0.378624  0.620667  1
  Tm  Tm14  1  0.273810  0.764797  0.000000  1
  Tm  Tm15  1  0.249275  0.256703  0.500000  1
  Tm  Tm16  1  0.270747  0.118985  0.117676  1
  Tm  Tm17  1  0.248179  0.621375  0.620666  1
  Tm  Tm18  1  0.248179  0.621375  0.379334  1
  Tm  Tm19  1  0.270747  0.118985  0.882324  1
  Si  Si20  1  0.738717  0.600687  0.000000  1
  Si  Si21  1  0.753592  0.104667  0.500000  1
  Si  Si22  1  0.745684  0.198920  0.199692  1
  Si  Si23  1  0.752596  0.697019  0.697358  1
  Si  Si24  1  0.752596  0.697019  0.302642  1
  Si  Si25  1  0.745684  0.198920  0.800308  1
  Si  Si26  1  0.261281  0.399315  0.000000  1
  Si  Si27  1  0.246406  0.895332  0.500000  1
  Si  Si28  1  0.247408  0.302981  0.302642  1
  Si  Si29  1  0.254314  0.801080  0.800308  1
  Si  Si30  1  0.254314  0.801080  0.199692  1
  Si  Si31  1  0.247408  0.302981  0.697358  1
  C  C32  1  0.500000  0.999998  0.000000  1
