# generated using pymatgen
data_Cs6RbNa2GaBi4
_symmetry_space_group_name_H-M   'P 1'
_cell_length_a   11.24289868
_cell_length_b   11.30575558
_cell_length_c   11.67368200
_cell_angle_alpha   90.00000000
_cell_angle_beta   90.00000000
_cell_angle_gamma   120.18510915
_symmetry_Int_Tables_number   1
_chemical_formula_structural   Cs6RbNa2GaBi4
_chemical_formula_sum   'Cs12 Rb2 Na4 Ga2 Bi8'
_cell_volume   1282.63554649
_cell_formula_units_Z   2
loop_
 _symmetry_equiv_pos_site_id
 _symmetry_equiv_pos_as_xyz
  1  'x, y, z'
loop_
 _atom_site_type_symbol
 _atom_site_label
 _atom_site_symmetry_multiplicity
 _atom_site_fract_x
 _atom_site_fract_y
 _atom_site_fract_z
 _atom_site_occupancy
  Cs  Cs0  1  0.207340  0.414930  0.541162  1
  Cs  Cs1  1  0.792660  0.207592  0.041162  1
  Cs  Cs2  1  0.416988  0.210056  0.038957  1
  Cs  Cs3  1  0.583012  0.793066  0.538957  1
  Cs  Cs4  1  0.211615  0.791346  0.543412  1
  Cs  Cs5  1  0.788385  0.579733  0.456588  1
  Cs  Cs6  1  0.792660  0.207592  0.458838  1
  Cs  Cs7  1  0.788385  0.579733  0.043412  1
  Cs  Cs8  1  0.416988  0.210056  0.461043  1
  Cs  Cs9  1  0.583012  0.793066  0.961043  1
  Cs  Cs10  1  0.207340  0.414930  0.958838  1
  Cs  Cs11  1  0.211615  0.791346  0.956588  1
  Rb  Rb12  1  0.117645  0.883728  0.250000  1
  Rb  Rb13  1  0.882355  0.766083  0.750000  1
  Na  Na14  1  0.114595  0.237787  0.250000  1
  Na  Na15  1  0.885405  0.123193  0.750000  1
  Na  Na16  1  0.238848  0.124373  0.750000  1
  Na  Na17  1  0.761152  0.885524  0.250000  1
  Ga  Ga18  1  0.333091  0.666751  0.250000  1
  Ga  Ga19  1  0.666909  0.333659  0.750000  1
  Bi  Bi20  1  0.476521  0.527319  0.250000  1
  Bi  Bi21  1  0.950725  0.463892  0.750000  1
  Bi  Bi22  1  0.523479  0.050797  0.750000  1
  Bi  Bi23  1  0.487647  0.948978  0.250000  1
  Bi  Bi24  1  0.049275  0.513166  0.250000  1
  Bi  Bi25  1  0.512353  0.461331  0.750000  1
  Bi  Bi26  1  0.000000  0.009987  0.000000  1
  Bi  Bi27  1  0.000000  0.009987  0.500000  1
