# generated using pymatgen
data_Pu2Pa2ReB12Mo
_symmetry_space_group_name_H-M   'P 1'
_cell_length_a   3.70178300
_cell_length_b   9.32773914
_cell_length_c   11.43240450
_cell_angle_alpha   90.13138774
_cell_angle_beta   90.00000000
_cell_angle_gamma   90.00000000
_symmetry_Int_Tables_number   1
_chemical_formula_structural   Pu2Pa2ReB12Mo
_chemical_formula_sum   'Pu4 Pa4 Re2 B24 Mo2'
_cell_volume   394.75150025
_cell_formula_units_Z   2
loop_
 _symmetry_equiv_pos_site_id
 _symmetry_equiv_pos_as_xyz
  1  'x, y, z'
loop_
 _atom_site_type_symbol
 _atom_site_label
 _atom_site_symmetry_multiplicity
 _atom_site_fract_x
 _atom_site_fract_y
 _atom_site_fract_z
 _atom_site_occupancy
  Pu  Pu0  1  0.000000  0.953421  0.390358  1
  Pu  Pu1  1  0.000000  0.046579  0.609642  1
  Pu  Pu2  1  0.000000  0.455525  0.109658  1
  Pu  Pu3  1  0.000000  0.544475  0.890342  1
  Pa  Pa4  1  0.000000  0.333785  0.407431  1
  Pa  Pa5  1  0.000000  0.666215  0.592569  1
  Pa  Pa6  1  0.000000  0.834402  0.092119  1
  Pa  Pa7  1  0.000000  0.165598  0.907881  1
  Re  Re8  1  0.000000  0.145610  0.178828  1
  Re  Re9  1  0.000000  0.854390  0.821172  1
  B  B10  1  0.500000  0.551603  0.432051  1
  B  B11  1  0.500000  0.448397  0.567949  1
  B  B12  1  0.500000  0.051849  0.068550  1
  B  B13  1  0.500000  0.948151  0.931450  1
  B  B14  1  0.500000  0.744928  0.424273  1
  B  B15  1  0.500000  0.255072  0.575727  1
  B  B16  1  0.500000  0.244254  0.077095  1
  B  B17  1  0.500000  0.755746  0.922905  1
  B  B18  1  0.500000  0.804748  0.272979  1
  B  B19  1  0.500000  0.195252  0.727021  1
  B  B20  1  0.500000  0.302785  0.226310  1
  B  B21  1  0.500000  0.697215  0.773690  1
  B  B22  1  0.500000  0.645780  0.186981  1
  B  B23  1  0.500000  0.354220  0.813019  1
  B  B24  1  0.500000  0.144662  0.310942  1
  B  B25  1  0.500000  0.855338  0.689058  1
  B  B26  1  0.500000  0.988461  0.218201  1
  B  B27  1  0.500000  0.011539  0.781799  1
  B  B28  1  0.500000  0.487221  0.280642  1
  B  B29  1  0.500000  0.512779  0.719358  1
  B  B30  1  0.500000  0.642320  0.038705  1
  B  B31  1  0.500000  0.357680  0.961295  1
  B  B32  1  0.500000  0.141384  0.459580  1
  B  B33  1  0.500000  0.858616  0.540420  1
  Mo  Mo34  1  0.000000  0.646127  0.319868  1
  Mo  Mo35  1  0.000000  0.353873  0.680132  1
