# generated using pymatgen
data_Tb6C2Br7
_symmetry_space_group_name_H-M   'P 1'
_cell_length_a   10.55770135
_cell_length_b   10.55770152
_cell_length_c   12.02047443
_cell_angle_alpha   57.68359458
_cell_angle_beta   57.68359441
_cell_angle_gamma   20.91008814
_symmetry_Int_Tables_number   1
_chemical_formula_structural   Tb6C2Br7
_chemical_formula_sum   'Tb6 C2 Br7'
_cell_volume   401.36870993
_cell_formula_units_Z   1
loop_
 _symmetry_equiv_pos_site_id
 _symmetry_equiv_pos_as_xyz
  1  'x, y, z'
loop_
 _atom_site_type_symbol
 _atom_site_label
 _atom_site_symmetry_multiplicity
 _atom_site_fract_x
 _atom_site_fract_y
 _atom_site_fract_z
 _atom_site_occupancy
  Tb  Tb0  1  0.230633  0.230633  0.835624  1
  Tb  Tb1  1  0.312936  0.312936  0.366287  1
  Tb  Tb2  1  0.131354  0.131354  0.441814  1
  Tb  Tb3  1  0.868646  0.868646  0.558186  1
  Tb  Tb4  1  0.687064  0.687064  0.633713  1
  Tb  Tb5  1  0.769367  0.769367  0.164376  1
  C  C6  1  0.280138  0.280138  0.606744  1
  C  C7  1  0.719862  0.719862  0.393256  1
  Br  Br8  1  0.163708  0.163708  0.164223  1
  Br  Br9  1  0.836292  0.836292  0.835777  1
  Br  Br10  1  0.058759  0.058759  0.718740  1
  Br  Br11  1  0.941241  0.941241  0.281260  1
  Br  Br12  1  0.500000  0.500000  0.500000  1
  Br  Br13  1  0.389137  0.389137  0.069982  1
  Br  Br14  1  0.610863  0.610863  0.930018  1
