# generated using pymatgen
data_Tb9DyIn8(CoNi)2
_symmetry_space_group_name_H-M   'P 1'
_cell_length_a   3.57835800
_cell_length_b   8.05837506
_cell_length_c   18.05063913
_cell_angle_alpha   89.98613528
_cell_angle_beta   90.00000000
_cell_angle_gamma   90.00000000
_symmetry_Int_Tables_number   1
_chemical_formula_structural   Tb9DyIn8(CoNi)2
_chemical_formula_sum   'Tb9 Dy1 In8 Co2 Ni2'
_cell_volume   520.50371763
_cell_formula_units_Z   1
loop_
 _symmetry_equiv_pos_site_id
 _symmetry_equiv_pos_as_xyz
  1  'x, y, z'
loop_
 _atom_site_type_symbol
 _atom_site_label
 _atom_site_symmetry_multiplicity
 _atom_site_fract_x
 _atom_site_fract_y
 _atom_site_fract_z
 _atom_site_occupancy
  Tb  Tb0  1  0.500000  0.382734  0.589227  1
  Tb  Tb1  1  0.500000  0.884889  0.909786  1
  Tb  Tb2  1  0.500000  0.117275  0.089264  1
  Tb  Tb3  1  0.500000  0.760774  0.722547  1
  Tb  Tb4  1  0.500000  0.245788  0.779076  1
  Tb  Tb5  1  0.500000  0.499503  0.999816  1
  Tb  Tb6  1  0.500000  0.739036  0.222693  1
  Tb  Tb7  1  0.500000  0.254344  0.279197  1
  Tb  Tb8  1  0.500000  0.000549  0.499799  1
  Dy  Dy9  1  0.500000  0.614878  0.409557  1
  In  In10  1  0.000000  0.794598  0.069000  1
  In  In11  1  0.000000  0.927532  0.347591  1
  In  In12  1  0.000000  0.070025  0.652056  1
  In  In13  1  0.000000  0.571894  0.847411  1
  In  In14  1  0.000000  0.705279  0.568758  1
  In  In15  1  0.000000  0.204689  0.930273  1
  In  In16  1  0.000000  0.295987  0.430345  1
  In  In17  1  0.000000  0.429986  0.152143  1
  Co  Co18  1  0.000000  0.981084  0.804671  1
  Co  Co19  1  0.000000  0.519191  0.304892  1
  Ni  Ni20  1  0.000000  0.480568  0.695927  1
  Ni  Ni21  1  0.000000  0.019398  0.195970  1
