# generated using pymatgen
data_Sr6Sn8BiP
_symmetry_space_group_name_H-M   'P 1'
_cell_length_a   8.95004313
_cell_length_b   8.95004294
_cell_length_c   8.95004337
_cell_angle_alpha   119.99273786
_cell_angle_beta   119.99273349
_cell_angle_gamma   90.01258118
_symmetry_Int_Tables_number   1
_chemical_formula_structural   Sr6Sn8BiP
_chemical_formula_sum   'Sr6 Sn8 Bi1 P1'
_cell_volume   507.00012494
_cell_formula_units_Z   1
loop_
 _symmetry_equiv_pos_site_id
 _symmetry_equiv_pos_as_xyz
  1  'x, y, z'
loop_
 _atom_site_type_symbol
 _atom_site_label
 _atom_site_symmetry_multiplicity
 _atom_site_fract_x
 _atom_site_fract_y
 _atom_site_fract_z
 _atom_site_occupancy
  Sr  Sr0  1  0.267254  0.267254  0.000000  1
  Sr  Sr1  1  0.732746  0.732746  0.000000  1
  Sr  Sr2  1  0.185938  0.648314  0.834252  1
  Sr  Sr3  1  0.814062  0.351686  0.165748  1
  Sr  Sr4  1  0.648314  0.814062  0.462376  1
  Sr  Sr5  1  0.351686  0.185938  0.537624  1
  Sn  Sn6  1  0.835686  0.326803  0.785881  1
  Sn  Sn7  1  0.164314  0.673197  0.214119  1
  Sn  Sn8  1  0.540923  0.049805  0.214119  1
  Sn  Sn9  1  0.326803  0.540923  0.491117  1
  Sn  Sn10  1  0.950195  0.164314  0.491117  1
  Sn  Sn11  1  0.459077  0.950195  0.785881  1
  Sn  Sn12  1  0.673197  0.459077  0.508883  1
  Sn  Sn13  1  0.049805  0.835686  0.508883  1
  Bi  Bi14  1  0.000000  0.000000  0.000000  1
  P  P15  1  0.500000  0.500000  0.000000  1
