# generated using pymatgen
data_K4Li2AlH12Ir
_symmetry_space_group_name_H-M   'P 1'
_cell_length_a   9.72530362
_cell_length_b   9.72530384
_cell_length_c   9.72530287
_cell_angle_alpha   33.70361845
_cell_angle_beta   33.70361452
_cell_angle_gamma   33.70362096
_symmetry_Int_Tables_number   1
_chemical_formula_structural   K4Li2AlH12Ir
_chemical_formula_sum   'K4 Li2 Al1 H12 Ir1'
_cell_volume   252.33750606
_cell_formula_units_Z   1
loop_
 _symmetry_equiv_pos_site_id
 _symmetry_equiv_pos_as_xyz
  1  'x, y, z'
loop_
 _atom_site_type_symbol
 _atom_site_label
 _atom_site_symmetry_multiplicity
 _atom_site_fract_x
 _atom_site_fract_y
 _atom_site_fract_z
 _atom_site_occupancy
  K  K0  1  0.127702  0.127702  0.127702  1
  K  K1  1  0.872298  0.872298  0.872298  1
  K  K2  1  0.285617  0.285617  0.285617  1
  K  K3  1  0.714383  0.714383  0.714383  1
  Li  Li4  1  0.407753  0.407753  0.407753  1
  Li  Li5  1  0.592247  0.592247  0.592247  1
  Al  Al6  1  0.000000  0.000000  0.000000  1
  H  H7  1  0.187499  0.187499  0.735397  1
  H  H8  1  0.735397  0.187499  0.187499  1
  H  H9  1  0.187499  0.735397  0.187499  1
  H  H10  1  0.812501  0.264603  0.812501  1
  H  H11  1  0.812501  0.812501  0.264603  1
  H  H12  1  0.264603  0.812501  0.812501  1
  H  H13  1  0.396383  0.396383  0.816202  1
  H  H14  1  0.816202  0.396383  0.396383  1
  H  H15  1  0.183798  0.603617  0.603617  1
  H  H16  1  0.603617  0.603617  0.183798  1
  H  H17  1  0.603617  0.183798  0.603617  1
  H  H18  1  0.396383  0.816202  0.396383  1
  Ir  Ir19  1  0.500000  0.500000  0.500000  1
