# generated using pymatgen
data_Zr5Co11Cu3Ni5P12
_symmetry_space_group_name_H-M   'P 1'
_cell_length_a   11.89180559
_cell_length_b   11.92361615
_cell_length_c   3.64860800
_cell_angle_alpha   90.00000000
_cell_angle_beta   90.00000000
_cell_angle_gamma   120.05670937
_symmetry_Int_Tables_number   1
_chemical_formula_structural   Zr5Co11Cu3Ni5P12
_chemical_formula_sum   'Zr5 Co11 Cu3 Ni5 P12'
_cell_volume   447.78049037
_cell_formula_units_Z   1
loop_
 _symmetry_equiv_pos_site_id
 _symmetry_equiv_pos_as_xyz
  1  'x, y, z'
loop_
 _atom_site_type_symbol
 _atom_site_label
 _atom_site_symmetry_multiplicity
 _atom_site_fract_x
 _atom_site_fract_y
 _atom_site_fract_z
 _atom_site_occupancy
  Zr  Zr0  1  0.666343  0.333464  0.000000  1
  Zr  Zr1  1  0.332627  0.665322  0.000000  1
  Zr  Zr2  1  0.820109  0.819408  0.500000  1
  Zr  Zr3  1  0.182190  0.000728  0.500000  1
  Zr  Zr4  1  0.000564  0.181043  0.500000  1
  Co  Co5  1  0.200502  0.379000  0.000000  1
  Co  Co6  1  0.180203  0.802163  0.000000  1
  Co  Co7  1  0.822445  0.621323  0.000000  1
  Co  Co8  1  0.799368  0.178282  0.000000  1
  Co  Co9  1  0.378073  0.200497  0.000000  1
  Co  Co10  1  0.480047  0.125177  0.500000  1
  Co  Co11  1  0.998681  0.999969  0.000000  1
  Co  Co12  1  0.714138  0.000133  0.500000  1
  Co  Co13  1  0.000724  0.717343  0.500000  1
  Co  Co14  1  0.620679  0.820976  0.000000  1
  Co  Co15  1  0.283854  0.283940  0.500000  1
  Cu  Cu16  1  0.452895  0.451616  0.000000  1
  Cu  Cu17  1  0.549202  0.001700  0.000000  1
  Cu  Cu18  1  0.000386  0.548314  0.000000  1
  Ni  Ni19  1  0.124659  0.481532  0.500000  1
  Ni  Ni20  1  0.357488  0.872241  0.500000  1
  Ni  Ni21  1  0.518537  0.642609  0.500000  1
  Ni  Ni22  1  0.643555  0.517841  0.500000  1
  Ni  Ni23  1  0.873235  0.355374  0.500000  1
  P  P24  1  0.647058  0.646368  0.000000  1
  P  P25  1  0.357753  0.003330  0.000000  1
  P  P26  1  0.999133  0.353361  0.000000  1
  P  P27  1  0.481589  0.311218  0.500000  1
  P  P28  1  0.683284  0.167557  0.500000  1
  P  P29  1  0.832143  0.519035  0.500000  1
  P  P30  1  0.518432  0.829530  0.500000  1
  P  P31  1  0.168515  0.687768  0.500000  1
  P  P32  1  0.820830  0.000289  0.000000  1
  P  P33  1  0.000667  0.823180  0.000000  1
  P  P34  1  0.312675  0.480822  0.500000  1
  P  P35  1  0.177416  0.177544  0.000000  1
