# generated using pymatgen
data_K2AgP2O7
_symmetry_space_group_name_H-M   'P 1'
_cell_length_a   8.62135000
_cell_length_b   8.62135000
_cell_length_c   5.44354300
_cell_angle_alpha   90.00000000
_cell_angle_beta   90.00000000
_cell_angle_gamma   90.00000000
_symmetry_Int_Tables_number   1
_chemical_formula_structural   K2AgP2O7
_chemical_formula_sum   'K4 Ag2 P4 O14'
_cell_volume   404.60589943
_cell_formula_units_Z   2
loop_
 _symmetry_equiv_pos_site_id
 _symmetry_equiv_pos_as_xyz
  1  'x, y, z'
loop_
 _atom_site_type_symbol
 _atom_site_label
 _atom_site_symmetry_multiplicity
 _atom_site_fract_x
 _atom_site_fract_y
 _atom_site_fract_z
 _atom_site_occupancy
  K  K0  1  0.332914  0.832914  0.491737  1
  K  K1  1  0.167086  0.332914  0.508263  1
  K  K2  1  0.667086  0.167086  0.491737  1
  K  K3  1  0.832914  0.667086  0.508263  1
  Ag  Ag4  1  0.500000  0.500000  0.000000  1
  Ag  Ag5  1  0.000000  0.000000  0.000000  1
  P  P6  1  0.372625  0.127375  0.978738  1
  P  P7  1  0.127375  0.627375  0.021262  1
  P  P8  1  0.627375  0.872625  0.978738  1
  P  P9  1  0.872625  0.372625  0.021262  1
  O  O10  1  0.500000  0.000000  0.879079  1
  O  O11  1  0.000000  0.500000  0.120921  1
  O  O12  1  0.575284  0.721378  0.849756  1
  O  O13  1  0.924716  0.221378  0.150244  1
  O  O14  1  0.424716  0.278622  0.849756  1
  O  O15  1  0.075284  0.778622  0.150244  1
  O  O16  1  0.721378  0.424716  0.150244  1
  O  O17  1  0.778622  0.924716  0.849756  1
  O  O18  1  0.278622  0.575284  0.150244  1
  O  O19  1  0.221378  0.075284  0.849756  1
  O  O20  1  0.369749  0.130251  0.255309  1
  O  O21  1  0.130251  0.630251  0.744691  1
  O  O22  1  0.630251  0.869749  0.255309  1
  O  O23  1  0.869749  0.369749  0.744691  1
