# generated using pymatgen
data_CsV4I11
_symmetry_space_group_name_H-M   'P 1'
_cell_length_a   7.48328000
_cell_length_b   8.23784300
_cell_length_c   19.88796000
_cell_angle_alpha   90.00000000
_cell_angle_beta   90.00000000
_cell_angle_gamma   90.00000000
_symmetry_Int_Tables_number   1
_chemical_formula_structural   CsV4I11
_chemical_formula_sum   'Cs2 V8 I22'
_cell_volume   1226.01488785
_cell_formula_units_Z   2
loop_
 _symmetry_equiv_pos_site_id
 _symmetry_equiv_pos_as_xyz
  1  'x, y, z'
loop_
 _atom_site_type_symbol
 _atom_site_label
 _atom_site_symmetry_multiplicity
 _atom_site_fract_x
 _atom_site_fract_y
 _atom_site_fract_z
 _atom_site_occupancy
  Cs  Cs0  1  0.070517  0.500000  0.750000  1
  Cs  Cs1  1  0.929483  0.500000  0.250000  1
  V  V2  1  0.352539  0.000000  0.670019  1
  V  V3  1  0.647461  0.000000  0.329981  1
  V  V4  1  0.352539  0.000000  0.829981  1
  V  V5  1  0.647461  0.000000  0.170019  1
  V  V6  1  0.500000  0.255239  0.500000  1
  V  V7  1  0.500000  0.255239  0.000000  1
  V  V8  1  0.500000  0.744761  0.500000  1
  V  V9  1  0.500000  0.744761  0.000000  1
  I  I10  1  0.646841  0.000000  0.579942  1
  I  I11  1  0.353159  0.000000  0.420058  1
  I  I12  1  0.646841  0.000000  0.920058  1
  I  I13  1  0.353159  0.000000  0.079942  1
  I  I14  1  0.206132  0.762817  0.586185  1
  I  I15  1  0.793868  0.762817  0.413815  1
  I  I16  1  0.206132  0.762817  0.913815  1
  I  I17  1  0.793868  0.762817  0.086185  1
  I  I18  1  0.793868  0.237183  0.413815  1
  I  I19  1  0.206132  0.237183  0.586185  1
  I  I20  1  0.793868  0.237183  0.086185  1
  I  I21  1  0.206132  0.237183  0.913815  1
  I  I22  1  0.334666  0.500000  0.426910  1
  I  I23  1  0.665334  0.500000  0.573090  1
  I  I24  1  0.334666  0.500000  0.073090  1
  I  I25  1  0.665334  0.500000  0.926910  1
  I  I26  1  0.049830  0.000000  0.750000  1
  I  I27  1  0.950170  0.000000  0.250000  1
  I  I28  1  0.515260  0.234369  0.750000  1
  I  I29  1  0.484740  0.234369  0.250000  1
  I  I30  1  0.484740  0.765631  0.250000  1
  I  I31  1  0.515260  0.765631  0.750000  1
