# generated using pymatgen
data_Ce5B6MoOs
_symmetry_space_group_name_H-M   'P 1'
_cell_length_a   5.50819867
_cell_length_b   5.50819886
_cell_length_c   8.60304800
_cell_angle_alpha   71.32917685
_cell_angle_beta   71.32917620
_cell_angle_gamma   59.99999518
_symmetry_Int_Tables_number   1
_chemical_formula_structural   Ce5B6MoOs
_chemical_formula_sum   'Ce5 B6 Mo1 Os1'
_cell_volume   210.03753768
_cell_formula_units_Z   1
loop_
 _symmetry_equiv_pos_site_id
 _symmetry_equiv_pos_as_xyz
  1  'x, y, z'
loop_
 _atom_site_type_symbol
 _atom_site_label
 _atom_site_symmetry_multiplicity
 _atom_site_fract_x
 _atom_site_fract_y
 _atom_site_fract_z
 _atom_site_occupancy
  Ce  Ce0  1  0.996783  0.996783  0.009651  1
  Ce  Ce1  1  0.748055  0.748055  0.755834  1
  Ce  Ce2  1  0.251431  0.251431  0.245708  1
  Ce  Ce3  1  0.584647  0.584647  0.246059  1
  Ce  Ce4  1  0.414545  0.414545  0.756365  1
  B  B5  1  0.500399  0.171420  0.499444  1
  B  B6  1  0.828737  0.500399  0.499444  1
  B  B7  1  0.171420  0.828737  0.499444  1
  B  B8  1  0.171420  0.500399  0.499444  1
  B  B9  1  0.828737  0.171420  0.499444  1
  B  B10  1  0.500399  0.828737  0.499444  1
  Mo  Mo11  1  0.892298  0.892298  0.323108  1
  Os  Os12  1  0.111130  0.111130  0.666611  1
