# generated using pymatgen
data_Cs2Hg6PdRh
_symmetry_space_group_name_H-M   'P 1'
_cell_length_a   7.73548917
_cell_length_b   7.73552275
_cell_length_c   7.73204504
_cell_angle_alpha   60.00941595
_cell_angle_beta   60.00707969
_cell_angle_gamma   90.04166392
_symmetry_Int_Tables_number   1
_chemical_formula_structural   Cs2Hg6PdRh
_chemical_formula_sum   'Cs2 Hg6 Pd1 Rh1'
_cell_volume   327.11995777
_cell_formula_units_Z   1
loop_
 _symmetry_equiv_pos_site_id
 _symmetry_equiv_pos_as_xyz
  1  'x, y, z'
loop_
 _atom_site_type_symbol
 _atom_site_label
 _atom_site_symmetry_multiplicity
 _atom_site_fract_x
 _atom_site_fract_y
 _atom_site_fract_z
 _atom_site_occupancy
  Cs  Cs0  1  0.249997  0.750005  0.500000  1
  Cs  Cs1  1  0.750007  0.249999  0.499997  1
  Hg  Hg2  1  0.247968  0.247970  0.000017  1
  Hg  Hg3  1  0.752028  0.247974  0.000001  1
  Hg  Hg4  1  0.247970  0.752029  0.999999  1
  Hg  Hg5  1  0.752033  0.752031  0.999982  1
  Hg  Hg6  1  0.752034  0.752035  0.495947  1
  Hg  Hg7  1  0.247966  0.247965  0.504053  1
  Pd  Pd8  1  0.500000  0.500001  0.999999  1
  Rh  Rh9  1  0.999998  0.999997  0.000003  1
