# generated using pymatgen
data_TbDy7Re3TcB24
_symmetry_space_group_name_H-M   'P 1'
_cell_length_a   3.69061500
_cell_length_b   9.18238799
_cell_length_c   11.56844300
_cell_angle_alpha   90.02590833
_cell_angle_beta   90.00000000
_cell_angle_gamma   90.00000000
_symmetry_Int_Tables_number   1
_chemical_formula_structural   TbDy7Re3TcB24
_chemical_formula_sum   'Tb1 Dy7 Re3 Tc1 B24'
_cell_volume   392.03897839
_cell_formula_units_Z   1
loop_
 _symmetry_equiv_pos_site_id
 _symmetry_equiv_pos_as_xyz
  1  'x, y, z'
loop_
 _atom_site_type_symbol
 _atom_site_label
 _atom_site_symmetry_multiplicity
 _atom_site_fract_x
 _atom_site_fract_y
 _atom_site_fract_z
 _atom_site_occupancy
  Tb  Tb0  1  0.000000  0.323832  0.413861  1
  Dy  Dy1  1  0.000000  0.676322  0.585972  1
  Dy  Dy2  1  0.000000  0.823814  0.085932  1
  Dy  Dy3  1  0.000000  0.176509  0.913981  1
  Dy  Dy4  1  0.000000  0.941675  0.369512  1
  Dy  Dy5  1  0.000000  0.057123  0.630008  1
  Dy  Dy6  1  0.000000  0.443336  0.130853  1
  Dy  Dy7  1  0.000000  0.557224  0.870041  1
  Re  Re8  1  0.000000  0.361606  0.679279  1
  Re  Re9  1  0.000000  0.138450  0.179121  1
  Re  Re10  1  0.000000  0.861604  0.820830  1
  Tc  Tc11  1  0.000000  0.638687  0.320682  1
  B  B12  1  0.500000  0.553586  0.432693  1
  B  B13  1  0.500000  0.446849  0.567205  1
  B  B14  1  0.500000  0.053354  0.067027  1
  B  B15  1  0.500000  0.946878  0.932855  1
  B  B16  1  0.500000  0.748281  0.418275  1
  B  B17  1  0.500000  0.251339  0.581795  1
  B  B18  1  0.500000  0.248815  0.081671  1
  B  B19  1  0.500000  0.751512  0.918386  1
  B  B20  1  0.500000  0.791355  0.265423  1
  B  B21  1  0.500000  0.208307  0.734393  1
  B  B22  1  0.500000  0.291557  0.234432  1
  B  B23  1  0.500000  0.708291  0.765598  1
  B  B24  1  0.500000  0.630986  0.185852  1
  B  B25  1  0.500000  0.369294  0.814266  1
  B  B26  1  0.500000  0.130355  0.314159  1
  B  B27  1  0.500000  0.869206  0.685685  1
  B  B28  1  0.500000  0.982119  0.211686  1
  B  B29  1  0.500000  0.017763  0.788090  1
  B  B30  1  0.500000  0.482752  0.288235  1
  B  B31  1  0.500000  0.517815  0.711947  1
  B  B32  1  0.500000  0.600510  0.028299  1
  B  B33  1  0.500000  0.399809  0.972150  1
  B  B34  1  0.500000  0.099588  0.471769  1
  B  B35  1  0.500000  0.899497  0.528035  1
