# generated using pymatgen
data_Ho3Lu7InPb5
_symmetry_space_group_name_H-M   'P 1'
_cell_length_a   6.53264302
_cell_length_b   8.89055703
_cell_length_c   8.91716022
_cell_angle_alpha   119.90131991
_cell_angle_beta   90.00116895
_cell_angle_gamma   89.99088090
_symmetry_Int_Tables_number   1
_chemical_formula_structural   Ho3Lu7InPb5
_chemical_formula_sum   'Ho3 Lu7 In1 Pb5'
_cell_volume   448.95838116
_cell_formula_units_Z   1
loop_
 _symmetry_equiv_pos_site_id
 _symmetry_equiv_pos_as_xyz
  1  'x, y, z'
loop_
 _atom_site_type_symbol
 _atom_site_label
 _atom_site_symmetry_multiplicity
 _atom_site_fract_x
 _atom_site_fract_y
 _atom_site_fract_z
 _atom_site_occupancy
  Ho  Ho0  1  0.250075  0.765333  0.999954  1
  Ho  Ho1  1  0.250014  0.237509  0.236067  1
  Ho  Ho2  1  0.250034  0.001281  0.763847  1
  Lu  Lu3  1  0.750133  0.235794  0.000113  1
  Lu  Lu4  1  0.749960  0.761604  0.768122  1
  Lu  Lu5  1  0.749995  0.993402  0.231858  1
  Lu  Lu6  1  0.502359  0.337201  0.670900  1
  Lu  Lu7  1  0.502330  0.666257  0.329127  1
  Lu  Lu8  1  0.997609  0.665903  0.328657  1
  Lu  Lu9  1  0.997615  0.337225  0.671335  1
  In  In10  1  0.749783  0.601338  0.000027  1
  Pb  Pb11  1  0.750152  0.392502  0.393781  1
  Pb  Pb12  1  0.749961  0.998842  0.606369  1
  Pb  Pb13  1  0.250519  0.398674  0.999914  1
  Pb  Pb14  1  0.249730  0.604631  0.602154  1
  Pb  Pb15  1  0.249730  0.002506  0.397774  1
