# generated using pymatgen
data_Ti4V4SiAs3
_symmetry_space_group_name_H-M   'P 1'
_cell_length_a   3.40105100
_cell_length_b   6.56457817
_cell_length_c   7.95147956
_cell_angle_alpha   90.05917436
_cell_angle_beta   90.00000000
_cell_angle_gamma   90.00000000
_symmetry_Int_Tables_number   1
_chemical_formula_structural   Ti4V4SiAs3
_chemical_formula_sum   'Ti4 V4 Si1 As3'
_cell_volume   177.52833658
_cell_formula_units_Z   1
loop_
 _symmetry_equiv_pos_site_id
 _symmetry_equiv_pos_as_xyz
  1  'x, y, z'
loop_
 _atom_site_type_symbol
 _atom_site_label
 _atom_site_symmetry_multiplicity
 _atom_site_fract_x
 _atom_site_fract_y
 _atom_site_fract_z
 _atom_site_occupancy
  Ti  Ti0  1  0.250000  0.552155  0.162363  1
  Ti  Ti1  1  0.750000  0.455976  0.833610  1
  Ti  Ti2  1  0.750000  0.946214  0.669958  1
  Ti  Ti3  1  0.250000  0.050626  0.333689  1
  V  V4  1  0.250000  0.629290  0.561998  1
  V  V5  1  0.750000  0.369273  0.440175  1
  V  V6  1  0.750000  0.869129  0.057887  1
  V  V7  1  0.250000  0.125976  0.939607  1
  Si  Si8  1  0.250000  0.750571  0.860212  1
  As  As9  1  0.750000  0.251578  0.138921  1
  As  As10  1  0.750000  0.750196  0.360181  1
  As  As11  1  0.250000  0.249015  0.641399  1
