# generated using pymatgen
data_Ho16Tl4In2CoPt
_symmetry_space_group_name_H-M   'P 1'
_cell_length_a   10.38249200
_cell_length_b   10.39670184
_cell_length_c   7.00807701
_cell_angle_alpha   89.99509121
_cell_angle_beta   90.00150002
_cell_angle_gamma   119.95491057
_symmetry_Int_Tables_number   1
_chemical_formula_structural   Ho16Tl4In2CoPt
_chemical_formula_sum   'Ho16 Tl4 In2 Co1 Pt1'
_cell_volume   655.42625248
_cell_formula_units_Z   1
loop_
 _symmetry_equiv_pos_site_id
 _symmetry_equiv_pos_as_xyz
  1  'x, y, z'
loop_
 _atom_site_type_symbol
 _atom_site_label
 _atom_site_symmetry_multiplicity
 _atom_site_fract_x
 _atom_site_fract_y
 _atom_site_fract_z
 _atom_site_occupancy
  Ho  Ho0  1  0.530641  0.061246  0.506683  1
  Ho  Ho1  1  0.937950  0.469713  0.507333  1
  Ho  Ho2  1  0.531817  0.469765  0.507350  1
  Ho  Ho3  1  0.463423  0.926869  0.007851  1
  Ho  Ho4  1  0.073351  0.536906  0.007383  1
  Ho  Ho5  1  0.463557  0.536897  0.007385  1
  Ho  Ho6  1  0.177860  0.355746  0.713083  1
  Ho  Ho7  1  0.644321  0.822281  0.714570  1
  Ho  Ho8  1  0.177961  0.822273  0.714580  1
  Ho  Ho9  1  0.824326  0.648647  0.212190  1
  Ho  Ho10  1  0.351173  0.175886  0.211967  1
  Ho  Ho11  1  0.824704  0.175904  0.211991  1
  Ho  Ho12  1  0.666671  0.333346  0.883969  1
  Ho  Ho13  1  0.333497  0.666974  0.396257  1
  Ho  Ho14  1  0.999358  0.998722  0.490116  1
  Ho  Ho15  1  0.999370  0.998734  0.991592  1
  Tl  Tl16  1  0.837642  0.675273  0.751712  1
  Tl  Tl17  1  0.324651  0.162333  0.751764  1
  Tl  Tl18  1  0.837680  0.162342  0.751749  1
  Tl  Tl19  1  0.163208  0.326453  0.253716  1
  In  In20  1  0.674320  0.837164  0.252191  1
  In  In21  1  0.162839  0.837180  0.252158  1
  Co  Co22  1  0.333178  0.666351  0.780256  1
  Pt  Pt23  1  0.666503  0.332995  0.280193  1
