# generated using pymatgen
data_Er6Lu2InPb3Au8
_symmetry_space_group_name_H-M   'P 1'
_cell_length_a   8.06556455
_cell_length_b   8.06215859
_cell_length_c   7.26979300
_cell_angle_alpha   90.00000000
_cell_angle_beta   90.00000000
_cell_angle_gamma   89.57843013
_symmetry_Int_Tables_number   1
_chemical_formula_structural   Er6Lu2InPb3Au8
_chemical_formula_sum   'Er6 Lu2 In1 Pb3 Au8'
_cell_volume   472.71174964
_cell_formula_units_Z   1
loop_
 _symmetry_equiv_pos_site_id
 _symmetry_equiv_pos_as_xyz
  1  'x, y, z'
loop_
 _atom_site_type_symbol
 _atom_site_label
 _atom_site_symmetry_multiplicity
 _atom_site_fract_x
 _atom_site_fract_y
 _atom_site_fract_z
 _atom_site_occupancy
  Er  Er0  1  0.847506  0.157114  0.497538  1
  Er  Er1  1  0.152494  0.842886  0.497538  1
  Er  Er2  1  0.342697  0.347163  0.002348  1
  Er  Er3  1  0.657303  0.652837  0.002348  1
  Er  Er4  1  0.681792  0.678869  0.498551  1
  Er  Er5  1  0.318208  0.321131  0.498551  1
  Lu  Lu6  1  0.177846  0.818887  0.001504  1
  Lu  Lu7  1  0.822155  0.181114  0.001504  1
  In  In8  1  0.000000  0.500000  0.249681  1
  Pb  Pb9  1  0.500000  0.000000  0.249606  1
  Pb  Pb10  1  0.000000  0.500000  0.750316  1
  Pb  Pb11  1  0.500000  0.000000  0.750426  1
  Au  Au12  1  0.632112  0.374782  0.275438  1
  Au  Au13  1  0.367888  0.625218  0.275438  1
  Au  Au14  1  0.127012  0.125149  0.779478  1
  Au  Au15  1  0.872988  0.874851  0.779478  1
  Au  Au16  1  0.373347  0.628389  0.723734  1
  Au  Au17  1  0.626653  0.371611  0.723734  1
  Au  Au18  1  0.876338  0.869188  0.221393  1
  Au  Au19  1  0.123662  0.130812  0.221393  1
