# generated using pymatgen
data_Tb2ErSc2Pb3
_symmetry_space_group_name_H-M   'P 1'
_cell_length_a   8.91058140
_cell_length_b   8.90193228
_cell_length_c   6.37605700
_cell_angle_alpha   90.00000000
_cell_angle_beta   90.00000000
_cell_angle_gamma   119.96790099
_symmetry_Int_Tables_number   1
_chemical_formula_structural   Tb2ErSc2Pb3
_chemical_formula_sum   'Tb4 Er2 Sc4 Pb6'
_cell_volume   438.14063430
_cell_formula_units_Z   2
loop_
 _symmetry_equiv_pos_site_id
 _symmetry_equiv_pos_as_xyz
  1  'x, y, z'
loop_
 _atom_site_type_symbol
 _atom_site_label
 _atom_site_symmetry_multiplicity
 _atom_site_fract_x
 _atom_site_fract_y
 _atom_site_fract_z
 _atom_site_occupancy
  Tb  Tb0  1  0.238508  0.999826  0.250000  1
  Tb  Tb1  1  0.238508  0.238681  0.750000  1
  Tb  Tb2  1  0.999561  0.761757  0.750000  1
  Tb  Tb3  1  0.999561  0.237804  0.250000  1
  Er  Er4  1  0.761577  0.761830  0.250000  1
  Er  Er5  1  0.761577  0.999748  0.750000  1
  Sc  Sc6  1  0.333394  0.666697  0.000000  1
  Sc  Sc7  1  0.666766  0.333383  0.500000  1
  Sc  Sc8  1  0.666766  0.333383  0.000000  1
  Sc  Sc9  1  0.333394  0.666697  0.500000  1
  Pb  Pb10  1  0.600499  0.999111  0.250000  1
  Pb  Pb11  1  0.600499  0.601388  0.750000  1
  Pb  Pb12  1  0.999069  0.398607  0.750000  1
  Pb  Pb13  1  0.999069  0.600461  0.250000  1
  Pb  Pb14  1  0.400626  0.400647  0.250000  1
  Pb  Pb15  1  0.400626  0.999980  0.750000  1
