# generated using pymatgen
data_TmLu7V2(B12Rh)2
_symmetry_space_group_name_H-M   'P 1'
_cell_length_a   3.54801900
_cell_length_b   9.08149365
_cell_length_c   11.46548400
_cell_angle_alpha   90.31497426
_cell_angle_beta   90.00000000
_cell_angle_gamma   90.00000000
_symmetry_Int_Tables_number   1
_chemical_formula_structural   TmLu7V2(B12Rh)2
_chemical_formula_sum   'Tm1 Lu7 V2 B24 Rh2'
_cell_volume   369.42735520
_cell_formula_units_Z   1
loop_
 _symmetry_equiv_pos_site_id
 _symmetry_equiv_pos_as_xyz
  1  'x, y, z'
loop_
 _atom_site_type_symbol
 _atom_site_label
 _atom_site_symmetry_multiplicity
 _atom_site_fract_x
 _atom_site_fract_y
 _atom_site_fract_z
 _atom_site_occupancy
  Tm  Tm0  1  0.500000  0.317679  0.411611  1
  Lu  Lu1  1  0.500000  0.682457  0.588432  1
  Lu  Lu2  1  0.500000  0.174289  0.917004  1
  Lu  Lu3  1  0.500000  0.825712  0.082998  1
  Lu  Lu4  1  0.500000  0.441846  0.127155  1
  Lu  Lu5  1  0.500000  0.558102  0.872815  1
  Lu  Lu6  1  0.500000  0.054105  0.628703  1
  Lu  Lu7  1  0.500000  0.945811  0.371287  1
  V  V8  1  0.500000  0.139850  0.181711  1
  V  V9  1  0.500000  0.860115  0.818229  1
  B  B10  1  0.000000  0.104947  0.472161  1
  B  B11  1  0.000000  0.894879  0.527890  1
  B  B12  1  0.000000  0.395255  0.970680  1
  B  B13  1  0.000000  0.604761  0.029315  1
  B  B14  1  0.000000  0.131951  0.316917  1
  B  B15  1  0.000000  0.867920  0.682986  1
  B  B16  1  0.000000  0.368233  0.816457  1
  B  B17  1  0.000000  0.631775  0.183533  1
  B  B18  1  0.000000  0.052077  0.066295  1
  B  B19  1  0.000000  0.947927  0.933704  1
  B  B20  1  0.000000  0.446409  0.565714  1
  B  B21  1  0.000000  0.553781  0.434397  1
  B  B22  1  0.000000  0.481367  0.287786  1
  B  B23  1  0.000000  0.518783  0.712136  1
  B  B24  1  0.000000  0.020426  0.787503  1
  B  B25  1  0.000000  0.979586  0.212498  1
  B  B26  1  0.000000  0.249391  0.079569  1
  B  B27  1  0.000000  0.750607  0.920439  1
  B  B28  1  0.000000  0.249192  0.579212  1
  B  B29  1  0.000000  0.750761  0.420966  1
  B  B30  1  0.000000  0.295262  0.236147  1
  B  B31  1  0.000000  0.704661  0.763699  1
  B  B32  1  0.000000  0.206811  0.736006  1
  B  B33  1  0.000000  0.793181  0.263997  1
  Rh  Rh34  1  0.500000  0.361118  0.678964  1
  Rh  Rh35  1  0.500000  0.638973  0.321084  1
