# generated using pymatgen
data_CeEr4Np5O20
_symmetry_space_group_name_H-M   'P 1'
_cell_length_a   6.42237678
_cell_length_b   7.64502633
_cell_length_c   8.47804700
_cell_angle_alpha   102.89539447
_cell_angle_beta   96.69342986
_cell_angle_gamma   107.38075845
_symmetry_Int_Tables_number   1
_chemical_formula_structural   CeEr4Np5O20
_chemical_formula_sum   'Ce1 Er4 Np5 O20'
_cell_volume   379.65488918
_cell_formula_units_Z   1
loop_
 _symmetry_equiv_pos_site_id
 _symmetry_equiv_pos_as_xyz
  1  'x, y, z'
loop_
 _atom_site_type_symbol
 _atom_site_label
 _atom_site_symmetry_multiplicity
 _atom_site_fract_x
 _atom_site_fract_y
 _atom_site_fract_z
 _atom_site_occupancy
  Ce  Ce0  1  0.001909  0.002259  0.000895  1
  Er  Er1  1  0.799384  0.599697  0.600048  1
  Er  Er2  1  0.605116  0.201355  0.201778  1
  Er  Er3  1  0.998175  0.498913  0.000256  1
  Er  Er4  1  0.798305  0.098974  0.597182  1
  Np  Np5  1  0.195539  0.397869  0.398990  1
  Np  Np6  1  0.598805  0.698781  0.200584  1
  Np  Np7  1  0.402760  0.302090  0.801393  1
  Np  Np8  1  0.200040  0.899693  0.398892  1
  Np  Np9  1  0.399702  0.800712  0.799477  1
  O  O10  1  0.864171  0.330353  0.451205  1
  O  O11  1  0.644647  0.919187  0.052950  1
  O  O12  1  0.432036  0.523810  0.655294  1
  O  O13  1  0.950619  0.774065  0.153013  1
  O  O14  1  0.851638  0.821952  0.444773  1
  O  O15  1  0.730670  0.369895  0.753378  1
  O  O16  1  0.247630  0.120117  0.253550  1
  O  O17  1  0.641691  0.432257  0.058098  1
  O  O18  1  0.959153  0.277281  0.148845  1
  O  O19  1  0.437084  0.020342  0.645754  1
  O  O20  1  0.545547  0.967628  0.349875  1
  O  O21  1  0.063158  0.724267  0.844377  1
  O  O22  1  0.735712  0.873102  0.750266  1
  O  O23  1  0.249810  0.627626  0.254158  1
  O  O24  1  0.362264  0.581884  0.956229  1
  O  O25  1  0.069143  0.232297  0.842335  1
  O  O26  1  0.532966  0.474748  0.355170  1
  O  O27  1  0.159070  0.171730  0.543114  1
  O  O28  1  0.365007  0.076205  0.942877  1
  O  O29  1  0.158245  0.680912  0.545246  1
