# generated using pymatgen
data_K10TaInAs6
_symmetry_space_group_name_H-M   'P 1'
_cell_length_a   8.37574700
_cell_length_b   9.24904098
_cell_length_c   17.75973685
_cell_angle_alpha   59.87768748
_cell_angle_beta   90.00000000
_cell_angle_gamma   90.00000000
_symmetry_Int_Tables_number   1
_chemical_formula_structural   K10TaInAs6
_chemical_formula_sum   'K20 Ta2 In2 As12'
_cell_volume   1190.01058063
_cell_formula_units_Z   2
loop_
 _symmetry_equiv_pos_site_id
 _symmetry_equiv_pos_as_xyz
  1  'x, y, z'
loop_
 _atom_site_type_symbol
 _atom_site_label
 _atom_site_symmetry_multiplicity
 _atom_site_fract_x
 _atom_site_fract_y
 _atom_site_fract_z
 _atom_site_occupancy
  K  K0  1  0.747763  0.905775  0.410446  1
  K  K1  1  0.252237  0.905775  0.910446  1
  K  K2  1  0.763132  0.093922  0.591481  1
  K  K3  1  0.236868  0.093922  0.091481  1
  K  K4  1  0.579116  0.161031  0.757398  1
  K  K5  1  0.420884  0.161031  0.257398  1
  K  K6  1  0.919623  0.840773  0.240116  1
  K  K7  1  0.080377  0.840773  0.740116  1
  K  K8  1  0.739007  0.543579  0.756502  1
  K  K9  1  0.260993  0.543579  0.256502  1
  K  K10  1  0.771839  0.458184  0.239432  1
  K  K11  1  0.228161  0.458184  0.739432  1
  K  K12  1  0.078084  0.160068  0.418365  1
  K  K13  1  0.921916  0.160068  0.918365  1
  K  K14  1  0.423327  0.841723  0.580968  1
  K  K15  1  0.576673  0.841723  0.080968  1
  K  K16  1  0.252886  0.267128  0.573943  1
  K  K17  1  0.747114  0.267128  0.073943  1
  K  K18  1  0.226340  0.734040  0.425107  1
  K  K19  1  0.773660  0.734040  0.925107  1
  Ta  Ta20  1  0.622697  0.505068  0.423118  1
  Ta  Ta21  1  0.377303  0.505068  0.923118  1
  In  In22  1  0.884890  0.492778  0.582760  1
  In  In23  1  0.115110  0.492778  0.082760  1
  As  As24  1  0.925856  0.486122  0.426868  1
  As  As25  1  0.074144  0.486122  0.926868  1
  As  As26  1  0.549846  0.514308  0.559865  1
  As  As27  1  0.450154  0.514308  0.059865  1
  As  As28  1  0.969615  0.196945  0.725213  1
  As  As29  1  0.030385  0.196945  0.225213  1
  As  As30  1  0.535490  0.768801  0.289418  1
  As  As31  1  0.464510  0.768801  0.789418  1
  As  As32  1  0.000390  0.774419  0.577268  1
  As  As33  1  0.999610  0.774419  0.077268  1
  As  As34  1  0.504254  0.255339  0.421732  1
  As  As35  1  0.495746  0.255339  0.921732  1
