# generated using pymatgen
data_Pr3YIr3RhO14
_symmetry_space_group_name_H-M   'P 1'
_cell_length_a   7.37131951
_cell_length_b   7.37131920
_cell_length_c   7.37131869
_cell_angle_alpha   60.31905029
_cell_angle_beta   60.31905458
_cell_angle_gamma   60.31904786
_symmetry_Int_Tables_number   1
_chemical_formula_structural   Pr3YIr3RhO14
_chemical_formula_sum   'Pr3 Y1 Ir3 Rh1 O14'
_cell_volume   285.26241084
_cell_formula_units_Z   1
loop_
 _symmetry_equiv_pos_site_id
 _symmetry_equiv_pos_as_xyz
  1  'x, y, z'
loop_
 _atom_site_type_symbol
 _atom_site_label
 _atom_site_symmetry_multiplicity
 _atom_site_fract_x
 _atom_site_fract_y
 _atom_site_fract_z
 _atom_site_occupancy
  Pr  Pr0  1  0.625000  0.125000  0.125000  1
  Pr  Pr1  1  0.125000  0.625000  0.125000  1
  Pr  Pr2  1  0.125000  0.125000  0.625000  1
  Y  Y3  1  0.125000  0.125000  0.125000  1
  Ir  Ir4  1  0.125000  0.625000  0.625000  1
  Ir  Ir5  1  0.625000  0.125000  0.625000  1
  Ir  Ir6  1  0.625000  0.625000  0.125000  1
  Rh  Rh7  1  0.625000  0.625000  0.625000  1
  O  O8  1  0.708777  0.708777  0.287776  1
  O  O9  1  0.294178  0.294178  0.716182  1
  O  O10  1  0.708777  0.287776  0.708777  1
  O  O11  1  0.294178  0.716182  0.294178  1
  O  O12  1  0.287776  0.708777  0.708777  1
  O  O13  1  0.716182  0.294178  0.294178  1
  O  O14  1  0.541223  0.541223  0.962224  1
  O  O15  1  0.955822  0.955822  0.533818  1
  O  O16  1  0.541223  0.962224  0.541223  1
  O  O17  1  0.955822  0.533818  0.955822  1
  O  O18  1  0.962224  0.541223  0.541223  1
  O  O19  1  0.533818  0.955822  0.955822  1
  O  O20  1  0.245348  0.245348  0.245348  1
  O  O21  1  0.004652  0.004652  0.004652  1
