# generated using pymatgen
data_Eu4Sn4IrPd3
_symmetry_space_group_name_H-M   'P 1'
_cell_length_a   4.69452000
_cell_length_b   7.49385717
_cell_length_c   8.08966716
_cell_angle_alpha   90.02361549
_cell_angle_beta   90.00000000
_cell_angle_gamma   90.00000000
_symmetry_Int_Tables_number   1
_chemical_formula_structural   Eu4Sn4IrPd3
_chemical_formula_sum   'Eu4 Sn4 Ir1 Pd3'
_cell_volume   284.59497101
_cell_formula_units_Z   1
loop_
 _symmetry_equiv_pos_site_id
 _symmetry_equiv_pos_as_xyz
  1  'x, y, z'
loop_
 _atom_site_type_symbol
 _atom_site_label
 _atom_site_symmetry_multiplicity
 _atom_site_fract_x
 _atom_site_fract_y
 _atom_site_fract_z
 _atom_site_occupancy
  Eu  Eu0  1  0.250000  0.518497  0.184924  1
  Eu  Eu1  1  0.750000  0.472973  0.816887  1
  Eu  Eu2  1  0.250000  0.024565  0.311007  1
  Eu  Eu3  1  0.750000  0.977567  0.685939  1
  Sn  Sn4  1  0.250000  0.166112  0.929081  1
  Sn  Sn5  1  0.750000  0.331702  0.422360  1
  Sn  Sn6  1  0.250000  0.666242  0.573096  1
  Sn  Sn7  1  0.750000  0.839128  0.074673  1
  Ir  Ir8  1  0.750000  0.211552  0.106560  1
  Pd  Pd9  1  0.250000  0.292405  0.605762  1
  Pd  Pd10  1  0.750000  0.708833  0.395380  1
  Pd  Pd11  1  0.250000  0.790422  0.894332  1
