# generated using pymatgen
data_Ce4NiIrN4
_symmetry_space_group_name_H-M   'P 1'
_cell_length_a   3.58507800
_cell_length_b   3.58508100
_cell_length_c   12.19544800
_cell_angle_alpha   90.00000000
_cell_angle_beta   90.00000000
_cell_angle_gamma   90.00000000
_symmetry_Int_Tables_number   1
_chemical_formula_structural   Ce4NiIrN4
_chemical_formula_sum   'Ce4 Ni1 Ir1 N4'
_cell_volume   156.74559334
_cell_formula_units_Z   1
loop_
 _symmetry_equiv_pos_site_id
 _symmetry_equiv_pos_as_xyz
  1  'x, y, z'
loop_
 _atom_site_type_symbol
 _atom_site_label
 _atom_site_symmetry_multiplicity
 _atom_site_fract_x
 _atom_site_fract_y
 _atom_site_fract_z
 _atom_site_occupancy
  Ce  Ce0  1  0.750000  0.749706  0.106105  1
  Ce  Ce1  1  0.750000  0.749706  0.393895  1
  Ce  Ce2  1  0.250000  0.250314  0.900425  1
  Ce  Ce3  1  0.250000  0.250314  0.599575  1
  Ni  Ni4  1  0.250000  0.249464  0.250000  1
  Ir  Ir5  1  0.750000  0.750572  0.750000  1
  N  N6  1  0.750000  0.750495  0.580672  1
  N  N7  1  0.750000  0.750495  0.919328  1
  N  N8  1  0.250000  0.249467  0.404808  1
  N  N9  1  0.250000  0.249467  0.095192  1
