# generated using pymatgen
data_Hf2(PaMn)3
_symmetry_space_group_name_H-M   'P 1'
_cell_length_a   6.30107800
_cell_length_b   7.49965906
_cell_length_c   7.49965900
_cell_angle_alpha   120.00000412
_cell_angle_beta   90.00000000
_cell_angle_gamma   90.00000000
_symmetry_Int_Tables_number   1
_chemical_formula_structural   Hf2(PaMn)3
_chemical_formula_sum   'Hf4 Pa6 Mn6'
_cell_volume   306.92234461
_cell_formula_units_Z   2
loop_
 _symmetry_equiv_pos_site_id
 _symmetry_equiv_pos_as_xyz
  1  'x, y, z'
loop_
 _atom_site_type_symbol
 _atom_site_label
 _atom_site_symmetry_multiplicity
 _atom_site_fract_x
 _atom_site_fract_y
 _atom_site_fract_z
 _atom_site_occupancy
  Hf  Hf0  1  0.000000  0.666667  0.333333  1
  Hf  Hf1  1  0.000000  0.333333  0.666667  1
  Hf  Hf2  1  0.500000  0.333333  0.666667  1
  Hf  Hf3  1  0.500000  0.666667  0.333333  1
  Pa  Pa4  1  0.750000  0.760577  0.760577  1
  Pa  Pa5  1  0.250000  0.239423  0.239423  1
  Pa  Pa6  1  0.750000  0.000000  0.239423  1
  Pa  Pa7  1  0.250000  0.000000  0.760577  1
  Pa  Pa8  1  0.750000  0.239423  0.000000  1
  Pa  Pa9  1  0.250000  0.760577  0.000000  1
  Mn  Mn10  1  0.750000  0.367970  0.367970  1
  Mn  Mn11  1  0.250000  0.632030  0.632030  1
  Mn  Mn12  1  0.750000  0.000000  0.632030  1
  Mn  Mn13  1  0.250000  0.000000  0.367970  1
  Mn  Mn14  1  0.750000  0.632030  0.000000  1
  Mn  Mn15  1  0.250000  0.367970  0.000000  1
