# generated using pymatgen
data_YErTcC2
_symmetry_space_group_name_H-M   'P 1'
_cell_length_a   5.07673400
_cell_length_b   6.58287900
_cell_length_c   9.83199100
_cell_angle_alpha   90.00000000
_cell_angle_beta   90.00000000
_cell_angle_gamma   90.00000000
_symmetry_Int_Tables_number   1
_chemical_formula_structural   YErTcC2
_chemical_formula_sum   'Y4 Er4 Tc4 C8'
_cell_volume   328.58047529
_cell_formula_units_Z   4
loop_
 _symmetry_equiv_pos_site_id
 _symmetry_equiv_pos_as_xyz
  1  'x, y, z'
loop_
 _atom_site_type_symbol
 _atom_site_label
 _atom_site_symmetry_multiplicity
 _atom_site_fract_x
 _atom_site_fract_y
 _atom_site_fract_z
 _atom_site_occupancy
  Y  Y0  1  0.250000  0.532855  0.215361  1
  Y  Y1  1  0.750000  0.467145  0.784639  1
  Y  Y2  1  0.750000  0.967145  0.715361  1
  Y  Y3  1  0.250000  0.032855  0.284639  1
  Er  Er4  1  0.250000  0.676188  0.558241  1
  Er  Er5  1  0.750000  0.323812  0.441759  1
  Er  Er6  1  0.750000  0.823812  0.058241  1
  Er  Er7  1  0.250000  0.176188  0.941759  1
  Tc  Tc8  1  0.250000  0.720641  0.866093  1
  Tc  Tc9  1  0.750000  0.279359  0.133907  1
  Tc  Tc10  1  0.750000  0.779359  0.366093  1
  Tc  Tc11  1  0.250000  0.220641  0.633907  1
  C  C12  1  0.250000  0.452847  0.759052  1
  C  C13  1  0.750000  0.547153  0.240948  1
  C  C14  1  0.750000  0.047153  0.259052  1
  C  C15  1  0.250000  0.952847  0.740948  1
  C  C16  1  0.250000  0.824346  0.048410  1
  C  C17  1  0.750000  0.175654  0.951590  1
  C  C18  1  0.750000  0.675654  0.548410  1
  C  C19  1  0.250000  0.324346  0.451590  1
