# generated using pymatgen
data_Dy2Ho6Re13B12
_symmetry_space_group_name_H-M   'P 1'
_cell_length_a   7.78599091
_cell_length_b   7.78599168
_cell_length_c   7.78599058
_cell_angle_alpha   86.43450118
_cell_angle_beta   86.43449868
_cell_angle_gamma   86.43450495
_symmetry_Int_Tables_number   1
_chemical_formula_structural   Dy2Ho6Re13B12
_chemical_formula_sum   'Dy2 Ho6 Re13 B12'
_cell_volume   469.36764923
_cell_formula_units_Z   1
loop_
 _symmetry_equiv_pos_site_id
 _symmetry_equiv_pos_as_xyz
  1  'x, y, z'
loop_
 _atom_site_type_symbol
 _atom_site_label
 _atom_site_symmetry_multiplicity
 _atom_site_fract_x
 _atom_site_fract_y
 _atom_site_fract_z
 _atom_site_occupancy
  Dy  Dy0  1  0.641419  0.641419  0.641419  1
  Dy  Dy1  1  0.358581  0.358581  0.358581  1
  Ho  Ho2  1  0.188781  0.188781  0.687432  1
  Ho  Ho3  1  0.687432  0.188781  0.188781  1
  Ho  Ho4  1  0.188781  0.687432  0.188781  1
  Ho  Ho5  1  0.811219  0.811219  0.312568  1
  Ho  Ho6  1  0.312568  0.811219  0.811219  1
  Ho  Ho7  1  0.811219  0.312568  0.811219  1
  Re  Re8  1  0.000000  0.000000  0.000000  1
  Re  Re9  1  0.596719  0.063300  0.596719  1
  Re  Re10  1  0.596719  0.596719  0.063300  1
  Re  Re11  1  0.063300  0.596719  0.596719  1
  Re  Re12  1  0.403281  0.936700  0.403281  1
  Re  Re13  1  0.403281  0.403281  0.936700  1
  Re  Re14  1  0.936700  0.403281  0.403281  1
  Re  Re15  1  0.923298  0.923298  0.670582  1
  Re  Re16  1  0.670582  0.923298  0.923298  1
  Re  Re17  1  0.923298  0.670582  0.923298  1
  Re  Re18  1  0.076702  0.076702  0.329418  1
  Re  Re19  1  0.329418  0.076702  0.076702  1
  Re  Re20  1  0.076702  0.329418  0.076702  1
  B  B21  1  0.152354  0.847646  0.500000  1
  B  B22  1  0.500000  0.152354  0.847646  1
  B  B23  1  0.847646  0.500000  0.152354  1
  B  B24  1  0.500000  0.847646  0.152354  1
  B  B25  1  0.152354  0.500000  0.847646  1
  B  B26  1  0.847646  0.152354  0.500000  1
  B  B27  1  0.671314  0.500000  0.328686  1
  B  B28  1  0.328686  0.671314  0.500000  1
  B  B29  1  0.500000  0.328686  0.671314  1
  B  B30  1  0.328686  0.500000  0.671314  1
  B  B31  1  0.671314  0.328686  0.500000  1
  B  B32  1  0.500000  0.671314  0.328686  1
