# generated using pymatgen
data_Hf8Si6MoWN2
_symmetry_space_group_name_H-M   'P 1'
_cell_length_a   7.73025000
_cell_length_b   7.73025097
_cell_length_c   5.44359000
_cell_angle_alpha   90.00000000
_cell_angle_beta   90.00000000
_cell_angle_gamma   119.99999584
_symmetry_Int_Tables_number   1
_chemical_formula_structural   Hf8Si6MoWN2
_chemical_formula_sum   'Hf8 Si6 Mo1 W1 N2'
_cell_volume   281.71060154
_cell_formula_units_Z   1
loop_
 _symmetry_equiv_pos_site_id
 _symmetry_equiv_pos_as_xyz
  1  'x, y, z'
loop_
 _atom_site_type_symbol
 _atom_site_label
 _atom_site_symmetry_multiplicity
 _atom_site_fract_x
 _atom_site_fract_y
 _atom_site_fract_z
 _atom_site_occupancy
  Hf  Hf0  1  0.235144  0.999856  0.248314  1
  Hf  Hf1  1  0.764712  0.999856  0.751686  1
  Hf  Hf2  1  0.000144  0.235288  0.248314  1
  Hf  Hf3  1  0.000144  0.764856  0.751686  1
  Hf  Hf4  1  0.764712  0.764856  0.248314  1
  Hf  Hf5  1  0.235144  0.235288  0.751686  1
  Hf  Hf6  1  0.666667  0.333333  0.500000  1
  Hf  Hf7  1  0.333333  0.666667  0.500000  1
  Si  Si8  1  0.590778  0.000033  0.227208  1
  Si  Si9  1  0.409255  0.000033  0.772792  1
  Si  Si10  1  0.999967  0.590745  0.227208  1
  Si  Si11  1  0.999967  0.409222  0.772792  1
  Si  Si12  1  0.409255  0.409222  0.227208  1
  Si  Si13  1  0.590778  0.590745  0.772792  1
  Mo  Mo14  1  0.666667  0.333333  0.000000  1
  W  W15  1  0.333333  0.666667  0.000000  1
  N  N16  1  0.000000  0.000000  0.000000  1
  N  N17  1  0.000000  0.000000  0.500000  1
