# generated using pymatgen
data_YbHoZn14Cu3
_symmetry_space_group_name_H-M   'P 1'
_cell_length_a   8.89863400
_cell_length_b   8.89863328
_cell_length_c   8.69275800
_cell_angle_alpha   90.00000000
_cell_angle_beta   90.00000000
_cell_angle_gamma   119.99877642
_symmetry_Int_Tables_number   1
_chemical_formula_structural   YbHoZn14Cu3
_chemical_formula_sum   'Yb2 Ho2 Zn28 Cu6'
_cell_volume   596.12897314
_cell_formula_units_Z   2
loop_
 _symmetry_equiv_pos_site_id
 _symmetry_equiv_pos_as_xyz
  1  'x, y, z'
loop_
 _atom_site_type_symbol
 _atom_site_label
 _atom_site_symmetry_multiplicity
 _atom_site_fract_x
 _atom_site_fract_y
 _atom_site_fract_z
 _atom_site_occupancy
  Yb  Yb0  1  0.999997  0.000003  0.750000  1
  Yb  Yb1  1  0.000003  0.999997  0.250000  1
  Ho  Ho2  1  0.666688  0.333312  0.250000  1
  Ho  Ho3  1  0.333312  0.666688  0.750000  1
  Zn  Zn4  1  0.666669  0.333331  0.595560  1
  Zn  Zn5  1  0.333331  0.666669  0.404440  1
  Zn  Zn6  1  0.333331  0.666669  0.095560  1
  Zn  Zn7  1  0.666669  0.333331  0.904440  1
  Zn  Zn8  1  0.667786  0.035781  0.750000  1
  Zn  Zn9  1  0.367999  0.332217  0.750000  1
  Zn  Zn10  1  0.964242  0.632040  0.750000  1
  Zn  Zn11  1  0.367960  0.035758  0.750000  1
  Zn  Zn12  1  0.964219  0.332214  0.750000  1
  Zn  Zn13  1  0.667783  0.632001  0.750000  1
  Zn  Zn14  1  0.332214  0.964219  0.250000  1
  Zn  Zn15  1  0.632001  0.667783  0.250000  1
  Zn  Zn16  1  0.035758  0.367960  0.250000  1
  Zn  Zn17  1  0.632040  0.964242  0.250000  1
  Zn  Zn18  1  0.035781  0.667786  0.250000  1
  Zn  Zn19  1  0.332217  0.367999  0.250000  1
  Zn  Zn20  1  0.831900  0.663816  0.478625  1
  Zn  Zn21  1  0.831926  0.168074  0.478643  1
  Zn  Zn22  1  0.336184  0.168100  0.478625  1
  Zn  Zn23  1  0.168100  0.336184  0.521375  1
  Zn  Zn24  1  0.168074  0.831926  0.521357  1
  Zn  Zn25  1  0.663816  0.831900  0.521375  1
  Zn  Zn26  1  0.168100  0.336184  0.978625  1
  Zn  Zn27  1  0.168074  0.831926  0.978643  1
  Zn  Zn28  1  0.663816  0.831900  0.978625  1
  Zn  Zn29  1  0.831900  0.663816  0.021375  1
  Zn  Zn30  1  0.831926  0.168074  0.021357  1
  Zn  Zn31  1  0.336184  0.168100  0.021375  1
  Cu  Cu32  1  0.500000  0.000000  0.500000  1
  Cu  Cu33  1  0.500000  0.500000  0.500000  1
  Cu  Cu34  1  0.000000  0.500000  0.500000  1
  Cu  Cu35  1  0.500000  0.000000  0.000000  1
  Cu  Cu36  1  0.500000  0.500000  0.000000  1
  Cu  Cu37  1  0.000000  0.500000  0.000000  1
