# generated using pymatgen
data_Eu8MgSc11Si16
_symmetry_space_group_name_H-M   'P 1'
_cell_length_a   7.18983949
_cell_length_b   7.56260252
_cell_length_c   14.48565400
_cell_angle_alpha   90.00000000
_cell_angle_beta   90.00000000
_cell_angle_gamma   89.95769075
_symmetry_Int_Tables_number   1
_chemical_formula_structural   Eu8MgSc11Si16
_chemical_formula_sum   'Eu8 Mg1 Sc11 Si16'
_cell_volume   787.64126141
_cell_formula_units_Z   1
loop_
 _symmetry_equiv_pos_site_id
 _symmetry_equiv_pos_as_xyz
  1  'x, y, z'
loop_
 _atom_site_type_symbol
 _atom_site_label
 _atom_site_symmetry_multiplicity
 _atom_site_fract_x
 _atom_site_fract_y
 _atom_site_fract_z
 _atom_site_occupancy
  Eu  Eu0  1  0.009095  0.171669  0.094135  1
  Eu  Eu1  1  0.991014  0.827726  0.905543  1
  Eu  Eu2  1  0.490302  0.671478  0.905625  1
  Eu  Eu3  1  0.991014  0.827726  0.594457  1
  Eu  Eu4  1  0.509182  0.328283  0.094105  1
  Eu  Eu5  1  0.009095  0.171669  0.405865  1
  Eu  Eu6  1  0.509182  0.328283  0.405895  1
  Eu  Eu7  1  0.490302  0.671478  0.594375  1
  Mg  Mg8  1  0.159178  0.505692  0.750000  1
  Sc  Sc9  1  0.840378  0.493806  0.250000  1
  Sc  Sc10  1  0.340490  0.006274  0.250000  1
  Sc  Sc11  1  0.659358  0.993871  0.750000  1
  Sc  Sc12  1  0.326858  0.176327  0.624191  1
  Sc  Sc13  1  0.672847  0.824499  0.376064  1
  Sc  Sc14  1  0.172918  0.675487  0.376183  1
  Sc  Sc15  1  0.672847  0.824499  0.123936  1
  Sc  Sc16  1  0.827478  0.325431  0.624125  1
  Sc  Sc17  1  0.326858  0.176327  0.875809  1
  Sc  Sc18  1  0.827478  0.325431  0.875875  1
  Sc  Sc19  1  0.172918  0.675487  0.123817  1
  Si  Si20  1  0.034413  0.119899  0.750000  1
  Si  Si21  1  0.965452  0.878016  0.250000  1
  Si  Si22  1  0.465431  0.622277  0.250000  1
  Si  Si23  1  0.536308  0.377410  0.750000  1
  Si  Si24  1  0.281751  0.892738  0.750000  1
  Si  Si25  1  0.718983  0.109078  0.250000  1
  Si  Si26  1  0.219004  0.390848  0.250000  1
  Si  Si27  1  0.779386  0.609722  0.750000  1
  Si  Si28  1  0.145859  0.461159  0.539048  1
  Si  Si29  1  0.854310  0.538317  0.459926  1
  Si  Si30  1  0.354059  0.961591  0.459906  1
  Si  Si31  1  0.854310  0.538317  0.040074  1
  Si  Si32  1  0.646013  0.038217  0.540045  1
  Si  Si33  1  0.145859  0.461159  0.960952  1
  Si  Si34  1  0.646013  0.038217  0.959955  1
  Si  Si35  1  0.354059  0.961591  0.040094  1
