# generated using pymatgen
data_Li12Si4Au
_symmetry_space_group_name_H-M   'P 1'
_cell_length_a   7.96109600
_cell_length_b   14.87973400
_cell_length_c   4.41562700
_cell_angle_alpha   90.00000000
_cell_angle_beta   90.00000000
_cell_angle_gamma   90.00000000
_symmetry_Int_Tables_number   1
_chemical_formula_structural   Li12Si4Au
_chemical_formula_sum   'Li24 Si8 Au2'
_cell_volume   523.07071829
_cell_formula_units_Z   2
loop_
 _symmetry_equiv_pos_site_id
 _symmetry_equiv_pos_as_xyz
  1  'x, y, z'
loop_
 _atom_site_type_symbol
 _atom_site_label
 _atom_site_symmetry_multiplicity
 _atom_site_fract_x
 _atom_site_fract_y
 _atom_site_fract_z
 _atom_site_occupancy
  Li  Li0  1  0.153936  0.022459  0.000000  1
  Li  Li1  1  0.765908  0.149542  0.000000  1
  Li  Li2  1  0.093527  0.191878  0.000000  1
  Li  Li3  1  0.593529  0.308123  0.000000  1
  Li  Li4  1  0.265907  0.350458  0.000000  1
  Li  Li5  1  0.653937  0.477540  0.000000  1
  Li  Li6  1  0.346064  0.522459  0.000000  1
  Li  Li7  1  0.734093  0.649543  0.000000  1
  Li  Li8  1  0.406473  0.691878  0.000000  1
  Li  Li9  1  0.906472  0.808123  0.000000  1
  Li  Li10  1  0.234093  0.850458  0.000000  1
  Li  Li11  1  0.846065  0.977540  0.000000  1
  Li  Li12  1  0.265724  0.087225  0.500000  1
  Li  Li13  1  0.598068  0.098759  0.500000  1
  Li  Li14  1  0.906609  0.246387  0.500000  1
  Li  Li15  1  0.406610  0.253613  0.500000  1
  Li  Li16  1  0.098068  0.401241  0.500000  1
  Li  Li17  1  0.765723  0.412775  0.500000  1
  Li  Li18  1  0.234277  0.587225  0.500000  1
  Li  Li19  1  0.901932  0.598759  0.500000  1
  Li  Li20  1  0.593391  0.746387  0.500000  1
  Li  Li21  1  0.093390  0.753613  0.500000  1
  Li  Li22  1  0.401933  0.901241  0.500000  1
  Li  Li23  1  0.734277  0.912775  0.500000  1
  Si  Si24  1  0.417564  0.159904  0.000000  1
  Si  Si25  1  0.917564  0.340096  0.000000  1
  Si  Si26  1  0.082437  0.659904  0.000000  1
  Si  Si27  1  0.582436  0.840096  0.000000  1
  Si  Si28  1  0.934718  0.071978  0.500000  1
  Si  Si29  1  0.434719  0.428023  0.500000  1
  Si  Si30  1  0.565281  0.571977  0.500000  1
  Si  Si31  1  0.065282  0.928023  0.500000  1
  Au  Au32  1  0.500000  0.000000  0.000000  1
  Au  Au33  1  0.000000  0.500000  0.000000  1
