# generated using pymatgen
data_Ce3Al10CoSi2Os3
_symmetry_space_group_name_H-M   'P 1'
_cell_length_a   8.76710700
_cell_length_b   8.76710692
_cell_length_c   9.51662600
_cell_angle_alpha   90.00000000
_cell_angle_beta   90.00000000
_cell_angle_gamma   120.00000407
_symmetry_Int_Tables_number   1
_chemical_formula_structural   Ce3Al10CoSi2Os3
_chemical_formula_sum   'Ce6 Al20 Co2 Si4 Os6'
_cell_volume   633.47025344
_cell_formula_units_Z   2
loop_
 _symmetry_equiv_pos_site_id
 _symmetry_equiv_pos_as_xyz
  1  'x, y, z'
loop_
 _atom_site_type_symbol
 _atom_site_label
 _atom_site_symmetry_multiplicity
 _atom_site_fract_x
 _atom_site_fract_y
 _atom_site_fract_z
 _atom_site_occupancy
  Ce  Ce0  1  0.195454  0.390906  0.250000  1
  Ce  Ce1  1  0.804546  0.609094  0.750000  1
  Ce  Ce2  1  0.609094  0.804546  0.250000  1
  Ce  Ce3  1  0.390906  0.195454  0.750000  1
  Ce  Ce4  1  0.195454  0.804546  0.250000  1
  Ce  Ce5  1  0.804546  0.195454  0.750000  1
  Al  Al6  1  0.160795  0.321588  0.576533  1
  Al  Al7  1  0.839205  0.678412  0.423467  1
  Al  Al8  1  0.678412  0.839205  0.576533  1
  Al  Al9  1  0.839205  0.678412  0.076533  1
  Al  Al10  1  0.321588  0.160795  0.423467  1
  Al  Al11  1  0.160795  0.321588  0.923467  1
  Al  Al12  1  0.160795  0.839205  0.576533  1
  Al  Al13  1  0.321588  0.160795  0.076533  1
  Al  Al14  1  0.839205  0.160795  0.423467  1
  Al  Al15  1  0.678412  0.839205  0.923467  1
  Al  Al16  1  0.839205  0.160795  0.076533  1
  Al  Al17  1  0.160795  0.839205  0.923467  1
  Al  Al18  1  0.564297  0.128592  0.250000  1
  Al  Al19  1  0.435703  0.871408  0.750000  1
  Al  Al20  1  0.871408  0.435703  0.250000  1
  Al  Al21  1  0.128592  0.564297  0.750000  1
  Al  Al22  1  0.564297  0.435703  0.250000  1
  Al  Al23  1  0.435703  0.564297  0.750000  1
  Al  Al24  1  0.000000  0.000000  0.250000  1
  Al  Al25  1  0.000000  0.000000  0.750000  1
  Co  Co26  1  0.000000  0.000000  0.000000  1
  Co  Co27  1  0.000000  0.000000  0.500000  1
  Si  Si28  1  0.333333  0.666667  0.030809  1
  Si  Si29  1  0.666667  0.333333  0.969191  1
  Si  Si30  1  0.666667  0.333333  0.530809  1
  Si  Si31  1  0.333333  0.666667  0.469191  1
  Os  Os32  1  0.500000  0.000000  0.000000  1
  Os  Os33  1  0.000000  0.500000  0.000000  1
  Os  Os34  1  0.500000  0.000000  0.500000  1
  Os  Os35  1  0.500000  0.500000  0.000000  1
  Os  Os36  1  0.000000  0.500000  0.500000  1
  Os  Os37  1  0.500000  0.500000  0.500000  1
