# generated using pymatgen
data_Cs3Mn3(AsO4)4
_symmetry_space_group_name_H-M   'P 1'
_cell_length_a   5.28154016
_cell_length_b   7.28230634
_cell_length_c   12.05855297
_cell_angle_alpha   101.58116007
_cell_angle_beta   90.16498678
_cell_angle_gamma   97.49327246
_symmetry_Int_Tables_number   1
_chemical_formula_structural   Cs3Mn3(AsO4)4
_chemical_formula_sum   'Cs3 Mn3 As4 O16'
_cell_volume   450.26959615
_cell_formula_units_Z   1
loop_
 _symmetry_equiv_pos_site_id
 _symmetry_equiv_pos_as_xyz
  1  'x, y, z'
loop_
 _atom_site_type_symbol
 _atom_site_label
 _atom_site_symmetry_multiplicity
 _atom_site_fract_x
 _atom_site_fract_y
 _atom_site_fract_z
 _atom_site_occupancy
  Cs  Cs0  1  0.868049  0.258098  0.521222  1
  Cs  Cs1  1  0.000000  0.000000  0.000000  1
  Cs  Cs2  1  0.131951  0.741902  0.478778  1
  Mn  Mn3  1  0.009311  0.554305  0.129532  1
  Mn  Mn4  1  0.990689  0.445695  0.870468  1
  Mn  Mn5  1  0.500000  0.500000  0.000000  1
  As  As6  1  0.484536  0.679257  0.761679  1
  As  As7  1  0.526656  0.863995  0.230833  1
  As  As8  1  0.515464  0.320743  0.238321  1
  As  As9  1  0.473344  0.136005  0.769167  1
  O  O10  1  0.662018  0.619171  0.868282  1
  O  O11  1  0.793024  0.227332  0.769556  1
  O  O12  1  0.337982  0.380829  0.131718  1
  O  O13  1  0.384568  0.338138  0.364645  1
  O  O14  1  0.317084  0.271350  0.875795  1
  O  O15  1  0.615432  0.661862  0.635355  1
  O  O16  1  0.825686  0.435448  0.245564  1
  O  O17  1  0.341520  0.092068  0.639373  1
  O  O18  1  0.682916  0.728650  0.124205  1
  O  O19  1  0.463629  0.924972  0.828899  1
  O  O20  1  0.196107  0.613236  0.995865  1
  O  O21  1  0.658480  0.907932  0.360627  1
  O  O22  1  0.206976  0.772668  0.230444  1
  O  O23  1  0.536371  0.075028  0.171101  1
  O  O24  1  0.803893  0.386764  0.004135  1
  O  O25  1  0.174314  0.564552  0.754436  1
