# generated using pymatgen
data_Ho12Ni4BiRu
_symmetry_space_group_name_H-M   'P 1'
_cell_length_a   8.30930594
_cell_length_b   8.30930602
_cell_length_c   8.30930615
_cell_angle_alpha   111.76303869
_cell_angle_beta   109.98505969
_cell_angle_gamma   106.70572419
_symmetry_Int_Tables_number   1
_chemical_formula_structural   Ho12Ni4BiRu
_chemical_formula_sum   'Ho12 Ni4 Bi1 Ru1'
_cell_volume   440.76522313
_cell_formula_units_Z   1
loop_
 _symmetry_equiv_pos_site_id
 _symmetry_equiv_pos_as_xyz
  1  'x, y, z'
loop_
 _atom_site_type_symbol
 _atom_site_label
 _atom_site_symmetry_multiplicity
 _atom_site_fract_x
 _atom_site_fract_y
 _atom_site_fract_z
 _atom_site_occupancy
  Ho  Ho0  1  0.404326  0.212725  0.191600  1
  Ho  Ho1  1  0.595674  0.787275  0.808400  1
  Ho  Ho2  1  0.021123  0.212725  0.808400  1
  Ho  Ho3  1  0.978877  0.787275  0.191600  1
  Ho  Ho4  1  0.179053  0.288301  0.467354  1
  Ho  Ho5  1  0.820947  0.711699  0.532646  1
  Ho  Ho6  1  0.179053  0.711699  0.890754  1
  Ho  Ho7  1  0.820947  0.288301  0.109246  1
  Ho  Ho8  1  0.318202  0.627676  0.309474  1
  Ho  Ho9  1  0.681798  0.372324  0.690526  1
  Ho  Ho10  1  0.318202  0.008727  0.690526  1
  Ho  Ho11  1  0.681798  0.991273  0.309474  1
  Ni  Ni12  1  0.361672  0.000000  0.361672  1
  Ni  Ni13  1  0.638328  0.000000  0.638328  1
  Ni  Ni14  1  0.122260  0.622260  0.500000  1
  Ni  Ni15  1  0.877740  0.377740  0.500000  1
  Bi  Bi16  1  0.500000  0.500000  0.000000  1
  Ru  Ru17  1  0.000000  0.000000  0.000000  1
