# generated using pymatgen
data_Hf8Ti9Nb3(SiGe)8
_symmetry_space_group_name_H-M   'P 1'
_cell_length_a   6.71097278
_cell_length_b   6.83213602
_cell_length_c   13.07174800
_cell_angle_alpha   90.00000000
_cell_angle_beta   90.00000000
_cell_angle_gamma   90.00963673
_symmetry_Int_Tables_number   1
_chemical_formula_structural   Hf8Ti9Nb3(SiGe)8
_chemical_formula_sum   'Hf8 Ti9 Nb3 Si8 Ge8'
_cell_volume   599.34328265
_cell_formula_units_Z   1
loop_
 _symmetry_equiv_pos_site_id
 _symmetry_equiv_pos_as_xyz
  1  'x, y, z'
loop_
 _atom_site_type_symbol
 _atom_site_label
 _atom_site_symmetry_multiplicity
 _atom_site_fract_x
 _atom_site_fract_y
 _atom_site_fract_z
 _atom_site_occupancy
  Hf  Hf0  1  0.491153  0.676770  0.597729  1
  Hf  Hf1  1  0.992247  0.824855  0.902047  1
  Hf  Hf2  1  0.508341  0.324381  0.097922  1
  Hf  Hf3  1  0.008785  0.175873  0.402052  1
  Hf  Hf4  1  0.508341  0.324381  0.402078  1
  Hf  Hf5  1  0.008785  0.175873  0.097948  1
  Hf  Hf6  1  0.491153  0.676770  0.902271  1
  Hf  Hf7  1  0.992247  0.824855  0.597953  1
  Ti  Ti8  1  0.656033  0.168284  0.627643  1
  Ti  Ti9  1  0.157160  0.330896  0.872270  1
  Ti  Ti10  1  0.342698  0.831160  0.126817  1
  Ti  Ti11  1  0.843435  0.668603  0.373613  1
  Ti  Ti12  1  0.342698  0.831160  0.373183  1
  Ti  Ti13  1  0.843435  0.668603  0.126387  1
  Ti  Ti14  1  0.656033  0.168284  0.872357  1
  Ti  Ti15  1  0.157160  0.330896  0.627730  1
  Ti  Ti16  1  0.828984  0.494781  0.750000  1
  Nb  Nb17  1  0.328987  0.003304  0.750000  1
  Nb  Nb18  1  0.171381  0.504462  0.250000  1
  Nb  Nb19  1  0.671412  0.995855  0.250000  1
  Si  Si20  1  0.456489  0.384899  0.750000  1
  Si  Si21  1  0.952219  0.118908  0.750000  1
  Si  Si22  1  0.546703  0.617289  0.250000  1
  Si  Si23  1  0.046089  0.882841  0.250000  1
  Si  Si24  1  0.699288  0.860123  0.750000  1
  Si  Si25  1  0.192931  0.633095  0.750000  1
  Si  Si26  1  0.302806  0.135319  0.250000  1
  Si  Si27  1  0.803053  0.364875  0.250000  1
  Ge  Ge28  1  0.683549  0.959291  0.462641  1
  Ge  Ge29  1  0.183676  0.541085  0.037200  1
  Ge  Ge30  1  0.316307  0.041963  0.962372  1
  Ge  Ge31  1  0.816446  0.458964  0.539842  1
  Ge  Ge32  1  0.316307  0.041963  0.537628  1
  Ge  Ge33  1  0.816446  0.458964  0.960158  1
  Ge  Ge34  1  0.683549  0.959291  0.037359  1
  Ge  Ge35  1  0.183676  0.541085  0.462800  1
