# generated using pymatgen
data_Dy2Tm2Fe5Si10Rh
_symmetry_space_group_name_H-M   'P 1'
_cell_length_a   8.01265942
_cell_length_b   8.01277955
_cell_length_c   8.01277953
_cell_angle_alpha   140.45852492
_cell_angle_beta   108.12168437
_cell_angle_gamma   85.28516262
_symmetry_Int_Tables_number   1
_chemical_formula_structural   Dy2Tm2Fe5Si10Rh
_chemical_formula_sum   'Dy2 Tm2 Fe5 Si10 Rh1'
_cell_volume   300.51876971
_cell_formula_units_Z   1
loop_
 _symmetry_equiv_pos_site_id
 _symmetry_equiv_pos_as_xyz
  1  'x, y, z'
loop_
 _atom_site_type_symbol
 _atom_site_label
 _atom_site_symmetry_multiplicity
 _atom_site_fract_x
 _atom_site_fract_y
 _atom_site_fract_z
 _atom_site_occupancy
  Dy  Dy0  1  0.872104  0.139739  0.732363  1
  Dy  Dy1  1  0.135458  0.862951  0.272507  1
  Tm  Tm2  1  0.592918  0.361659  0.231258  1
  Tm  Tm3  1  0.406067  0.637948  0.768121  1
  Fe  Fe4  1  0.996115  0.747323  0.744840  1
  Fe  Fe5  1  0.448063  0.856486  0.591578  1
  Fe  Fe6  1  0.264313  0.354175  0.910138  1
  Fe  Fe7  1  0.735882  0.644916  0.090966  1
  Fe  Fe8  1  0.996115  0.251275  0.248792  1
  Si  Si9  1  0.248660  0.090719  0.157942  1
  Si  Si10  1  0.735003  0.906742  0.828262  1
  Si  Si11  1  0.076632  0.406686  0.669946  1
  Si  Si12  1  0.922617  0.593548  0.329069  1
  Si  Si13  1  0.797120  0.036727  0.247015  1
  Si  Si14  1  0.210947  0.462933  0.252662  1
  Si  Si15  1  0.210947  0.958284  0.748013  1
  Si  Si16  1  0.502786  0.734754  0.243691  1
  Si  Si17  1  0.502786  0.259095  0.768032  1
  Si  Si18  1  0.797120  0.550105  0.760393  1
  Rh  Rh19  1  0.548348  0.143934  0.404412  1
