# generated using pymatgen
data_Zr5Pa3(P3Ir4)4
_symmetry_space_group_name_H-M   'P 1'
_cell_length_a   12.82789600
_cell_length_b   12.82789653
_cell_length_c   4.01799800
_cell_angle_alpha   90.00000000
_cell_angle_beta   90.00000000
_cell_angle_gamma   119.99999348
_symmetry_Int_Tables_number   1
_chemical_formula_structural   Zr5Pa3(P3Ir4)4
_chemical_formula_sum   'Zr5 Pa3 P12 Ir16'
_cell_volume   572.59988299
_cell_formula_units_Z   1
loop_
 _symmetry_equiv_pos_site_id
 _symmetry_equiv_pos_as_xyz
  1  'x, y, z'
loop_
 _atom_site_type_symbol
 _atom_site_label
 _atom_site_symmetry_multiplicity
 _atom_site_fract_x
 _atom_site_fract_y
 _atom_site_fract_z
 _atom_site_occupancy
  Zr  Zr0  1  0.450982  0.450982  0.000000  1
  Zr  Zr1  1  0.549018  0.000000  0.000000  1
  Zr  Zr2  1  0.000000  0.549018  0.000000  1
  Zr  Zr3  1  0.666667  0.333333  0.000000  1
  Zr  Zr4  1  0.333333  0.666667  0.000000  1
  Pa  Pa5  1  0.817864  0.817864  0.500000  1
  Pa  Pa6  1  0.182136  0.000000  0.500000  1
  Pa  Pa7  1  0.000000  0.182136  0.500000  1
  P  P8  1  0.641875  0.641875  0.000000  1
  P  P9  1  0.358125  0.000000  0.000000  1
  P  P10  1  0.000000  0.358125  0.000000  1
  P  P11  1  0.486709  0.318086  0.500000  1
  P  P12  1  0.681914  0.168623  0.500000  1
  P  P13  1  0.831377  0.513291  0.500000  1
  P  P14  1  0.513291  0.831377  0.500000  1
  P  P15  1  0.168623  0.681914  0.500000  1
  P  P16  1  0.822110  0.000000  0.000000  1
  P  P17  1  0.000000  0.822110  0.000000  1
  P  P18  1  0.318086  0.486709  0.500000  1
  P  P19  1  0.177890  0.177890  0.000000  1
  Ir  Ir20  1  0.189159  0.367371  0.000000  1
  Ir  Ir21  1  0.178212  0.810841  0.000000  1
  Ir  Ir22  1  0.821788  0.632629  0.000000  1
  Ir  Ir23  1  0.810841  0.178212  0.000000  1
  Ir  Ir24  1  0.367371  0.189159  0.000000  1
  Ir  Ir25  1  0.140501  0.491754  0.500000  1
  Ir  Ir26  1  0.351252  0.859499  0.500000  1
  Ir  Ir27  1  0.508246  0.648748  0.500000  1
  Ir  Ir28  1  0.648748  0.508246  0.500000  1
  Ir  Ir29  1  0.859499  0.351252  0.500000  1
  Ir  Ir30  1  0.491754  0.140501  0.500000  1
  Ir  Ir31  1  0.000000  0.000000  0.000000  1
  Ir  Ir32  1  0.718371  0.000000  0.500000  1
  Ir  Ir33  1  0.000000  0.718371  0.500000  1
  Ir  Ir34  1  0.632629  0.821788  0.000000  1
  Ir  Ir35  1  0.281629  0.281629  0.500000  1
