# generated using pymatgen
data_Dy3MgIn4Ru
_symmetry_space_group_name_H-M   'P 1'
_cell_length_a   8.27511200
_cell_length_b   8.27511145
_cell_length_c   3.64270900
_cell_angle_alpha   90.00000000
_cell_angle_beta   90.00000000
_cell_angle_gamma   120.00000327
_symmetry_Int_Tables_number   1
_chemical_formula_structural   Dy3MgIn4Ru
_chemical_formula_sum   'Dy3 Mg1 In4 Ru1'
_cell_volume   216.02441031
_cell_formula_units_Z   1
loop_
 _symmetry_equiv_pos_site_id
 _symmetry_equiv_pos_as_xyz
  1  'x, y, z'
loop_
 _atom_site_type_symbol
 _atom_site_label
 _atom_site_symmetry_multiplicity
 _atom_site_fract_x
 _atom_site_fract_y
 _atom_site_fract_z
 _atom_site_occupancy
  Dy  Dy0  1  0.039789  0.289748  0.500000  1
  Dy  Dy1  1  0.710252  0.750040  0.500000  1
  Dy  Dy2  1  0.249960  0.960211  0.500000  1
  Mg  Mg3  1  0.666667  0.333333  0.500000  1
  In  In4  1  0.667754  0.050572  0.000000  1
  In  In5  1  0.949428  0.617183  0.000000  1
  In  In6  1  0.382817  0.332246  0.000000  1
  In  In7  1  0.333333  0.666667  0.000000  1
  Ru  Ru8  1  0.000000  0.000000  0.000000  1
