# generated using pymatgen
data_Y2Th(InPd)3
_symmetry_space_group_name_H-M   'P 1'
_cell_length_a   7.75798300
_cell_length_b   7.75798295
_cell_length_c   3.91647200
_cell_angle_alpha   90.00000000
_cell_angle_beta   90.00000000
_cell_angle_gamma   119.89917041
_symmetry_Int_Tables_number   1
_chemical_formula_structural   Y2Th(InPd)3
_chemical_formula_sum   'Y2 Th1 In3 Pd3'
_cell_volume   204.34483305
_cell_formula_units_Z   1
loop_
 _symmetry_equiv_pos_site_id
 _symmetry_equiv_pos_as_xyz
  1  'x, y, z'
loop_
 _atom_site_type_symbol
 _atom_site_label
 _atom_site_symmetry_multiplicity
 _atom_site_fract_x
 _atom_site_fract_y
 _atom_site_fract_z
 _atom_site_occupancy
  Y  Y0  1  0.592767  0.997889  0.500000  1
  Y  Y1  1  0.997889  0.592767  0.500000  1
  Th  Th2  1  0.409547  0.409547  0.500000  1
  In  In3  1  0.752193  0.752193  0.000000  1
  In  In4  1  0.257431  0.988772  0.000000  1
  In  In5  1  0.988772  0.257431  0.000000  1
  Pd  Pd6  1  0.658756  0.334018  0.000000  1
  Pd  Pd7  1  0.334018  0.658756  0.000000  1
  Pd  Pd8  1  0.008627  0.008627  0.500000  1
