# generated using pymatgen
data_Y13Ho3Cd4(OsPt)2
_symmetry_space_group_name_H-M   'P 1'
_cell_length_a   9.67616788
_cell_length_b   9.68406551
_cell_length_c   9.74527803
_cell_angle_alpha   59.78993280
_cell_angle_beta   59.76229344
_cell_angle_gamma   59.59743191
_symmetry_Int_Tables_number   1
_chemical_formula_structural   Y13Ho3Cd4(OsPt)2
_chemical_formula_sum   'Y13 Ho3 Cd4 Os2 Pt2'
_cell_volume   641.55296095
_cell_formula_units_Z   1
loop_
 _symmetry_equiv_pos_site_id
 _symmetry_equiv_pos_as_xyz
  1  'x, y, z'
loop_
 _atom_site_type_symbol
 _atom_site_label
 _atom_site_symmetry_multiplicity
 _atom_site_fract_x
 _atom_site_fract_y
 _atom_site_fract_z
 _atom_site_occupancy
  Y  Y0  1  0.953564  0.346783  0.349820  1
  Y  Y1  1  0.813764  0.188513  0.190908  1
  Y  Y2  1  0.188723  0.813653  0.806513  1
  Y  Y3  1  0.188729  0.813662  0.191085  1
  Y  Y4  1  0.813749  0.188511  0.806801  1
  Y  Y5  1  0.188775  0.188655  0.811288  1
  Y  Y6  1  0.808255  0.808475  0.191613  1
  Y  Y7  1  0.938007  0.557411  0.566437  1
  Y  Y8  1  0.556876  0.938257  0.938712  1
  Y  Y9  1  0.556885  0.938261  0.566152  1
  Y  Y10  1  0.938009  0.557411  0.938133  1
  Y  Y11  1  0.562502  0.562774  0.937362  1
  Y  Y12  1  0.939910  0.939451  0.560312  1
  Ho  Ho13  1  0.349069  0.349143  0.352142  1
  Ho  Ho14  1  0.349091  0.349173  0.949638  1
  Ho  Ho15  1  0.346165  0.955597  0.349184  1
  Cd  Cd16  1  0.580033  0.580249  0.580876  1
  Cd  Cd17  1  0.580029  0.580248  0.258833  1
  Cd  Cd18  1  0.580745  0.256003  0.581624  1
  Cd  Cd19  1  0.256115  0.580868  0.581507  1
  Os  Os20  1  0.146179  0.144037  0.137444  1
  Os  Os21  1  0.146153  0.144051  0.572352  1
  Pt  Pt22  1  0.147223  0.572651  0.140069  1
  Pt  Pt23  1  0.571450  0.146165  0.141196  1
