# generated using pymatgen
data_Tb5MoRhO12
_symmetry_space_group_name_H-M   'P 1'
_cell_length_a   6.87770113
_cell_length_b   6.87770097
_cell_length_c   7.51185668
_cell_angle_alpha   73.90802943
_cell_angle_beta   73.90802817
_cell_angle_gamma   49.77039543
_symmetry_Int_Tables_number   1
_chemical_formula_structural   Tb5MoRhO12
_chemical_formula_sum   'Tb5 Mo1 Rh1 O12'
_cell_volume   258.30860547
_cell_formula_units_Z   1
loop_
 _symmetry_equiv_pos_site_id
 _symmetry_equiv_pos_as_xyz
  1  'x, y, z'
loop_
 _atom_site_type_symbol
 _atom_site_label
 _atom_site_symmetry_multiplicity
 _atom_site_fract_x
 _atom_site_fract_y
 _atom_site_fract_z
 _atom_site_occupancy
  Tb  Tb0  1  0.317258  0.288437  0.358536  1
  Tb  Tb1  1  0.711563  0.682742  0.641464  1
  Tb  Tb2  1  0.317589  0.305719  0.828528  1
  Tb  Tb3  1  0.694281  0.682411  0.171472  1
  Tb  Tb4  1  0.006372  0.993628  0.500000  1
  Mo  Mo5  1  0.205233  0.794767  0.000000  1
  Rh  Rh6  1  0.755682  0.244318  0.000000  1
  O  O7  1  0.911639  0.434736  0.914398  1
  O  O8  1  0.412848  0.903828  0.917195  1
  O  O9  1  0.096172  0.587152  0.082805  1
  O  O10  1  0.565264  0.088361  0.085602  1
  O  O11  1  0.107291  0.592342  0.569741  1
  O  O12  1  0.599598  0.088160  0.577379  1
  O  O13  1  0.911840  0.400402  0.422621  1
  O  O14  1  0.407658  0.892709  0.430259  1
  O  O15  1  0.000209  0.998126  0.801660  1
  O  O16  1  0.001874  0.999791  0.198340  1
  O  O17  1  0.489302  0.511672  0.822063  1
  O  O18  1  0.488328  0.510698  0.177937  1
