# generated using pymatgen
data_Ce4As3(NO)2
_symmetry_space_group_name_H-M   'P 1'
_cell_length_a   6.78850536
_cell_length_b   6.78850545
_cell_length_c   8.00811303
_cell_angle_alpha   89.99058765
_cell_angle_beta   90.00941289
_cell_angle_gamma   145.49060908
_symmetry_Int_Tables_number   1
_chemical_formula_structural   Ce4As3(NO)2
_chemical_formula_sum   'Ce4 As3 N2 O2'
_cell_volume   209.07885029
_cell_formula_units_Z   1
loop_
 _symmetry_equiv_pos_site_id
 _symmetry_equiv_pos_as_xyz
  1  'x, y, z'
loop_
 _atom_site_type_symbol
 _atom_site_label
 _atom_site_symmetry_multiplicity
 _atom_site_fract_x
 _atom_site_fract_y
 _atom_site_fract_z
 _atom_site_occupancy
  Ce  Ce0  1  0.316153  0.683847  0.241245  1
  Ce  Ce1  1  0.987948  0.012052  0.500007  1
  Ce  Ce2  1  0.999596  0.000404  0.000017  1
  Ce  Ce3  1  0.316151  0.683849  0.758712  1
  As  As4  1  0.638300  0.361700  0.677751  1
  As  As5  1  0.638318  0.361682  0.322267  1
  As  As6  1  0.683416  0.316584  0.000035  1
  N  N7  1  0.413474  0.586526  0.000010  1
  N  N8  1  0.390138  0.609862  0.499967  1
  O  O9  1  0.907192  0.092808  0.753445  1
  O  O10  1  0.907206  0.092794  0.246543  1
