# generated using pymatgen
data_Dy5Hf5(Si5Ir2)4
_symmetry_space_group_name_H-M   'P 1'
_cell_length_a   12.49503000
_cell_length_b   12.49503000
_cell_length_c   4.16908400
_cell_angle_alpha   90.00000000
_cell_angle_beta   90.00000000
_cell_angle_gamma   90.00000000
_symmetry_Int_Tables_number   1
_chemical_formula_structural   Dy5Hf5(Si5Ir2)4
_chemical_formula_sum   'Dy5 Hf5 Si20 Ir8'
_cell_volume   650.90146929
_cell_formula_units_Z   1
loop_
 _symmetry_equiv_pos_site_id
 _symmetry_equiv_pos_as_xyz
  1  'x, y, z'
loop_
 _atom_site_type_symbol
 _atom_site_label
 _atom_site_symmetry_multiplicity
 _atom_site_fract_x
 _atom_site_fract_y
 _atom_site_fract_z
 _atom_site_occupancy
  Dy  Dy0  1  0.000000  0.000000  0.000000  1
  Dy  Dy1  1  0.884282  0.384884  0.500000  1
  Dy  Dy2  1  0.115718  0.615116  0.500000  1
  Dy  Dy3  1  0.384884  0.115718  0.500000  1
  Dy  Dy4  1  0.615116  0.884282  0.500000  1
  Hf  Hf5  1  0.500000  0.500000  0.000000  1
  Hf  Hf6  1  0.673290  0.175158  0.500000  1
  Hf  Hf7  1  0.326710  0.824842  0.500000  1
  Hf  Hf8  1  0.175158  0.326710  0.500000  1
  Hf  Hf9  1  0.824842  0.673290  0.500000  1
  Si  Si10  1  0.565755  0.067850  0.000000  1
  Si  Si11  1  0.434245  0.932150  0.000000  1
  Si  Si12  1  0.067850  0.434245  0.000000  1
  Si  Si13  1  0.932150  0.565755  0.000000  1
  Si  Si14  1  0.665250  0.701432  0.000000  1
  Si  Si15  1  0.334750  0.298568  0.000000  1
  Si  Si16  1  0.163732  0.800271  0.000000  1
  Si  Si17  1  0.836268  0.199729  0.000000  1
  Si  Si18  1  0.298568  0.665250  0.000000  1
  Si  Si19  1  0.701432  0.334750  0.000000  1
  Si  Si20  1  0.199729  0.163732  0.000000  1
  Si  Si21  1  0.800271  0.836268  0.000000  1
  Si  Si22  1  0.651097  0.507483  0.500000  1
  Si  Si23  1  0.348903  0.492517  0.500000  1
  Si  Si24  1  0.157248  0.993008  0.500000  1
  Si  Si25  1  0.842752  0.006992  0.500000  1
  Si  Si26  1  0.492517  0.651097  0.500000  1
  Si  Si27  1  0.507483  0.348903  0.500000  1
  Si  Si28  1  0.006992  0.157248  0.500000  1
  Si  Si29  1  0.993008  0.842752  0.500000  1
  Ir  Ir30  1  0.741747  0.521992  0.000000  1
  Ir  Ir31  1  0.258253  0.478008  0.000000  1
  Ir  Ir32  1  0.246580  0.977390  0.000000  1
  Ir  Ir33  1  0.753420  0.022610  0.000000  1
  Ir  Ir34  1  0.478008  0.741747  0.000000  1
  Ir  Ir35  1  0.521992  0.258253  0.000000  1
  Ir  Ir36  1  0.022610  0.246580  0.000000  1
  Ir  Ir37  1  0.977390  0.753420  0.000000  1
