# generated using pymatgen
data_TbLu(ThH5)6
_symmetry_space_group_name_H-M   'P 1'
_cell_length_a   7.81920219
_cell_length_b   7.81571525
_cell_length_c   7.78667872
_cell_angle_alpha   109.48816185
_cell_angle_beta   109.52457980
_cell_angle_gamma   109.68937486
_symmetry_Int_Tables_number   1
_chemical_formula_structural   TbLu(ThH5)6
_chemical_formula_sum   'Tb1 Lu1 Th6 H30'
_cell_volume   365.00991162
_cell_formula_units_Z   1
loop_
 _symmetry_equiv_pos_site_id
 _symmetry_equiv_pos_as_xyz
  1  'x, y, z'
loop_
 _atom_site_type_symbol
 _atom_site_label
 _atom_site_symmetry_multiplicity
 _atom_site_fract_x
 _atom_site_fract_y
 _atom_site_fract_z
 _atom_site_occupancy
  Tb  Tb0  1  0.498370  0.999519  0.083813  1
  Lu  Lu1  1  0.912362  0.912796  0.913561  1
  Th  Th2  1  0.994592  0.079438  0.495034  1
  Th  Th3  1  0.084347  0.504045  0.000897  1
  Th  Th4  1  0.998423  0.585181  0.506608  1
  Th  Th5  1  0.584782  0.505535  0.998546  1
  Th  Th6  1  0.505951  0.998221  0.588374  1
  Th  Th7  1  0.414979  0.409940  0.411046  1
  H  H8  1  0.650877  0.963328  0.369922  1
  H  H9  1  0.218644  0.316949  0.846694  1
  H  H10  1  0.186738  0.404124  0.535019  1
  H  H11  1  0.093669  0.275562  0.121699  1
  H  H12  1  0.276230  0.119868  0.091045  1
  H  H13  1  0.120642  0.091192  0.271886  1
  H  H14  1  0.470711  0.155261  0.873849  1
  H  H15  1  0.719021  0.350932  0.813184  1
  H  H16  1  0.626633  0.380797  0.250936  1
  H  H17  1  0.249944  0.623548  0.376359  1
  H  H18  1  0.751649  0.873794  0.126152  1
  H  H19  1  0.121742  0.746017  0.874021  1
  H  H20  1  0.374284  0.247846  0.623062  1
  H  H21  1  0.877498  0.128354  0.749223  1
  H  H22  1  0.781375  0.597104  0.632938  1
  H  H23  1  0.317525  0.849001  0.222305  1
  H  H24  1  0.372262  0.656690  0.966057  1
  H  H25  1  0.963472  0.368273  0.650842  1
  H  H26  1  0.537568  0.186503  0.407128  1
  H  H27  1  0.405906  0.537573  0.186640  1
  H  H28  1  0.842845  0.218646  0.313699  1
  H  H29  1  0.907095  0.694454  0.030695  1
  H  H30  1  0.812975  0.718106  0.349580  1
  H  H31  1  0.152742  0.868983  0.466193  1
  H  H32  1  0.693927  0.028137  0.907016  1
  H  H33  1  0.348421  0.815884  0.722719  1
  H  H34  1  0.871596  0.470836  0.154429  1
  H  H35  1  0.634160  0.780857  0.597022  1
  H  H36  1  0.599439  0.630911  0.779894  1
  H  H37  1  0.026604  0.905792  0.691911  1
