# generated using pymatgen
data_La8Tb12Si15Mo
_symmetry_space_group_name_H-M   'P 1'
_cell_length_a   7.89544161
_cell_length_b   7.83364688
_cell_length_c   14.66569991
_cell_angle_alpha   90.04508064
_cell_angle_beta   89.83571932
_cell_angle_gamma   90.27763846
_symmetry_Int_Tables_number   1
_chemical_formula_structural   La8Tb12Si15Mo
_chemical_formula_sum   'La8 Tb12 Si15 Mo1'
_cell_volume   907.06037888
_cell_formula_units_Z   1
loop_
 _symmetry_equiv_pos_site_id
 _symmetry_equiv_pos_as_xyz
  1  'x, y, z'
loop_
 _atom_site_type_symbol
 _atom_site_label
 _atom_site_symmetry_multiplicity
 _atom_site_fract_x
 _atom_site_fract_y
 _atom_site_fract_z
 _atom_site_occupancy
  La  La0  1  0.989166  0.635604  0.044721  1
  La  La1  1  0.011203  0.375384  0.539108  1
  La  La2  1  0.638543  0.987821  0.957185  1
  La  La3  1  0.137361  0.512018  0.792459  1
  La  La4  1  0.870235  0.493843  0.299982  1
  La  La5  1  0.513821  0.138804  0.206496  1
  La  La6  1  0.492752  0.865039  0.706836  1
  La  La7  1  0.358000  0.003495  0.456560  1
  Tb  Tb8  1  0.361553  0.493048  0.377143  1
  Tb  Tb9  1  0.865261  0.009072  0.375327  1
  Tb  Tb10  1  0.988779  0.138180  0.124464  1
  Tb  Tb11  1  0.013131  0.861428  0.620523  1
  Tb  Tb12  1  0.635571  0.511655  0.875691  1
  Tb  Tb13  1  0.493527  0.363138  0.627047  1
  Tb  Tb14  1  0.509749  0.636693  0.124844  1
  Tb  Tb15  1  0.132436  0.990005  0.874897  1
  Tb  Tb16  1  0.687581  0.685390  0.498830  1
  Tb  Tb17  1  0.818638  0.182943  0.747380  1
  Tb  Tb18  1  0.179287  0.810906  0.254059  1
  Tb  Tb19  1  0.313162  0.313228  0.998568  1
  Si  Si20  1  0.929379  0.287512  0.937393  1
  Si  Si21  1  0.708020  0.070856  0.561638  1
  Si  Si22  1  0.215261  0.427579  0.187573  1
  Si  Si23  1  0.788138  0.571319  0.690560  1
  Si  Si24  1  0.429452  0.213339  0.811723  1
  Si  Si25  1  0.567747  0.788173  0.309192  1
  Si  Si26  1  0.287482  0.932151  0.060996  1
  Si  Si27  1  0.845209  0.796068  0.806412  1
  Si  Si28  1  0.161434  0.200013  0.303423  1
  Si  Si29  1  0.794304  0.846242  0.192335  1
  Si  Si30  1  0.302964  0.652256  0.560693  1
  Si  Si31  1  0.699428  0.342385  0.053570  1
  Si  Si32  1  0.651192  0.293266  0.444318  1
  Si  Si33  1  0.341241  0.702878  0.945015  1
  Si  Si34  1  0.203105  0.159729  0.693686  1
  Mo  Mo35  1  0.065888  0.708540  0.439354  1
