# generated using pymatgen
data_Sc12CrSi16Os7
_symmetry_space_group_name_H-M   'P 1'
_cell_length_a   10.10744942
_cell_length_b   10.11031236
_cell_length_c   13.65007900
_cell_angle_alpha   55.09629280
_cell_angle_beta   55.11281666
_cell_angle_gamma   31.07100038
_symmetry_Int_Tables_number   1
_chemical_formula_structural   Sc12CrSi16Os7
_chemical_formula_sum   'Sc12 Cr1 Si16 Os7'
_cell_volume   579.25803857
_cell_formula_units_Z   1
loop_
 _symmetry_equiv_pos_site_id
 _symmetry_equiv_pos_as_xyz
  1  'x, y, z'
loop_
 _atom_site_type_symbol
 _atom_site_label
 _atom_site_symmetry_multiplicity
 _atom_site_fract_x
 _atom_site_fract_y
 _atom_site_fract_z
 _atom_site_occupancy
  Sc  Sc0  1  0.749976  0.487718  0.050987  1
  Sc  Sc1  1  0.543076  0.300478  0.153526  1
  Sc  Sc2  1  0.514008  0.248707  0.451577  1
  Sc  Sc3  1  0.457594  0.698050  0.846419  1
  Sc  Sc4  1  0.293637  0.038038  0.137131  1
  Sc  Sc5  1  0.961626  0.705536  0.363945  1
  Sc  Sc6  1  0.706374  0.961811  0.864007  1
  Sc  Sc7  1  0.037531  0.293390  0.635971  1
  Sc  Sc8  1  0.252227  0.513536  0.947565  1
  Sc  Sc9  1  0.486749  0.749263  0.549349  1
  Sc  Sc10  1  0.299486  0.541296  0.656556  1
  Sc  Sc11  1  0.700226  0.460197  0.344262  1
  Cr  Cr12  1  0.917989  0.133071  0.576752  1
  Si  Si13  1  0.889036  0.112436  0.250024  1
  Si  Si14  1  0.106169  0.893352  0.747435  1
  Si  Si15  1  0.356893  0.642836  0.251274  1
  Si  Si16  1  0.648777  0.351408  0.746076  1
  Si  Si17  1  0.996823  0.231773  0.877224  1
  Si  Si18  1  0.768593  0.002966  0.625192  1
  Si  Si19  1  0.002954  0.768953  0.121972  1
  Si  Si20  1  0.229979  0.998610  0.379674  1
  Si  Si21  1  0.594947  0.055049  0.072912  1
  Si  Si22  1  0.947114  0.398493  0.427345  1
  Si  Si23  1  0.403878  0.946720  0.926466  1
  Si  Si24  1  0.050000  0.598493  0.574357  1
  Si  Si25  1  0.393067  0.153763  0.386029  1
  Si  Si26  1  0.847345  0.608858  0.112898  1
  Si  Si27  1  0.607048  0.846529  0.613073  1
  Si  Si28  1  0.152363  0.392223  0.887754  1
  Os  Os29  1  0.640515  0.830563  0.283971  1
  Os  Os30  1  0.827700  0.639209  0.786439  1
  Os  Os31  1  0.359195  0.170388  0.714948  1
  Os  Os32  1  0.172431  0.362167  0.213271  1
  Os  Os33  1  0.139686  0.911058  0.079216  1
  Os  Os34  1  0.085018  0.863305  0.423025  1
  Os  Os35  1  0.859966  0.089756  0.921377  1
