# generated using pymatgen
data_Sc8In3Rh
_symmetry_space_group_name_H-M   'P 1'
_cell_length_a   9.84108200
_cell_length_b   9.84108199
_cell_length_c   6.49923600
_cell_angle_alpha   90.00000000
_cell_angle_beta   90.00000000
_cell_angle_gamma   120.00000004
_symmetry_Int_Tables_number   1
_chemical_formula_structural   Sc8In3Rh
_chemical_formula_sum   'Sc16 In6 Rh2'
_cell_volume   545.10308445
_cell_formula_units_Z   2
loop_
 _symmetry_equiv_pos_site_id
 _symmetry_equiv_pos_as_xyz
  1  'x, y, z'
loop_
 _atom_site_type_symbol
 _atom_site_label
 _atom_site_symmetry_multiplicity
 _atom_site_fract_x
 _atom_site_fract_y
 _atom_site_fract_z
 _atom_site_occupancy
  Sc  Sc0  1  0.528073  0.056146  0.521626  1
  Sc  Sc1  1  0.943854  0.471927  0.521626  1
  Sc  Sc2  1  0.528073  0.471927  0.521626  1
  Sc  Sc3  1  0.471927  0.943854  0.021626  1
  Sc  Sc4  1  0.056146  0.528073  0.021626  1
  Sc  Sc5  1  0.471927  0.528073  0.021626  1
  Sc  Sc6  1  0.177312  0.354624  0.735479  1
  Sc  Sc7  1  0.645376  0.822688  0.735479  1
  Sc  Sc8  1  0.177312  0.822688  0.735479  1
  Sc  Sc9  1  0.822688  0.645376  0.235479  1
  Sc  Sc10  1  0.354624  0.177312  0.235479  1
  Sc  Sc11  1  0.822688  0.177312  0.235479  1
  Sc  Sc12  1  0.666667  0.333333  0.897058  1
  Sc  Sc13  1  0.333333  0.666667  0.397058  1
  Sc  Sc14  1  0.000000  0.000000  0.510366  1
  Sc  Sc15  1  0.000000  0.000000  0.010366  1
  In  In16  1  0.837086  0.674172  0.766240  1
  In  In17  1  0.325828  0.162914  0.766240  1
  In  In18  1  0.837086  0.162914  0.766240  1
  In  In19  1  0.162914  0.325828  0.266240  1
  In  In20  1  0.674172  0.837086  0.266240  1
  In  In21  1  0.162914  0.837086  0.266240  1
  Rh  Rh22  1  0.666667  0.333333  0.300385  1
  Rh  Rh23  1  0.333333  0.666667  0.800385  1
