# generated using pymatgen
data_Ac4Ag5Hg3
_symmetry_space_group_name_H-M   'P 1'
_cell_length_a   4.99328000
_cell_length_b   7.89798257
_cell_length_c   8.58973285
_cell_angle_alpha   90.24272703
_cell_angle_beta   90.00000000
_cell_angle_gamma   90.00000000
_symmetry_Int_Tables_number   1
_chemical_formula_structural   Ac4Ag5Hg3
_chemical_formula_sum   'Ac4 Ag5 Hg3'
_cell_volume   338.74886658
_cell_formula_units_Z   1
loop_
 _symmetry_equiv_pos_site_id
 _symmetry_equiv_pos_as_xyz
  1  'x, y, z'
loop_
 _atom_site_type_symbol
 _atom_site_label
 _atom_site_symmetry_multiplicity
 _atom_site_fract_x
 _atom_site_fract_y
 _atom_site_fract_z
 _atom_site_occupancy
  Ac  Ac0  1  0.500000  0.502494  0.755375  1
  Ac  Ac1  1  0.500000  0.999911  0.738878  1
  Ac  Ac2  1  0.000000  0.500357  0.243334  1
  Ac  Ac3  1  0.000000  0.997499  0.261659  1
  Ag  Ag4  1  0.500000  0.760241  0.087110  1
  Ag  Ag5  1  0.500000  0.260840  0.418594  1
  Ag  Ag6  1  0.000000  0.239262  0.918436  1
  Ag  Ag7  1  0.000000  0.740004  0.577009  1
  Ag  Ag8  1  0.500000  0.738558  0.416010  1
  Hg  Hg9  1  0.500000  0.237892  0.083491  1
  Hg  Hg10  1  0.000000  0.260362  0.585015  1
  Hg  Hg11  1  0.000000  0.762578  0.915092  1
