# generated using pymatgen
data_NdYLu8(In2Pt)4
_symmetry_space_group_name_H-M   'P 1'
_cell_length_a   3.60830500
_cell_length_b   8.06629288
_cell_length_c   18.09465785
_cell_angle_alpha   89.87419933
_cell_angle_beta   90.00000000
_cell_angle_gamma   90.00000000
_symmetry_Int_Tables_number   1
_chemical_formula_structural   NdYLu8(In2Pt)4
_chemical_formula_sum   'Nd1 Y1 Lu8 In8 Pt4'
_cell_volume   526.65541738
_cell_formula_units_Z   1
loop_
 _symmetry_equiv_pos_site_id
 _symmetry_equiv_pos_as_xyz
  1  'x, y, z'
loop_
 _atom_site_type_symbol
 _atom_site_label
 _atom_site_symmetry_multiplicity
 _atom_site_fract_x
 _atom_site_fract_y
 _atom_site_fract_z
 _atom_site_occupancy
  Nd  Nd0  1  0.000000  0.000000  0.000000  1
  Y  Y1  1  0.000000  0.500000  0.500000  1
  Lu  Lu2  1  0.000000  0.116363  0.413336  1
  Lu  Lu3  1  0.000000  0.883637  0.586664  1
  Lu  Lu4  1  0.000000  0.382660  0.913201  1
  Lu  Lu5  1  0.000000  0.617340  0.086799  1
  Lu  Lu6  1  0.000000  0.244365  0.221352  1
  Lu  Lu7  1  0.000000  0.755635  0.778648  1
  Lu  Lu8  1  0.000000  0.255771  0.721139  1
  Lu  Lu9  1  0.000000  0.744229  0.278861  1
  In  In10  1  0.500000  0.423347  0.351072  1
  In  In11  1  0.500000  0.576653  0.648928  1
  In  In12  1  0.500000  0.077355  0.849427  1
  In  In13  1  0.500000  0.922645  0.150573  1
  In  In14  1  0.500000  0.298864  0.067371  1
  In  In15  1  0.500000  0.701136  0.932629  1
  In  In16  1  0.500000  0.204979  0.566471  1
  In  In17  1  0.500000  0.795021  0.433529  1
  Pt  Pt18  1  0.500000  0.025629  0.304076  1
  Pt  Pt19  1  0.500000  0.974371  0.695924  1
  Pt  Pt20  1  0.500000  0.474610  0.803628  1
  Pt  Pt21  1  0.500000  0.525390  0.196372  1
