# generated using pymatgen
data_Ho8Al2FePd
_symmetry_space_group_name_H-M   'P 1'
_cell_length_a   9.46607605
_cell_length_b   9.46607490
_cell_length_c   9.49634800
_cell_angle_alpha   59.89415245
_cell_angle_beta   59.89415647
_cell_angle_gamma   59.81550917
_symmetry_Int_Tables_number   1
_chemical_formula_structural   Ho8Al2FePd
_chemical_formula_sum   'Ho16 Al4 Fe2 Pd2'
_cell_volume   599.89830011
_cell_formula_units_Z   2
loop_
 _symmetry_equiv_pos_site_id
 _symmetry_equiv_pos_as_xyz
  1  'x, y, z'
loop_
 _atom_site_type_symbol
 _atom_site_label
 _atom_site_symmetry_multiplicity
 _atom_site_fract_x
 _atom_site_fract_y
 _atom_site_fract_z
 _atom_site_occupancy
  Ho  Ho0  1  0.349045  0.349045  0.362368  1
  Ho  Ho1  1  0.349045  0.349045  0.939543  1
  Ho  Ho2  1  0.343380  0.950081  0.353271  1
  Ho  Ho3  1  0.950081  0.343380  0.353271  1
  Ho  Ho4  1  0.817568  0.190934  0.192860  1
  Ho  Ho5  1  0.190934  0.817568  0.798639  1
  Ho  Ho6  1  0.190934  0.817568  0.192860  1
  Ho  Ho7  1  0.817568  0.190934  0.798639  1
  Ho  Ho8  1  0.190569  0.190569  0.809431  1
  Ho  Ho9  1  0.805604  0.805604  0.194396  1
  Ho  Ho10  1  0.935372  0.559423  0.566243  1
  Ho  Ho11  1  0.559423  0.935372  0.938961  1
  Ho  Ho12  1  0.559423  0.935372  0.566243  1
  Ho  Ho13  1  0.935372  0.559423  0.938961  1
  Ho  Ho14  1  0.562203  0.562203  0.937797  1
  Ho  Ho15  1  0.937039  0.937039  0.562961  1
  Al  Al16  1  0.577843  0.577843  0.575966  1
  Al  Al17  1  0.577843  0.577843  0.268347  1
  Al  Al18  1  0.579595  0.265873  0.577266  1
  Al  Al19  1  0.265873  0.579595  0.577266  1
  Fe  Fe20  1  0.143294  0.143294  0.138871  1
  Fe  Fe21  1  0.143294  0.143294  0.574540  1
  Pd  Pd22  1  0.146872  0.571826  0.140652  1
  Pd  Pd23  1  0.571826  0.146872  0.140652  1
