# generated using pymatgen
data_SmDyPa2(Al3Rh)6
_symmetry_space_group_name_H-M   'P 1'
_cell_length_a   7.60139384
_cell_length_b   7.60402724
_cell_length_c   9.40983600
_cell_angle_alpha   90.00000000
_cell_angle_beta   90.00000000
_cell_angle_gamma   119.58681210
_symmetry_Int_Tables_number   1
_chemical_formula_structural   SmDyPa2(Al3Rh)6
_chemical_formula_sum   'Sm1 Dy1 Pa2 Al18 Rh6'
_cell_volume   472.98000132
_cell_formula_units_Z   1
loop_
 _symmetry_equiv_pos_site_id
 _symmetry_equiv_pos_as_xyz
  1  'x, y, z'
loop_
 _atom_site_type_symbol
 _atom_site_label
 _atom_site_symmetry_multiplicity
 _atom_site_fract_x
 _atom_site_fract_y
 _atom_site_fract_z
 _atom_site_occupancy
  Sm  Sm0  1  0.669710  0.993667  0.750000  1
  Dy  Dy1  1  0.329849  0.006301  0.250000  1
  Pa  Pa2  1  0.997554  0.670838  0.750000  1
  Pa  Pa3  1  0.002472  0.329065  0.250000  1
  Al  Al4  1  0.131013  0.126322  0.750000  1
  Al  Al5  1  0.870733  0.874086  0.250000  1
  Al  Al6  1  0.001774  0.333393  0.575908  1
  Al  Al7  1  0.999723  0.667967  0.422865  1
  Al  Al8  1  0.999723  0.667967  0.077135  1
  Al  Al9  1  0.336364  0.002643  0.926421  1
  Al  Al10  1  0.001774  0.333393  0.924092  1
  Al  Al11  1  0.662144  0.997198  0.076124  1
  Al  Al12  1  0.662144  0.997198  0.423876  1
  Al  Al13  1  0.336364  0.002643  0.573579  1
  Al  Al14  1  0.334675  0.333293  0.053108  1
  Al  Al15  1  0.665354  0.665611  0.948526  1
  Al  Al16  1  0.665354  0.665611  0.551474  1
  Al  Al17  1  0.334675  0.333293  0.446892  1
  Al  Al18  1  0.338466  0.546811  0.750000  1
  Al  Al19  1  0.660259  0.451509  0.250000  1
  Al  Al20  1  0.549879  0.342901  0.750000  1
  Al  Al21  1  0.449538  0.657712  0.250000  1
  Rh  Rh22  1  0.674821  0.329666  0.499190  1
  Rh  Rh23  1  0.324423  0.670173  0.499902  1
  Rh  Rh24  1  0.324423  0.670173  0.000098  1
  Rh  Rh25  1  0.674821  0.329666  0.000810  1
  Rh  Rh26  1  0.000988  0.000450  0.499346  1
  Rh  Rh27  1  0.000988  0.000450  0.000654  1
