# generated using pymatgen
data_CsTaNbBr11
_symmetry_space_group_name_H-M   'P 1'
_cell_length_a   7.71531414
_cell_length_b   7.77964611
_cell_length_c   19.09158046
_cell_angle_alpha   78.95917843
_cell_angle_beta   78.77739055
_cell_angle_gamma   88.51813387
_symmetry_Int_Tables_number   1
_chemical_formula_structural   CsTaNbBr11
_chemical_formula_sum   'Cs2 Ta2 Nb2 Br22'
_cell_volume   1103.12907203
_cell_formula_units_Z   2
loop_
 _symmetry_equiv_pos_site_id
 _symmetry_equiv_pos_as_xyz
  1  'x, y, z'
loop_
 _atom_site_type_symbol
 _atom_site_label
 _atom_site_symmetry_multiplicity
 _atom_site_fract_x
 _atom_site_fract_y
 _atom_site_fract_z
 _atom_site_occupancy
  Cs  Cs0  1  0.747513  0.748397  0.503144  1
  Cs  Cs1  1  0.252487  0.251603  0.496856  1
  Ta  Ta2  1  0.325072  0.821582  0.338823  1
  Ta  Ta3  1  0.674928  0.178418  0.661177  1
  Nb  Nb4  1  0.831546  0.330408  0.086851  1
  Nb  Nb5  1  0.168454  0.669592  0.913149  1
  Br  Br6  1  0.254993  0.766911  0.484128  1
  Br  Br7  1  0.745007  0.233089  0.515872  1
  Br  Br8  1  0.568068  0.029555  0.343286  1
  Br  Br9  1  0.431932  0.970445  0.656714  1
  Br  Br10  1  0.540450  0.569519  0.349852  1
  Br  Br11  1  0.459550  0.430481  0.650148  1
  Br  Br12  1  0.386550  0.864858  0.205940  1
  Br  Br13  1  0.613450  0.135142  0.794060  1
  Br  Br14  1  0.074950  0.605115  0.350816  1
  Br  Br15  1  0.925050  0.394885  0.649184  1
  Br  Br16  1  0.107101  0.069691  0.340479  1
  Br  Br17  1  0.892899  0.930309  0.659521  1
  Br  Br18  1  0.900035  0.036591  0.146544  1
  Br  Br19  1  0.099965  0.963409  0.853456  1
  Br  Br20  1  0.532287  0.381162  0.149297  1
  Br  Br21  1  0.467713  0.618838  0.850703  1
  Br  Br22  1  0.724302  0.220823  0.987866  1
  Br  Br23  1  0.275698  0.779177  0.012134  1
  Br  Br24  1  0.972562  0.477487  0.167406  1
  Br  Br25  1  0.027438  0.522513  0.832594  1
  Br  Br26  1  0.163809  0.343374  0.999605  1
  Br  Br27  1  0.836191  0.656626  0.000395  1
