# generated using pymatgen
data_LiSm2Zr(B6Os)2
_symmetry_space_group_name_H-M   'P 1'
_cell_length_a   3.59922300
_cell_length_b   8.98197656
_cell_length_c   11.41073377
_cell_angle_alpha   89.72169587
_cell_angle_beta   90.00000000
_cell_angle_gamma   90.00000000
_symmetry_Int_Tables_number   1
_chemical_formula_structural   LiSm2Zr(B6Os)2
_chemical_formula_sum   'Li2 Sm4 Zr2 B24 Os4'
_cell_volume   368.88340854
_cell_formula_units_Z   2
loop_
 _symmetry_equiv_pos_site_id
 _symmetry_equiv_pos_as_xyz
  1  'x, y, z'
loop_
 _atom_site_type_symbol
 _atom_site_label
 _atom_site_symmetry_multiplicity
 _atom_site_fract_x
 _atom_site_fract_y
 _atom_site_fract_z
 _atom_site_occupancy
  Li  Li0  1  0.000000  0.945434  0.375875  1
  Li  Li1  1  0.000000  0.054566  0.624126  1
  Sm  Sm2  1  0.000000  0.315533  0.415940  1
  Sm  Sm3  1  0.000000  0.684467  0.584060  1
  Sm  Sm4  1  0.000000  0.823350  0.087294  1
  Sm  Sm5  1  0.000000  0.176650  0.912706  1
  Zr  Zr6  1  0.000000  0.443722  0.128423  1
  Zr  Zr7  1  0.000000  0.556278  0.871576  1
  B  B8  1  0.500000  0.556586  0.431508  1
  B  B9  1  0.500000  0.443414  0.568492  1
  B  B10  1  0.500000  0.054593  0.069537  1
  B  B11  1  0.500000  0.945407  0.930463  1
  B  B12  1  0.500000  0.758387  0.416414  1
  B  B13  1  0.500000  0.241613  0.583586  1
  B  B14  1  0.500000  0.251524  0.083247  1
  B  B15  1  0.500000  0.748476  0.916753  1
  B  B16  1  0.500000  0.796280  0.266004  1
  B  B17  1  0.500000  0.203720  0.733996  1
  B  B18  1  0.500000  0.289721  0.236705  1
  B  B19  1  0.500000  0.710278  0.763295  1
  B  B20  1  0.500000  0.629770  0.185497  1
  B  B21  1  0.500000  0.370230  0.814503  1
  B  B22  1  0.500000  0.122172  0.319667  1
  B  B23  1  0.500000  0.877828  0.680333  1
  B  B24  1  0.500000  0.981040  0.215645  1
  B  B25  1  0.500000  0.018960  0.784355  1
  B  B26  1  0.500000  0.481598  0.288253  1
  B  B27  1  0.500000  0.518402  0.711747  1
  B  B28  1  0.500000  0.600566  0.026927  1
  B  B29  1  0.500000  0.399434  0.973073  1
  B  B30  1  0.500000  0.090344  0.475803  1
  B  B31  1  0.500000  0.909656  0.524197  1
  Os  Os32  1  0.000000  0.641284  0.317787  1
  Os  Os33  1  0.000000  0.358716  0.682213  1
  Os  Os34  1  0.000000  0.139682  0.182839  1
  Os  Os35  1  0.000000  0.860318  0.817161  1
