# generated using pymatgen
data_K2CrFeF7
_symmetry_space_group_name_H-M   'P 1'
_cell_length_a   7.74903154
_cell_length_b   7.74903082
_cell_length_c   7.74902976
_cell_angle_alpha   119.93793004
_cell_angle_beta   116.44761790
_cell_angle_gamma   93.18493369
_symmetry_Int_Tables_number   1
_chemical_formula_structural   K2CrFeF7
_chemical_formula_sum   'K4 Cr2 Fe2 F14'
_cell_volume   337.08136885
_cell_formula_units_Z   2
loop_
 _symmetry_equiv_pos_site_id
 _symmetry_equiv_pos_as_xyz
  1  'x, y, z'
loop_
 _atom_site_type_symbol
 _atom_site_label
 _atom_site_symmetry_multiplicity
 _atom_site_fract_x
 _atom_site_fract_y
 _atom_site_fract_z
 _atom_site_occupancy
  K  K0  1  0.000000  0.000000  0.000000  1
  K  K1  1  0.000000  0.500000  0.000000  1
  K  K2  1  0.000000  0.000000  0.500000  1
  K  K3  1  0.500000  0.500000  0.000000  1
  Cr  Cr4  1  0.500000  0.000000  0.500000  1
  Cr  Cr5  1  0.000000  0.500000  0.500000  1
  Fe  Fe6  1  0.500000  0.500000  0.500000  1
  Fe  Fe7  1  0.500000  0.000000  0.000000  1
  F  F8  1  0.814034  0.201739  0.244761  1
  F  F9  1  0.204603  0.913516  0.291087  1
  F  F10  1  0.456979  0.701739  0.387706  1
  F  F11  1  0.122429  0.413516  0.708913  1
  F  F12  1  0.543021  0.298260  0.612294  1
  F  F13  1  0.877571  0.586484  0.291087  1
  F  F14  1  0.814034  0.569273  0.612294  1
  F  F15  1  0.395327  0.250000  0.145327  1
  F  F16  1  0.604673  0.750000  0.854673  1
  F  F17  1  0.185966  0.798260  0.755239  1
  F  F18  1  0.543021  0.930727  0.244761  1
  F  F19  1  0.185966  0.430727  0.387706  1
  F  F20  1  0.456979  0.069273  0.755239  1
  F  F21  1  0.795397  0.086484  0.708913  1
