# generated using pymatgen
data_Ca6AlSi3Pd4
_symmetry_space_group_name_H-M   'P 1'
_cell_length_a   5.74301100
_cell_length_b   8.06836500
_cell_length_c   13.51319000
_cell_angle_alpha   90.00000000
_cell_angle_beta   90.00000000
_cell_angle_gamma   90.00000000
_symmetry_Int_Tables_number   1
_chemical_formula_structural   Ca6AlSi3Pd4
_chemical_formula_sum   'Ca12 Al2 Si6 Pd8'
_cell_volume   626.15675198
_cell_formula_units_Z   2
loop_
 _symmetry_equiv_pos_site_id
 _symmetry_equiv_pos_as_xyz
  1  'x, y, z'
loop_
 _atom_site_type_symbol
 _atom_site_label
 _atom_site_symmetry_multiplicity
 _atom_site_fract_x
 _atom_site_fract_y
 _atom_site_fract_z
 _atom_site_occupancy
  Ca  Ca0  1  0.131706  0.614312  0.105445  1
  Ca  Ca1  1  0.131706  0.885688  0.894555  1
  Ca  Ca2  1  0.868294  0.114312  0.394555  1
  Ca  Ca3  1  0.868294  0.385688  0.605445  1
  Ca  Ca4  1  0.865196  0.390012  0.893196  1
  Ca  Ca5  1  0.865196  0.109988  0.106804  1
  Ca  Ca6  1  0.134804  0.890012  0.606804  1
  Ca  Ca7  1  0.134804  0.609988  0.393196  1
  Ca  Ca8  1  0.351885  0.256962  0.251138  1
  Ca  Ca9  1  0.351885  0.243038  0.748862  1
  Ca  Ca10  1  0.648115  0.756962  0.248862  1
  Ca  Ca11  1  0.648115  0.743038  0.751138  1
  Al  Al12  1  0.386502  0.250000  0.000000  1
  Al  Al13  1  0.613498  0.750000  0.500000  1
  Si  Si14  1  0.615643  0.750000  0.000000  1
  Si  Si15  1  0.384357  0.250000  0.500000  1
  Si  Si16  1  0.835593  0.404414  0.249316  1
  Si  Si17  1  0.835593  0.095586  0.750684  1
  Si  Si18  1  0.164407  0.904414  0.250684  1
  Si  Si19  1  0.164407  0.595586  0.749316  1
  Pd  Pd20  1  0.627671  0.477360  0.090112  1
  Pd  Pd21  1  0.627671  0.022640  0.909888  1
  Pd  Pd22  1  0.372329  0.977360  0.409888  1
  Pd  Pd23  1  0.372329  0.522640  0.590112  1
  Pd  Pd24  1  0.374602  0.534497  0.909700  1
  Pd  Pd25  1  0.374602  0.965503  0.090300  1
  Pd  Pd26  1  0.625398  0.034497  0.590300  1
  Pd  Pd27  1  0.625398  0.465503  0.409700  1
