# generated using pymatgen
data_Nd12Ga4Ge4Ru7Rh
_symmetry_space_group_name_H-M   'P 1'
_cell_length_a   5.71452515
_cell_length_b   8.04008940
_cell_length_c   13.76124352
_cell_angle_alpha   90.17498656
_cell_angle_beta   90.13527257
_cell_angle_gamma   90.01754635
_symmetry_Int_Tables_number   1
_chemical_formula_structural   Nd12Ga4Ge4Ru7Rh
_chemical_formula_sum   'Nd12 Ga4 Ge4 Ru7 Rh1'
_cell_volume   632.25962488
_cell_formula_units_Z   1
loop_
 _symmetry_equiv_pos_site_id
 _symmetry_equiv_pos_as_xyz
  1  'x, y, z'
loop_
 _atom_site_type_symbol
 _atom_site_label
 _atom_site_symmetry_multiplicity
 _atom_site_fract_x
 _atom_site_fract_y
 _atom_site_fract_z
 _atom_site_occupancy
  Nd  Nd0  1  0.630952  0.263448  0.252686  1
  Nd  Nd1  1  0.372290  0.736104  0.749090  1
  Nd  Nd2  1  0.369263  0.765100  0.250203  1
  Nd  Nd3  1  0.632097  0.234396  0.750220  1
  Nd  Nd4  1  0.148077  0.396986  0.097781  1
  Nd  Nd5  1  0.850938  0.598750  0.899973  1
  Nd  Nd6  1  0.850228  0.595403  0.598561  1
  Nd  Nd7  1  0.848410  0.903195  0.401835  1
  Nd  Nd8  1  0.150907  0.403687  0.401612  1
  Nd  Nd9  1  0.150715  0.096822  0.598861  1
  Nd  Nd10  1  0.151190  0.095276  0.900431  1
  Nd  Nd11  1  0.848226  0.906763  0.098658  1
  Ga  Ga12  1  0.617741  0.249650  0.998826  1
  Ga  Ga13  1  0.377037  0.752140  0.999789  1
  Ga  Ga14  1  0.381250  0.749034  0.499459  1
  Ga  Ga15  1  0.618173  0.250252  0.500646  1
  Ge  Ge16  1  0.133622  0.113422  0.251025  1
  Ge  Ge17  1  0.869549  0.885333  0.748930  1
  Ge  Ge18  1  0.868660  0.614992  0.249374  1
  Ge  Ge19  1  0.135504  0.386522  0.750762  1
  Ru  Ru20  1  0.352806  0.030416  0.093500  1
  Ru  Ru21  1  0.647681  0.969561  0.906441  1
  Ru  Ru22  1  0.645648  0.971886  0.593611  1
  Ru  Ru23  1  0.646174  0.526764  0.404730  1
  Ru  Ru24  1  0.353397  0.027445  0.406806  1
  Ru  Ru25  1  0.353172  0.472603  0.593976  1
  Ru  Ru26  1  0.351799  0.473696  0.908974  1
  Rh  Rh27  1  0.644495  0.530352  0.093239  1
