# generated using pymatgen
data_LaTb2Nd5(MoO6)4
_symmetry_space_group_name_H-M   'P 1'
_cell_length_a   5.54004028
_cell_length_b   10.21433869
_cell_length_c   10.21078244
_cell_angle_alpha   68.62185337
_cell_angle_beta   75.12574617
_cell_angle_gamma   75.09401785
_symmetry_Int_Tables_number   1
_chemical_formula_structural   LaTb2Nd5(MoO6)4
_chemical_formula_sum   'La1 Tb2 Nd5 Mo4 O24'
_cell_volume   511.35049075
_cell_formula_units_Z   1
loop_
 _symmetry_equiv_pos_site_id
 _symmetry_equiv_pos_as_xyz
  1  'x, y, z'
loop_
 _atom_site_type_symbol
 _atom_site_label
 _atom_site_symmetry_multiplicity
 _atom_site_fract_x
 _atom_site_fract_y
 _atom_site_fract_z
 _atom_site_occupancy
  La  La0  1  0.617896  0.786334  0.553616  1
  Tb  Tb1  1  0.750067  0.395609  0.603505  1
  Tb  Tb2  1  0.250159  0.602332  0.396428  1
  Nd  Nd3  1  0.119882  0.551425  0.787848  1
  Nd  Nd4  1  0.378771  0.213883  0.446503  1
  Nd  Nd5  1  0.879564  0.446710  0.213157  1
  Nd  Nd6  1  0.750644  0.864326  0.135252  1
  Nd  Nd7  1  0.249578  0.135983  0.864344  1
  Mo  Mo8  1  0.064815  0.008068  0.296280  1
  Mo  Mo9  1  0.435394  0.702347  0.993534  1
  Mo  Mo10  1  0.934658  0.993472  0.702998  1
  Mo  Mo11  1  0.564391  0.297291  0.007471  1
  O  O12  1  0.926033  0.569439  0.606164  1
  O  O13  1  0.576443  0.393453  0.428168  1
  O  O14  1  0.075996  0.428413  0.393209  1
  O  O15  1  0.424101  0.604253  0.572218  1
  O  O16  1  0.937567  0.807928  0.335905  1
  O  O17  1  0.565832  0.662089  0.192977  1
  O  O18  1  0.065274  0.193482  0.662798  1
  O  O19  1  0.434785  0.337439  0.807437  1
  O  O20  1  0.373302  0.888916  0.326645  1
  O  O21  1  0.126898  0.671185  0.112497  1
  O  O22  1  0.625679  0.111734  0.671829  1
  O  O23  1  0.872848  0.328535  0.888463  1
  O  O24  1  0.633796  0.289770  0.176644  1
  O  O25  1  0.870865  0.822587  0.713079  1
  O  O26  1  0.363033  0.709353  0.825444  1
  O  O27  1  0.135332  0.177120  0.288602  1
  O  O28  1  0.521514  0.116073  0.044196  1
  O  O29  1  0.978784  0.956806  0.884306  1
  O  O30  1  0.765338  0.025630  0.425953  1
  O  O31  1  0.020601  0.045523  0.115020  1
  O  O32  1  0.263492  0.426695  0.024282  1
  O  O33  1  0.232019  0.979007  0.571423  1
  O  O34  1  0.736255  0.572930  0.976051  1
  O  O35  1  0.478399  0.883858  0.955757  1
