# generated using pymatgen
data_Ho12Th4Cd4Ir3Rh
_symmetry_space_group_name_H-M   'P 1'
_cell_length_a   9.71372227
_cell_length_b   9.71372282
_cell_length_c   9.71372181
_cell_angle_alpha   60.14585451
_cell_angle_beta   60.14585309
_cell_angle_gamma   60.14585263
_symmetry_Int_Tables_number   1
_chemical_formula_structural   Ho12Th4Cd4Ir3Rh
_chemical_formula_sum   'Ho12 Th4 Cd4 Ir3 Rh1'
_cell_volume   650.24124429
_cell_formula_units_Z   1
loop_
 _symmetry_equiv_pos_site_id
 _symmetry_equiv_pos_as_xyz
  1  'x, y, z'
loop_
 _atom_site_type_symbol
 _atom_site_label
 _atom_site_symmetry_multiplicity
 _atom_site_fract_x
 _atom_site_fract_y
 _atom_site_fract_z
 _atom_site_occupancy
  Ho  Ho0  1  0.062042  0.438110  0.438110  1
  Ho  Ho1  1  0.436989  0.063287  0.063287  1
  Ho  Ho2  1  0.438110  0.062042  0.438110  1
  Ho  Ho3  1  0.063287  0.436989  0.063287  1
  Ho  Ho4  1  0.438110  0.438110  0.062042  1
  Ho  Ho5  1  0.063287  0.063287  0.436989  1
  Ho  Ho6  1  0.187178  0.815510  0.815510  1
  Ho  Ho7  1  0.815390  0.185930  0.185930  1
  Ho  Ho8  1  0.815510  0.187178  0.815510  1
  Ho  Ho9  1  0.185930  0.815390  0.185930  1
  Ho  Ho10  1  0.815510  0.815510  0.187178  1
  Ho  Ho11  1  0.185930  0.185930  0.815390  1
  Th  Th12  1  0.598608  0.598608  0.598608  1
  Th  Th13  1  0.601452  0.601452  0.197469  1
  Th  Th14  1  0.601452  0.197469  0.601452  1
  Th  Th15  1  0.197469  0.601452  0.601452  1
  Cd  Cd16  1  0.832602  0.832602  0.832602  1
  Cd  Cd17  1  0.831041  0.831041  0.500984  1
  Cd  Cd18  1  0.831041  0.500984  0.831041  1
  Cd  Cd19  1  0.500984  0.831041  0.831041  1
  Ir  Ir20  1  0.391979  0.391979  0.820306  1
  Ir  Ir21  1  0.391979  0.820306  0.391979  1
  Ir  Ir22  1  0.820306  0.391979  0.391979  1
  Rh  Rh23  1  0.393815  0.393815  0.393815  1
