# generated using pymatgen
data_Nd3Y5Pu4O24
_symmetry_space_group_name_H-M   'P 1'
_cell_length_a   5.63676300
_cell_length_b   7.94537012
_cell_length_c   11.91056300
_cell_angle_alpha   74.59340754
_cell_angle_beta   90.00000000
_cell_angle_gamma   90.00000000
_symmetry_Int_Tables_number   1
_chemical_formula_structural   Nd3Y5Pu4O24
_chemical_formula_sum   'Nd3 Y5 Pu4 O24'
_cell_volume   514.25964326
_cell_formula_units_Z   1
loop_
 _symmetry_equiv_pos_site_id
 _symmetry_equiv_pos_as_xyz
  1  'x, y, z'
loop_
 _atom_site_type_symbol
 _atom_site_label
 _atom_site_symmetry_multiplicity
 _atom_site_fract_x
 _atom_site_fract_y
 _atom_site_fract_z
 _atom_site_occupancy
  Nd  Nd0  1  0.254253  0.000000  0.750000  1
  Nd  Nd1  1  0.747176  0.000000  0.250000  1
  Nd  Nd2  1  0.309349  0.500000  0.750000  1
  Y  Y3  1  0.181176  0.790086  0.081199  1
  Y  Y4  1  0.181176  0.209914  0.418801  1
  Y  Y5  1  0.695257  0.500000  0.250000  1
  Y  Y6  1  0.817852  0.207747  0.920579  1
  Y  Y7  1  0.817852  0.792253  0.579421  1
  Pu  Pu8  1  0.744216  0.722852  0.887769  1
  Pu  Pu9  1  0.257431  0.721231  0.385411  1
  Pu  Pu10  1  0.744216  0.277148  0.612231  1
  Pu  Pu11  1  0.257431  0.278769  0.114589  1
  O  O12  1  0.865117  0.369364  0.444783  1
  O  O13  1  0.445766  0.841880  0.935922  1
  O  O14  1  0.865117  0.630636  0.055217  1
  O  O15  1  0.027977  0.284201  0.734249  1
  O  O16  1  0.965394  0.291203  0.232938  1
  O  O17  1  0.131694  0.370415  0.949899  1
  O  O18  1  0.628318  0.485112  0.885394  1
  O  O19  1  0.552295  0.157964  0.064090  1
  O  O20  1  0.131694  0.629585  0.550101  1
  O  O21  1  0.027977  0.715799  0.765751  1
  O  O22  1  0.442956  0.203338  0.272311  1
  O  O23  1  0.052953  0.942947  0.399274  1
  O  O24  1  0.445766  0.158120  0.564078  1
  O  O25  1  0.965394  0.708797  0.267062  1
  O  O26  1  0.946284  0.058465  0.598757  1
  O  O27  1  0.554402  0.205232  0.772834  1
  O  O28  1  0.554402  0.794768  0.727166  1
  O  O29  1  0.052953  0.057053  0.100726  1
  O  O30  1  0.628318  0.514888  0.614606  1
  O  O31  1  0.383151  0.515853  0.118876  1
  O  O32  1  0.442956  0.796662  0.227689  1
  O  O33  1  0.383151  0.484147  0.381124  1
  O  O34  1  0.552295  0.842036  0.435910  1
  O  O35  1  0.946284  0.941535  0.901243  1
