# generated using pymatgen
data_SmNp3(As3Rh5)4
_symmetry_space_group_name_H-M   'P 1'
_cell_length_a   4.02484700
_cell_length_b   12.91860301
_cell_length_c   11.34942500
_cell_angle_alpha   89.99839448
_cell_angle_beta   90.00000000
_cell_angle_gamma   90.00000000
_symmetry_Int_Tables_number   1
_chemical_formula_structural   SmNp3(As3Rh5)4
_chemical_formula_sum   'Sm1 Np3 As12 Rh20'
_cell_volume   590.11789865
_cell_formula_units_Z   1
loop_
 _symmetry_equiv_pos_site_id
 _symmetry_equiv_pos_as_xyz
  1  'x, y, z'
loop_
 _atom_site_type_symbol
 _atom_site_label
 _atom_site_symmetry_multiplicity
 _atom_site_fract_x
 _atom_site_fract_y
 _atom_site_fract_z
 _atom_site_occupancy
  Sm  Sm0  1  0.750000  0.702114  0.081146  1
  Np  Np1  1  0.250000  0.298094  0.918334  1
  Np  Np2  1  0.250000  0.797989  0.581485  1
  Np  Np3  1  0.750000  0.202186  0.418497  1
  As  As4  1  0.750000  0.615301  0.583219  1
  As  As5  1  0.250000  0.384785  0.417058  1
  As  As6  1  0.250000  0.886449  0.082942  1
  As  As7  1  0.750000  0.115308  0.916825  1
  As  As8  1  0.750000  0.889544  0.398698  1
  As  As9  1  0.250000  0.110298  0.600426  1
  As  As10  1  0.250000  0.610271  0.898950  1
  As  As11  1  0.750000  0.390564  0.101064  1
  As  As12  1  0.750000  0.868493  0.767250  1
  As  As13  1  0.250000  0.130652  0.233546  1
  As  As14  1  0.250000  0.630117  0.267494  1
  As  As15  1  0.750000  0.369017  0.732945  1
  Rh  Rh16  1  0.750000  0.700849  0.384924  1
  Rh  Rh17  1  0.250000  0.298501  0.615729  1
  Rh  Rh18  1  0.250000  0.799028  0.883839  1
  Rh  Rh19  1  0.750000  0.201720  0.115424  1
  Rh  Rh20  1  0.750000  0.996028  0.221802  1
  Rh  Rh21  1  0.250000  0.004761  0.777436  1
  Rh  Rh22  1  0.250000  0.503350  0.722595  1
  Rh  Rh23  1  0.750000  0.495705  0.278835  1
  Rh  Rh24  1  0.750000  0.674737  0.781780  1
  Rh  Rh25  1  0.250000  0.324045  0.218400  1
  Rh  Rh26  1  0.250000  0.824033  0.280578  1
  Rh  Rh27  1  0.750000  0.175052  0.717921  1
  Rh  Rh28  1  0.750000  0.930024  0.967767  1
  Rh  Rh29  1  0.250000  0.071350  0.031805  1
  Rh  Rh30  1  0.250000  0.570464  0.468505  1
  Rh  Rh31  1  0.750000  0.429613  0.532051  1
  Rh  Rh32  1  0.750000  0.980755  0.589866  1
  Rh  Rh33  1  0.250000  0.018802  0.410853  1
  Rh  Rh34  1  0.250000  0.519083  0.089793  1
  Rh  Rh35  1  0.750000  0.480916  0.910218  1
