# generated using pymatgen
data_Ac2Pr2DySn4
_symmetry_space_group_name_H-M   'P 1'
_cell_length_a   8.43547000
_cell_length_b   8.49635200
_cell_length_c   16.27500800
_cell_angle_alpha   90.00000000
_cell_angle_beta   90.00000000
_cell_angle_gamma   90.00000000
_symmetry_Int_Tables_number   1
_chemical_formula_structural   Ac2Pr2DySn4
_chemical_formula_sum   'Ac8 Pr8 Dy4 Sn16'
_cell_volume   1166.44158051
_cell_formula_units_Z   4
loop_
 _symmetry_equiv_pos_site_id
 _symmetry_equiv_pos_as_xyz
  1  'x, y, z'
loop_
 _atom_site_type_symbol
 _atom_site_label
 _atom_site_symmetry_multiplicity
 _atom_site_fract_x
 _atom_site_fract_y
 _atom_site_fract_z
 _atom_site_occupancy
  Ac  Ac0  1  0.518469  0.320504  0.902655  1
  Ac  Ac1  1  0.018469  0.179496  0.597345  1
  Ac  Ac2  1  0.481531  0.679496  0.402655  1
  Ac  Ac3  1  0.981531  0.820504  0.097345  1
  Ac  Ac4  1  0.481531  0.679496  0.097345  1
  Ac  Ac5  1  0.981531  0.820504  0.402655  1
  Ac  Ac6  1  0.518469  0.320504  0.597345  1
  Ac  Ac7  1  0.018469  0.179496  0.902655  1
  Pr  Pr8  1  0.365146  0.840755  0.879048  1
  Pr  Pr9  1  0.865146  0.659245  0.620952  1
  Pr  Pr10  1  0.634854  0.159245  0.379048  1
  Pr  Pr11  1  0.134854  0.340755  0.120952  1
  Pr  Pr12  1  0.634854  0.159245  0.120952  1
  Pr  Pr13  1  0.134854  0.340755  0.379048  1
  Pr  Pr14  1  0.365146  0.840755  0.620952  1
  Pr  Pr15  1  0.865146  0.659245  0.879048  1
  Dy  Dy16  1  0.200492  0.503538  0.750000  1
  Dy  Dy17  1  0.700492  0.996462  0.750000  1
  Dy  Dy18  1  0.799508  0.496462  0.250000  1
  Dy  Dy19  1  0.299508  0.003538  0.250000  1
  Sn  Sn20  1  0.299563  0.040620  0.045631  1
  Sn  Sn21  1  0.799563  0.459380  0.454369  1
  Sn  Sn22  1  0.700437  0.959380  0.545631  1
  Sn  Sn23  1  0.200437  0.540620  0.954369  1
  Sn  Sn24  1  0.700437  0.959380  0.954369  1
  Sn  Sn25  1  0.200437  0.540620  0.545631  1
  Sn  Sn26  1  0.299563  0.040620  0.454369  1
  Sn  Sn27  1  0.799563  0.459380  0.045631  1
  Sn  Sn28  1  0.563159  0.627026  0.750000  1
  Sn  Sn29  1  0.063159  0.872974  0.750000  1
  Sn  Sn30  1  0.436841  0.372974  0.250000  1
  Sn  Sn31  1  0.936841  0.127026  0.250000  1
  Sn  Sn32  1  0.323979  0.141639  0.750000  1
  Sn  Sn33  1  0.823979  0.358361  0.750000  1
  Sn  Sn34  1  0.676021  0.858361  0.250000  1
  Sn  Sn35  1  0.176021  0.641639  0.250000  1
