# generated using pymatgen
data_Ce8Si12Ir3Pd
_symmetry_space_group_name_H-M   'P 1'
_cell_length_a   8.22438500
_cell_length_b   8.22438409
_cell_length_c   8.31725300
_cell_angle_alpha   90.00000000
_cell_angle_beta   90.00000000
_cell_angle_gamma   120.00000769
_symmetry_Int_Tables_number   1
_chemical_formula_structural   Ce8Si12Ir3Pd
_chemical_formula_sum   'Ce8 Si12 Ir3 Pd1'
_cell_volume   487.21127143
_cell_formula_units_Z   1
loop_
 _symmetry_equiv_pos_site_id
 _symmetry_equiv_pos_as_xyz
  1  'x, y, z'
loop_
 _atom_site_type_symbol
 _atom_site_label
 _atom_site_symmetry_multiplicity
 _atom_site_fract_x
 _atom_site_fract_y
 _atom_site_fract_z
 _atom_site_occupancy
  Ce  Ce0  1  0.503285  0.006568  0.246978  1
  Ce  Ce1  1  0.501821  0.003643  0.752770  1
  Ce  Ce2  1  0.993432  0.496715  0.246978  1
  Ce  Ce3  1  0.996357  0.498179  0.752770  1
  Ce  Ce4  1  0.503285  0.496715  0.246978  1
  Ce  Ce5  1  0.501821  0.498179  0.752770  1
  Ce  Ce6  1  0.000000  0.000000  0.250490  1
  Ce  Ce7  1  0.000000  0.000000  0.750127  1
  Si  Si8  1  0.165739  0.331479  0.001916  1
  Si  Si9  1  0.835153  0.670307  0.998653  1
  Si  Si10  1  0.668521  0.834261  0.001916  1
  Si  Si11  1  0.834492  0.668985  0.498125  1
  Si  Si12  1  0.329693  0.164847  0.998653  1
  Si  Si13  1  0.164381  0.328762  0.501969  1
  Si  Si14  1  0.165739  0.834261  0.001916  1
  Si  Si15  1  0.331015  0.165508  0.498125  1
  Si  Si16  1  0.835153  0.164847  0.998653  1
  Si  Si17  1  0.671238  0.835619  0.501969  1
  Si  Si18  1  0.834492  0.165508  0.498125  1
  Si  Si19  1  0.164381  0.835619  0.501969  1
  Ir  Ir20  1  0.333333  0.666667  0.999739  1
  Ir  Ir21  1  0.666667  0.333333  0.000162  1
  Ir  Ir22  1  0.666667  0.333333  0.504429  1
  Pd  Pd23  1  0.333333  0.666667  0.493821  1
