# generated using pymatgen
data_Rb5Y(MoH9)3
_symmetry_space_group_name_H-M   'P 1'
_cell_length_a   9.74746981
_cell_length_b   9.59943749
_cell_length_c   5.62409800
_cell_angle_alpha   90.00000000
_cell_angle_beta   90.00000000
_cell_angle_gamma   119.49889556
_symmetry_Int_Tables_number   1
_chemical_formula_structural   Rb5Y(MoH9)3
_chemical_formula_sum   'Rb5 Y1 Mo3 H27'
_cell_volume   458.02804983
_cell_formula_units_Z   1
loop_
 _symmetry_equiv_pos_site_id
 _symmetry_equiv_pos_as_xyz
  1  'x, y, z'
loop_
 _atom_site_type_symbol
 _atom_site_label
 _atom_site_symmetry_multiplicity
 _atom_site_fract_x
 _atom_site_fract_y
 _atom_site_fract_z
 _atom_site_occupancy
  Rb  Rb0  1  0.730933  0.743047  0.500000  1
  Rb  Rb1  1  0.269067  0.012113  0.500000  1
  Rb  Rb2  1  0.000000  0.610528  0.000000  1
  Rb  Rb3  1  0.420148  0.396974  0.000000  1
  Rb  Rb4  1  0.579852  0.976826  0.000000  1
  Y  Y5  1  0.000000  0.252472  0.500000  1
  Mo  Mo6  1  0.719311  0.329857  0.500000  1
  Mo  Mo7  1  0.280689  0.610547  0.500000  1
  Mo  Mo8  1  0.000000  0.047018  0.000000  1
  H  H9  1  0.846313  0.326735  0.726636  1
  H  H10  1  0.724647  0.453652  0.730300  1
  H  H11  1  0.568334  0.203820  0.694598  1
  H  H12  1  0.153687  0.480423  0.273364  1
  H  H13  1  0.568334  0.203820  0.305402  1
  H  H14  1  0.846313  0.326735  0.273364  1
  H  H15  1  0.724647  0.453652  0.269700  1
  H  H16  1  0.275353  0.729006  0.730300  1
  H  H17  1  0.431666  0.635487  0.694598  1
  H  H18  1  0.175176  0.043925  0.000000  1
  H  H19  1  0.824824  0.868749  0.000000  1
  H  H20  1  0.000000  0.230831  0.000000  1
  H  H21  1  0.873223  0.043489  0.232673  1
  H  H22  1  0.126777  0.170267  0.767327  1
  H  H23  1  0.000000  0.911553  0.791666  1
  H  H24  1  0.000000  0.911553  0.208334  1
  H  H25  1  0.126777  0.170267  0.232673  1
  H  H26  1  0.873223  0.043489  0.767327  1
  H  H27  1  0.139555  0.675313  0.500000  1
  H  H28  1  0.430212  0.808902  0.500000  1
  H  H29  1  0.279391  0.424488  0.500000  1
  H  H30  1  0.569788  0.378690  0.500000  1
  H  H31  1  0.860445  0.535758  0.500000  1
  H  H32  1  0.720609  0.145097  0.500000  1
  H  H33  1  0.153687  0.480423  0.726636  1
  H  H34  1  0.275353  0.729006  0.269700  1
  H  H35  1  0.431666  0.635487  0.305402  1
