# generated using pymatgen
data_Tb8HoErIn6
_symmetry_space_group_name_H-M   'P 1'
_cell_length_a   6.04635115
_cell_length_b   9.19831787
_cell_length_c   9.19831800
_cell_angle_alpha   83.79873072
_cell_angle_beta   70.81216365
_cell_angle_gamma   70.81216273
_symmetry_Int_Tables_number   1
_chemical_formula_structural   Tb8HoErIn6
_chemical_formula_sum   'Tb8 Ho1 Er1 In6'
_cell_volume   456.31486075
_cell_formula_units_Z   1
loop_
 _symmetry_equiv_pos_site_id
 _symmetry_equiv_pos_as_xyz
  1  'x, y, z'
loop_
 _atom_site_type_symbol
 _atom_site_label
 _atom_site_symmetry_multiplicity
 _atom_site_fract_x
 _atom_site_fract_y
 _atom_site_fract_z
 _atom_site_occupancy
  Tb  Tb0  1  0.719609  0.862720  0.697947  1
  Tb  Tb1  1  0.280277  0.137280  0.302053  1
  Tb  Tb2  1  0.780391  0.302053  0.137280  1
  Tb  Tb3  1  0.219723  0.697947  0.862720  1
  Tb  Tb4  1  0.582444  0.697947  0.137280  1
  Tb  Tb5  1  0.417671  0.302053  0.862720  1
  Tb  Tb6  1  0.082329  0.137280  0.697947  1
  Tb  Tb7  1  0.917556  0.862720  0.302053  1
  Ho  Ho8  1  0.250000  0.500000  0.500000  1
  Er  Er9  1  0.750000  0.500000  0.500000  1
  In  In10  1  0.160928  0.500000  0.177827  1
  In  In11  1  0.838756  0.500000  0.822173  1
  In  In12  1  0.339072  0.822173  0.500000  1
  In  In13  1  0.661244  0.177827  0.500000  1
  In  In14  1  0.250000  0.000000  0.000000  1
  In  In15  1  0.750000  0.000000  0.000000  1
