# generated using pymatgen
data_Dy13Er7(IrPt2)4
_symmetry_space_group_name_H-M   'P 1'
_cell_length_a   11.03687807
_cell_length_b   11.04189807
_cell_length_c   6.31665400
_cell_angle_alpha   90.00242446
_cell_angle_beta   90.00039668
_cell_angle_gamma   90.01301682
_symmetry_Int_Tables_number   1
_chemical_formula_structural   Dy13Er7(IrPt2)4
_chemical_formula_sum   'Dy13 Er7 Ir4 Pt8'
_cell_volume   769.79849176
_cell_formula_units_Z   1
loop_
 _symmetry_equiv_pos_site_id
 _symmetry_equiv_pos_as_xyz
  1  'x, y, z'
loop_
 _atom_site_type_symbol
 _atom_site_label
 _atom_site_symmetry_multiplicity
 _atom_site_fract_x
 _atom_site_fract_y
 _atom_site_fract_z
 _atom_site_occupancy
  Dy  Dy0  1  0.705600  0.912545  0.375596  1
  Dy  Dy1  1  0.587560  0.794631  0.875522  1
  Dy  Dy2  1  0.587577  0.205467  0.375610  1
  Dy  Dy3  1  0.412157  0.794676  0.375616  1
  Dy  Dy4  1  0.412357  0.205298  0.875578  1
  Dy  Dy5  1  0.205639  0.412357  0.624376  1
  Dy  Dy6  1  0.205609  0.587613  0.124323  1
  Dy  Dy7  1  0.794371  0.412401  0.124369  1
  Dy  Dy8  1  0.794375  0.587587  0.624424  1
  Dy  Dy9  1  0.912361  0.705688  0.124396  1
  Dy  Dy10  1  0.912296  0.294261  0.624579  1
  Dy  Dy11  1  0.087736  0.705736  0.624507  1
  Dy  Dy12  1  0.087738  0.294251  0.124526  1
  Er  Er13  1  0.294691  0.087396  0.375899  1
  Er  Er14  1  0.294682  0.912630  0.875930  1
  Er  Er15  1  0.705346  0.087498  0.875762  1
  Er  Er16  1  0.000190  0.000085  0.500153  1
  Er  Er17  1  0.000038  0.999970  0.999882  1
  Er  Er18  1  0.499995  0.500013  0.999919  1
  Er  Er19  1  0.500028  0.499997  0.499957  1
  Ir  Ir20  1  0.499746  0.000099  0.121670  1
  Ir  Ir21  1  0.499694  0.000121  0.622177  1
  Ir  Ir22  1  0.999996  0.499990  0.878116  1
  Ir  Ir23  1  0.000006  0.499984  0.378063  1
  Pt  Pt24  1  0.846713  0.152901  0.249416  1
  Pt  Pt25  1  0.846844  0.847149  0.750158  1
  Pt  Pt26  1  0.153389  0.152693  0.749547  1
  Pt  Pt27  1  0.153353  0.847283  0.249510  1
  Pt  Pt28  1  0.653172  0.346653  0.750143  1
  Pt  Pt29  1  0.653046  0.653026  0.250001  1
  Pt  Pt30  1  0.346854  0.346655  0.250140  1
  Pt  Pt31  1  0.346841  0.653346  0.750135  1
