# generated using pymatgen
data_DyHo2CI3
_symmetry_space_group_name_H-M   'P 1'
_cell_length_a   3.89394500
_cell_length_b   8.68507936
_cell_length_c   11.90541103
_cell_angle_alpha   92.23256894
_cell_angle_beta   90.00000000
_cell_angle_gamma   90.00000000
_symmetry_Int_Tables_number   1
_chemical_formula_structural   DyHo2CI3
_chemical_formula_sum   'Dy2 Ho4 C2 I6'
_cell_volume   402.32610670
_cell_formula_units_Z   2
loop_
 _symmetry_equiv_pos_site_id
 _symmetry_equiv_pos_as_xyz
  1  'x, y, z'
loop_
 _atom_site_type_symbol
 _atom_site_label
 _atom_site_symmetry_multiplicity
 _atom_site_fract_x
 _atom_site_fract_y
 _atom_site_fract_z
 _atom_site_occupancy
  Dy  Dy0  1  0.250000  0.918709  0.598846  1
  Dy  Dy1  1  0.750000  0.081291  0.401154  1
  Ho  Ho2  1  0.250000  0.887207  0.189475  1
  Ho  Ho3  1  0.750000  0.112793  0.810525  1
  Ho  Ho4  1  0.250000  0.291081  0.614679  1
  Ho  Ho5  1  0.750000  0.708919  0.385321  1
  C  C6  1  0.250000  0.882414  0.387249  1
  C  C7  1  0.750000  0.117586  0.612751  1
  I  I8  1  0.250000  0.860001  0.872079  1
  I  I9  1  0.750000  0.139999  0.127921  1
  I  I10  1  0.250000  0.374701  0.870041  1
  I  I11  1  0.750000  0.625299  0.129959  1
  I  I12  1  0.250000  0.382781  0.368472  1
  I  I13  1  0.750000  0.617219  0.631528  1
