# generated using pymatgen
data_Cs4ZrCr7Se16
_symmetry_space_group_name_H-M   'P 1'
_cell_length_a   6.31691003
_cell_length_b   7.30960900
_cell_length_c   17.63623222
_cell_angle_alpha   90.00000000
_cell_angle_beta   89.85490259
_cell_angle_gamma   90.00000000
_symmetry_Int_Tables_number   1
_chemical_formula_structural   Cs4ZrCr7Se16
_chemical_formula_sum   'Cs4 Zr1 Cr7 Se16'
_cell_volume   814.33528741
_cell_formula_units_Z   1
loop_
 _symmetry_equiv_pos_site_id
 _symmetry_equiv_pos_as_xyz
  1  'x, y, z'
loop_
 _atom_site_type_symbol
 _atom_site_label
 _atom_site_symmetry_multiplicity
 _atom_site_fract_x
 _atom_site_fract_y
 _atom_site_fract_z
 _atom_site_occupancy
  Cs  Cs0  1  0.353913  0.000000  0.994278  1
  Cs  Cs1  1  0.624670  0.500000  0.504382  1
  Cs  Cs2  1  0.032308  0.000000  0.503098  1
  Cs  Cs3  1  0.955267  0.500000  0.997519  1
  Zr  Zr4  1  0.006901  0.000000  0.249559  1
  Cr  Cr5  1  0.005228  0.000000  0.748751  1
  Cr  Cr6  1  0.000984  0.500000  0.249781  1
  Cr  Cr7  1  0.991814  0.500000  0.751033  1
  Cr  Cr8  1  0.502807  0.249014  0.250408  1
  Cr  Cr9  1  0.500281  0.751047  0.750111  1
  Cr  Cr10  1  0.502807  0.750986  0.250408  1
  Cr  Cr11  1  0.500281  0.248953  0.750111  1
  Se  Se12  1  0.827543  0.263394  0.335852  1
  Se  Se13  1  0.834065  0.749980  0.669709  1
  Se  Se14  1  0.180146  0.735211  0.163656  1
  Se  Se15  1  0.164461  0.250588  0.829905  1
  Se  Se16  1  0.180146  0.264789  0.163656  1
  Se  Se17  1  0.164461  0.749412  0.829905  1
  Se  Se18  1  0.827543  0.736606  0.335852  1
  Se  Se19  1  0.834065  0.250020  0.669709  1
  Se  Se20  1  0.657726  0.000000  0.163884  1
  Se  Se21  1  0.673108  0.000000  0.829663  1
  Se  Se22  1  0.331389  0.500000  0.328880  1
  Se  Se23  1  0.326042  0.500000  0.671568  1
  Se  Se24  1  0.358173  0.000000  0.337247  1
  Se  Se25  1  0.340391  0.000000  0.669465  1
  Se  Se26  1  0.666368  0.500000  0.171361  1
  Se  Se27  1  0.657112  0.500000  0.830250  1
