# generated using pymatgen
data_Zr18VCo2Re6Mo
_symmetry_space_group_name_H-M   'P 1'
_cell_length_a   8.70611900
_cell_length_b   8.70611906
_cell_length_c   8.47474000
_cell_angle_alpha   90.00000000
_cell_angle_beta   90.00000000
_cell_angle_gamma   120.00000358
_symmetry_Int_Tables_number   1
_chemical_formula_structural   Zr18VCo2Re6Mo
_chemical_formula_sum   'Zr18 V1 Co2 Re6 Mo1'
_cell_volume   556.29633682
_cell_formula_units_Z   1
loop_
 _symmetry_equiv_pos_site_id
 _symmetry_equiv_pos_as_xyz
  1  'x, y, z'
loop_
 _atom_site_type_symbol
 _atom_site_label
 _atom_site_symmetry_multiplicity
 _atom_site_fract_x
 _atom_site_fract_y
 _atom_site_fract_z
 _atom_site_occupancy
  Zr  Zr0  1  0.542388  0.084776  0.250140  1
  Zr  Zr1  1  0.457612  0.915224  0.749860  1
  Zr  Zr2  1  0.915224  0.457612  0.250140  1
  Zr  Zr3  1  0.542388  0.457612  0.250140  1
  Zr  Zr4  1  0.457612  0.542388  0.749860  1
  Zr  Zr5  1  0.084776  0.542388  0.749860  1
  Zr  Zr6  1  0.198534  0.397068  0.057696  1
  Zr  Zr7  1  0.799827  0.599654  0.559508  1
  Zr  Zr8  1  0.602932  0.801466  0.057696  1
  Zr  Zr9  1  0.198534  0.801466  0.057696  1
  Zr  Zr10  1  0.799827  0.200173  0.559508  1
  Zr  Zr11  1  0.400346  0.200173  0.559508  1
  Zr  Zr12  1  0.801466  0.602932  0.942304  1
  Zr  Zr13  1  0.801466  0.198534  0.942304  1
  Zr  Zr14  1  0.397068  0.198534  0.942304  1
  Zr  Zr15  1  0.599654  0.799827  0.440492  1
  Zr  Zr16  1  0.200173  0.799827  0.440492  1
  Zr  Zr17  1  0.200173  0.400346  0.440492  1
  V  V18  1  0.000000  0.000000  0.000000  1
  Co  Co19  1  0.333333  0.666667  0.250234  1
  Co  Co20  1  0.666667  0.333333  0.749766  1
  Re  Re21  1  0.891413  0.782824  0.246881  1
  Re  Re22  1  0.108587  0.217176  0.753119  1
  Re  Re23  1  0.217176  0.108587  0.246881  1
  Re  Re24  1  0.891413  0.108587  0.246881  1
  Re  Re25  1  0.108587  0.891413  0.753119  1
  Re  Re26  1  0.782824  0.891413  0.753119  1
  Mo  Mo27  1  0.000000  0.000000  0.500000  1
