# generated using pymatgen
data_Ho3Sn3Hg2
_symmetry_space_group_name_H-M   'P 1'
_cell_length_a   6.40181694
_cell_length_b   6.40181769
_cell_length_c   10.23069900
_cell_angle_alpha   90.00000000
_cell_angle_beta   90.00000000
_cell_angle_gamma   102.91331407
_symmetry_Int_Tables_number   1
_chemical_formula_structural   Ho3Sn3Hg2
_chemical_formula_sum   'Ho6 Sn6 Hg4'
_cell_volume   408.68337074
_cell_formula_units_Z   2
loop_
 _symmetry_equiv_pos_site_id
 _symmetry_equiv_pos_as_xyz
  1  'x, y, z'
loop_
 _atom_site_type_symbol
 _atom_site_label
 _atom_site_symmetry_multiplicity
 _atom_site_fract_x
 _atom_site_fract_y
 _atom_site_fract_z
 _atom_site_occupancy
  Ho  Ho0  1  0.620333  0.620333  0.250000  1
  Ho  Ho1  1  0.379667  0.379667  0.750000  1
  Ho  Ho2  1  0.795050  0.204950  0.000000  1
  Ho  Ho3  1  0.204950  0.795050  0.000000  1
  Ho  Ho4  1  0.204950  0.795050  0.500000  1
  Ho  Ho5  1  0.795050  0.204950  0.500000  1
  Sn  Sn6  1  0.065068  0.498489  0.250000  1
  Sn  Sn7  1  0.934932  0.501511  0.750000  1
  Sn  Sn8  1  0.498489  0.065068  0.250000  1
  Sn  Sn9  1  0.501511  0.934932  0.750000  1
  Sn  Sn10  1  0.011804  0.011804  0.250000  1
  Sn  Sn11  1  0.988196  0.988196  0.750000  1
  Hg  Hg12  1  0.311767  0.311767  0.037688  1
  Hg  Hg13  1  0.688233  0.688233  0.962312  1
  Hg  Hg14  1  0.688233  0.688233  0.537688  1
  Hg  Hg15  1  0.311767  0.311767  0.462312  1
