# generated using pymatgen
data_Rb6BeMo3H26
_symmetry_space_group_name_H-M   'P 1'
_cell_length_a   9.43959910
_cell_length_b   10.74225434
_cell_length_c   6.23744000
_cell_angle_alpha   90.00000000
_cell_angle_beta   90.00000000
_cell_angle_gamma   123.26005530
_symmetry_Int_Tables_number   1
_chemical_formula_structural   Rb6BeMo3H26
_chemical_formula_sum   'Rb6 Be1 Mo3 H26'
_cell_volume   528.88383021
_cell_formula_units_Z   1
loop_
 _symmetry_equiv_pos_site_id
 _symmetry_equiv_pos_as_xyz
  1  'x, y, z'
loop_
 _atom_site_type_symbol
 _atom_site_label
 _atom_site_symmetry_multiplicity
 _atom_site_fract_x
 _atom_site_fract_y
 _atom_site_fract_z
 _atom_site_occupancy
  Rb  Rb0  1  0.998785  0.194979  0.500000  1
  Rb  Rb1  1  0.733292  0.738871  0.500000  1
  Rb  Rb2  1  0.277609  0.012212  0.500000  1
  Rb  Rb3  1  0.002152  0.641819  0.000000  1
  Rb  Rb4  1  0.420276  0.360925  0.000000  1
  Rb  Rb5  1  0.601995  0.995028  0.000000  1
  Be  Be6  1  0.024310  0.517040  0.500000  1
  Mo  Mo7  1  0.729735  0.382311  0.500000  1
  Mo  Mo8  1  0.329517  0.668263  0.500000  1
  Mo  Mo9  1  0.998778  0.982771  0.000000  1
  H  H10  1  0.896548  0.401330  0.673122  1
  H  H11  1  0.715864  0.462094  0.732209  1
  H  H12  1  0.578115  0.252260  0.679573  1
  H  H13  1  0.176236  0.525087  0.339918  1
  H  H14  1  0.578115  0.252260  0.320427  1
  H  H15  1  0.896548  0.401330  0.326878  1
  H  H16  1  0.715864  0.462094  0.267791  1
  H  H17  1  0.214483  0.715713  0.645067  1
  H  H18  1  0.386093  0.694206  0.773762  1
  H  H19  1  0.188805  0.987760  0.000000  1
  H  H20  1  0.815327  0.801650  0.000000  1
  H  H21  1  0.992998  0.142040  0.000000  1
  H  H22  1  0.852888  0.968552  0.196208  1
  H  H23  1  0.140279  0.111965  0.804503  1
  H  H24  1  0.002284  0.875331  0.787923  1
  H  H25  1  0.002284  0.875331  0.212077  1
  H  H26  1  0.140279  0.111965  0.195497  1
  H  H27  1  0.852888  0.968552  0.803792  1
  H  H28  1  0.475436  0.866655  0.500000  1
  H  H29  1  0.311216  0.498416  0.500000  1
  H  H30  1  0.559168  0.404748  0.500000  1
  H  H31  1  0.906281  0.578037  0.500000  1
  H  H32  1  0.708741  0.213397  0.500000  1
  H  H33  1  0.176236  0.525087  0.660082  1
  H  H34  1  0.214483  0.715713  0.354933  1
  H  H35  1  0.386093  0.694206  0.226238  1
