# generated using pymatgen
data_LiLa16Cd3Ru4
_symmetry_space_group_name_H-M   'P 1'
_cell_length_a   10.07703002
_cell_length_b   10.07702956
_cell_length_c   10.05822680
_cell_angle_alpha   59.93813888
_cell_angle_beta   59.93814100
_cell_angle_gamma   59.99999853
_symmetry_Int_Tables_number   1
_chemical_formula_structural   LiLa16Cd3Ru4
_chemical_formula_sum   'Li1 La16 Cd3 Ru4'
_cell_volume   721.54729235
_cell_formula_units_Z   1
loop_
 _symmetry_equiv_pos_site_id
 _symmetry_equiv_pos_as_xyz
  1  'x, y, z'
loop_
 _atom_site_type_symbol
 _atom_site_label
 _atom_site_symmetry_multiplicity
 _atom_site_fract_x
 _atom_site_fract_y
 _atom_site_fract_z
 _atom_site_occupancy
  Li  Li0  1  0.677899  0.677899  0.966302  1
  La  La1  1  0.905034  0.905034  0.903214  1
  La  La2  1  0.436126  0.436126  0.062330  1
  La  La3  1  0.061129  0.061129  0.437953  1
  La  La4  1  0.436126  0.065418  0.062330  1
  La  La5  1  0.306219  0.690754  0.312272  1
  La  La6  1  0.690754  0.690754  0.312272  1
  La  La7  1  0.690754  0.306219  0.312272  1
  La  La8  1  0.286718  0.905034  0.903214  1
  La  La9  1  0.905034  0.286718  0.903214  1
  La  La10  1  0.308532  0.692015  0.690921  1
  La  La11  1  0.903608  0.903608  0.289176  1
  La  La12  1  0.065418  0.436126  0.062330  1
  La  La13  1  0.308532  0.308532  0.690921  1
  La  La14  1  0.061129  0.439789  0.437953  1
  La  La15  1  0.439789  0.061129  0.437953  1
  La  La16  1  0.692015  0.308532  0.690921  1
  Cd  Cd17  1  0.986837  0.669826  0.673511  1
  Cd  Cd18  1  0.669826  0.986837  0.673511  1
  Cd  Cd19  1  0.669826  0.669826  0.673511  1
  Ru  Ru20  1  0.112210  0.112210  0.663368  1
  Ru  Ru21  1  0.112199  0.112199  0.113517  1
  Ru  Ru22  1  0.112199  0.662083  0.113517  1
  Ru  Ru23  1  0.662083  0.112199  0.113517  1
