# generated using pymatgen
data_Tm4MnIr6Ru
_symmetry_space_group_name_H-M   'P 1'
_cell_length_a   5.39275400
_cell_length_b   5.39275440
_cell_length_c   8.39344900
_cell_angle_alpha   90.00000000
_cell_angle_beta   90.00000000
_cell_angle_gamma   119.99998528
_symmetry_Int_Tables_number   1
_chemical_formula_structural   Tm4MnIr6Ru
_chemical_formula_sum   'Tm4 Mn1 Ir6 Ru1'
_cell_volume   211.39387685
_cell_formula_units_Z   1
loop_
 _symmetry_equiv_pos_site_id
 _symmetry_equiv_pos_as_xyz
  1  'x, y, z'
loop_
 _atom_site_type_symbol
 _atom_site_label
 _atom_site_symmetry_multiplicity
 _atom_site_fract_x
 _atom_site_fract_y
 _atom_site_fract_z
 _atom_site_occupancy
  Tm  Tm0  1  0.333333  0.666667  0.063517  1
  Tm  Tm1  1  0.666667  0.333333  0.566757  1
  Tm  Tm2  1  0.666667  0.333333  0.936483  1
  Tm  Tm3  1  0.333333  0.666667  0.433243  1
  Mn  Mn4  1  0.000000  0.000000  0.500000  1
  Ir  Ir5  1  0.830440  0.660879  0.255171  1
  Ir  Ir6  1  0.169560  0.830440  0.744829  1
  Ir  Ir7  1  0.660879  0.830440  0.744829  1
  Ir  Ir8  1  0.339121  0.169560  0.255171  1
  Ir  Ir9  1  0.830440  0.169560  0.255171  1
  Ir  Ir10  1  0.169560  0.339121  0.744829  1
  Ru  Ru11  1  0.000000  0.000000  0.000000  1
