# generated using pymatgen
data_Rb2Yb(PSe3)2
_symmetry_space_group_name_H-M   'P 1'
_cell_length_a   12.97041700
_cell_length_b   6.92085785
_cell_length_c   9.83228579
_cell_angle_alpha   54.29287582
_cell_angle_beta   90.00000000
_cell_angle_gamma   90.00000000
_symmetry_Int_Tables_number   1
_chemical_formula_structural   Rb2Yb(PSe3)2
_chemical_formula_sum   'Rb4 Yb2 P4 Se12'
_cell_volume   716.68820017
_cell_formula_units_Z   2
loop_
 _symmetry_equiv_pos_site_id
 _symmetry_equiv_pos_as_xyz
  1  'x, y, z'
loop_
 _atom_site_type_symbol
 _atom_site_label
 _atom_site_symmetry_multiplicity
 _atom_site_fract_x
 _atom_site_fract_y
 _atom_site_fract_z
 _atom_site_occupancy
  Rb  Rb0  1  0.176828  0.277949  0.979432  1
  Rb  Rb1  1  0.676828  0.722051  0.520568  1
  Rb  Rb2  1  0.823172  0.722051  0.020568  1
  Rb  Rb3  1  0.323172  0.277949  0.479432  1
  Yb  Yb4  1  0.000000  0.000000  0.500000  1
  Yb  Yb5  1  0.500000  0.000000  0.000000  1
  P  P6  1  0.039288  0.646811  0.378015  1
  P  P7  1  0.539288  0.353189  0.121985  1
  P  P8  1  0.960712  0.353189  0.621985  1
  P  P9  1  0.460712  0.646811  0.878015  1
  Se  Se10  1  0.175636  0.753857  0.453735  1
  Se  Se11  1  0.675636  0.246143  0.046265  1
  Se  Se12  1  0.824364  0.246143  0.546265  1
  Se  Se13  1  0.324364  0.753857  0.953735  1
  Se  Se14  1  0.926487  0.940514  0.242082  1
  Se  Se15  1  0.426487  0.059486  0.257918  1
  Se  Se16  1  0.073513  0.059486  0.757918  1
  Se  Se17  1  0.573513  0.940514  0.742082  1
  Se  Se18  1  0.422639  0.485920  0.745649  1
  Se  Se19  1  0.922639  0.514080  0.754351  1
  Se  Se20  1  0.577361  0.514080  0.254351  1
  Se  Se21  1  0.077361  0.485920  0.245649  1
