# generated using pymatgen
data_Li3TbTm3AlPt4
_symmetry_space_group_name_H-M   'P 1'
_cell_length_a   4.00804200
_cell_length_b   6.93708986
_cell_length_c   8.41863362
_cell_angle_alpha   90.60744120
_cell_angle_beta   90.00000000
_cell_angle_gamma   90.00000000
_symmetry_Int_Tables_number   1
_chemical_formula_structural   Li3TbTm3AlPt4
_chemical_formula_sum   'Li3 Tb1 Tm3 Al1 Pt4'
_cell_volume   234.05977616
_cell_formula_units_Z   1
loop_
 _symmetry_equiv_pos_site_id
 _symmetry_equiv_pos_as_xyz
  1  'x, y, z'
loop_
 _atom_site_type_symbol
 _atom_site_label
 _atom_site_symmetry_multiplicity
 _atom_site_fract_x
 _atom_site_fract_y
 _atom_site_fract_z
 _atom_site_occupancy
  Li  Li0  1  0.250000  0.129377  0.059596  1
  Li  Li1  1  0.250000  0.627868  0.440230  1
  Li  Li2  1  0.750000  0.875433  0.941782  1
  Tb  Tb3  1  0.750000  0.952284  0.320663  1
  Tm  Tm4  1  0.250000  0.046304  0.683166  1
  Tm  Tm5  1  0.250000  0.546628  0.819799  1
  Tm  Tm6  1  0.750000  0.451918  0.177332  1
  Al  Al7  1  0.750000  0.374451  0.557544  1
  Pt  Pt8  1  0.250000  0.255355  0.389234  1
  Pt  Pt9  1  0.250000  0.738510  0.123752  1
  Pt  Pt10  1  0.750000  0.744315  0.623456  1
  Pt  Pt11  1  0.750000  0.257555  0.863446  1
