# generated using pymatgen
data_Y12InFe4Ag
_symmetry_space_group_name_H-M   'P 1'
_cell_length_a   8.42991290
_cell_length_b   8.42991314
_cell_length_c   8.42991284
_cell_angle_alpha   110.91145331
_cell_angle_beta   110.76876763
_cell_angle_gamma   106.76685944
_symmetry_Int_Tables_number   1
_chemical_formula_structural   Y12InFe4Ag
_chemical_formula_sum   'Y12 In1 Fe4 Ag1'
_cell_volume   460.38875690
_cell_formula_units_Z   1
loop_
 _symmetry_equiv_pos_site_id
 _symmetry_equiv_pos_as_xyz
  1  'x, y, z'
loop_
 _atom_site_type_symbol
 _atom_site_label
 _atom_site_symmetry_multiplicity
 _atom_site_fract_x
 _atom_site_fract_y
 _atom_site_fract_z
 _atom_site_occupancy
  Y  Y0  1  0.428556  0.223404  0.205152  1
  Y  Y1  1  0.571444  0.776596  0.794848  1
  Y  Y2  1  0.018251  0.223404  0.794848  1
  Y  Y3  1  0.981749  0.776596  0.205152  1
  Y  Y4  1  0.188158  0.289977  0.478134  1
  Y  Y5  1  0.811842  0.710023  0.521866  1
  Y  Y6  1  0.188158  0.710023  0.898182  1
  Y  Y7  1  0.811842  0.289977  0.101818  1
  Y  Y8  1  0.312537  0.612125  0.299588  1
  Y  Y9  1  0.687463  0.387875  0.700412  1
  Y  Y10  1  0.312537  0.012949  0.700412  1
  Y  Y11  1  0.687463  0.987051  0.299588  1
  In  In12  1  0.500000  0.500000  0.000000  1
  Fe  Fe13  1  0.386311  0.000000  0.386311  1
  Fe  Fe14  1  0.613689  0.000000  0.613689  1
  Fe  Fe15  1  0.106573  0.606573  0.500000  1
  Fe  Fe16  1  0.893427  0.393427  0.500000  1
  Ag  Ag17  1  0.000000  0.000000  0.000000  1
