# generated using pymatgen
data_CeTmP7Ru12
_symmetry_space_group_name_H-M   'P 1'
_cell_length_a   9.44342800
_cell_length_b   9.44342839
_cell_length_c   3.94196600
_cell_angle_alpha   90.00000000
_cell_angle_beta   90.00000000
_cell_angle_gamma   119.99999863
_symmetry_Int_Tables_number   1
_chemical_formula_structural   CeTmP7Ru12
_chemical_formula_sum   'Ce1 Tm1 P7 Ru12'
_cell_volume   304.44081562
_cell_formula_units_Z   1
loop_
 _symmetry_equiv_pos_site_id
 _symmetry_equiv_pos_as_xyz
  1  'x, y, z'
loop_
 _atom_site_type_symbol
 _atom_site_label
 _atom_site_symmetry_multiplicity
 _atom_site_fract_x
 _atom_site_fract_y
 _atom_site_fract_z
 _atom_site_occupancy
  Ce  Ce0  1  0.333333  0.666667  0.000000  1
  Tm  Tm1  1  0.666667  0.333333  0.500000  1
  P  P2  1  0.604049  0.717264  0.500000  1
  P  P3  1  0.000000  0.000000  0.000000  1
  P  P4  1  0.282736  0.886785  0.500000  1
  P  P5  1  0.113215  0.395951  0.500000  1
  P  P6  1  0.885338  0.572536  0.000000  1
  P  P7  1  0.427464  0.312801  0.000000  1
  P  P8  1  0.687199  0.114662  0.000000  1
  Ru  Ru9  1  0.556151  0.948843  0.500000  1
  Ru  Ru10  1  0.392693  0.443849  0.500000  1
  Ru  Ru11  1  0.913231  0.120096  0.500000  1
  Ru  Ru12  1  0.206865  0.086769  0.500000  1
  Ru  Ru13  1  0.879904  0.793135  0.500000  1
  Ru  Ru14  1  0.727330  0.891331  0.000000  1
  Ru  Ru15  1  0.108669  0.835997  0.000000  1
  Ru  Ru16  1  0.164003  0.272670  0.000000  1
  Ru  Ru17  1  0.425218  0.069820  0.000000  1
  Ru  Ru18  1  0.930180  0.355399  0.000000  1
  Ru  Ru19  1  0.644601  0.574782  0.000000  1
  Ru  Ru20  1  0.051157  0.607307  0.500000  1
