# generated using pymatgen
data_BaFe4SnI16
_symmetry_space_group_name_H-M   'P 1'
_cell_length_a   8.95684806
_cell_length_b   8.41027192
_cell_length_c   15.75264211
_cell_angle_alpha   89.73101574
_cell_angle_beta   92.31685302
_cell_angle_gamma   90.28204120
_symmetry_Int_Tables_number   1
_chemical_formula_structural   BaFe4SnI16
_chemical_formula_sum   'Ba1 Fe4 Sn1 I16'
_cell_volume   1185.64270252
_cell_formula_units_Z   1
loop_
 _symmetry_equiv_pos_site_id
 _symmetry_equiv_pos_as_xyz
  1  'x, y, z'
loop_
 _atom_site_type_symbol
 _atom_site_label
 _atom_site_symmetry_multiplicity
 _atom_site_fract_x
 _atom_site_fract_y
 _atom_site_fract_z
 _atom_site_occupancy
  Ba  Ba0  1  0.800513  0.128614  0.829604  1
  Fe  Fe1  1  0.955282  0.210757  0.571037  1
  Fe  Fe2  1  0.052760  0.176178  0.082796  1
  Fe  Fe3  1  0.568600  0.668046  0.784310  1
  Fe  Fe4  1  0.416126  0.649650  0.283531  1
  Sn  Sn5  1  0.239862  0.079758  0.313723  1
  I  I6  1  0.437213  0.629875  0.643043  1
  I  I7  1  0.538340  0.610272  0.145951  1
  I  I8  1  0.851709  0.717376  0.770485  1
  I  I9  1  0.138668  0.738643  0.259582  1
  I  I10  1  0.953215  0.464083  0.487685  1
  I  I11  1  0.013511  0.399725  0.975480  1
  I  I12  1  0.929800  0.926306  0.018391  1
  I  I13  1  0.070576  0.984609  0.482550  1
  I  I14  1  0.689060  0.129609  0.610347  1
  I  I15  1  0.331948  0.129373  0.121031  1
  I  I16  1  0.531026  0.418635  0.879272  1
  I  I17  1  0.428118  0.402287  0.379732  1
  I  I18  1  0.464425  0.912669  0.860772  1
  I  I19  1  0.534460  0.890211  0.365280  1
  I  I20  1  0.942038  0.235976  0.228159  1
  I  I21  1  0.112750  0.232150  0.711641  1
