# generated using pymatgen
data_HfSc5Co16(P6Ru)2
_symmetry_space_group_name_H-M   'P 1'
_cell_length_a   11.92608008
_cell_length_b   11.95818292
_cell_length_c   3.61759800
_cell_angle_alpha   90.00000000
_cell_angle_beta   90.00000000
_cell_angle_gamma   120.08909716
_symmetry_Int_Tables_number   1
_chemical_formula_structural   HfSc5Co16(P6Ru)2
_chemical_formula_sum   'Hf1 Sc5 Co16 P12 Ru2'
_cell_volume   446.39902674
_cell_formula_units_Z   1
loop_
 _symmetry_equiv_pos_site_id
 _symmetry_equiv_pos_as_xyz
  1  'x, y, z'
loop_
 _atom_site_type_symbol
 _atom_site_label
 _atom_site_symmetry_multiplicity
 _atom_site_fract_x
 _atom_site_fract_y
 _atom_site_fract_z
 _atom_site_occupancy
  Hf  Hf0  1  0.000000  0.556373  0.000000  1
  Sc  Sc1  1  0.818291  0.815804  0.500000  1
  Sc  Sc2  1  0.000000  0.177334  0.500000  1
  Sc  Sc3  1  0.333701  0.666734  0.000000  1
  Sc  Sc4  1  0.666299  0.333032  0.000000  1
  Sc  Sc5  1  0.181709  0.997514  0.500000  1
  Co  Co6  1  0.624425  0.822593  0.000000  1
  Co  Co7  1  0.375575  0.198168  0.000000  1
  Co  Co8  1  0.000000  0.721780  0.500000  1
  Co  Co9  1  0.282529  0.281275  0.500000  1
  Co  Co10  1  0.871529  0.350494  0.500000  1
  Co  Co11  1  0.717471  0.998746  0.500000  1
  Co  Co12  1  0.816997  0.627218  0.000000  1
  Co  Co13  1  0.183003  0.810221  0.000000  1
  Co  Co14  1  0.358250  0.876530  0.500000  1
  Co  Co15  1  0.128471  0.478966  0.500000  1
  Co  Co16  1  0.641750  0.518281  0.500000  1
  Co  Co17  1  0.000000  0.000662  0.000000  1
  Co  Co18  1  0.515814  0.646544  0.500000  1
  Co  Co19  1  0.484186  0.130732  0.500000  1
  Co  Co20  1  0.196549  0.369715  0.000000  1
  Co  Co21  1  0.803451  0.173167  0.000000  1
  P  P22  1  0.000000  0.346036  0.000000  1
  P  P23  1  0.824273  0.515153  0.500000  1
  P  P24  1  0.684485  0.165598  0.500000  1
  P  P25  1  0.177741  0.174703  0.000000  1
  P  P26  1  0.639954  0.644994  0.000000  1
  P  P27  1  0.822259  0.996961  0.000000  1
  P  P28  1  0.516783  0.833615  0.500000  1
  P  P29  1  0.175727  0.690878  0.500000  1
  P  P30  1  0.360046  0.005040  0.000000  1
  P  P31  1  0.483217  0.316833  0.500000  1
  P  P32  1  0.000000  0.824461  0.000000  1
  P  P33  1  0.315515  0.481112  0.500000  1
  Ru  Ru34  1  0.448127  0.450430  0.000000  1
  Ru  Ru35  1  0.551873  0.002302  0.000000  1
