# generated using pymatgen
data_EuY6PtI12
_symmetry_space_group_name_H-M   'P 1'
_cell_length_a   9.82445355
_cell_length_b   9.82445477
_cell_length_c   9.82445498
_cell_angle_alpha   106.64039656
_cell_angle_beta   106.64039184
_cell_angle_gamma   106.64039093
_symmetry_Int_Tables_number   1
_chemical_formula_structural   EuY6PtI12
_chemical_formula_sum   'Eu1 Y6 Pt1 I12'
_cell_volume   797.33620706
_cell_formula_units_Z   1
loop_
 _symmetry_equiv_pos_site_id
 _symmetry_equiv_pos_as_xyz
  1  'x, y, z'
loop_
 _atom_site_type_symbol
 _atom_site_label
 _atom_site_symmetry_multiplicity
 _atom_site_fract_x
 _atom_site_fract_y
 _atom_site_fract_z
 _atom_site_occupancy
  Eu  Eu0  1  0.000000  0.000000  0.000000  1
  Y  Y1  1  0.402734  0.474981  0.199315  1
  Y  Y2  1  0.199315  0.402734  0.474981  1
  Y  Y3  1  0.474981  0.199315  0.402734  1
  Y  Y4  1  0.597266  0.525019  0.800685  1
  Y  Y5  1  0.800685  0.597266  0.525019  1
  Y  Y6  1  0.525019  0.800685  0.597266  1
  Pt  Pt7  1  0.500000  0.500000  0.500000  1
  I  I8  1  0.045718  0.359405  0.124855  1
  I  I9  1  0.124855  0.045718  0.359405  1
  I  I10  1  0.359405  0.124855  0.045718  1
  I  I11  1  0.954282  0.640595  0.875145  1
  I  I12  1  0.875145  0.954282  0.640595  1
  I  I13  1  0.640595  0.875145  0.954282  1
  I  I14  1  0.722557  0.573777  0.177097  1
  I  I15  1  0.177097  0.722557  0.573777  1
  I  I16  1  0.573777  0.177097  0.722557  1
  I  I17  1  0.277443  0.426223  0.822903  1
  I  I18  1  0.822903  0.277443  0.426223  1
  I  I19  1  0.426223  0.822903  0.277443  1
