# generated using pymatgen
data_Ca4InPt4Pb
_symmetry_space_group_name_H-M   'P 1'
_cell_length_a   5.82794441
_cell_length_b   5.82794394
_cell_length_c   8.35854313
_cell_angle_alpha   77.28574211
_cell_angle_beta   77.28574315
_cell_angle_gamma   58.87917032
_symmetry_Int_Tables_number   1
_chemical_formula_structural   Ca4InPt4Pb
_chemical_formula_sum   'Ca4 In1 Pt4 Pb1'
_cell_volume   235.14935740
_cell_formula_units_Z   1
loop_
 _symmetry_equiv_pos_site_id
 _symmetry_equiv_pos_as_xyz
  1  'x, y, z'
loop_
 _atom_site_type_symbol
 _atom_site_label
 _atom_site_symmetry_multiplicity
 _atom_site_fract_x
 _atom_site_fract_y
 _atom_site_fract_z
 _atom_site_occupancy
  Ca  Ca0  1  0.498713  0.798682  0.350747  1
  Ca  Ca1  1  0.201318  0.501287  0.149253  1
  Ca  Ca2  1  0.499376  0.199615  0.650179  1
  Ca  Ca3  1  0.800385  0.500624  0.849821  1
  In  In4  1  0.154465  0.845535  0.750000  1
  Pt  Pt5  1  0.275950  0.992651  0.994516  1
  Pt  Pt6  1  0.007349  0.724050  0.505484  1
  Pt  Pt7  1  0.726609  0.997212  0.995161  1
  Pt  Pt8  1  0.002788  0.273391  0.504839  1
  Pb  Pb9  1  0.833047  0.166953  0.250000  1
