# generated using pymatgen
data_Tb4TmIr2Rh
_symmetry_space_group_name_H-M   'P 1'
_cell_length_a   10.90535000
_cell_length_b   10.90535000
_cell_length_c   6.38518900
_cell_angle_alpha   90.00000000
_cell_angle_beta   90.00000000
_cell_angle_gamma   90.00000000
_symmetry_Int_Tables_number   1
_chemical_formula_structural   Tb4TmIr2Rh
_chemical_formula_sum   'Tb16 Tm4 Ir8 Rh4'
_cell_volume   759.36919244
_cell_formula_units_Z   4
loop_
 _symmetry_equiv_pos_site_id
 _symmetry_equiv_pos_as_xyz
  1  'x, y, z'
loop_
 _atom_site_type_symbol
 _atom_site_label
 _atom_site_symmetry_multiplicity
 _atom_site_fract_x
 _atom_site_fract_y
 _atom_site_fract_z
 _atom_site_occupancy
  Tb  Tb0  1  0.289683  0.088051  0.378072  1
  Tb  Tb1  1  0.289683  0.911949  0.878072  1
  Tb  Tb2  1  0.710317  0.088051  0.878072  1
  Tb  Tb3  1  0.710317  0.911949  0.378072  1
  Tb  Tb4  1  0.588051  0.789683  0.878072  1
  Tb  Tb5  1  0.588051  0.210317  0.378072  1
  Tb  Tb6  1  0.411949  0.789683  0.378072  1
  Tb  Tb7  1  0.411949  0.210317  0.878072  1
  Tb  Tb8  1  0.210317  0.411949  0.621928  1
  Tb  Tb9  1  0.210317  0.588051  0.121928  1
  Tb  Tb10  1  0.789683  0.411949  0.121928  1
  Tb  Tb11  1  0.789683  0.588051  0.621928  1
  Tb  Tb12  1  0.911949  0.710317  0.121928  1
  Tb  Tb13  1  0.911949  0.289683  0.621928  1
  Tb  Tb14  1  0.088051  0.710317  0.621928  1
  Tb  Tb15  1  0.088051  0.289683  0.121928  1
  Tm  Tm16  1  0.000000  0.000000  0.500000  1
  Tm  Tm17  1  0.000000  0.000000  0.000000  1
  Tm  Tm18  1  0.500000  0.500000  0.000000  1
  Tm  Tm19  1  0.500000  0.500000  0.500000  1
  Ir  Ir20  1  0.847809  0.152191  0.250000  1
  Ir  Ir21  1  0.847809  0.847809  0.750000  1
  Ir  Ir22  1  0.152191  0.152191  0.750000  1
  Ir  Ir23  1  0.152191  0.847809  0.250000  1
  Ir  Ir24  1  0.652191  0.347809  0.750000  1
  Ir  Ir25  1  0.652191  0.652191  0.250000  1
  Ir  Ir26  1  0.347809  0.347809  0.250000  1
  Ir  Ir27  1  0.347809  0.652191  0.750000  1
  Rh  Rh28  1  0.500000  0.000000  0.121848  1
  Rh  Rh29  1  0.500000  0.000000  0.621848  1
  Rh  Rh30  1  0.000000  0.500000  0.878152  1
  Rh  Rh31  1  0.000000  0.500000  0.378152  1
