# generated using pymatgen
data_DyTmLu18(CoSb2)4
_symmetry_space_group_name_H-M   'P 1'
_cell_length_a   7.68623148
_cell_length_b   8.69189100
_cell_length_c   11.95874074
_cell_angle_alpha   90.00000000
_cell_angle_beta   90.04047943
_cell_angle_gamma   90.00000000
_symmetry_Int_Tables_number   1
_chemical_formula_structural   DyTmLu18(CoSb2)4
_chemical_formula_sum   'Dy1 Tm1 Lu18 Co4 Sb8'
_cell_volume   798.93799172
_cell_formula_units_Z   1
loop_
 _symmetry_equiv_pos_site_id
 _symmetry_equiv_pos_as_xyz
  1  'x, y, z'
loop_
 _atom_site_type_symbol
 _atom_site_label
 _atom_site_symmetry_multiplicity
 _atom_site_fract_x
 _atom_site_fract_y
 _atom_site_fract_z
 _atom_site_occupancy
  Dy  Dy0  1  0.122056  0.250000  0.192650  1
  Tm  Tm1  1  0.378771  0.250000  0.691783  1
  Lu  Lu2  1  0.155539  0.750000  0.203754  1
  Lu  Lu3  1  0.344401  0.750000  0.703703  1
  Lu  Lu4  1  0.844847  0.250000  0.796474  1
  Lu  Lu5  1  0.654904  0.250000  0.296454  1
  Lu  Lu6  1  0.448821  0.750000  0.998035  1
  Lu  Lu7  1  0.051375  0.750000  0.498180  1
  Lu  Lu8  1  0.552171  0.250000  0.002084  1
  Lu  Lu9  1  0.947761  0.250000  0.502164  1
  Lu  Lu10  1  0.620167  0.750000  0.309111  1
  Lu  Lu11  1  0.879910  0.750000  0.809131  1
  Lu  Lu12  1  0.823314  0.538589  0.064594  1
  Lu  Lu13  1  0.676300  0.962208  0.564820  1
  Lu  Lu14  1  0.175892  0.036108  0.934116  1
  Lu  Lu15  1  0.324229  0.463533  0.434572  1
  Lu  Lu16  1  0.175892  0.463892  0.934116  1
  Lu  Lu17  1  0.324229  0.036467  0.434572  1
  Lu  Lu18  1  0.823314  0.961411  0.064594  1
  Lu  Lu19  1  0.676300  0.537792  0.564820  1
  Co  Co20  1  0.432509  0.750000  0.491197  1
  Co  Co21  1  0.067481  0.750000  0.991131  1
  Co  Co22  1  0.567444  0.250000  0.508688  1
  Co  Co23  1  0.932150  0.250000  0.008212  1
  Sb  Sb24  1  0.929147  0.509632  0.328501  1
  Sb  Sb25  1  0.570216  0.990957  0.828276  1
  Sb  Sb26  1  0.068367  0.008227  0.671899  1
  Sb  Sb27  1  0.432382  0.492308  0.171845  1
  Sb  Sb28  1  0.068367  0.491773  0.671899  1
  Sb  Sb29  1  0.432382  0.007692  0.171845  1
  Sb  Sb30  1  0.929147  0.990368  0.328501  1
  Sb  Sb31  1  0.570216  0.509043  0.828276  1
