# generated using pymatgen
data_Gd3HoF12
_symmetry_space_group_name_H-M   'P 1'
_cell_length_a   4.49191890
_cell_length_b   6.50434351
_cell_length_c   7.02445800
_cell_angle_alpha   90.00000000
_cell_angle_beta   90.00000000
_cell_angle_gamma   90.41020552
_symmetry_Int_Tables_number   1
_chemical_formula_structural   Gd3HoF12
_chemical_formula_sum   'Gd3 Ho1 F12'
_cell_volume   205.22821368
_cell_formula_units_Z   1
loop_
 _symmetry_equiv_pos_site_id
 _symmetry_equiv_pos_as_xyz
  1  'x, y, z'
loop_
 _atom_site_type_symbol
 _atom_site_label
 _atom_site_symmetry_multiplicity
 _atom_site_fract_x
 _atom_site_fract_y
 _atom_site_fract_z
 _atom_site_occupancy
  Gd  Gd0  1  0.558884  0.129924  0.750000  1
  Gd  Gd1  1  0.940040  0.633107  0.750000  1
  Gd  Gd2  1  0.059976  0.368489  0.250000  1
  Ho  Ho3  1  0.440946  0.868390  0.250000  1
  F  F4  1  0.878563  0.335430  0.937269  1
  F  F5  1  0.087338  0.977588  0.750000  1
  F  F6  1  0.620786  0.834769  0.559687  1
  F  F7  1  0.905107  0.019110  0.250000  1
  F  F8  1  0.411483  0.476866  0.750000  1
  F  F9  1  0.378025  0.159894  0.433774  1
  F  F10  1  0.126477  0.668644  0.435146  1
  F  F11  1  0.620786  0.834769  0.940313  1
  F  F12  1  0.378025  0.159894  0.066226  1
  F  F13  1  0.588526  0.529050  0.250000  1
  F  F14  1  0.126477  0.668644  0.064854  1
  F  F15  1  0.878563  0.335430  0.562731  1
