# generated using pymatgen
data_Dy4HoSn3O
_symmetry_space_group_name_H-M   'P 1'
_cell_length_a   8.88493514
_cell_length_b   8.86551821
_cell_length_c   8.87586400
_cell_angle_alpha   125.68417869
_cell_angle_beta   125.74842369
_cell_angle_gamma   80.35005875
_symmetry_Int_Tables_number   1
_chemical_formula_structural   Dy4HoSn3O
_chemical_formula_sum   'Dy8 Ho2 Sn6 O2'
_cell_volume   444.70004973
_cell_formula_units_Z   2
loop_
 _symmetry_equiv_pos_site_id
 _symmetry_equiv_pos_as_xyz
  1  'x, y, z'
loop_
 _atom_site_type_symbol
 _atom_site_label
 _atom_site_symmetry_multiplicity
 _atom_site_fract_x
 _atom_site_fract_y
 _atom_site_fract_z
 _atom_site_occupancy
  Dy  Dy0  1  0.001927  0.197751  0.500000  1
  Dy  Dy1  1  0.802016  0.302329  0.804114  1
  Dy  Dy2  1  0.502098  0.001786  0.804114  1
  Dy  Dy3  1  0.497902  0.998214  0.195886  1
  Dy  Dy4  1  0.998073  0.802249  0.500000  1
  Dy  Dy5  1  0.500000  0.500000  0.000000  1
  Dy  Dy6  1  0.197984  0.697671  0.195886  1
  Dy  Dy7  1  0.000000  0.000000  0.000000  1
  Ho  Ho8  1  0.698401  0.501859  0.500000  1
  Ho  Ho9  1  0.301599  0.498141  0.500000  1
  Sn  Sn10  1  0.855536  0.355536  0.211073  1
  Sn  Sn11  1  0.144464  0.644464  0.788927  1
  Sn  Sn12  1  0.355296  0.145003  0.500000  1
  Sn  Sn13  1  0.749236  0.749236  0.998472  1
  Sn  Sn14  1  0.644704  0.854997  0.500000  1
  Sn  Sn15  1  0.250764  0.250764  0.001528  1
  O  O16  1  0.749707  0.251325  0.500000  1
  O  O17  1  0.250293  0.748675  0.500000  1
