# generated using pymatgen
data_Nb3Co2ReN
_symmetry_space_group_name_H-M   'P 1'
_cell_length_a   8.13419208
_cell_length_b   8.13419204
_cell_length_c   8.13419200
_cell_angle_alpha   60.00000018
_cell_angle_beta   60.00000031
_cell_angle_gamma   60.00000007
_symmetry_Int_Tables_number   1
_chemical_formula_structural   Nb3Co2ReN
_chemical_formula_sum   'Nb12 Co8 Re4 N4'
_cell_volume   380.56449528
_cell_formula_units_Z   4
loop_
 _symmetry_equiv_pos_site_id
 _symmetry_equiv_pos_as_xyz
  1  'x, y, z'
loop_
 _atom_site_type_symbol
 _atom_site_label
 _atom_site_symmetry_multiplicity
 _atom_site_fract_x
 _atom_site_fract_y
 _atom_site_fract_z
 _atom_site_occupancy
  Nb  Nb0  1  0.807933  0.807933  0.192067  1
  Nb  Nb1  1  0.192067  0.192067  0.807933  1
  Nb  Nb2  1  0.807933  0.192067  0.807933  1
  Nb  Nb3  1  0.192067  0.807933  0.192067  1
  Nb  Nb4  1  0.192067  0.807933  0.807933  1
  Nb  Nb5  1  0.807933  0.192067  0.192067  1
  Nb  Nb6  1  0.442067  0.442067  0.057933  1
  Nb  Nb7  1  0.057933  0.057933  0.442067  1
  Nb  Nb8  1  0.442067  0.057933  0.442067  1
  Nb  Nb9  1  0.057933  0.442067  0.057933  1
  Nb  Nb10  1  0.057933  0.442067  0.442067  1
  Nb  Nb11  1  0.442067  0.057933  0.057933  1
  Co  Co12  1  0.731402  0.422866  0.422866  1
  Co  Co13  1  0.422866  0.731402  0.422866  1
  Co  Co14  1  0.422866  0.422866  0.731402  1
  Co  Co15  1  0.422866  0.422866  0.422866  1
  Co  Co16  1  0.518598  0.827134  0.827134  1
  Co  Co17  1  0.827134  0.518598  0.827134  1
  Co  Co18  1  0.827134  0.827134  0.518598  1
  Co  Co19  1  0.827134  0.827134  0.827134  1
  Re  Re20  1  0.125000  0.625000  0.625000  1
  Re  Re21  1  0.625000  0.125000  0.625000  1
  Re  Re22  1  0.625000  0.625000  0.125000  1
  Re  Re23  1  0.625000  0.625000  0.625000  1
  N  N24  1  0.625000  0.125000  0.125000  1
  N  N25  1  0.125000  0.625000  0.125000  1
  N  N26  1  0.125000  0.125000  0.625000  1
  N  N27  1  0.125000  0.125000  0.125000  1
