# generated using pymatgen
data_EuRe(PO3)6
_symmetry_space_group_name_H-M   'P 1'
_cell_length_a   6.84318900
_cell_length_b   6.84319017
_cell_length_c   10.14276100
_cell_angle_alpha   90.00000000
_cell_angle_beta   90.00000000
_cell_angle_gamma   120.00000885
_symmetry_Int_Tables_number   1
_chemical_formula_structural   EuRe(PO3)6
_chemical_formula_sum   'Eu1 Re1 P6 O18'
_cell_volume   411.34282729
_cell_formula_units_Z   1
loop_
 _symmetry_equiv_pos_site_id
 _symmetry_equiv_pos_as_xyz
  1  'x, y, z'
loop_
 _atom_site_type_symbol
 _atom_site_label
 _atom_site_symmetry_multiplicity
 _atom_site_fract_x
 _atom_site_fract_y
 _atom_site_fract_z
 _atom_site_occupancy
  Eu  Eu0  1  0.000000  0.000000  0.500000  1
  Re  Re1  1  0.000000  0.000000  0.000000  1
  P  P2  1  0.722117  0.117446  0.773261  1
  P  P3  1  0.882554  0.277883  0.226739  1
  P  P4  1  0.722117  0.604671  0.226739  1
  P  P5  1  0.882554  0.604671  0.773261  1
  P  P6  1  0.395329  0.277883  0.773261  1
  P  P7  1  0.395329  0.117446  0.226739  1
  O  O8  1  0.899677  0.517571  0.205059  1
  O  O9  1  0.899677  0.382105  0.794941  1
  O  O10  1  0.482429  0.100323  0.794941  1
  O  O11  1  0.617895  0.100323  0.205059  1
  O  O12  1  0.740554  0.042180  0.639119  1
  O  O13  1  0.748369  0.993474  0.889740  1
  O  O14  1  0.482429  0.382105  0.205059  1
  O  O15  1  0.740554  0.698374  0.360881  1
  O  O16  1  0.748369  0.754896  0.110260  1
  O  O17  1  0.617895  0.517571  0.794941  1
  O  O18  1  0.957820  0.259446  0.360881  1
  O  O19  1  0.006526  0.251631  0.110260  1
  O  O20  1  0.245104  0.251631  0.889740  1
  O  O21  1  0.301626  0.259446  0.639119  1
  O  O22  1  0.006526  0.754896  0.889740  1
  O  O23  1  0.957820  0.698374  0.639119  1
  O  O24  1  0.245104  0.993474  0.110260  1
  O  O25  1  0.301626  0.042180  0.360881  1
