# generated using pymatgen
data_Ti2AlW2C3
_symmetry_space_group_name_H-M   'P 1'
_cell_length_a   3.01997100
_cell_length_b   3.01996973
_cell_length_c   23.79368100
_cell_angle_alpha   90.00000000
_cell_angle_beta   90.00000000
_cell_angle_gamma   119.99998109
_symmetry_Int_Tables_number   1
_chemical_formula_structural   Ti2AlW2C3
_chemical_formula_sum   'Ti4 Al2 W4 C6'
_cell_volume   187.93069123
_cell_formula_units_Z   2
loop_
 _symmetry_equiv_pos_site_id
 _symmetry_equiv_pos_as_xyz
  1  'x, y, z'
loop_
 _atom_site_type_symbol
 _atom_site_label
 _atom_site_symmetry_multiplicity
 _atom_site_fract_x
 _atom_site_fract_y
 _atom_site_fract_z
 _atom_site_occupancy
  Ti  Ti0  1  0.333333  0.666667  0.446880  1
  Ti  Ti1  1  0.666667  0.333333  0.553120  1
  Ti  Ti2  1  0.666667  0.333333  0.946880  1
  Ti  Ti3  1  0.333333  0.666667  0.053120  1
  Al  Al4  1  0.333333  0.666667  0.250000  1
  Al  Al5  1  0.666667  0.333333  0.750000  1
  W  W6  1  0.000000  0.000000  0.341779  1
  W  W7  1  0.000000  0.000000  0.658221  1
  W  W8  1  0.000000  0.000000  0.841779  1
  W  W9  1  0.000000  0.000000  0.158221  1
  C  C10  1  0.000000  0.000000  0.500000  1
  C  C11  1  0.000000  0.000000  0.000000  1
  C  C12  1  0.666667  0.333333  0.392844  1
  C  C13  1  0.333333  0.666667  0.607156  1
  C  C14  1  0.333333  0.666667  0.892844  1
  C  C15  1  0.666667  0.333333  0.107156  1
