# generated using pymatgen
data_Ba10Si17Ag
_symmetry_space_group_name_H-M   'P 1'
_cell_length_a   6.68104173
_cell_length_b   6.68104169
_cell_length_c   18.03763743
_cell_angle_alpha   81.66954069
_cell_angle_beta   81.66954312
_cell_angle_gamma   100.04733204
_symmetry_Int_Tables_number   1
_chemical_formula_structural   Ba10Si17Ag
_chemical_formula_sum   'Ba10 Si17 Ag1'
_cell_volume   772.36508979
_cell_formula_units_Z   1
loop_
 _symmetry_equiv_pos_site_id
 _symmetry_equiv_pos_as_xyz
  1  'x, y, z'
loop_
 _atom_site_type_symbol
 _atom_site_label
 _atom_site_symmetry_multiplicity
 _atom_site_fract_x
 _atom_site_fract_y
 _atom_site_fract_z
 _atom_site_occupancy
  Ba  Ba0  1  0.749591  0.254718  0.997400  1
  Ba  Ba1  1  0.112144  0.578348  0.790545  1
  Ba  Ba2  1  0.287550  0.708800  0.499916  1
  Ba  Ba3  1  0.759062  0.759062  0.648060  1
  Ba  Ba4  1  0.243541  0.243541  0.350613  1
  Ba  Ba5  1  0.578348  0.112144  0.790545  1
  Ba  Ba6  1  0.254718  0.749591  0.997400  1
  Ba  Ba7  1  0.708800  0.287550  0.499916  1
  Ba  Ba8  1  0.420776  0.887311  0.212020  1
  Ba  Ba9  1  0.887311  0.420776  0.212020  1
  Si  Si10  1  0.918738  0.918738  0.262157  1
  Si  Si11  1  0.071814  0.071814  0.735886  1
  Si  Si12  1  0.778618  0.778618  0.932473  1
  Si  Si13  1  0.345616  0.345616  0.647475  1
  Si  Si14  1  0.295842  0.295842  0.927033  1
  Si  Si15  1  0.933253  0.933253  0.130712  1
  Si  Si16  1  0.650031  0.650031  0.356684  1
  Si  Si17  1  0.439298  0.439298  0.145016  1
  Si  Si18  1  0.064481  0.064481  0.867151  1
  Si  Si19  1  0.817281  0.817281  0.450274  1
  Si  Si20  1  0.328061  0.971514  0.643623  1
  Si  Si21  1  0.666761  0.023473  0.357642  1
  Si  Si22  1  0.182876  0.182876  0.550621  1
  Si  Si23  1  0.971514  0.328061  0.643623  1
  Si  Si24  1  0.023473  0.666761  0.357642  1
  Si  Si25  1  0.707146  0.707146  0.070232  1
  Si  Si26  1  0.579569  0.579569  0.852948  1
  Ag  Ag27  1  0.223785  0.223785  0.070373  1
