# generated using pymatgen
data_Yb4Cd3In7Pd8
_symmetry_space_group_name_H-M   'P 1'
_cell_length_a   4.50438900
_cell_length_b   9.53771393
_cell_length_c   11.01304135
_cell_angle_alpha   77.76279651
_cell_angle_beta   90.00000000
_cell_angle_gamma   90.00000000
_symmetry_Int_Tables_number   1
_chemical_formula_structural   Yb4Cd3In7Pd8
_chemical_formula_sum   'Yb4 Cd3 In7 Pd8'
_cell_volume   462.38717768
_cell_formula_units_Z   1
loop_
 _symmetry_equiv_pos_site_id
 _symmetry_equiv_pos_as_xyz
  1  'x, y, z'
loop_
 _atom_site_type_symbol
 _atom_site_label
 _atom_site_symmetry_multiplicity
 _atom_site_fract_x
 _atom_site_fract_y
 _atom_site_fract_z
 _atom_site_occupancy
  Yb  Yb0  1  0.250000  0.325151  0.696139  1
  Yb  Yb1  1  0.750000  0.671353  0.302172  1
  Yb  Yb2  1  0.250000  0.222924  0.118117  1
  Yb  Yb3  1  0.750000  0.775923  0.880648  1
  Cd  Cd4  1  0.750000  0.076712  0.657340  1
  Cd  Cd5  1  0.250000  0.841350  0.645673  1
  Cd  Cd6  1  0.750000  0.423456  0.926395  1
  In  In7  1  0.750000  0.163841  0.356656  1
  In  In8  1  0.750000  0.593370  0.646095  1
  In  In9  1  0.250000  0.887453  0.070469  1
  In  In10  1  0.250000  0.572988  0.069742  1
  In  In11  1  0.250000  0.915713  0.346320  1
  In  In12  1  0.750000  0.112486  0.929421  1
  In  In13  1  0.250000  0.409345  0.357654  1
  Pd  Pd14  1  0.250000  0.014497  0.819913  1
  Pd  Pd15  1  0.250000  0.130885  0.506410  1
  Pd  Pd16  1  0.750000  0.423797  0.187789  1
  Pd  Pd17  1  0.750000  0.868058  0.484851  1
  Pd  Pd18  1  0.750000  0.988677  0.185188  1
  Pd  Pd19  1  0.750000  0.378023  0.506979  1
  Pd  Pd20  1  0.250000  0.577958  0.812364  1
  Pd  Pd21  1  0.250000  0.626040  0.493667  1
