# generated using pymatgen
data_Li6Hf5MnPt12
_symmetry_space_group_name_H-M   'P 1'
_cell_length_a   4.33208617
_cell_length_b   6.75693700
_cell_length_c   12.99294091
_cell_angle_alpha   90.00000000
_cell_angle_beta   94.10620417
_cell_angle_gamma   90.00000000
_symmetry_Int_Tables_number   1
_chemical_formula_structural   Li6Hf5MnPt12
_chemical_formula_sum   'Li6 Hf5 Mn1 Pt12'
_cell_volume   379.34832241
_cell_formula_units_Z   1
loop_
 _symmetry_equiv_pos_site_id
 _symmetry_equiv_pos_as_xyz
  1  'x, y, z'
loop_
 _atom_site_type_symbol
 _atom_site_label
 _atom_site_symmetry_multiplicity
 _atom_site_fract_x
 _atom_site_fract_y
 _atom_site_fract_z
 _atom_site_occupancy
  Li  Li0  1  0.996349  0.500000  0.995012  1
  Li  Li1  1  0.504434  0.000000  0.161325  1
  Li  Li2  1  0.000085  0.500000  0.333332  1
  Li  Li3  1  0.495536  0.000000  0.505331  1
  Li  Li4  1  0.003667  0.500000  0.671719  1
  Li  Li5  1  0.500060  0.000000  0.833319  1
  Hf  Hf6  1  0.004670  0.000000  0.994035  1
  Hf  Hf7  1  0.504227  0.500000  0.164024  1
  Hf  Hf8  1  0.999981  0.000000  0.333296  1
  Hf  Hf9  1  0.495796  0.500000  0.502607  1
  Hf  Hf10  1  0.995185  0.000000  0.672511  1
  Mn  Mn11  1  0.500327  0.500000  0.833666  1
  Pt  Pt12  1  0.503518  0.255113  0.994883  1
  Pt  Pt13  1  0.503518  0.744889  0.994883  1
  Pt  Pt14  1  0.004586  0.248167  0.164258  1
  Pt  Pt15  1  0.004586  0.751833  0.164258  1
  Pt  Pt16  1  0.499981  0.250936  0.333282  1
  Pt  Pt17  1  0.499981  0.749064  0.333282  1
  Pt  Pt18  1  0.995424  0.248167  0.502292  1
  Pt  Pt19  1  0.995424  0.751833  0.502292  1
  Pt  Pt20  1  0.496298  0.255435  0.671893  1
  Pt  Pt21  1  0.496298  0.744565  0.671893  1
  Pt  Pt22  1  0.000036  0.259817  0.833305  1
  Pt  Pt23  1  0.000036  0.740183  0.833305  1
