# generated using pymatgen
data_PrSmRh2F14
_symmetry_space_group_name_H-M   'P 1'
_cell_length_a   5.64594200
_cell_length_b   9.15424035
_cell_length_c   12.21147717
_cell_angle_alpha   62.29230023
_cell_angle_beta   90.00000000
_cell_angle_gamma   90.00000000
_symmetry_Int_Tables_number   1
_chemical_formula_structural   PrSmRh2F14
_chemical_formula_sum   'Pr2 Sm2 Rh4 F28'
_cell_volume   558.76947079
_cell_formula_units_Z   2
loop_
 _symmetry_equiv_pos_site_id
 _symmetry_equiv_pos_as_xyz
  1  'x, y, z'
loop_
 _atom_site_type_symbol
 _atom_site_label
 _atom_site_symmetry_multiplicity
 _atom_site_fract_x
 _atom_site_fract_y
 _atom_site_fract_z
 _atom_site_occupancy
  Pr  Pr0  1  0.239129  0.190428  0.234681  1
  Pr  Pr1  1  0.739129  0.809572  0.265319  1
  Sm  Sm2  1  0.760579  0.812485  0.765103  1
  Sm  Sm3  1  0.260579  0.187515  0.734897  1
  Rh  Rh4  1  0.756757  0.276239  0.953017  1
  Rh  Rh5  1  0.256757  0.723761  0.546983  1
  Rh  Rh6  1  0.245041  0.728230  0.039262  1
  Rh  Rh7  1  0.745041  0.271770  0.460738  1
  F  F8  1  0.438026  0.708663  0.914569  1
  F  F9  1  0.938026  0.291337  0.585431  1
  F  F10  1  0.563290  0.293747  0.078897  1
  F  F11  1  0.063290  0.706253  0.421103  1
  F  F12  1  0.452457  0.281605  0.544443  1
  F  F13  1  0.952457  0.718395  0.955557  1
  F  F14  1  0.545637  0.713827  0.462317  1
  F  F15  1  0.045637  0.286173  0.037683  1
  F  F16  1  0.763718  0.514908  0.858580  1
  F  F17  1  0.263718  0.485092  0.641420  1
  F  F18  1  0.235768  0.490272  0.135113  1
  F  F19  1  0.735768  0.509728  0.364887  1
  F  F20  1  0.760533  0.038251  0.045865  1
  F  F21  1  0.260533  0.961749  0.454135  1
  F  F22  1  0.242119  0.966581  0.948573  1
  F  F23  1  0.742119  0.033419  0.551427  1
  F  F24  1  0.972098  0.730606  0.635501  1
  F  F25  1  0.472098  0.269394  0.864499  1
  F  F26  1  0.031812  0.269232  0.372277  1
  F  F27  1  0.531812  0.730768  0.127723  1
  F  F28  1  0.057021  0.743513  0.167650  1
  F  F29  1  0.557021  0.256487  0.332350  1
  F  F30  1  0.949311  0.257972  0.826615  1
  F  F31  1  0.449311  0.742028  0.673385  1
  F  F32  1  0.400051  0.964991  0.228881  1
  F  F33  1  0.900051  0.035009  0.271119  1
  F  F34  1  0.586652  0.029197  0.769370  1
  F  F35  1  0.086652  0.970803  0.730630  1
