# generated using pymatgen
data_Sr4Al18IrPt5
_symmetry_space_group_name_H-M   'P 1'
_cell_length_a   7.71521525
_cell_length_b   7.71521509
_cell_length_c   9.71749241
_cell_angle_alpha   89.95985403
_cell_angle_beta   89.95985050
_cell_angle_gamma   119.43346220
_symmetry_Int_Tables_number   1
_chemical_formula_structural   Sr4Al18IrPt5
_chemical_formula_sum   'Sr4 Al18 Ir1 Pt5'
_cell_volume   503.76920012
_cell_formula_units_Z   1
loop_
 _symmetry_equiv_pos_site_id
 _symmetry_equiv_pos_as_xyz
  1  'x, y, z'
loop_
 _atom_site_type_symbol
 _atom_site_label
 _atom_site_symmetry_multiplicity
 _atom_site_fract_x
 _atom_site_fract_y
 _atom_site_fract_z
 _atom_site_occupancy
  Sr  Sr0  1  0.995315  0.670628  0.250183  1
  Sr  Sr1  1  0.005716  0.330172  0.750230  1
  Sr  Sr2  1  0.669828  0.994284  0.249770  1
  Sr  Sr3  1  0.329372  0.004685  0.749817  1
  Al  Al4  1  0.134090  0.134673  0.250359  1
  Al  Al5  1  0.865327  0.865910  0.749641  1
  Al  Al6  1  0.002373  0.334699  0.073958  1
  Al  Al7  1  0.996936  0.665504  0.925651  1
  Al  Al8  1  0.994636  0.661267  0.572251  1
  Al  Al9  1  0.338733  0.005364  0.427749  1
  Al  Al10  1  0.997892  0.334439  0.427821  1
  Al  Al11  1  0.665561  0.002108  0.572179  1
  Al  Al12  1  0.665301  0.997627  0.926042  1
  Al  Al13  1  0.334496  0.003064  0.074349  1
  Al  Al14  1  0.336505  0.333585  0.545435  1
  Al  Al15  1  0.666415  0.663495  0.454565  1
  Al  Al16  1  0.665315  0.665211  0.048410  1
  Al  Al17  1  0.334789  0.334685  0.951590  1
  Al  Al18  1  0.338901  0.540896  0.250339  1
  Al  Al19  1  0.660636  0.456375  0.746835  1
  Al  Al20  1  0.543625  0.339364  0.253165  1
  Al  Al21  1  0.459104  0.661099  0.749661  1
  Ir  Ir22  1  0.669572  0.330428  0.500000  1
  Pt  Pt23  1  0.670061  0.329939  0.000000  1
  Pt  Pt24  1  0.329607  0.670393  0.000000  1
  Pt  Pt25  1  0.329949  0.670051  0.500000  1
  Pt  Pt26  1  0.999880  0.000120  0.000000  1
  Pt  Pt27  1  0.000064  0.999936  0.500000  1
