# generated using pymatgen
data_SmErFe5Co3B8
_symmetry_space_group_name_H-M   'P 1'
_cell_length_a   6.97007172
_cell_length_b   6.97413584
_cell_length_c   3.81208704
_cell_angle_alpha   90.05984727
_cell_angle_beta   90.04348743
_cell_angle_gamma   90.14685518
_symmetry_Int_Tables_number   1
_chemical_formula_structural   SmErFe5Co3B8
_chemical_formula_sum   'Sm1 Er1 Fe5 Co3 B8'
_cell_volume   185.30565306
_cell_formula_units_Z   1
loop_
 _symmetry_equiv_pos_site_id
 _symmetry_equiv_pos_as_xyz
  1  'x, y, z'
loop_
 _atom_site_type_symbol
 _atom_site_label
 _atom_site_symmetry_multiplicity
 _atom_site_fract_x
 _atom_site_fract_y
 _atom_site_fract_z
 _atom_site_occupancy
  Sm  Sm0  1  0.501361  0.499044  0.502688  1
  Er  Er1  1  0.000178  0.000937  0.003403  1
  Fe  Fe2  1  0.384631  0.130504  0.892841  1
  Fe  Fe3  1  0.615699  0.868289  0.891900  1
  Fe  Fe4  1  0.366355  0.885436  0.392520  1
  Fe  Fe5  1  0.634353  0.113751  0.392239  1
  Fe  Fe6  1  0.114955  0.365913  0.608515  1
  Co  Co7  1  0.885075  0.639438  0.608115  1
  Co  Co8  1  0.133956  0.617690  0.108639  1
  Co  Co9  1  0.864038  0.385022  0.108648  1
  B  B10  1  0.799364  0.666734  0.102689  1
  B  B11  1  0.199246  0.332186  0.105024  1
  B  B12  1  0.840782  0.290061  0.604662  1
  B  B13  1  0.164905  0.701801  0.605504  1
  B  B14  1  0.700351  0.836487  0.391546  1
  B  B15  1  0.295912  0.164787  0.393938  1
  B  B16  1  0.666794  0.195574  0.893494  1
  B  B17  1  0.332041  0.806345  0.893637  1
