# generated using pymatgen
data_Be3Nb4Ge2BRu10
_symmetry_space_group_name_H-M   'P 1'
_cell_length_a   9.36179396
_cell_length_b   9.36179396
_cell_length_c   3.04697900
_cell_angle_alpha   90.00000000
_cell_angle_beta   90.00000000
_cell_angle_gamma   90.05178889
_symmetry_Int_Tables_number   1
_chemical_formula_structural   Be3Nb4Ge2BRu10
_chemical_formula_sum   'Be3 Nb4 Ge2 B1 Ru10'
_cell_volume   267.04683838
_cell_formula_units_Z   1
loop_
 _symmetry_equiv_pos_site_id
 _symmetry_equiv_pos_as_xyz
  1  'x, y, z'
loop_
 _atom_site_type_symbol
 _atom_site_label
 _atom_site_symmetry_multiplicity
 _atom_site_fract_x
 _atom_site_fract_y
 _atom_site_fract_z
 _atom_site_occupancy
  Be  Be0  1  0.624514  0.875519  0.000000  1
  Be  Be1  1  0.375519  0.124514  0.000000  1
  Be  Be2  1  0.124596  0.624596  0.000000  1
  Nb  Nb3  1  0.826322  0.674211  0.000000  1
  Nb  Nb4  1  0.174211  0.326322  0.000000  1
  Nb  Nb5  1  0.326815  0.826815  0.000000  1
  Nb  Nb6  1  0.672601  0.172601  0.000000  1
  Ge  Ge7  1  0.501043  0.499695  0.000000  1
  Ge  Ge8  1  0.999695  0.001043  0.000000  1
  B  B9  1  0.876307  0.376307  0.000000  1
  Ru  Ru10  1  0.567562  0.706006  0.500000  1
  Ru  Ru11  1  0.434120  0.293270  0.500000  1
  Ru  Ru12  1  0.065575  0.792100  0.500000  1
  Ru  Ru13  1  0.929680  0.213673  0.500000  1
  Ru  Ru14  1  0.292100  0.565575  0.500000  1
  Ru  Ru15  1  0.713673  0.429680  0.500000  1
  Ru  Ru16  1  0.206006  0.067562  0.500000  1
  Ru  Ru17  1  0.793270  0.934120  0.500000  1
  Ru  Ru18  1  0.499395  0.999395  0.500000  1
  Ru  Ru19  1  0.996996  0.496996  0.500000  1
