# generated using pymatgen
data_SmFe2(CoB2)2
_symmetry_space_group_name_H-M   'P 1'
_cell_length_a   7.00877100
_cell_length_b   7.00877100
_cell_length_c   3.80659900
_cell_angle_alpha   90.00000000
_cell_angle_beta   90.00000000
_cell_angle_gamma   90.00000000
_symmetry_Int_Tables_number   1
_chemical_formula_structural   SmFe2(CoB2)2
_chemical_formula_sum   'Sm2 Fe4 Co4 B8'
_cell_volume   186.99107136
_cell_formula_units_Z   2
loop_
 _symmetry_equiv_pos_site_id
 _symmetry_equiv_pos_as_xyz
  1  'x, y, z'
loop_
 _atom_site_type_symbol
 _atom_site_label
 _atom_site_symmetry_multiplicity
 _atom_site_fract_x
 _atom_site_fract_y
 _atom_site_fract_z
 _atom_site_occupancy
  Sm  Sm0  1  0.000000  0.000000  0.998533  1
  Sm  Sm1  1  0.500000  0.500000  0.498533  1
  Fe  Fe2  1  0.386106  0.133666  0.894225  1
  Fe  Fe3  1  0.613894  0.866334  0.894225  1
  Fe  Fe4  1  0.366334  0.886106  0.394225  1
  Fe  Fe5  1  0.633666  0.113894  0.394225  1
  Co  Co6  1  0.115226  0.361421  0.608569  1
  Co  Co7  1  0.884774  0.638579  0.608569  1
  Co  Co8  1  0.138579  0.615226  0.108569  1
  Co  Co9  1  0.861421  0.384774  0.108569  1
  B  B10  1  0.796676  0.663596  0.103889  1
  B  B11  1  0.203324  0.336404  0.103889  1
  B  B12  1  0.836404  0.296676  0.603889  1
  B  B13  1  0.163596  0.703324  0.603889  1
  B  B14  1  0.700713  0.835640  0.394051  1
  B  B15  1  0.299287  0.164360  0.394051  1
  B  B16  1  0.664360  0.200713  0.894051  1
  B  B17  1  0.335640  0.799287  0.894051  1
