# generated using pymatgen
data_Ho11(In3Sn2)2
_symmetry_space_group_name_H-M   'P 1'
_cell_length_a   11.76224353
_cell_length_b   11.76224405
_cell_length_c   11.76224400
_cell_angle_alpha   119.97031696
_cell_angle_beta   119.97031842
_cell_angle_gamma   90.05141942
_symmetry_Int_Tables_number   1
_chemical_formula_structural   Ho11(In3Sn2)2
_chemical_formula_sum   'Ho22 In12 Sn8'
_cell_volume   1151.19832792
_cell_formula_units_Z   2
loop_
 _symmetry_equiv_pos_site_id
 _symmetry_equiv_pos_as_xyz
  1  'x, y, z'
loop_
 _atom_site_type_symbol
 _atom_site_label
 _atom_site_symmetry_multiplicity
 _atom_site_fract_x
 _atom_site_fract_y
 _atom_site_fract_z
 _atom_site_occupancy
  Ho  Ho0  1  0.687372  0.936988  0.249615  1
  Ho  Ho1  1  0.687372  0.437757  0.750385  1
  Ho  Ho2  1  0.936988  0.687372  0.249615  1
  Ho  Ho3  1  0.437757  0.687372  0.750385  1
  Ho  Ho4  1  0.312628  0.063012  0.750385  1
  Ho  Ho5  1  0.312628  0.562243  0.249615  1
  Ho  Ho6  1  0.063012  0.312628  0.750385  1
  Ho  Ho7  1  0.562243  0.312628  0.249615  1
  Ho  Ho8  1  0.896951  0.230233  0.333281  1
  Ho  Ho9  1  0.896951  0.563669  0.666719  1
  Ho  Ho10  1  0.230233  0.896951  0.333281  1
  Ho  Ho11  1  0.563669  0.896951  0.666719  1
  Ho  Ho12  1  0.103049  0.769767  0.666719  1
  Ho  Ho13  1  0.103049  0.436331  0.333281  1
  Ho  Ho14  1  0.769767  0.103049  0.666719  1
  Ho  Ho15  1  0.436331  0.103049  0.333281  1
  Ho  Ho16  1  0.327242  0.327242  0.654484  1
  Ho  Ho17  1  0.672758  0.672758  0.345516  1
  Ho  Ho18  1  0.327242  0.672758  0.000000  1
  Ho  Ho19  1  0.672758  0.327242  0.000000  1
  Ho  Ho20  1  0.833510  0.833510  0.000000  1
  Ho  Ho21  1  0.166490  0.166490  0.000000  1
  In  In22  1  0.033664  0.033664  0.411579  1
  In  In23  1  0.622085  0.622085  0.588421  1
  In  In24  1  0.033664  0.622085  0.000000  1
  In  In25  1  0.622085  0.033664  0.000000  1
  In  In26  1  0.966336  0.966336  0.588421  1
  In  In27  1  0.377915  0.377915  0.411579  1
  In  In28  1  0.966336  0.377915  0.000000  1
  In  In29  1  0.377915  0.966336  0.000000  1
  In  In30  1  0.128032  0.128032  0.256063  1
  In  In31  1  0.871968  0.871968  0.743937  1
  In  In32  1  0.128032  0.871968  0.000000  1
  In  In33  1  0.871968  0.128032  0.000000  1
  Sn  Sn34  1  0.147196  0.500000  0.647196  1
  Sn  Sn35  1  0.852804  0.500000  0.352804  1
  Sn  Sn36  1  0.500000  0.852804  0.352804  1
  Sn  Sn37  1  0.500000  0.147196  0.647196  1
  Sn  Sn38  1  0.614215  0.614215  0.000000  1
  Sn  Sn39  1  0.385785  0.385785  0.000000  1
  Sn  Sn40  1  0.750000  0.250000  0.500000  1
  Sn  Sn41  1  0.250000  0.750000  0.500000  1
