# generated using pymatgen
data_TbDy2MgIn2Ga2Cu
_symmetry_space_group_name_H-M   'P 1'
_cell_length_a   7.29293400
_cell_length_b   7.29581796
_cell_length_c   4.38189100
_cell_angle_alpha   90.00000000
_cell_angle_beta   90.00000000
_cell_angle_gamma   119.98692480
_symmetry_Int_Tables_number   1
_chemical_formula_structural   TbDy2MgIn2Ga2Cu
_chemical_formula_sum   'Tb1 Dy2 Mg1 In2 Ga2 Cu1'
_cell_volume   201.94154724
_cell_formula_units_Z   1
loop_
 _symmetry_equiv_pos_site_id
 _symmetry_equiv_pos_as_xyz
  1  'x, y, z'
loop_
 _atom_site_type_symbol
 _atom_site_label
 _atom_site_symmetry_multiplicity
 _atom_site_fract_x
 _atom_site_fract_y
 _atom_site_fract_z
 _atom_site_occupancy
  Tb  Tb0  1  0.584667  0.999768  0.500000  1
  Dy  Dy1  1  0.999523  0.585023  0.500000  1
  Dy  Dy2  1  0.414026  0.414256  0.500000  1
  Mg  Mg3  1  0.760152  0.760219  0.000000  1
  In  In4  1  0.998439  0.242919  0.000000  1
  In  In5  1  0.242957  0.998470  0.000000  1
  Ga  Ga6  1  0.336448  0.664327  0.000000  1
  Ga  Ga7  1  0.665532  0.337747  0.000000  1
  Cu  Cu8  1  0.998257  0.997271  0.500000  1
