# generated using pymatgen
data_Zr12NbCo8Sn3N4
_symmetry_space_group_name_H-M   'P 1'
_cell_length_a   8.56943078
_cell_length_b   8.53952192
_cell_length_c   8.53977904
_cell_angle_alpha   60.00029177
_cell_angle_beta   60.11451360
_cell_angle_gamma   60.11483537
_symmetry_Int_Tables_number   1
_chemical_formula_structural   Zr12NbCo8Sn3N4
_chemical_formula_sum   'Zr12 Nb1 Co8 Sn3 N4'
_cell_volume   442.65841419
_cell_formula_units_Z   1
loop_
 _symmetry_equiv_pos_site_id
 _symmetry_equiv_pos_as_xyz
  1  'x, y, z'
loop_
 _atom_site_type_symbol
 _atom_site_label
 _atom_site_symmetry_multiplicity
 _atom_site_fract_x
 _atom_site_fract_y
 _atom_site_fract_z
 _atom_site_occupancy
  Zr  Zr0  1  0.814455  0.811960  0.186781  1
  Zr  Zr1  1  0.191602  0.186931  0.810736  1
  Zr  Zr2  1  0.814445  0.186794  0.811952  1
  Zr  Zr3  1  0.191609  0.810736  0.186924  1
  Zr  Zr4  1  0.191592  0.810736  0.810738  1
  Zr  Zr5  1  0.814448  0.186803  0.186789  1
  Zr  Zr6  1  0.435545  0.438040  0.063219  1
  Zr  Zr7  1  0.058398  0.063069  0.439264  1
  Zr  Zr8  1  0.435555  0.063206  0.438048  1
  Zr  Zr9  1  0.058391  0.439264  0.063076  1
  Zr  Zr10  1  0.058408  0.439264  0.439262  1
  Zr  Zr11  1  0.435552  0.063197  0.063211  1
  Nb  Nb12  1  0.125000  0.625000  0.625000  1
  Co  Co13  1  0.766237  0.411260  0.411247  1
  Co  Co14  1  0.396457  0.756546  0.423496  1
  Co  Co15  1  0.396399  0.423513  0.756572  1
  Co  Co16  1  0.396475  0.423493  0.423489  1
  Co  Co17  1  0.483763  0.838740  0.838753  1
  Co  Co18  1  0.853543  0.493454  0.826504  1
  Co  Co19  1  0.853601  0.826487  0.493428  1
  Co  Co20  1  0.853525  0.826507  0.826511  1
  Sn  Sn21  1  0.625000  0.125000  0.625000  1
  Sn  Sn22  1  0.625000  0.625000  0.125000  1
  Sn  Sn23  1  0.625000  0.625000  0.625000  1
  N  N24  1  0.625000  0.125000  0.125000  1
  N  N25  1  0.125000  0.625000  0.125000  1
  N  N26  1  0.125000  0.125000  0.625000  1
  N  N27  1  0.125000  0.125000  0.125000  1
