# generated using pymatgen
data_Pm5Sn3
_symmetry_space_group_name_H-M   'P 1'
_cell_length_a   4.81217812
_cell_length_b   6.88542227
_cell_length_c   8.51004145
_cell_angle_alpha   74.69168812
_cell_angle_beta   89.94936423
_cell_angle_gamma   110.43432028
_symmetry_Int_Tables_number   1
_chemical_formula_structural   Pm5Sn3
_chemical_formula_sum   'Pm5 Sn3'
_cell_volume   253.49764641
_cell_formula_units_Z   1
loop_
 _symmetry_equiv_pos_site_id
 _symmetry_equiv_pos_as_xyz
  1  'x, y, z'
loop_
 _atom_site_type_symbol
 _atom_site_label
 _atom_site_symmetry_multiplicity
 _atom_site_fract_x
 _atom_site_fract_y
 _atom_site_fract_z
 _atom_site_occupancy
  Pm  Pm0  1  0.164543  0.694461  0.966979  1
  Pm  Pm1  1  0.353230  0.069513  0.542841  1
  Pm  Pm2  1  0.692546  0.745210  0.292845  1
  Pm  Pm3  1  0.047984  0.461194  0.618347  1
  Pm  Pm4  1  0.442721  0.246873  0.048897  1
  Sn  Sn5  1  0.973179  0.307383  0.297600  1
  Sn  Sn6  1  0.834735  0.032707  0.901766  1
  Sn  Sn7  1  0.668103  0.702451  0.701437  1
