# generated using pymatgen
data_La5Mo3(P3Rh4)4
_symmetry_space_group_name_H-M   'P 1'
_cell_length_a   12.80998500
_cell_length_b   12.80998488
_cell_length_c   3.92139700
_cell_angle_alpha   90.00000000
_cell_angle_beta   90.00000000
_cell_angle_gamma   120.00000290
_symmetry_Int_Tables_number   1
_chemical_formula_structural   La5Mo3(P3Rh4)4
_chemical_formula_sum   'La5 Mo3 P12 Rh16'
_cell_volume   557.27385656
_cell_formula_units_Z   1
loop_
 _symmetry_equiv_pos_site_id
 _symmetry_equiv_pos_as_xyz
  1  'x, y, z'
loop_
 _atom_site_type_symbol
 _atom_site_label
 _atom_site_symmetry_multiplicity
 _atom_site_fract_x
 _atom_site_fract_y
 _atom_site_fract_z
 _atom_site_occupancy
  La  La0  1  0.187377  0.187377  0.500000  1
  La  La1  1  0.812623  0.000000  0.500000  1
  La  La2  1  0.000000  0.812623  0.500000  1
  La  La3  1  0.333333  0.666667  0.000000  1
  La  La4  1  0.666667  0.333333  0.000000  1
  Mo  Mo5  1  0.549928  0.549928  0.000000  1
  Mo  Mo6  1  0.450072  0.000000  0.000000  1
  Mo  Mo7  1  0.000000  0.450072  0.000000  1
  P  P8  1  0.820555  0.820555  0.000000  1
  P  P9  1  0.179445  0.000000  0.000000  1
  P  P10  1  0.000000  0.179445  0.000000  1
  P  P11  1  0.161597  0.480710  0.500000  1
  P  P12  1  0.519290  0.680886  0.500000  1
  P  P13  1  0.319114  0.838403  0.500000  1
  P  P14  1  0.680886  0.519290  0.500000  1
  P  P15  1  0.838403  0.319114  0.500000  1
  P  P16  1  0.480710  0.161597  0.500000  1
  P  P17  1  0.367178  0.367178  0.000000  1
  P  P18  1  0.632822  0.000000  0.000000  1
  P  P19  1  0.000000  0.632822  0.000000  1
  Rh  Rh20  1  0.715584  0.715584  0.500000  1
  Rh  Rh21  1  0.284416  0.000000  0.500000  1
  Rh  Rh22  1  0.000000  0.284416  0.500000  1
  Rh  Rh23  1  0.177009  0.377235  0.000000  1
  Rh  Rh24  1  0.622765  0.799775  0.000000  1
  Rh  Rh25  1  0.200225  0.822991  0.000000  1
  Rh  Rh26  1  0.799775  0.622765  0.000000  1
  Rh  Rh27  1  0.822991  0.200225  0.000000  1
  Rh  Rh28  1  0.377235  0.177009  0.000000  1
  Rh  Rh29  1  0.356531  0.484908  0.500000  1
  Rh  Rh30  1  0.515092  0.871624  0.500000  1
  Rh  Rh31  1  0.128376  0.643469  0.500000  1
  Rh  Rh32  1  0.871624  0.515092  0.500000  1
  Rh  Rh33  1  0.643469  0.128376  0.500000  1
  Rh  Rh34  1  0.484908  0.356531  0.500000  1
  Rh  Rh35  1  0.000000  0.000000  0.000000  1
