# generated using pymatgen
data_MnZn(AuO2)2
_symmetry_space_group_name_H-M   'P 1'
_cell_length_a   5.34674965
_cell_length_b   6.19471065
_cell_length_c   7.10818285
_cell_angle_alpha   64.11896639
_cell_angle_beta   76.01486064
_cell_angle_gamma   89.93229729
_symmetry_Int_Tables_number   1
_chemical_formula_structural   MnZn(AuO2)2
_chemical_formula_sum   'Mn2 Zn2 Au4 O8'
_cell_volume   204.06963127
_cell_formula_units_Z   2
loop_
 _symmetry_equiv_pos_site_id
 _symmetry_equiv_pos_as_xyz
  1  'x, y, z'
loop_
 _atom_site_type_symbol
 _atom_site_label
 _atom_site_symmetry_multiplicity
 _atom_site_fract_x
 _atom_site_fract_y
 _atom_site_fract_z
 _atom_site_occupancy
  Mn  Mn0  1  0.499966  0.250247  0.000078  1
  Mn  Mn1  1  0.000043  0.999741  0.999921  1
  Zn  Zn2  1  0.500081  0.747330  0.999958  1
  Zn  Zn3  1  0.999918  0.502665  0.000044  1
  Au  Au4  1  0.006085  0.001457  0.499837  1
  Au  Au5  1  0.993993  0.501414  0.500117  1
  Au  Au6  1  0.506044  0.748601  0.499887  1
  Au  Au7  1  0.493877  0.248559  0.500159  1
  O  O8  1  0.898249  0.849508  0.833204  1
  O  O9  1  0.880820  0.316448  0.835208  1
  O  O10  1  0.398403  0.567281  0.833306  1
  O  O11  1  0.380623  0.098433  0.835130  1
  O  O12  1  0.119364  0.151567  0.164864  1
  O  O13  1  0.101614  0.682717  0.166691  1
  O  O14  1  0.619185  0.933548  0.164797  1
  O  O15  1  0.601733  0.400484  0.166799  1
