# generated using pymatgen
data_YErU2(ReB6)2
_symmetry_space_group_name_H-M   'P 1'
_cell_length_a   3.63233600
_cell_length_b   9.29484404
_cell_length_c   11.41702805
_cell_angle_alpha   89.98933904
_cell_angle_beta   90.00000000
_cell_angle_gamma   90.00000000
_symmetry_Int_Tables_number   1
_chemical_formula_structural   YErU2(ReB6)2
_chemical_formula_sum   'Y2 Er2 U4 Re4 B24'
_cell_volume   385.46165576
_cell_formula_units_Z   2
loop_
 _symmetry_equiv_pos_site_id
 _symmetry_equiv_pos_as_xyz
  1  'x, y, z'
loop_
 _atom_site_type_symbol
 _atom_site_label
 _atom_site_symmetry_multiplicity
 _atom_site_fract_x
 _atom_site_fract_y
 _atom_site_fract_z
 _atom_site_occupancy
  Y  Y0  1  0.000000  0.836759  0.092446  1
  Y  Y1  1  0.000000  0.163241  0.907554  1
  Er  Er2  1  0.000000  0.336903  0.407786  1
  Er  Er3  1  0.000000  0.663097  0.592214  1
  U  U4  1  0.000000  0.956413  0.396407  1
  U  U5  1  0.000000  0.043587  0.603593  1
  U  U6  1  0.000000  0.456402  0.103883  1
  U  U7  1  0.000000  0.543598  0.896117  1
  Re  Re8  1  0.000000  0.645135  0.319032  1
  Re  Re9  1  0.000000  0.354865  0.680968  1
  Re  Re10  1  0.000000  0.146224  0.182241  1
  Re  Re11  1  0.000000  0.853776  0.817759  1
  B  B12  1  0.500000  0.551304  0.431379  1
  B  B13  1  0.500000  0.448696  0.568621  1
  B  B14  1  0.500000  0.052093  0.069397  1
  B  B15  1  0.500000  0.947907  0.930603  1
  B  B16  1  0.500000  0.742550  0.423509  1
  B  B17  1  0.500000  0.257450  0.576491  1
  B  B18  1  0.500000  0.243370  0.077354  1
  B  B19  1  0.500000  0.756630  0.922646  1
  B  B20  1  0.500000  0.801957  0.275718  1
  B  B21  1  0.500000  0.198043  0.724282  1
  B  B22  1  0.500000  0.302508  0.225335  1
  B  B23  1  0.500000  0.697492  0.774665  1
  B  B24  1  0.500000  0.643944  0.188935  1
  B  B25  1  0.500000  0.356056  0.811065  1
  B  B26  1  0.500000  0.144762  0.311834  1
  B  B27  1  0.500000  0.855238  0.688166  1
  B  B28  1  0.500000  0.989423  0.220048  1
  B  B29  1  0.500000  0.010577  0.779952  1
  B  B30  1  0.500000  0.488735  0.280971  1
  B  B31  1  0.500000  0.511265  0.719029  1
  B  B32  1  0.500000  0.639887  0.038862  1
  B  B33  1  0.500000  0.360113  0.961138  1
  B  B34  1  0.500000  0.140927  0.461055  1
  B  B35  1  0.500000  0.859073  0.538945  1
