# generated using pymatgen
data_Y12In2GaFe2
_symmetry_space_group_name_H-M   'P 1'
_cell_length_a   8.45763578
_cell_length_b   8.45763679
_cell_length_c   8.45763595
_cell_angle_alpha   109.64037876
_cell_angle_beta   109.64036976
_cell_angle_gamma   109.13343817
_symmetry_Int_Tables_number   1
_chemical_formula_structural   Y12In2GaFe2
_chemical_formula_sum   'Y12 In2 Ga1 Fe2'
_cell_volume   465.70811514
_cell_formula_units_Z   1
loop_
 _symmetry_equiv_pos_site_id
 _symmetry_equiv_pos_as_xyz
  1  'x, y, z'
loop_
 _atom_site_type_symbol
 _atom_site_label
 _atom_site_symmetry_multiplicity
 _atom_site_fract_x
 _atom_site_fract_y
 _atom_site_fract_z
 _atom_site_occupancy
  Y  Y0  1  0.443686  0.200093  0.243593  1
  Y  Y1  1  0.556314  0.799907  0.756407  1
  Y  Y2  1  0.956499  0.200093  0.756407  1
  Y  Y3  1  0.200093  0.956499  0.756407  1
  Y  Y4  1  0.043501  0.799907  0.243593  1
  Y  Y5  1  0.799907  0.043501  0.243593  1
  Y  Y6  1  0.200093  0.443686  0.243593  1
  Y  Y7  1  0.799907  0.556314  0.756407  1
  Y  Y8  1  0.306159  0.306159  0.612318  1
  Y  Y9  1  0.693841  0.693841  0.387682  1
  Y  Y10  1  0.306159  0.693841  0.000000  1
  Y  Y11  1  0.693841  0.306159  0.000000  1
  In  In12  1  0.500000  0.000000  0.500000  1
  In  In13  1  0.000000  0.500000  0.500000  1
  Ga  Ga14  1  0.000000  0.000000  0.000000  1
  Fe  Fe15  1  0.388423  0.388423  0.000000  1
  Fe  Fe16  1  0.611577  0.611577  0.000000  1
