# generated using pymatgen
data_Y3Tm13MgCo4Ag3
_symmetry_space_group_name_H-M   'P 1'
_cell_length_a   9.34748915
_cell_length_b   9.35411424
_cell_length_c   9.35144146
_cell_angle_alpha   59.97741586
_cell_angle_beta   59.90312166
_cell_angle_gamma   59.91036424
_symmetry_Int_Tables_number   1
_chemical_formula_structural   Y3Tm13MgCo4Ag3
_chemical_formula_sum   'Y3 Tm13 Mg1 Co4 Ag3'
_cell_volume   577.26285655
_cell_formula_units_Z   1
loop_
 _symmetry_equiv_pos_site_id
 _symmetry_equiv_pos_as_xyz
  1  'x, y, z'
loop_
 _atom_site_type_symbol
 _atom_site_label
 _atom_site_symmetry_multiplicity
 _atom_site_fract_x
 _atom_site_fract_y
 _atom_site_fract_z
 _atom_site_occupancy
  Y  Y0  1  0.936372  0.561975  0.939504  1
  Y  Y1  1  0.561860  0.564170  0.936629  1
  Y  Y2  1  0.935255  0.938948  0.562191  1
  Tm  Tm3  1  0.346590  0.345043  0.346285  1
  Tm  Tm4  1  0.347229  0.344829  0.962301  1
  Tm  Tm5  1  0.347512  0.962041  0.345467  1
  Tm  Tm6  1  0.951660  0.349607  0.349896  1
  Tm  Tm7  1  0.810015  0.187820  0.189209  1
  Tm  Tm8  1  0.186169  0.814657  0.813864  1
  Tm  Tm9  1  0.185727  0.813932  0.186293  1
  Tm  Tm10  1  0.810527  0.188372  0.812622  1
  Tm  Tm11  1  0.186440  0.185542  0.813583  1
  Tm  Tm12  1  0.809769  0.812679  0.189426  1
  Tm  Tm13  1  0.936422  0.561457  0.560215  1
  Tm  Tm14  1  0.560023  0.939088  0.938418  1
  Tm  Tm15  1  0.561497  0.938065  0.562442  1
  Mg  Mg16  1  0.287600  0.570782  0.570580  1
  Co  Co17  1  0.139429  0.142335  0.142295  1
  Co  Co18  1  0.138995  0.143324  0.575787  1
  Co  Co19  1  0.138213  0.575881  0.143673  1
  Co  Co20  1  0.575450  0.140806  0.141866  1
  Ag  Ag21  1  0.583684  0.583192  0.581072  1
  Ag  Ag22  1  0.581907  0.583414  0.253249  1
  Ag  Ag23  1  0.581656  0.252042  0.583133  1
