# generated using pymatgen
data_ErNp(AlC)6
_symmetry_space_group_name_H-M   'P 1'
_cell_length_a   3.41536500
_cell_length_b   3.41536438
_cell_length_c   17.33151200
_cell_angle_alpha   90.00000000
_cell_angle_beta   90.00000000
_cell_angle_gamma   119.99997698
_symmetry_Int_Tables_number   1
_chemical_formula_structural   ErNp(AlC)6
_chemical_formula_sum   'Er1 Np1 Al6 C6'
_cell_volume   175.08194095
_cell_formula_units_Z   1
loop_
 _symmetry_equiv_pos_site_id
 _symmetry_equiv_pos_as_xyz
  1  'x, y, z'
loop_
 _atom_site_type_symbol
 _atom_site_label
 _atom_site_symmetry_multiplicity
 _atom_site_fract_x
 _atom_site_fract_y
 _atom_site_fract_z
 _atom_site_occupancy
  Er  Er0  1  0.000000  0.000000  0.000000  1
  Np  Np1  1  0.000000  0.000000  0.500000  1
  Al  Al2  1  0.333333  0.666667  0.363953  1
  Al  Al3  1  0.666667  0.333333  0.636047  1
  Al  Al4  1  0.666667  0.333333  0.868918  1
  Al  Al5  1  0.333333  0.666667  0.131082  1
  Al  Al6  1  0.333333  0.666667  0.758092  1
  Al  Al7  1  0.666667  0.333333  0.241908  1
  C  C8  1  0.333333  0.666667  0.906139  1
  C  C9  1  0.666667  0.333333  0.093861  1
  C  C10  1  0.666667  0.333333  0.407227  1
  C  C11  1  0.333333  0.666667  0.592773  1
  C  C12  1  0.333333  0.666667  0.248269  1
  C  C13  1  0.666667  0.333333  0.751731  1
