# generated using pymatgen
data_NaLu19(Bi2Ir)4
_symmetry_space_group_name_H-M   'P 1'
_cell_length_a   7.77934912
_cell_length_b   8.76655400
_cell_length_c   12.16921700
_cell_angle_alpha   90.00000000
_cell_angle_beta   90.00985452
_cell_angle_gamma   90.00000000
_symmetry_Int_Tables_number   1
_chemical_formula_structural   NaLu19(Bi2Ir)4
_chemical_formula_sum   'Na1 Lu19 Bi8 Ir4'
_cell_volume   829.91727215
_cell_formula_units_Z   1
loop_
 _symmetry_equiv_pos_site_id
 _symmetry_equiv_pos_as_xyz
  1  'x, y, z'
loop_
 _atom_site_type_symbol
 _atom_site_label
 _atom_site_symmetry_multiplicity
 _atom_site_fract_x
 _atom_site_fract_y
 _atom_site_fract_z
 _atom_site_occupancy
  Na  Na0  1  0.834970  0.750000  0.783089  1
  Lu  Lu1  1  0.164631  0.250000  0.209280  1
  Lu  Lu2  1  0.336707  0.250000  0.709315  1
  Lu  Lu3  1  0.663907  0.750000  0.290824  1
  Lu  Lu4  1  0.376474  0.750000  0.691971  1
  Lu  Lu5  1  0.624799  0.250000  0.306655  1
  Lu  Lu6  1  0.875518  0.250000  0.807256  1
  Lu  Lu7  1  0.124521  0.750000  0.193160  1
  Lu  Lu8  1  0.943375  0.750000  0.502087  1
  Lu  Lu9  1  0.056510  0.250000  0.499208  1
  Lu  Lu10  1  0.441473  0.250000  0.997797  1
  Lu  Lu11  1  0.557714  0.750000  0.999311  1
  Lu  Lu12  1  0.674650  0.044368  0.567211  1
  Lu  Lu13  1  0.325128  0.957201  0.434214  1
  Lu  Lu14  1  0.173992  0.953839  0.932653  1
  Lu  Lu15  1  0.325128  0.542799  0.434214  1
  Lu  Lu16  1  0.826222  0.045806  0.067759  1
  Lu  Lu17  1  0.674650  0.455632  0.567211  1
  Lu  Lu18  1  0.826222  0.454194  0.067759  1
  Lu  Lu19  1  0.173992  0.546161  0.932653  1
  Bi  Bi20  1  0.567277  0.491102  0.828713  1
  Bi  Bi21  1  0.433679  0.510991  0.171486  1
  Bi  Bi22  1  0.065236  0.509709  0.672488  1
  Bi  Bi23  1  0.433679  0.989009  0.171486  1
  Bi  Bi24  1  0.934169  0.489963  0.327786  1
  Bi  Bi25  1  0.567277  0.008898  0.828713  1
  Bi  Bi26  1  0.934169  0.010037  0.327786  1
  Bi  Bi27  1  0.065236  0.990291  0.672488  1
  Ir  Ir28  1  0.571956  0.750000  0.507000  1
  Ir  Ir29  1  0.426866  0.250000  0.490207  1
  Ir  Ir30  1  0.073888  0.250000  0.990784  1
  Ir  Ir31  1  0.925984  0.750000  0.017430  1
