# generated using pymatgen
data_Er3Tm13In4(RuRh)2
_symmetry_space_group_name_H-M   'P 1'
_cell_length_a   9.54260062
_cell_length_b   9.53979139
_cell_length_c   9.54792342
_cell_angle_alpha   59.99125852
_cell_angle_beta   59.96207618
_cell_angle_gamma   59.93201483
_symmetry_Int_Tables_number   1
_chemical_formula_structural   Er3Tm13In4(RuRh)2
_chemical_formula_sum   'Er3 Tm13 In4 Ru2 Rh2'
_cell_volume   614.07690671
_cell_formula_units_Z   1
loop_
 _symmetry_equiv_pos_site_id
 _symmetry_equiv_pos_as_xyz
  1  'x, y, z'
loop_
 _atom_site_type_symbol
 _atom_site_label
 _atom_site_symmetry_multiplicity
 _atom_site_fract_x
 _atom_site_fract_y
 _atom_site_fract_z
 _atom_site_occupancy
  Er  Er0  1  0.058149  0.058149  0.441851  1
  Er  Er1  1  0.442509  0.061007  0.437077  1
  Er  Er2  1  0.061007  0.442509  0.059408  1
  Tm  Tm3  1  0.044467  0.651840  0.651768  1
  Tm  Tm4  1  0.438403  0.438403  0.061597  1
  Tm  Tm5  1  0.651840  0.044467  0.651927  1
  Tm  Tm6  1  0.189992  0.809221  0.193024  1
  Tm  Tm7  1  0.191918  0.191918  0.808082  1
  Tm  Tm8  1  0.808885  0.808885  0.191115  1
  Tm  Tm9  1  0.442988  0.060606  0.058953  1
  Tm  Tm10  1  0.809162  0.189993  0.193006  1
  Tm  Tm11  1  0.060606  0.442988  0.437453  1
  Tm  Tm12  1  0.809221  0.189992  0.807763  1
  Tm  Tm13  1  0.189993  0.809162  0.807839  1
  Tm  Tm14  1  0.651101  0.651339  0.047809  1
  Tm  Tm15  1  0.651339  0.651101  0.649752  1
  In  In16  1  0.416886  0.417210  0.417898  1
  In  In17  1  0.750207  0.416602  0.416703  1
  In  In18  1  0.416602  0.750207  0.416487  1
  In  In19  1  0.417210  0.416886  0.748005  1
  Ru  Ru20  1  0.858653  0.858529  0.421702  1
  Ru  Ru21  1  0.858529  0.858653  0.861116  1
  Rh  Rh22  1  0.422793  0.857543  0.859969  1
  Rh  Rh23  1  0.857543  0.422793  0.859694  1
