# generated using pymatgen
data_CaIn2(SnIr)4
_symmetry_space_group_name_H-M   'P 1'
_cell_length_a   7.04766512
_cell_length_b   7.04766541
_cell_length_c   7.00499694
_cell_angle_alpha   120.72580263
_cell_angle_beta   120.72580393
_cell_angle_gamma   89.10194152
_symmetry_Int_Tables_number   1
_chemical_formula_structural   CaIn2(SnIr)4
_chemical_formula_sum   'Ca1 In2 Sn4 Ir4'
_cell_volume   242.51821204
_cell_formula_units_Z   1
loop_
 _symmetry_equiv_pos_site_id
 _symmetry_equiv_pos_as_xyz
  1  'x, y, z'
loop_
 _atom_site_type_symbol
 _atom_site_label
 _atom_site_symmetry_multiplicity
 _atom_site_fract_x
 _atom_site_fract_y
 _atom_site_fract_z
 _atom_site_occupancy
  Ca  Ca0  1  0.998282  0.998282  0.000000  1
  In  In1  1  0.883702  0.538803  0.000000  1
  In  In2  1  0.538803  0.883702  0.000000  1
  Sn  Sn3  1  0.459829  0.459829  0.340601  1
  Sn  Sn4  1  0.499953  0.999954  0.499999  1
  Sn  Sn5  1  0.999954  0.499953  0.499999  1
  Sn  Sn6  1  0.119227  0.119227  0.659398  1
  Ir  Ir7  1  0.592961  0.256236  0.000000  1
  Ir  Ir8  1  0.256236  0.592961  0.000000  1
  Ir  Ir9  1  0.754804  0.754804  0.358558  1
  Ir  Ir10  1  0.396245  0.396245  0.641441  1
