# generated using pymatgen
data_CePa3O8
_symmetry_space_group_name_H-M   'P 1'
_cell_length_a   7.74898057
_cell_length_b   7.75033790
_cell_length_c   5.47199673
_cell_angle_alpha   89.97637787
_cell_angle_beta   89.97647298
_cell_angle_gamma   89.78874028
_symmetry_Int_Tables_number   1
_chemical_formula_structural   CePa3O8
_chemical_formula_sum   'Ce2 Pa6 O16'
_cell_volume   328.63060985
_cell_formula_units_Z   2
loop_
 _symmetry_equiv_pos_site_id
 _symmetry_equiv_pos_as_xyz
  1  'x, y, z'
loop_
 _atom_site_type_symbol
 _atom_site_label
 _atom_site_symmetry_multiplicity
 _atom_site_fract_x
 _atom_site_fract_y
 _atom_site_fract_z
 _atom_site_occupancy
  Ce  Ce0  1  0.623774  0.376177  0.750005  1
  Ce  Ce1  1  0.376226  0.623823  0.249995  1
  Pa  Pa2  1  0.624491  0.873955  0.750644  1
  Pa  Pa3  1  0.375509  0.126045  0.249356  1
  Pa  Pa4  1  0.126046  0.375501  0.749348  1
  Pa  Pa5  1  0.873954  0.624499  0.250652  1
  Pa  Pa6  1  0.126365  0.873651  0.750001  1
  Pa  Pa7  1  0.873635  0.126349  0.249999  1
  O  O8  1  0.365594  0.365263  0.998355  1
  O  O9  1  0.634406  0.634737  0.001645  1
  O  O10  1  0.634711  0.634427  0.501586  1
  O  O11  1  0.365289  0.365573  0.498414  1
  O  O12  1  0.373128  0.882784  0.992902  1
  O  O13  1  0.626872  0.117216  0.007098  1
  O  O14  1  0.626591  0.117724  0.493882  1
  O  O15  1  0.373409  0.882276  0.506118  1
  O  O16  1  0.882245  0.373412  0.006058  1
  O  O17  1  0.117755  0.626588  0.993942  1
  O  O18  1  0.117244  0.626863  0.507031  1
  O  O19  1  0.882756  0.373137  0.492969  1
  O  O20  1  0.877936  0.877444  0.003768  1
  O  O21  1  0.122064  0.122556  0.996232  1
  O  O22  1  0.122547  0.122073  0.496194  1
  O  O23  1  0.877453  0.877927  0.503806  1
