# generated using pymatgen
data_Sc22CoOs5Ru2
_symmetry_space_group_name_H-M   'P 1'
_cell_length_a   9.42712028
_cell_length_b   9.42712081
_cell_length_c   9.38256200
_cell_angle_alpha   60.15623393
_cell_angle_beta   60.15623206
_cell_angle_gamma   60.52627498
_symmetry_Int_Tables_number   1
_chemical_formula_structural   Sc22CoOs5Ru2
_chemical_formula_sum   'Sc22 Co1 Os5 Ru2'
_cell_volume   593.32398983
_cell_formula_units_Z   1
loop_
 _symmetry_equiv_pos_site_id
 _symmetry_equiv_pos_as_xyz
  1  'x, y, z'
loop_
 _atom_site_type_symbol
 _atom_site_label
 _atom_site_symmetry_multiplicity
 _atom_site_fract_x
 _atom_site_fract_y
 _atom_site_fract_z
 _atom_site_occupancy
  Sc  Sc0  1  0.844405  0.844405  0.840990  1
  Sc  Sc1  1  0.531055  0.155528  0.156708  1
  Sc  Sc2  1  0.155595  0.155595  0.529798  1
  Sc  Sc3  1  0.155528  0.531055  0.156708  1
  Sc  Sc4  1  0.844405  0.844405  0.470202  1
  Sc  Sc5  1  0.844472  0.468945  0.843292  1
  Sc  Sc6  1  0.468945  0.844472  0.843292  1
  Sc  Sc7  1  0.155595  0.155595  0.159010  1
  Sc  Sc8  1  0.199690  0.800310  0.197212  1
  Sc  Sc9  1  0.199690  0.800310  0.802788  1
  Sc  Sc10  1  0.800310  0.199690  0.197212  1
  Sc  Sc11  1  0.801965  0.801965  0.198035  1
  Sc  Sc12  1  0.198035  0.198035  0.801965  1
  Sc  Sc13  1  0.800310  0.199690  0.802788  1
  Sc  Sc14  1  0.384567  0.384567  0.382705  1
  Sc  Sc15  1  0.154357  0.612186  0.616729  1
  Sc  Sc16  1  0.612186  0.154357  0.616729  1
  Sc  Sc17  1  0.615433  0.615433  0.151840  1
  Sc  Sc18  1  0.387814  0.845643  0.383271  1
  Sc  Sc19  1  0.384567  0.384567  0.848160  1
  Sc  Sc20  1  0.845643  0.387814  0.383271  1
  Sc  Sc21  1  0.615433  0.615433  0.617295  1
  Co  Co22  1  0.500000  0.500000  0.500000  1
  Os  Os23  1  0.500000  0.500000  0.000000  1
  Os  Os24  1  0.500000  0.000000  0.500000  1
  Os  Os25  1  0.000000  0.500000  0.500000  1
  Os  Os26  1  0.500000  0.000000  0.000000  1
  Os  Os27  1  0.000000  0.500000  0.000000  1
  Ru  Ru28  1  0.000000  0.000000  0.500000  1
  Ru  Ru29  1  0.000000  0.000000  0.000000  1
