# generated using pymatgen
data_Lu5Hf(B2Ir5)2
_symmetry_space_group_name_H-M   'P 1'
_cell_length_a   9.71153200
_cell_length_b   9.71153200
_cell_length_c   3.20821500
_cell_angle_alpha   90.00000000
_cell_angle_beta   90.00000000
_cell_angle_gamma   90.00000000
_symmetry_Int_Tables_number   1
_chemical_formula_structural   Lu5Hf(B2Ir5)2
_chemical_formula_sum   'Lu5 Hf1 B4 Ir10'
_cell_volume   302.57912043
_cell_formula_units_Z   1
loop_
 _symmetry_equiv_pos_site_id
 _symmetry_equiv_pos_as_xyz
  1  'x, y, z'
loop_
 _atom_site_type_symbol
 _atom_site_label
 _atom_site_symmetry_multiplicity
 _atom_site_fract_x
 _atom_site_fract_y
 _atom_site_fract_z
 _atom_site_occupancy
  Lu  Lu0  1  0.175602  0.675809  0.000000  1
  Lu  Lu1  1  0.324191  0.175602  0.000000  1
  Lu  Lu2  1  0.824398  0.324191  0.000000  1
  Lu  Lu3  1  0.500000  0.500000  0.000000  1
  Lu  Lu4  1  0.675809  0.824398  0.000000  1
  Hf  Hf5  1  0.000000  0.000000  0.000000  1
  B  B6  1  0.381967  0.879877  0.000000  1
  B  B7  1  0.120123  0.381967  0.000000  1
  B  B8  1  0.879877  0.618033  0.000000  1
  B  B9  1  0.618033  0.120123  0.000000  1
  Ir  Ir10  1  0.222949  0.931615  0.500000  1
  Ir  Ir11  1  0.931615  0.777051  0.500000  1
  Ir  Ir12  1  0.426765  0.728400  0.500000  1
  Ir  Ir13  1  0.573235  0.271600  0.500000  1
  Ir  Ir14  1  0.728400  0.573235  0.500000  1
  Ir  Ir15  1  0.271600  0.426765  0.500000  1
  Ir  Ir16  1  0.068385  0.222949  0.500000  1
  Ir  Ir17  1  0.000000  0.500000  0.500000  1
  Ir  Ir18  1  0.500000  0.000000  0.500000  1
  Ir  Ir19  1  0.777051  0.068385  0.500000  1
