# generated using pymatgen
data_NaY6CoCl12
_symmetry_space_group_name_H-M   'P 1'
_cell_length_a   8.79511658
_cell_length_b   8.85991177
_cell_length_c   8.82007177
_cell_angle_alpha   107.25024734
_cell_angle_beta   106.61082047
_cell_angle_gamma   106.83839587
_symmetry_Int_Tables_number   1
_chemical_formula_structural   NaY6CoCl12
_chemical_formula_sum   'Na1 Y6 Co1 Cl12'
_cell_volume   573.92853597
_cell_formula_units_Z   1
loop_
 _symmetry_equiv_pos_site_id
 _symmetry_equiv_pos_as_xyz
  1  'x, y, z'
loop_
 _atom_site_type_symbol
 _atom_site_label
 _atom_site_symmetry_multiplicity
 _atom_site_fract_x
 _atom_site_fract_y
 _atom_site_fract_z
 _atom_site_occupancy
  Na  Na0  1  0.500000  0.500000  0.500000  1
  Y  Y1  1  0.111765  0.322367  0.027007  1
  Y  Y2  1  0.317795  0.026880  0.109945  1
  Y  Y3  1  0.027496  0.109802  0.319604  1
  Y  Y4  1  0.972505  0.890198  0.680397  1
  Y  Y5  1  0.682205  0.973121  0.890055  1
  Y  Y6  1  0.888235  0.677633  0.972993  1
  Co  Co7  1  0.000000  0.000000  0.000000  1
  Cl  Cl8  1  0.214985  0.680285  0.072473  1
  Cl  Cl9  1  0.446212  0.364105  0.148658  1
  Cl  Cl10  1  0.680613  0.072981  0.215223  1
  Cl  Cl11  1  0.927058  0.785135  0.320320  1
  Cl  Cl12  1  0.148147  0.445185  0.364292  1
  Cl  Cl13  1  0.365347  0.149287  0.446474  1
  Cl  Cl14  1  0.634653  0.850713  0.553527  1
  Cl  Cl15  1  0.851854  0.554815  0.635708  1
  Cl  Cl16  1  0.072943  0.214865  0.679681  1
  Cl  Cl17  1  0.319388  0.927020  0.784777  1
  Cl  Cl18  1  0.553788  0.635895  0.851343  1
  Cl  Cl19  1  0.785015  0.319715  0.927527  1
