# generated using pymatgen
data_U2TcB6
_symmetry_space_group_name_H-M   'P 1'
_cell_length_a   3.64324200
_cell_length_b   9.27785900
_cell_length_c   11.36570100
_cell_angle_alpha   90.00000000
_cell_angle_beta   90.00000000
_cell_angle_gamma   90.00000000
_symmetry_Int_Tables_number   1
_chemical_formula_structural   U2TcB6
_chemical_formula_sum   'U8 Tc4 B24'
_cell_volume   384.17757845
_cell_formula_units_Z   4
loop_
 _symmetry_equiv_pos_site_id
 _symmetry_equiv_pos_as_xyz
  1  'x, y, z'
loop_
 _atom_site_type_symbol
 _atom_site_label
 _atom_site_symmetry_multiplicity
 _atom_site_fract_x
 _atom_site_fract_y
 _atom_site_fract_z
 _atom_site_occupancy
  U  U0  1  0.000000  0.337088  0.407446  1
  U  U1  1  0.000000  0.662912  0.592554  1
  U  U2  1  0.000000  0.837088  0.092554  1
  U  U3  1  0.000000  0.162912  0.907446  1
  U  U4  1  0.000000  0.956084  0.395469  1
  U  U5  1  0.000000  0.043916  0.604531  1
  U  U6  1  0.000000  0.456084  0.104531  1
  U  U7  1  0.000000  0.543916  0.895469  1
  Tc  Tc8  1  0.000000  0.643895  0.320188  1
  Tc  Tc9  1  0.000000  0.356105  0.679812  1
  Tc  Tc10  1  0.000000  0.143895  0.179812  1
  Tc  Tc11  1  0.000000  0.856105  0.820188  1
  B  B12  1  0.500000  0.549819  0.432959  1
  B  B13  1  0.500000  0.450181  0.567041  1
  B  B14  1  0.500000  0.049819  0.067041  1
  B  B15  1  0.500000  0.950181  0.932959  1
  B  B16  1  0.500000  0.742536  0.423642  1
  B  B17  1  0.500000  0.257464  0.576358  1
  B  B18  1  0.500000  0.242536  0.076358  1
  B  B19  1  0.500000  0.757464  0.923642  1
  B  B20  1  0.500000  0.803781  0.272984  1
  B  B21  1  0.500000  0.196219  0.727016  1
  B  B22  1  0.500000  0.303781  0.227016  1
  B  B23  1  0.500000  0.696219  0.772984  1
  B  B24  1  0.500000  0.644750  0.188155  1
  B  B25  1  0.500000  0.355250  0.811845  1
  B  B26  1  0.500000  0.144750  0.311845  1
  B  B27  1  0.500000  0.855250  0.688155  1
  B  B28  1  0.500000  0.985494  0.218964  1
  B  B29  1  0.500000  0.014506  0.781036  1
  B  B30  1  0.500000  0.485494  0.281036  1
  B  B31  1  0.500000  0.514506  0.718964  1
  B  B32  1  0.500000  0.643811  0.039870  1
  B  B33  1  0.500000  0.356189  0.960130  1
  B  B34  1  0.500000  0.143811  0.460130  1
  B  B35  1  0.500000  0.856189  0.539870  1
