# generated using pymatgen
data_Tl5Pd4
_symmetry_space_group_name_H-M   'P 1'
_cell_length_a   15.12719307
_cell_length_b   14.55565830
_cell_length_c   5.79553300
_cell_angle_alpha   84.34551198
_cell_angle_beta   73.24298528
_cell_angle_gamma   22.41150183
_symmetry_Int_Tables_number   1
_chemical_formula_structural   Tl5Pd4
_chemical_formula_sum   'Tl10 Pd8'
_cell_volume   413.59479992
_cell_formula_units_Z   2
loop_
 _symmetry_equiv_pos_site_id
 _symmetry_equiv_pos_as_xyz
  1  'x, y, z'
loop_
 _atom_site_type_symbol
 _atom_site_label
 _atom_site_symmetry_multiplicity
 _atom_site_fract_x
 _atom_site_fract_y
 _atom_site_fract_z
 _atom_site_occupancy
  Tl  Tl0  1  0.670607  0.995172  0.004829  1
  Tl  Tl1  1  0.166124  0.833876  0.166125  1
  Tl  Tl2  1  0.714904  0.714906  0.285095  1
  Tl  Tl3  1  0.995170  0.670609  0.329392  1
  Tl  Tl4  1  0.591136  0.591138  0.408863  1
  Tl  Tl5  1  0.408862  0.408864  0.591137  1
  Tl  Tl6  1  0.004828  0.329393  0.670608  1
  Tl  Tl7  1  0.285094  0.285096  0.714905  1
  Tl  Tl8  1  0.833875  0.166126  0.833875  1
  Tl  Tl9  1  0.329391  0.004830  0.995171  1
  Pd  Pd10  1  0.918131  0.918133  0.081868  1
  Pd  Pd11  1  0.417813  0.417812  0.082186  1
  Pd  Pd12  1  0.250000  0.250000  0.249999  1
  Pd  Pd13  1  0.082188  0.082187  0.417812  1
  Pd  Pd14  1  0.917813  0.917812  0.582188  1
  Pd  Pd15  1  0.750000  0.749999  0.750000  1
  Pd  Pd16  1  0.582188  0.582187  0.917813  1
  Pd  Pd17  1  0.081867  0.081869  0.918132  1
