# generated using pymatgen
data_YbAl3Zn
_symmetry_space_group_name_H-M   'P 1'
_cell_length_a   4.14429865
_cell_length_b   4.14429958
_cell_length_c   6.45051343
_cell_angle_alpha   71.26220761
_cell_angle_beta   71.26220288
_cell_angle_gamma   89.99999514
_symmetry_Int_Tables_number   1
_chemical_formula_structural   YbAl3Zn
_chemical_formula_sum   'Yb1 Al3 Zn1'
_cell_volume   98.69627428
_cell_formula_units_Z   1
loop_
 _symmetry_equiv_pos_site_id
 _symmetry_equiv_pos_as_xyz
  1  'x, y, z'
loop_
 _atom_site_type_symbol
 _atom_site_label
 _atom_site_symmetry_multiplicity
 _atom_site_fract_x
 _atom_site_fract_y
 _atom_site_fract_z
 _atom_site_occupancy
  Yb  Yb0  1  0.995381  0.995381  0.009239  1
  Al  Al1  1  0.607181  0.607181  0.785638  1
  Al  Al2  1  0.753143  0.253143  0.493715  1
  Al  Al3  1  0.253143  0.753143  0.493715  1
  Zn  Zn4  1  0.391153  0.391153  0.217692  1
