# generated using pymatgen
data_La13Nd3(TlOs)4
_symmetry_space_group_name_H-M   'P 1'
_cell_length_a   10.15243283
_cell_length_b   10.13740588
_cell_length_c   10.17929000
_cell_angle_alpha   59.69394659
_cell_angle_beta   59.62510151
_cell_angle_gamma   59.93182483
_symmetry_Int_Tables_number   1
_chemical_formula_structural   La13Nd3(TlOs)4
_chemical_formula_sum   'La13 Nd3 Tl4 Os4'
_cell_volume   736.58508700
_cell_formula_units_Z   1
loop_
 _symmetry_equiv_pos_site_id
 _symmetry_equiv_pos_as_xyz
  1  'x, y, z'
loop_
 _atom_site_type_symbol
 _atom_site_label
 _atom_site_symmetry_multiplicity
 _atom_site_fract_x
 _atom_site_fract_y
 _atom_site_fract_z
 _atom_site_occupancy
  La  La0  1  0.960513  0.347489  0.346004  1
  La  La1  1  0.810954  0.192096  0.809191  1
  La  La2  1  0.192238  0.810411  0.189110  1
  La  La3  1  0.345531  0.344268  0.963675  1
  La  La4  1  0.348093  0.961010  0.345481  1
  La  La5  1  0.945966  0.946992  0.553899  1
  La  La6  1  0.940147  0.559222  0.559441  1
  La  La7  1  0.343989  0.342758  0.345148  1
  La  La8  1  0.809105  0.809855  0.191604  1
  La  La9  1  0.809632  0.192143  0.189974  1
  La  La10  1  0.555938  0.943411  0.942468  1
  La  La11  1  0.944737  0.554712  0.944861  1
  La  La12  1  0.192873  0.811531  0.809225  1
  Nd  Nd13  1  0.558248  0.941256  0.559979  1
  Nd  Nd14  1  0.194805  0.193049  0.805249  1
  Nd  Nd15  1  0.557083  0.557858  0.942737  1
  Tl  Tl16  1  0.581787  0.584028  0.584586  1
  Tl  Tl17  1  0.580073  0.250171  0.582765  1
  Tl  Tl18  1  0.581897  0.581852  0.250561  1
  Tl  Tl19  1  0.251676  0.580357  0.582977  1
  Os  Os20  1  0.136999  0.588021  0.136290  1
  Os  Os21  1  0.587625  0.137283  0.136414  1
  Os  Os22  1  0.134690  0.134933  0.585819  1
  Os  Os23  1  0.135406  0.135297  0.142544  1
