# generated using pymatgen
data_Tb2Mn4Ni8P7
_symmetry_space_group_name_H-M   'P 1'
_cell_length_a   9.11822845
_cell_length_b   9.13536274
_cell_length_c   3.66913000
_cell_angle_alpha   90.00000000
_cell_angle_beta   90.00000000
_cell_angle_gamma   120.05128679
_symmetry_Int_Tables_number   1
_chemical_formula_structural   Tb2Mn4Ni8P7
_chemical_formula_sum   'Tb2 Mn4 Ni8 P7'
_cell_volume   264.54851099
_cell_formula_units_Z   1
loop_
 _symmetry_equiv_pos_site_id
 _symmetry_equiv_pos_as_xyz
  1  'x, y, z'
loop_
 _atom_site_type_symbol
 _atom_site_label
 _atom_site_symmetry_multiplicity
 _atom_site_fract_x
 _atom_site_fract_y
 _atom_site_fract_z
 _atom_site_occupancy
  Tb  Tb0  1  0.666588  0.332502  0.000000  1
  Tb  Tb1  1  0.334770  0.668161  0.500000  1
  Mn  Mn2  1  0.880340  0.155930  0.000000  1
  Mn  Mn3  1  0.097657  0.879648  0.500000  1
  Mn  Mn4  1  0.778693  0.899647  0.500000  1
  Mn  Mn5  1  0.123751  0.223590  0.500000  1
  Ni  Ni6  1  0.059061  0.624595  0.000000  1
  Ni  Ni7  1  0.564739  0.937463  0.000000  1
  Ni  Ni8  1  0.372339  0.433109  0.000000  1
  Ni  Ni9  1  0.276643  0.121778  0.000000  1
  Ni  Ni10  1  0.845699  0.721866  0.000000  1
  Ni  Ni11  1  0.436476  0.052190  0.500000  1
  Ni  Ni12  1  0.613722  0.563347  0.500000  1
  Ni  Ni13  1  0.949982  0.385741  0.500000  1
  P  P14  1  0.293831  0.886569  0.000000  1
  P  P15  1  0.593765  0.706579  0.000000  1
  P  P16  1  0.112127  0.406943  0.000000  1
  P  P17  1  0.404547  0.290380  0.500000  1
  P  P18  1  0.885868  0.596276  0.500000  1
  P  P19  1  0.712185  0.113381  0.500000  1
  P  P20  1  0.997216  0.000305  0.000000  1
