# generated using pymatgen
data_Cd3Ag9Au4
_symmetry_space_group_name_H-M   'P 1'
_cell_length_a   9.69882954
_cell_length_b   5.98326700
_cell_length_c   5.12155995
_cell_angle_alpha   90.00000000
_cell_angle_beta   89.87728284
_cell_angle_gamma   90.00000000
_symmetry_Int_Tables_number   1
_chemical_formula_structural   Cd3Ag9Au4
_chemical_formula_sum   'Cd3 Ag9 Au4'
_cell_volume   297.20695920
_cell_formula_units_Z   1
loop_
 _symmetry_equiv_pos_site_id
 _symmetry_equiv_pos_as_xyz
  1  'x, y, z'
loop_
 _atom_site_type_symbol
 _atom_site_label
 _atom_site_symmetry_multiplicity
 _atom_site_fract_x
 _atom_site_fract_y
 _atom_site_fract_z
 _atom_site_occupancy
  Cd  Cd0  1  0.250764  0.500000  0.171820  1
  Cd  Cd1  1  0.000000  0.000000  0.499999  1
  Cd  Cd2  1  0.749236  0.500000  0.828181  1
  Ag  Ag3  1  0.000000  0.250991  0.000000  1
  Ag  Ag4  1  0.500000  0.247768  0.000000  1
  Ag  Ag5  1  0.000000  0.749008  0.000000  1
  Ag  Ag6  1  0.500000  0.752231  0.000000  1
  Ag  Ag7  1  0.748199  0.249232  0.331438  1
  Ag  Ag8  1  0.748199  0.750767  0.331438  1
  Ag  Ag9  1  0.500000  0.000000  0.499999  1
  Ag  Ag10  1  0.251801  0.249232  0.668562  1
  Ag  Ag11  1  0.251801  0.750767  0.668562  1
  Au  Au12  1  0.251223  0.000000  0.163950  1
  Au  Au13  1  0.000000  0.500000  0.499999  1
  Au  Au14  1  0.500000  0.500000  0.499999  1
  Au  Au15  1  0.748777  0.000000  0.836051  1
