# generated using pymatgen
data_Sr5Si2Bi
_symmetry_space_group_name_H-M   'P 1'
_cell_length_a   9.89935413
_cell_length_b   9.89935388
_cell_length_c   9.89935437
_cell_angle_alpha   130.25134419
_cell_angle_beta   130.25134071
_cell_angle_gamma   73.00527029
_symmetry_Int_Tables_number   1
_chemical_formula_structural   Sr5Si2Bi
_chemical_formula_sum   'Sr10 Si4 Bi2'
_cell_volume   551.87879452
_cell_formula_units_Z   2
loop_
 _symmetry_equiv_pos_site_id
 _symmetry_equiv_pos_as_xyz
  1  'x, y, z'
loop_
 _atom_site_type_symbol
 _atom_site_label
 _atom_site_symmetry_multiplicity
 _atom_site_fract_x
 _atom_site_fract_y
 _atom_site_fract_z
 _atom_site_occupancy
  Sr  Sr0  1  0.533287  0.034981  0.843259  1
  Sr  Sr1  1  0.191722  0.690028  0.156741  1
  Sr  Sr2  1  0.034981  0.191722  0.501695  1
  Sr  Sr3  1  0.690028  0.533287  0.498305  1
  Sr  Sr4  1  0.466713  0.965019  0.156741  1
  Sr  Sr5  1  0.808278  0.309972  0.843259  1
  Sr  Sr6  1  0.965019  0.808278  0.498305  1
  Sr  Sr7  1  0.309972  0.466713  0.501695  1
  Sr  Sr8  1  0.000000  0.000000  0.000000  1
  Sr  Sr9  1  0.500000  0.500000  0.000000  1
  Si  Si10  1  0.889186  0.391041  0.280227  1
  Si  Si11  1  0.110814  0.608959  0.719773  1
  Si  Si12  1  0.391041  0.110814  0.501855  1
  Si  Si13  1  0.608959  0.889186  0.498145  1
  Bi  Bi14  1  0.248869  0.248869  0.000000  1
  Bi  Bi15  1  0.751131  0.751131  0.000000  1
