# generated using pymatgen
data_MoIr8
_symmetry_space_group_name_H-M   'P 1'
_cell_length_a   6.14784734
_cell_length_b   6.14784751
_cell_length_c   6.14784697
_cell_angle_alpha   95.72259055
_cell_angle_beta   95.72258743
_cell_angle_gamma   143.18512307
_symmetry_Int_Tables_number   1
_chemical_formula_structural   MoIr8
_chemical_formula_sum   'Mo1 Ir8'
_cell_volume   132.11574247
_cell_formula_units_Z   1
loop_
 _symmetry_equiv_pos_site_id
 _symmetry_equiv_pos_as_xyz
  1  'x, y, z'
loop_
 _atom_site_type_symbol
 _atom_site_label
 _atom_site_symmetry_multiplicity
 _atom_site_fract_x
 _atom_site_fract_y
 _atom_site_fract_z
 _atom_site_occupancy
  Mo  Mo0  1  0.000000  0.000000  0.000000  1
  Ir  Ir1  1  0.662998  0.337002  0.000000  1
  Ir  Ir2  1  0.337002  0.662998  0.000000  1
  Ir  Ir3  1  0.662998  0.662998  0.325998  1
  Ir  Ir4  1  0.331434  0.000000  0.331434  1
  Ir  Ir5  1  0.000000  0.331434  0.331434  1
  Ir  Ir6  1  0.668566  0.000000  0.668566  1
  Ir  Ir7  1  0.000000  0.668566  0.668566  1
  Ir  Ir8  1  0.337002  0.337002  0.674003  1
