# generated using pymatgen
data_Lu3Pa(ZnRh)4
_symmetry_space_group_name_H-M   'P 1'
_cell_length_a   3.83066800
_cell_length_b   7.02561789
_cell_length_c   8.26311519
_cell_angle_alpha   90.77052956
_cell_angle_beta   90.00000000
_cell_angle_gamma   90.00000000
_symmetry_Int_Tables_number   1
_chemical_formula_structural   Lu3Pa(ZnRh)4
_chemical_formula_sum   'Lu3 Pa1 Zn4 Rh4'
_cell_volume   222.36353668
_cell_formula_units_Z   1
loop_
 _symmetry_equiv_pos_site_id
 _symmetry_equiv_pos_as_xyz
  1  'x, y, z'
loop_
 _atom_site_type_symbol
 _atom_site_label
 _atom_site_symmetry_multiplicity
 _atom_site_fract_x
 _atom_site_fract_y
 _atom_site_fract_z
 _atom_site_occupancy
  Lu  Lu0  1  0.750000  0.443694  0.807991  1
  Lu  Lu1  1  0.250000  0.051165  0.322690  1
  Lu  Lu2  1  0.750000  0.942658  0.685699  1
  Pa  Pa3  1  0.250000  0.552597  0.177939  1
  Zn  Zn4  1  0.250000  0.128406  0.933366  1
  Zn  Zn5  1  0.750000  0.895974  0.063938  1
  Zn  Zn6  1  0.250000  0.622367  0.565469  1
  Zn  Zn7  1  0.750000  0.365933  0.442794  1
  Rh  Rh8  1  0.750000  0.743771  0.358058  1
  Rh  Rh9  1  0.250000  0.234704  0.626219  1
  Rh  Rh10  1  0.750000  0.279232  0.128195  1
  Rh  Rh11  1  0.250000  0.739499  0.887642  1
