# generated using pymatgen
data_Ho5Er4TmIn6
_symmetry_space_group_name_H-M   'P 1'
_cell_length_a   9.11293776
_cell_length_b   9.11293686
_cell_length_c   9.11648000
_cell_angle_alpha   96.39753675
_cell_angle_beta   96.40401469
_cell_angle_gamma   140.98203681
_symmetry_Int_Tables_number   1
_chemical_formula_structural   Ho5Er4TmIn6
_chemical_formula_sum   'Ho5 Er4 Tm1 In6'
_cell_volume   449.29071054
_cell_formula_units_Z   1
loop_
 _symmetry_equiv_pos_site_id
 _symmetry_equiv_pos_as_xyz
  1  'x, y, z'
loop_
 _atom_site_type_symbol
 _atom_site_label
 _atom_site_symmetry_multiplicity
 _atom_site_fract_x
 _atom_site_fract_y
 _atom_site_fract_z
 _atom_site_occupancy
  Ho  Ho0  1  0.717427  0.418056  0.135483  1
  Ho  Ho1  1  0.282561  0.581724  0.864283  1
  Ho  Ho2  1  0.581963  0.717529  0.299492  1
  Ho  Ho3  1  0.217498  0.081919  0.299417  1
  Ho  Ho4  1  0.918022  0.217462  0.135484  1
  Er  Er5  1  0.750069  0.249978  0.500102  1
  Er  Er6  1  0.250125  0.750033  0.500102  1
  Er  Er7  1  0.782781  0.918096  0.700878  1
  Er  Er8  1  0.418089  0.282888  0.700978  1
  Tm  Tm9  1  0.081784  0.782469  0.864252  1
  In  In10  1  0.839009  0.661835  0.500843  1
  In  In11  1  0.338074  0.838457  0.176530  1
  In  In12  1  0.750140  0.749706  0.999480  1
  In  In13  1  0.661039  0.161517  0.822556  1
  In  In14  1  0.161648  0.338992  0.500640  1
  In  In15  1  0.249772  0.249340  0.999480  1
