# generated using pymatgen
data_Sr10Si5Bi
_symmetry_space_group_name_H-M   'P 1'
_cell_length_a   9.82178690
_cell_length_b   9.82178782
_cell_length_c   9.82178871
_cell_angle_alpha   130.49288740
_cell_angle_beta   130.49288706
_cell_angle_gamma   72.62002614
_symmetry_Int_Tables_number   1
_chemical_formula_structural   Sr10Si5Bi
_chemical_formula_sum   'Sr10 Si5 Bi1'
_cell_volume   535.44097170
_cell_formula_units_Z   1
loop_
 _symmetry_equiv_pos_site_id
 _symmetry_equiv_pos_as_xyz
  1  'x, y, z'
loop_
 _atom_site_type_symbol
 _atom_site_label
 _atom_site_symmetry_multiplicity
 _atom_site_fract_x
 _atom_site_fract_y
 _atom_site_fract_z
 _atom_site_occupancy
  Sr  Sr0  1  0.049409  0.527793  0.854633  1
  Sr  Sr1  1  0.305223  0.826839  0.854633  1
  Sr  Sr2  1  0.972207  0.450591  0.145367  1
  Sr  Sr3  1  0.989573  0.989573  0.000000  1
  Sr  Sr4  1  0.450591  0.305223  0.478384  1
  Sr  Sr5  1  0.194777  0.049409  0.521616  1
  Sr  Sr6  1  0.673161  0.194777  0.145367  1
  Sr  Sr7  1  0.527793  0.673161  0.478384  1
  Sr  Sr8  1  0.826839  0.972207  0.521616  1
  Sr  Sr9  1  0.510427  0.510427  0.000000  1
  Si  Si10  1  0.891217  0.608783  0.500000  1
  Si  Si11  1  0.608783  0.108783  0.717565  1
  Si  Si12  1  0.108783  0.391217  0.500000  1
  Si  Si13  1  0.250000  0.250000  0.000000  1
  Si  Si14  1  0.391217  0.891217  0.282435  1
  Bi  Bi15  1  0.750000  0.750000  0.000000  1
