# generated using pymatgen
data_Tb2DySc2Sn3
_symmetry_space_group_name_H-M   'P 1'
_cell_length_a   8.82874525
_cell_length_b   8.82508406
_cell_length_c   6.30292600
_cell_angle_alpha   90.00000000
_cell_angle_beta   90.00000000
_cell_angle_gamma   119.98628059
_symmetry_Int_Tables_number   1
_chemical_formula_structural   Tb2DySc2Sn3
_chemical_formula_sum   'Tb4 Dy2 Sc4 Sn6'
_cell_volume   425.35417427
_cell_formula_units_Z   2
loop_
 _symmetry_equiv_pos_site_id
 _symmetry_equiv_pos_as_xyz
  1  'x, y, z'
loop_
 _atom_site_type_symbol
 _atom_site_label
 _atom_site_symmetry_multiplicity
 _atom_site_fract_x
 _atom_site_fract_y
 _atom_site_fract_z
 _atom_site_occupancy
  Tb  Tb0  1  0.239762  0.999938  0.250000  1
  Tb  Tb1  1  0.239762  0.239824  0.750000  1
  Tb  Tb2  1  0.999855  0.760276  0.750000  1
  Tb  Tb3  1  0.999855  0.239579  0.250000  1
  Dy  Dy4  1  0.760213  0.999937  0.750000  1
  Dy  Dy5  1  0.760213  0.760276  0.250000  1
  Sc  Sc6  1  0.333387  0.666694  0.500000  1
  Sc  Sc7  1  0.666703  0.333351  0.000000  1
  Sc  Sc8  1  0.666703  0.333351  0.500000  1
  Sc  Sc9  1  0.333387  0.666694  0.000000  1
  Sn  Sn10  1  0.400554  0.000003  0.750000  1
  Sn  Sn11  1  0.400554  0.400551  0.250000  1
  Sn  Sn12  1  0.999808  0.599710  0.250000  1
  Sn  Sn13  1  0.999808  0.400099  0.750000  1
  Sn  Sn14  1  0.599717  0.599878  0.750000  1
  Sn  Sn15  1  0.599717  0.999839  0.250000  1
