# generated using pymatgen
data_CsSbMoO6
_symmetry_space_group_name_H-M   'P 1'
_cell_length_a   7.39187006
_cell_length_b   7.39187050
_cell_length_c   7.39186965
_cell_angle_alpha   120.93986305
_cell_angle_beta   117.88974013
_cell_angle_gamma   91.03655591
_symmetry_Int_Tables_number   1
_chemical_formula_structural   CsSbMoO6
_chemical_formula_sum   'Cs2 Sb2 Mo2 O12'
_cell_volume   287.81882543
_cell_formula_units_Z   2
loop_
 _symmetry_equiv_pos_site_id
 _symmetry_equiv_pos_as_xyz
  1  'x, y, z'
loop_
 _atom_site_type_symbol
 _atom_site_label
 _atom_site_symmetry_multiplicity
 _atom_site_fract_x
 _atom_site_fract_y
 _atom_site_fract_z
 _atom_site_occupancy
  Cs  Cs0  1  0.646198  0.378871  0.767326  1
  Cs  Cs1  1  0.388456  0.621129  0.267326  1
  Sb  Sb2  1  0.998031  0.500000  0.498031  1
  Sb  Sb3  1  0.998031  0.000000  0.998031  1
  Mo  Mo4  1  0.519269  0.990038  0.029233  1
  Mo  Mo5  1  0.039195  0.009962  0.529233  1
  O  O6  1  0.072813  0.325704  0.247109  1
  O  O7  1  0.682211  0.932399  0.249811  1
  O  O8  1  0.059363  0.935732  0.250519  1
  O  O9  1  0.681488  0.306942  0.247794  1
  O  O10  1  0.681488  0.933694  0.874547  1
  O  O11  1  0.059363  0.308844  0.623630  1
  O  O12  1  0.921405  0.674296  0.747109  1
  O  O13  1  0.317413  0.067601  0.749811  1
  O  O14  1  0.940852  0.066306  0.747794  1
  O  O15  1  0.314785  0.691156  0.750519  1
  O  O16  1  0.314785  0.064268  0.123630  1
  O  O17  1  0.940852  0.693058  0.374547  1
