# generated using pymatgen
data_TbDy2Cd3Ge2Au
_symmetry_space_group_name_H-M   'P 1'
_cell_length_a   7.33539105
_cell_length_b   7.33539054
_cell_length_c   4.34226600
_cell_angle_alpha   90.00000000
_cell_angle_beta   90.00000000
_cell_angle_gamma   120.06652634
_symmetry_Int_Tables_number   1
_chemical_formula_structural   TbDy2Cd3Ge2Au
_chemical_formula_sum   'Tb1 Dy2 Cd3 Ge2 Au1'
_cell_volume   202.20972649
_cell_formula_units_Z   1
loop_
 _symmetry_equiv_pos_site_id
 _symmetry_equiv_pos_as_xyz
  1  'x, y, z'
loop_
 _atom_site_type_symbol
 _atom_site_label
 _atom_site_symmetry_multiplicity
 _atom_site_fract_x
 _atom_site_fract_y
 _atom_site_fract_z
 _atom_site_occupancy
  Tb  Tb0  1  0.415790  0.415790  0.000000  1
  Dy  Dy1  1  0.584827  0.000377  0.000000  1
  Dy  Dy2  1  0.000377  0.584827  0.000000  1
  Cd  Cd3  1  0.251581  0.999989  0.500000  1
  Cd  Cd4  1  0.999989  0.251581  0.500000  1
  Cd  Cd5  1  0.748379  0.748379  0.500000  1
  Ge  Ge6  1  0.333146  0.667010  0.500000  1
  Ge  Ge7  1  0.667010  0.333146  0.500000  1
  Au  Au8  1  0.998901  0.998901  0.000000  1
