# generated using pymatgen
data_CeThPaOs3
_symmetry_space_group_name_H-M   'P 1'
_cell_length_a   5.87027364
_cell_length_b   5.39603349
_cell_length_c   5.87027400
_cell_angle_alpha   57.04750870
_cell_angle_beta   59.99999799
_cell_angle_gamma   57.04752041
_symmetry_Int_Tables_number   1
_chemical_formula_structural   CeThPaOs3
_chemical_formula_sum   'Ce1 Th1 Pa1 Os3'
_cell_volume   125.30816123
_cell_formula_units_Z   1
loop_
 _symmetry_equiv_pos_site_id
 _symmetry_equiv_pos_as_xyz
  1  'x, y, z'
loop_
 _atom_site_type_symbol
 _atom_site_label
 _atom_site_symmetry_multiplicity
 _atom_site_fract_x
 _atom_site_fract_y
 _atom_site_fract_z
 _atom_site_occupancy
  Ce  Ce0  1  0.501457  0.495627  0.501457  1
  Th  Th1  1  0.745762  0.762716  0.745762  1
  Pa  Pa2  1  0.126108  0.621677  0.126108  1
  Os  Os3  1  0.125483  0.123327  0.625708  1
  Os  Os4  1  0.625708  0.123327  0.125483  1
  Os  Os5  1  0.125483  0.123327  0.125483  1
