# generated using pymatgen
data_Tb4Zr3VF28
_symmetry_space_group_name_H-M   'P 1'
_cell_length_a   5.70603387
_cell_length_b   9.08831354
_cell_length_c   12.17232379
_cell_angle_alpha   62.61850422
_cell_angle_beta   90.07793786
_cell_angle_gamma   90.01941891
_symmetry_Int_Tables_number   1
_chemical_formula_structural   Tb4Zr3VF28
_chemical_formula_sum   'Tb4 Zr3 V1 F28'
_cell_volume   560.51347772
_cell_formula_units_Z   1
loop_
 _symmetry_equiv_pos_site_id
 _symmetry_equiv_pos_as_xyz
  1  'x, y, z'
loop_
 _atom_site_type_symbol
 _atom_site_label
 _atom_site_symmetry_multiplicity
 _atom_site_fract_x
 _atom_site_fract_y
 _atom_site_fract_z
 _atom_site_occupancy
  Tb  Tb0  1  0.256419  0.811586  0.259998  1
  Tb  Tb1  1  0.742609  0.184453  0.733684  1
  Tb  Tb2  1  0.756519  0.182537  0.234065  1
  Tb  Tb3  1  0.242281  0.812847  0.773067  1
  Zr  Zr4  1  0.246461  0.273834  0.957150  1
  Zr  Zr5  1  0.254970  0.273477  0.455193  1
  Zr  Zr6  1  0.743135  0.726242  0.544585  1
  V  V7  1  0.755496  0.725284  0.044943  1
  F  F8  1  0.959231  0.708686  0.418148  1
  F  F9  1  0.038371  0.294183  0.579805  1
  F  F10  1  0.464491  0.291078  0.082621  1
  F  F11  1  0.542197  0.714171  0.928207  1
  F  F12  1  0.499681  0.734755  0.141597  1
  F  F13  1  0.527821  0.260178  0.859136  1
  F  F14  1  0.979800  0.273138  0.347786  1
  F  F15  1  0.018698  0.731838  0.649743  1
  F  F16  1  0.964000  0.742314  0.163042  1
  F  F17  1  0.036029  0.250068  0.829182  1
  F  F18  1  0.463458  0.254039  0.325159  1
  F  F19  1  0.535833  0.748740  0.674457  1
  F  F20  1  0.764187  0.498407  0.132873  1
  F  F21  1  0.237421  0.524596  0.859718  1
  F  F22  1  0.277802  0.524888  0.356882  1
  F  F23  1  0.721625  0.474489  0.642618  1
  F  F24  1  0.950996  0.284069  0.049522  1
  F  F25  1  0.022795  0.717858  0.951038  1
  F  F26  1  0.447044  0.725021  0.449113  1
  F  F27  1  0.554271  0.277104  0.547918  1
  F  F28  1  0.743010  0.977917  0.442110  1
  F  F29  1  0.258083  0.024060  0.559389  1
  F  F30  1  0.238385  0.023035  0.056196  1
  F  F31  1  0.760289  0.952917  0.953222  1
  F  F32  1  0.573124  0.972199  0.232289  1
  F  F33  1  0.422939  0.030111  0.768739  1
  F  F34  1  0.073464  0.024546  0.264063  1
  F  F35  1  0.927068  0.975338  0.732744  1
