# generated using pymatgen
data_Tm19Mg(Ir2Pt)4
_symmetry_space_group_name_H-M   'P 1'
_cell_length_a   10.79253900
_cell_length_b   10.79253900
_cell_length_c   6.25720000
_cell_angle_alpha   90.00000000
_cell_angle_beta   90.00000000
_cell_angle_gamma   90.00000000
_symmetry_Int_Tables_number   1
_chemical_formula_structural   Tm19Mg(Ir2Pt)4
_chemical_formula_sum   'Tm19 Mg1 Ir8 Pt4'
_cell_volume   728.83176098
_cell_formula_units_Z   1
loop_
 _symmetry_equiv_pos_site_id
 _symmetry_equiv_pos_as_xyz
  1  'x, y, z'
loop_
 _atom_site_type_symbol
 _atom_site_label
 _atom_site_symmetry_multiplicity
 _atom_site_fract_x
 _atom_site_fract_y
 _atom_site_fract_z
 _atom_site_occupancy
  Tm  Tm0  1  0.289228  0.085665  0.375104  1
  Tm  Tm1  1  0.294970  0.909907  0.875286  1
  Tm  Tm2  1  0.705030  0.090093  0.875286  1
  Tm  Tm3  1  0.710772  0.914335  0.375104  1
  Tm  Tm4  1  0.586506  0.791298  0.879653  1
  Tm  Tm5  1  0.583800  0.208701  0.377525  1
  Tm  Tm6  1  0.416200  0.791299  0.377525  1
  Tm  Tm7  1  0.413494  0.208702  0.879653  1
  Tm  Tm8  1  0.208701  0.416200  0.622475  1
  Tm  Tm9  1  0.208702  0.586506  0.120347  1
  Tm  Tm10  1  0.791298  0.413494  0.120347  1
  Tm  Tm11  1  0.791299  0.583800  0.622475  1
  Tm  Tm12  1  0.909907  0.705030  0.124714  1
  Tm  Tm13  1  0.914335  0.289228  0.624896  1
  Tm  Tm14  1  0.085665  0.710772  0.624896  1
  Tm  Tm15  1  0.090093  0.294970  0.124714  1
  Tm  Tm16  1  0.000000  0.000000  0.000000  1
  Tm  Tm17  1  0.500000  0.500000  0.000000  1
  Tm  Tm18  1  0.500000  0.500000  0.500000  1
  Mg  Mg19  1  0.000000  0.000000  0.500000  1
  Ir  Ir20  1  0.655203  0.345164  0.747792  1
  Ir  Ir21  1  0.654836  0.655203  0.252208  1
  Ir  Ir22  1  0.345164  0.344797  0.252208  1
  Ir  Ir23  1  0.344797  0.654836  0.747792  1
  Ir  Ir24  1  0.500000  0.000000  0.124965  1
  Ir  Ir25  1  0.500000  0.000000  0.621849  1
  Ir  Ir26  1  0.000000  0.500000  0.875035  1
  Ir  Ir27  1  0.000000  0.500000  0.378151  1
  Pt  Pt28  1  0.847984  0.153862  0.248195  1
  Pt  Pt29  1  0.846138  0.847984  0.751805  1
  Pt  Pt30  1  0.153862  0.152016  0.751805  1
  Pt  Pt31  1  0.152016  0.846138  0.248195  1
