# generated using pymatgen
data_Er2(P2Pd7)3
_symmetry_space_group_name_H-M   'P 1'
_cell_length_a   8.61585929
_cell_length_b   8.61586884
_cell_length_c   8.61588900
_cell_angle_alpha   60.00010679
_cell_angle_beta   59.99985343
_cell_angle_gamma   59.99996756
_symmetry_Int_Tables_number   1
_chemical_formula_structural   Er2(P2Pd7)3
_chemical_formula_sum   'Er2 P6 Pd21'
_cell_volume   452.25412532
_cell_formula_units_Z   1
loop_
 _symmetry_equiv_pos_site_id
 _symmetry_equiv_pos_as_xyz
  1  'x, y, z'
loop_
 _atom_site_type_symbol
 _atom_site_label
 _atom_site_symmetry_multiplicity
 _atom_site_fract_x
 _atom_site_fract_y
 _atom_site_fract_z
 _atom_site_occupancy
  Er  Er0  1  0.249977  0.249976  0.250033  1
  Er  Er1  1  0.750023  0.750024  0.749967  1
  P  P2  1  0.738672  0.738671  0.261329  1
  P  P3  1  0.261328  0.261329  0.738671  1
  P  P4  1  0.261329  0.738671  0.738670  1
  P  P5  1  0.738672  0.261329  0.738671  1
  P  P6  1  0.261328  0.738671  0.261329  1
  P  P7  1  0.738671  0.261329  0.261330  1
  Pd  Pd8  1  0.000000  0.000000  0.000000  1
  Pd  Pd9  1  0.615506  0.615506  0.615506  1
  Pd  Pd10  1  0.384492  0.846521  0.384493  1
  Pd  Pd11  1  0.655413  0.344587  0.999999  1
  Pd  Pd12  1  0.999999  0.344582  0.655418  1
  Pd  Pd13  1  0.655418  0.000001  0.999999  1
  Pd  Pd14  1  0.615507  0.615508  0.153477  1
  Pd  Pd15  1  0.999999  0.000001  0.655419  1
  Pd  Pd16  1  0.000000  0.344581  0.000000  1
  Pd  Pd17  1  0.655415  0.000001  0.344583  1
  Pd  Pd18  1  0.344582  0.999999  0.000001  1
  Pd  Pd19  1  0.000000  0.655419  0.000000  1
  Pd  Pd20  1  0.344585  0.999999  0.655417  1
  Pd  Pd21  1  0.000001  0.655418  0.344582  1
  Pd  Pd22  1  0.344587  0.655413  0.000001  1
  Pd  Pd23  1  0.153480  0.615507  0.615506  1
  Pd  Pd24  1  0.384494  0.384494  0.384494  1
  Pd  Pd25  1  0.846520  0.384493  0.384494  1
  Pd  Pd26  1  0.384493  0.384492  0.846523  1
  Pd  Pd27  1  0.615508  0.153479  0.615507  1
  Pd  Pd28  1  0.000001  0.999999  0.344581  1
