# generated using pymatgen
data_PrHo(AgSn)2
_symmetry_space_group_name_H-M   'P 1'
_cell_length_a   4.78297600
_cell_length_b   4.78297537
_cell_length_c   7.57210300
_cell_angle_alpha   90.00000000
_cell_angle_beta   90.00000000
_cell_angle_gamma   120.00000432
_symmetry_Int_Tables_number   1
_chemical_formula_structural   PrHo(AgSn)2
_chemical_formula_sum   'Pr1 Ho1 Ag2 Sn2'
_cell_volume   150.01803488
_cell_formula_units_Z   1
loop_
 _symmetry_equiv_pos_site_id
 _symmetry_equiv_pos_as_xyz
  1  'x, y, z'
loop_
 _atom_site_type_symbol
 _atom_site_label
 _atom_site_symmetry_multiplicity
 _atom_site_fract_x
 _atom_site_fract_y
 _atom_site_fract_z
 _atom_site_occupancy
  Pr  Pr0  1  0.000000  0.000000  0.730912  1
  Ho  Ho1  1  0.000000  0.000000  0.228983  1
  Ag  Ag2  1  0.666667  0.333333  0.522233  1
  Ag  Ag3  1  0.333333  0.666667  0.048410  1
  Sn  Sn4  1  0.333333  0.666667  0.444067  1
  Sn  Sn5  1  0.666667  0.333333  0.959395  1
