# generated using pymatgen
data_Ba2CrCo3P4
_symmetry_space_group_name_H-M   'P 1'
_cell_length_a   5.44688500
_cell_length_b   6.81978849
_cell_length_c   5.44527385
_cell_angle_alpha   66.51047452
_cell_angle_beta   90.00004208
_cell_angle_gamma   90.00004201
_symmetry_Int_Tables_number   1
_chemical_formula_structural   Ba2CrCo3P4
_chemical_formula_sum   'Ba2 Cr1 Co3 P4'
_cell_volume   185.51162828
_cell_formula_units_Z   1
loop_
 _symmetry_equiv_pos_site_id
 _symmetry_equiv_pos_as_xyz
  1  'x, y, z'
loop_
 _atom_site_type_symbol
 _atom_site_label
 _atom_site_symmetry_multiplicity
 _atom_site_fract_x
 _atom_site_fract_y
 _atom_site_fract_z
 _atom_site_occupancy
  Ba  Ba0  1  0.996615  0.000001  0.999999  1
  Ba  Ba1  1  0.503423  0.999999  0.500000  1
  Cr  Cr2  1  0.250017  0.500000  0.500002  1
  Co  Co3  1  0.249984  0.499999  0.000000  1
  Co  Co4  1  0.749848  0.500001  0.000000  1
  Co  Co5  1  0.750090  0.499999  0.500000  1
  P  P6  1  0.500670  0.683050  0.157853  1
  P  P7  1  0.999340  0.683104  0.659145  1
  P  P8  1  0.999341  0.316895  0.340854  1
  P  P9  1  0.500672  0.316949  0.842147  1
