# generated using pymatgen
data_YAgIrRhO7
_symmetry_space_group_name_H-M   'P 1'
_cell_length_a   7.22434017
_cell_length_b   7.11010800
_cell_length_c   7.22434044
_cell_angle_alpha   60.52169579
_cell_angle_beta   61.38633488
_cell_angle_gamma   60.52169984
_symmetry_Int_Tables_number   1
_chemical_formula_structural   YAgIrRhO7
_chemical_formula_sum   'Y2 Ag2 Ir2 Rh2 O14'
_cell_volume   267.14945893
_cell_formula_units_Z   2
loop_
 _symmetry_equiv_pos_site_id
 _symmetry_equiv_pos_as_xyz
  1  'x, y, z'
loop_
 _atom_site_type_symbol
 _atom_site_label
 _atom_site_symmetry_multiplicity
 _atom_site_fract_x
 _atom_site_fract_y
 _atom_site_fract_z
 _atom_site_occupancy
  Y  Y0  1  0.625000  0.125000  0.125000  1
  Y  Y1  1  0.125000  0.125000  0.625000  1
  Ag  Ag2  1  0.125000  0.625000  0.125000  1
  Ag  Ag3  1  0.125000  0.125000  0.125000  1
  Ir  Ir4  1  0.125000  0.625000  0.625000  1
  Ir  Ir5  1  0.625000  0.625000  0.125000  1
  Rh  Rh6  1  0.625000  0.125000  0.625000  1
  Rh  Rh7  1  0.625000  0.625000  0.625000  1
  O  O8  1  0.700480  0.706520  0.295487  1
  O  O9  1  0.295487  0.297512  0.700480  1
  O  O10  1  0.719561  0.280439  0.719561  1
  O  O11  1  0.308400  0.691600  0.308400  1
  O  O12  1  0.295487  0.706520  0.700480  1
  O  O13  1  0.700480  0.297512  0.295487  1
  O  O14  1  0.549520  0.543480  0.954513  1
  O  O15  1  0.954513  0.952488  0.549520  1
  O  O16  1  0.530439  0.969561  0.530439  1
  O  O17  1  0.941600  0.558400  0.941600  1
  O  O18  1  0.954513  0.543480  0.549520  1
  O  O19  1  0.549520  0.952488  0.954513  1
  O  O20  1  0.241712  0.258288  0.241712  1
  O  O21  1  0.008288  0.991712  0.008288  1
