# generated using pymatgen
data_OsSeSF18
_symmetry_space_group_name_H-M   'P 1'
_cell_length_a   8.97505900
_cell_length_b   8.97505917
_cell_length_c   5.18045500
_cell_angle_alpha   90.00000000
_cell_angle_beta   90.00000000
_cell_angle_gamma   120.00000307
_symmetry_Int_Tables_number   1
_chemical_formula_structural   OsSeSF18
_chemical_formula_sum   'Os1 Se1 S1 F18'
_cell_volume   361.38752471
_cell_formula_units_Z   1
loop_
 _symmetry_equiv_pos_site_id
 _symmetry_equiv_pos_as_xyz
  1  'x, y, z'
loop_
 _atom_site_type_symbol
 _atom_site_label
 _atom_site_symmetry_multiplicity
 _atom_site_fract_x
 _atom_site_fract_y
 _atom_site_fract_z
 _atom_site_occupancy
  Os  Os0  1  0.666667  0.333333  0.446540  1
  Se  Se1  1  0.333333  0.666667  0.553225  1
  S  S2  1  0.000000  0.000000  0.999832  1
  F  F3  1  0.242028  0.757972  0.359874  1
  F  F4  1  0.242028  0.484056  0.359874  1
  F  F5  1  0.515944  0.757972  0.359874  1
  F  F6  1  0.083945  0.916055  0.822099  1
  F  F7  1  0.083945  0.167889  0.822099  1
  F  F8  1  0.832111  0.916055  0.822099  1
  F  F9  1  0.167868  0.083934  0.178133  1
  F  F10  1  0.916066  0.832132  0.178133  1
  F  F11  1  0.916066  0.083934  0.178133  1
  F  F12  1  0.424585  0.575415  0.747002  1
  F  F13  1  0.424585  0.849169  0.747002  1
  F  F14  1  0.150831  0.575415  0.747002  1
  F  F15  1  0.862716  0.431358  0.237288  1
  F  F16  1  0.568642  0.137284  0.237288  1
  F  F17  1  0.568642  0.431358  0.237288  1
  F  F18  1  0.764720  0.235280  0.655738  1
  F  F19  1  0.764720  0.529441  0.655738  1
  F  F20  1  0.470559  0.235280  0.655738  1
