# generated using pymatgen
data_Tb2TcMoN4
_symmetry_space_group_name_H-M   'P 1'
_cell_length_a   3.20278700
_cell_length_b   5.71181600
_cell_length_c   10.67252000
_cell_angle_alpha   90.00000000
_cell_angle_beta   90.00000000
_cell_angle_gamma   90.00000000
_symmetry_Int_Tables_number   1
_chemical_formula_structural   Tb2TcMoN4
_chemical_formula_sum   'Tb4 Tc2 Mo2 N8'
_cell_volume   195.24019963
_cell_formula_units_Z   2
loop_
 _symmetry_equiv_pos_site_id
 _symmetry_equiv_pos_as_xyz
  1  'x, y, z'
loop_
 _atom_site_type_symbol
 _atom_site_label
 _atom_site_symmetry_multiplicity
 _atom_site_fract_x
 _atom_site_fract_y
 _atom_site_fract_z
 _atom_site_occupancy
  Tb  Tb0  1  0.250000  0.078609  0.853539  1
  Tb  Tb1  1  0.250000  0.578609  0.646461  1
  Tb  Tb2  1  0.750000  0.919615  0.148766  1
  Tb  Tb3  1  0.750000  0.419615  0.351234  1
  Tc  Tc4  1  0.250000  0.435398  0.094313  1
  Tc  Tc5  1  0.250000  0.935398  0.405687  1
  Mo  Mo6  1  0.750000  0.565404  0.905958  1
  Mo  Mo7  1  0.750000  0.065404  0.594042  1
  N  N8  1  0.250000  0.165261  0.249530  1
  N  N9  1  0.250000  0.665261  0.250470  1
  N  N10  1  0.750000  0.833468  0.753049  1
  N  N11  1  0.750000  0.333468  0.746951  1
  N  N12  1  0.250000  0.752250  0.993374  1
  N  N13  1  0.250000  0.252250  0.506626  1
  N  N14  1  0.750000  0.249996  0.006487  1
  N  N15  1  0.750000  0.749996  0.493513  1
