# generated using pymatgen
data_HoTm7(Ge4Mo3)4
_symmetry_space_group_name_H-M   'P 1'
_cell_length_a   6.89910310
_cell_length_b   7.03139332
_cell_length_c   13.09224077
_cell_angle_alpha   90.01118630
_cell_angle_beta   89.95062924
_cell_angle_gamma   89.94664383
_symmetry_Int_Tables_number   1
_chemical_formula_structural   HoTm7(Ge4Mo3)4
_chemical_formula_sum   'Ho1 Tm7 Ge16 Mo12'
_cell_volume   635.10810160
_cell_formula_units_Z   1
loop_
 _symmetry_equiv_pos_site_id
 _symmetry_equiv_pos_as_xyz
  1  'x, y, z'
loop_
 _atom_site_type_symbol
 _atom_site_label
 _atom_site_symmetry_multiplicity
 _atom_site_fract_x
 _atom_site_fract_y
 _atom_site_fract_z
 _atom_site_occupancy
  Ho  Ho0  1  0.988840  0.829513  0.591786  1
  Tm  Tm1  1  0.488394  0.670497  0.591892  1
  Tm  Tm2  1  0.988391  0.829453  0.908058  1
  Tm  Tm3  1  0.511706  0.329228  0.091906  1
  Tm  Tm4  1  0.011758  0.170817  0.407881  1
  Tm  Tm5  1  0.511668  0.329529  0.407947  1
  Tm  Tm6  1  0.011689  0.170707  0.091880  1
  Tm  Tm7  1  0.488397  0.670762  0.908391  1
  Ge  Ge8  1  0.671154  0.954537  0.452033  1
  Ge  Ge9  1  0.171572  0.545539  0.047755  1
  Ge  Ge10  1  0.328645  0.045634  0.952161  1
  Ge  Ge11  1  0.828234  0.453530  0.547751  1
  Ge  Ge12  1  0.329261  0.046063  0.547628  1
  Ge  Ge13  1  0.828426  0.454448  0.952231  1
  Ge  Ge14  1  0.671536  0.954452  0.047842  1
  Ge  Ge15  1  0.171678  0.545340  0.451947  1
  Ge  Ge16  1  0.469466  0.369260  0.750247  1
  Ge  Ge17  1  0.969460  0.131273  0.750082  1
  Ge  Ge18  1  0.530386  0.630737  0.249773  1
  Ge  Ge19  1  0.030444  0.869182  0.250061  1
  Ge  Ge20  1  0.688274  0.853219  0.750275  1
  Ge  Ge21  1  0.189346  0.646229  0.750411  1
  Ge  Ge22  1  0.311166  0.146827  0.249972  1
  Ge  Ge23  1  0.811137  0.353167  0.249927  1
  Mo  Mo24  1  0.668608  0.155379  0.626985  1
  Mo  Mo25  1  0.169193  0.344771  0.873489  1
  Mo  Mo26  1  0.330259  0.845014  0.126553  1
  Mo  Mo27  1  0.830122  0.654856  0.373171  1
  Mo  Mo28  1  0.330866  0.844827  0.373115  1
  Mo  Mo29  1  0.830747  0.655178  0.126627  1
  Mo  Mo30  1  0.669640  0.155243  0.873567  1
  Mo  Mo31  1  0.169651  0.344739  0.626604  1
  Mo  Mo32  1  0.832931  0.495463  0.750111  1
  Mo  Mo33  1  0.333076  0.004632  0.750096  1
  Mo  Mo34  1  0.166897  0.504367  0.249906  1
  Mo  Mo35  1  0.666983  0.995590  0.249938  1
