# generated using pymatgen
data_Er4ReRu6W
_symmetry_space_group_name_H-M   'P 1'
_cell_length_a   5.39742748
_cell_length_b   5.33251348
_cell_length_c   9.02750600
_cell_angle_alpha   90.00000000
_cell_angle_beta   90.00000000
_cell_angle_gamma   123.20885176
_symmetry_Int_Tables_number   1
_chemical_formula_structural   Er4ReRu6W
_chemical_formula_sum   'Er4 Re1 Ru6 W1'
_cell_volume   217.39312203
_cell_formula_units_Z   1
loop_
 _symmetry_equiv_pos_site_id
 _symmetry_equiv_pos_as_xyz
  1  'x, y, z'
loop_
 _atom_site_type_symbol
 _atom_site_label
 _atom_site_symmetry_multiplicity
 _atom_site_fract_x
 _atom_site_fract_y
 _atom_site_fract_z
 _atom_site_occupancy
  Er  Er0  1  0.341095  0.669348  0.433526  1
  Er  Er1  1  0.669744  0.343654  0.563326  1
  Er  Er2  1  0.669744  0.343654  0.936674  1
  Er  Er3  1  0.341095  0.669348  0.066474  1
  Re  Re4  1  0.325883  0.162590  0.250000  1
  Ru  Ru5  1  0.166612  0.818396  0.750000  1
  Ru  Ru6  1  0.815474  0.648970  0.250000  1
  Ru  Ru7  1  0.648837  0.816428  0.750000  1
  Ru  Ru8  1  0.022335  0.019161  0.001910  1
  Ru  Ru9  1  0.818174  0.166824  0.250000  1
  Ru  Ru10  1  0.022335  0.019161  0.498090  1
  W  W11  1  0.158671  0.322467  0.750000  1
