# generated using pymatgen
data_Th3InSn2RuRh2
_symmetry_space_group_name_H-M   'P 1'
_cell_length_a   7.57409656
_cell_length_b   7.56947687
_cell_length_c   4.13416000
_cell_angle_alpha   90.00000000
_cell_angle_beta   90.00000000
_cell_angle_gamma   119.97885137
_symmetry_Int_Tables_number   1
_chemical_formula_structural   Th3InSn2RuRh2
_chemical_formula_sum   'Th3 In1 Sn2 Ru1 Rh2'
_cell_volume   205.30859380
_cell_formula_units_Z   1
loop_
 _symmetry_equiv_pos_site_id
 _symmetry_equiv_pos_as_xyz
  1  'x, y, z'
loop_
 _atom_site_type_symbol
 _atom_site_label
 _atom_site_symmetry_multiplicity
 _atom_site_fract_x
 _atom_site_fract_y
 _atom_site_fract_z
 _atom_site_occupancy
  Th  Th0  1  0.415896  0.411927  0.500000  1
  Th  Th1  1  0.587893  0.003017  0.500000  1
  Th  Th2  1  0.995126  0.584036  0.500000  1
  In  In3  1  0.751300  0.750470  0.000000  1
  Sn  Sn4  1  0.249123  0.999330  0.000000  1
  Sn  Sn5  1  0.997150  0.248156  0.000000  1
  Ru  Ru6  1  0.665269  0.328923  0.000000  1
  Rh  Rh7  1  0.330081  0.665839  0.000000  1
  Rh  Rh8  1  0.008162  0.008302  0.500000  1
