# generated using pymatgen
data_Hf18Re5W3Au2
_symmetry_space_group_name_H-M   'P 1'
_cell_length_a   8.78399893
_cell_length_b   8.78399896
_cell_length_c   8.56347800
_cell_angle_alpha   90.00000000
_cell_angle_beta   90.00000000
_cell_angle_gamma   120.08392833
_symmetry_Int_Tables_number   1
_chemical_formula_structural   Hf18Re5W3Au2
_chemical_formula_sum   'Hf18 Re5 W3 Au2'
_cell_volume   571.73852372
_cell_formula_units_Z   1
loop_
 _symmetry_equiv_pos_site_id
 _symmetry_equiv_pos_as_xyz
  1  'x, y, z'
loop_
 _atom_site_type_symbol
 _atom_site_label
 _atom_site_symmetry_multiplicity
 _atom_site_fract_x
 _atom_site_fract_y
 _atom_site_fract_z
 _atom_site_occupancy
  Hf  Hf0  1  0.193010  0.806990  0.450104  1
  Hf  Hf1  1  0.193078  0.386046  0.450574  1
  Hf  Hf2  1  0.613954  0.806922  0.450574  1
  Hf  Hf3  1  0.806920  0.193080  0.551148  1
  Hf  Hf4  1  0.806986  0.614252  0.550330  1
  Hf  Hf5  1  0.385748  0.193014  0.550330  1
  Hf  Hf6  1  0.806920  0.193080  0.948852  1
  Hf  Hf7  1  0.806986  0.614252  0.949670  1
  Hf  Hf8  1  0.385748  0.193014  0.949670  1
  Hf  Hf9  1  0.193010  0.806990  0.049896  1
  Hf  Hf10  1  0.193078  0.386046  0.049426  1
  Hf  Hf11  1  0.613954  0.806922  0.049426  1
  Hf  Hf12  1  0.542053  0.457947  0.250000  1
  Hf  Hf13  1  0.541669  0.084453  0.250000  1
  Hf  Hf14  1  0.915547  0.458331  0.250000  1
  Hf  Hf15  1  0.457843  0.542157  0.750000  1
  Hf  Hf16  1  0.457287  0.915247  0.750000  1
  Hf  Hf17  1  0.084753  0.542713  0.750000  1
  Re  Re18  1  0.889578  0.778489  0.250000  1
  Re  Re19  1  0.221511  0.110422  0.250000  1
  Re  Re20  1  0.110376  0.889624  0.750000  1
  Re  Re21  1  0.111026  0.220983  0.750000  1
  Re  Re22  1  0.779017  0.888974  0.750000  1
  W  W23  1  0.889964  0.110036  0.250000  1
  W  W24  1  0.000215  0.999785  0.500499  1
  W  W25  1  0.000215  0.999785  0.999501  1
  Au  Au26  1  0.333219  0.666781  0.250000  1
  Au  Au27  1  0.666337  0.333663  0.750000  1
