# generated using pymatgen
data_Tb3In3SnPt2
_symmetry_space_group_name_H-M   'P 1'
_cell_length_a   7.63540100
_cell_length_b   7.63540105
_cell_length_c   4.16561900
_cell_angle_alpha   90.00000000
_cell_angle_beta   90.00000000
_cell_angle_gamma   120.00000413
_symmetry_Int_Tables_number   1
_chemical_formula_structural   Tb3In3SnPt2
_chemical_formula_sum   'Tb3 In3 Sn1 Pt2'
_cell_volume   210.31675040
_cell_formula_units_Z   1
loop_
 _symmetry_equiv_pos_site_id
 _symmetry_equiv_pos_as_xyz
  1  'x, y, z'
loop_
 _atom_site_type_symbol
 _atom_site_label
 _atom_site_symmetry_multiplicity
 _atom_site_fract_x
 _atom_site_fract_y
 _atom_site_fract_z
 _atom_site_occupancy
  Tb  Tb0  1  0.392785  0.980037  0.000000  1
  Tb  Tb1  1  0.019963  0.412748  0.000000  1
  Tb  Tb2  1  0.587252  0.607215  0.000000  1
  In  In3  1  0.244081  0.255261  0.500000  1
  In  In4  1  0.011179  0.755919  0.500000  1
  In  In5  1  0.744739  0.988821  0.500000  1
  Sn  Sn6  1  0.666667  0.333333  0.500000  1
  Pt  Pt7  1  0.000000  0.000000  0.000000  1
  Pt  Pt8  1  0.333333  0.666667  0.500000  1
