# generated using pymatgen
data_LiBi4Ir3O14
_symmetry_space_group_name_H-M   'P 1'
_cell_length_a   7.50155156
_cell_length_b   7.50155194
_cell_length_c   11.93154500
_cell_angle_alpha   80.04473810
_cell_angle_beta   80.04473758
_cell_angle_gamma   60.84223828
_symmetry_Int_Tables_number   1
_chemical_formula_structural   LiBi4Ir3O14
_chemical_formula_sum   'Li2 Bi8 Ir6 O28'
_cell_volume   574.44083597
_cell_formula_units_Z   2
loop_
 _symmetry_equiv_pos_site_id
 _symmetry_equiv_pos_as_xyz
  1  'x, y, z'
loop_
 _atom_site_type_symbol
 _atom_site_label
 _atom_site_symmetry_multiplicity
 _atom_site_fract_x
 _atom_site_fract_y
 _atom_site_fract_z
 _atom_site_occupancy
  Li  Li0  1  0.546309  0.453691  0.750000  1
  Li  Li1  1  0.453691  0.546309  0.250000  1
  Bi  Bi2  1  0.497142  0.259096  0.506267  1
  Bi  Bi3  1  0.749237  0.016600  0.969293  1
  Bi  Bi4  1  0.250763  0.983400  0.030707  1
  Bi  Bi5  1  0.740904  0.502858  0.993733  1
  Bi  Bi6  1  0.016600  0.749237  0.469293  1
  Bi  Bi7  1  0.502858  0.740904  0.493733  1
  Bi  Bi8  1  0.983400  0.250763  0.530707  1
  Bi  Bi9  1  0.259096  0.497142  0.006267  1
  Ir  Ir10  1  0.634652  0.864074  0.744632  1
  Ir  Ir11  1  0.135926  0.365348  0.755368  1
  Ir  Ir12  1  0.860121  0.139879  0.250000  1
  Ir  Ir13  1  0.864074  0.634652  0.244632  1
  Ir  Ir14  1  0.365348  0.135926  0.255368  1
  Ir  Ir15  1  0.139879  0.860121  0.750000  1
  O  O16  1  0.147401  0.877796  0.582083  1
  O  O17  1  0.585743  0.368576  0.911846  1
  O  O18  1  0.877796  0.147401  0.082083  1
  O  O19  1  0.301478  0.123097  0.422615  1
  O  O20  1  0.435884  0.140622  0.085901  1
  O  O21  1  0.631424  0.414257  0.588154  1
  O  O22  1  0.836349  0.951043  0.771452  1
  O  O23  1  0.852599  0.122204  0.417917  1
  O  O24  1  0.123097  0.301478  0.922615  1
  O  O25  1  0.048957  0.163651  0.728548  1
  O  O26  1  0.564116  0.859378  0.914099  1
  O  O27  1  0.951043  0.836349  0.271452  1
  O  O28  1  0.414257  0.631424  0.088154  1
  O  O29  1  0.559764  0.229935  0.280482  1
  O  O30  1  0.859378  0.564116  0.414099  1
  O  O31  1  0.140622  0.435884  0.585901  1
  O  O32  1  0.229935  0.559764  0.780482  1
  O  O33  1  0.440236  0.770065  0.719518  1
  O  O34  1  0.566984  0.836745  0.283129  1
  O  O35  1  0.433016  0.163255  0.716871  1
  O  O36  1  0.770065  0.440236  0.219518  1
  O  O37  1  0.836745  0.566984  0.783129  1
  O  O38  1  0.698522  0.876903  0.577385  1
  O  O39  1  0.368576  0.585743  0.411846  1
  O  O40  1  0.122204  0.852599  0.917917  1
  O  O41  1  0.163255  0.433016  0.216871  1
  O  O42  1  0.876903  0.698522  0.077385  1
  O  O43  1  0.163651  0.048957  0.228548  1
