# generated using pymatgen
data_CaLa6NiBr12
_symmetry_space_group_name_H-M   'P 1'
_cell_length_a   9.69464534
_cell_length_b   9.74895426
_cell_length_c   9.69814881
_cell_angle_alpha   107.05120078
_cell_angle_beta   107.17018939
_cell_angle_gamma   106.88204459
_symmetry_Int_Tables_number   1
_chemical_formula_structural   CaLa6NiBr12
_chemical_formula_sum   'Ca1 La6 Ni1 Br12'
_cell_volume   762.62854817
_cell_formula_units_Z   1
loop_
 _symmetry_equiv_pos_site_id
 _symmetry_equiv_pos_as_xyz
  1  'x, y, z'
loop_
 _atom_site_type_symbol
 _atom_site_label
 _atom_site_symmetry_multiplicity
 _atom_site_fract_x
 _atom_site_fract_y
 _atom_site_fract_z
 _atom_site_occupancy
  Ca  Ca0  1  0.500000  0.500000  0.500000  1
  La  La1  1  0.314129  0.110160  0.024350  1
  La  La2  1  0.023262  0.314822  0.110883  1
  La  La3  1  0.111596  0.025096  0.315283  1
  La  La4  1  0.888403  0.974904  0.684717  1
  La  La5  1  0.976738  0.685178  0.889116  1
  La  La6  1  0.685871  0.889840  0.975649  1
  Ni  Ni7  1  0.000000  0.000000  0.000000  1
  Br  Br8  1  0.679282  0.215050  0.068160  1
  Br  Br9  1  0.376353  0.460382  0.171677  1
  Br  Br10  1  0.069348  0.681041  0.214713  1
  Br  Br11  1  0.786361  0.931828  0.319952  1
  Br  Br12  1  0.461663  0.171979  0.378704  1
  Br  Br13  1  0.172568  0.379314  0.461948  1
  Br  Br14  1  0.827433  0.620686  0.538053  1
  Br  Br15  1  0.538337  0.828022  0.621296  1
  Br  Br16  1  0.213638  0.068172  0.680048  1
  Br  Br17  1  0.930652  0.318959  0.785286  1
  Br  Br18  1  0.623648  0.539619  0.828323  1
  Br  Br19  1  0.320718  0.784949  0.931840  1
