# generated using pymatgen
data_Th4In2GaRh3
_symmetry_space_group_name_H-M   'P 1'
_cell_length_a   7.87960104
_cell_length_b   7.87960044
_cell_length_c   3.84459900
_cell_angle_alpha   90.00000000
_cell_angle_beta   90.00000000
_cell_angle_gamma   89.67114714
_symmetry_Int_Tables_number   1
_chemical_formula_structural   Th4In2GaRh3
_chemical_formula_sum   'Th4 In2 Ga1 Rh3'
_cell_volume   238.69994571
_cell_formula_units_Z   1
loop_
 _symmetry_equiv_pos_site_id
 _symmetry_equiv_pos_as_xyz
  1  'x, y, z'
loop_
 _atom_site_type_symbol
 _atom_site_label
 _atom_site_symmetry_multiplicity
 _atom_site_fract_x
 _atom_site_fract_y
 _atom_site_fract_z
 _atom_site_occupancy
  Th  Th0  1  0.675226  0.175226  0.500000  1
  Th  Th1  1  0.341028  0.841028  0.500000  1
  Th  Th2  1  0.167327  0.310960  0.500000  1
  Th  Th3  1  0.810960  0.667327  0.500000  1
  In  In4  1  0.996975  0.993621  0.000000  1
  In  In5  1  0.493621  0.496975  0.000000  1
  Ga  Ga6  1  0.125878  0.625878  0.000000  1
  Rh  Rh7  1  0.885860  0.385860  0.000000  1
  Rh  Rh8  1  0.635200  0.867924  0.000000  1
  Rh  Rh9  1  0.367924  0.135200  0.000000  1
