# generated using pymatgen
data_LaY3(Lu3Si4)2
_symmetry_space_group_name_H-M   'P 1'
_cell_length_a   7.58642100
_cell_length_b   7.58411160
_cell_length_c   13.88662100
_cell_angle_alpha   90.00000000
_cell_angle_beta   90.00000000
_cell_angle_gamma   90.06308941
_symmetry_Int_Tables_number   1
_chemical_formula_structural   LaY3(Lu3Si4)2
_chemical_formula_sum   'La2 Y6 Lu12 Si16'
_cell_volume   798.98380049
_cell_formula_units_Z   2
loop_
 _symmetry_equiv_pos_site_id
 _symmetry_equiv_pos_as_xyz
  1  'x, y, z'
loop_
 _atom_site_type_symbol
 _atom_site_label
 _atom_site_symmetry_multiplicity
 _atom_site_fract_x
 _atom_site_fract_y
 _atom_site_fract_z
 _atom_site_occupancy
  La  La0  1  0.993803  0.351256  0.210937  1
  La  La1  1  0.006197  0.648744  0.710937  1
  Y  Y2  1  0.148853  0.496053  0.462023  1
  Y  Y3  1  0.504121  0.853583  0.038421  1
  Y  Y4  1  0.851147  0.503947  0.962023  1
  Y  Y5  1  0.495879  0.146417  0.538421  1
  Y  Y6  1  0.354010  0.995086  0.789248  1
  Y  Y7  1  0.645990  0.004914  0.289248  1
  Lu  Lu8  1  0.180366  0.177095  0.999856  1
  Lu  Lu9  1  0.819634  0.822905  0.499856  1
  Lu  Lu10  1  0.321592  0.681256  0.250129  1
  Lu  Lu11  1  0.678408  0.318744  0.750129  1
  Lu  Lu12  1  0.144341  0.007773  0.376601  1
  Lu  Lu13  1  0.855659  0.992227  0.876601  1
  Lu  Lu14  1  0.496137  0.642835  0.625646  1
  Lu  Lu15  1  0.357440  0.502920  0.874270  1
  Lu  Lu16  1  0.503863  0.357165  0.125646  1
  Lu  Lu17  1  0.642560  0.497080  0.374270  1
  Lu  Lu18  1  0.005598  0.144353  0.623494  1
  Lu  Lu19  1  0.994402  0.855647  0.123494  1
  Si  Si20  1  0.356790  0.294175  0.318322  1
  Si  Si21  1  0.643210  0.705825  0.818322  1
  Si  Si22  1  0.210055  0.856038  0.563672  1
  Si  Si23  1  0.149099  0.794869  0.934966  1
  Si  Si24  1  0.789945  0.143962  0.063672  1
  Si  Si25  1  0.850901  0.205131  0.434966  1
  Si  Si26  1  0.297924  0.348805  0.683247  1
  Si  Si27  1  0.702076  0.651195  0.183247  1
  Si  Si28  1  0.297262  0.052815  0.187242  1
  Si  Si29  1  0.702738  0.947185  0.687242  1
  Si  Si30  1  0.445180  0.796126  0.437123  1
  Si  Si31  1  0.208465  0.560147  0.060928  1
  Si  Si32  1  0.554820  0.203874  0.937123  1
  Si  Si33  1  0.791535  0.439853  0.560928  1
  Si  Si34  1  0.058057  0.288632  0.813873  1
  Si  Si35  1  0.941943  0.711368  0.313873  1
