# generated using pymatgen
data_RbSrAsS4
_symmetry_space_group_name_H-M   'P 1'
_cell_length_a   6.90127300
_cell_length_b   6.96998100
_cell_length_c   17.61992600
_cell_angle_alpha   90.00000000
_cell_angle_beta   90.00000000
_cell_angle_gamma   90.00000000
_symmetry_Int_Tables_number   1
_chemical_formula_structural   RbSrAsS4
_chemical_formula_sum   'Rb4 Sr4 As4 S16'
_cell_volume   847.54912898
_cell_formula_units_Z   4
loop_
 _symmetry_equiv_pos_site_id
 _symmetry_equiv_pos_as_xyz
  1  'x, y, z'
loop_
 _atom_site_type_symbol
 _atom_site_label
 _atom_site_symmetry_multiplicity
 _atom_site_fract_x
 _atom_site_fract_y
 _atom_site_fract_z
 _atom_site_occupancy
  Rb  Rb0  1  0.972881  0.002129  0.035925  1
  Rb  Rb1  1  0.472881  0.497871  0.964075  1
  Rb  Rb2  1  0.027119  0.502129  0.464075  1
  Rb  Rb3  1  0.527119  0.997871  0.535925  1
  Sr  Sr4  1  0.288651  0.477317  0.224487  1
  Sr  Sr5  1  0.788651  0.022683  0.775513  1
  Sr  Sr6  1  0.711349  0.977317  0.275513  1
  Sr  Sr7  1  0.211349  0.522683  0.724487  1
  As  As8  1  0.216008  0.009165  0.340631  1
  As  As9  1  0.283992  0.990835  0.840631  1
  As  As10  1  0.716008  0.490835  0.659369  1
  As  As11  1  0.783992  0.509165  0.159369  1
  S  S12  1  0.372731  0.952555  0.722112  1
  S  S13  1  0.127269  0.047445  0.222112  1
  S  S14  1  0.417196  0.243824  0.366208  1
  S  S15  1  0.917196  0.256176  0.633792  1
  S  S16  1  0.885962  0.753415  0.642776  1
  S  S17  1  0.965504  0.009561  0.416124  1
  S  S18  1  0.034496  0.509561  0.083876  1
  S  S19  1  0.114038  0.253415  0.857224  1
  S  S20  1  0.627269  0.452555  0.777888  1
  S  S21  1  0.082804  0.756176  0.866208  1
  S  S22  1  0.582804  0.743824  0.133792  1
  S  S23  1  0.872731  0.547445  0.277888  1
  S  S24  1  0.385962  0.746585  0.357224  1
  S  S25  1  0.465504  0.490439  0.583876  1
  S  S26  1  0.534496  0.990439  0.916124  1
  S  S27  1  0.614038  0.246585  0.142776  1
