# generated using pymatgen
data_PrNdHo4(RuO7)2
_symmetry_space_group_name_H-M   'P 1'
_cell_length_a   6.43837757
_cell_length_b   6.43837740
_cell_length_c   7.50967313
_cell_angle_alpha   90.01234929
_cell_angle_beta   90.01234599
_cell_angle_gamma   110.12117151
_symmetry_Int_Tables_number   1
_chemical_formula_structural   PrNdHo4(RuO7)2
_chemical_formula_sum   'Pr1 Nd1 Ho4 Ru2 O14'
_cell_volume   292.29695988
_cell_formula_units_Z   1
loop_
 _symmetry_equiv_pos_site_id
 _symmetry_equiv_pos_as_xyz
  1  'x, y, z'
loop_
 _atom_site_type_symbol
 _atom_site_label
 _atom_site_symmetry_multiplicity
 _atom_site_fract_x
 _atom_site_fract_y
 _atom_site_fract_z
 _atom_site_occupancy
  Pr  Pr0  1  0.000000  0.000000  0.500000  1
  Nd  Nd1  1  0.000000  0.000000  0.000000  1
  Ho  Ho2  1  0.481967  0.930871  0.750205  1
  Ho  Ho3  1  0.518033  0.069129  0.249795  1
  Ho  Ho4  1  0.930871  0.481967  0.750205  1
  Ho  Ho5  1  0.069129  0.518033  0.249795  1
  Ru  Ru6  1  0.500000  0.500000  0.500000  1
  Ru  Ru7  1  0.500000  0.500000  0.000000  1
  O  O8  1  0.590156  0.590156  0.749919  1
  O  O9  1  0.409844  0.409844  0.250081  1
  O  O10  1  0.836385  0.118215  0.751381  1
  O  O11  1  0.163615  0.881785  0.248619  1
  O  O12  1  0.118215  0.836385  0.751381  1
  O  O13  1  0.881785  0.163615  0.248619  1
  O  O14  1  0.440282  0.181223  0.962903  1
  O  O15  1  0.558992  0.818610  0.462838  1
  O  O16  1  0.181223  0.440282  0.962903  1
  O  O17  1  0.818610  0.558992  0.462838  1
  O  O18  1  0.441008  0.181390  0.537162  1
  O  O19  1  0.559718  0.818777  0.037097  1
  O  O20  1  0.818777  0.559718  0.037097  1
  O  O21  1  0.181390  0.441008  0.537162  1
