# generated using pymatgen
data_LaU3(Co5P3)4
_symmetry_space_group_name_H-M   'P 1'
_cell_length_a   3.67405800
_cell_length_b   10.38125276
_cell_length_c   11.70317528
_cell_angle_alpha   89.86228560
_cell_angle_beta   90.00000000
_cell_angle_gamma   90.00000000
_symmetry_Int_Tables_number   1
_chemical_formula_structural   LaU3(Co5P3)4
_chemical_formula_sum   'La1 U3 Co20 P12'
_cell_volume   446.37331983
_cell_formula_units_Z   1
loop_
 _symmetry_equiv_pos_site_id
 _symmetry_equiv_pos_as_xyz
  1  'x, y, z'
loop_
 _atom_site_type_symbol
 _atom_site_label
 _atom_site_symmetry_multiplicity
 _atom_site_fract_x
 _atom_site_fract_y
 _atom_site_fract_z
 _atom_site_occupancy
  La  La0  1  0.750000  0.084987  0.795576  1
  U  U1  1  0.250000  0.584026  0.702455  1
  U  U2  1  0.250000  0.914718  0.201459  1
  U  U3  1  0.750000  0.415397  0.298423  1
  Co  Co4  1  0.250000  0.715879  0.993305  1
  Co  Co5  1  0.250000  0.783918  0.489224  1
  Co  Co6  1  0.750000  0.286096  0.010004  1
  Co  Co7  1  0.750000  0.215378  0.509158  1
  Co  Co8  1  0.250000  0.409023  0.481343  1
  Co  Co9  1  0.250000  0.091615  0.992335  1
  Co  Co10  1  0.750000  0.590396  0.518363  1
  Co  Co11  1  0.750000  0.905727  0.019319  1
  Co  Co12  1  0.250000  0.220570  0.177558  1
  Co  Co13  1  0.250000  0.284780  0.674907  1
  Co  Co14  1  0.750000  0.780547  0.825585  1
  Co  Co15  1  0.750000  0.715468  0.324013  1
  Co  Co16  1  0.250000  0.879706  0.695949  1
  Co  Co17  1  0.250000  0.615260  0.200064  1
  Co  Co18  1  0.750000  0.117035  0.299396  1
  Co  Co19  1  0.750000  0.389740  0.801637  1
  Co  Co20  1  0.250000  0.473448  0.931930  1
  Co  Co21  1  0.250000  0.027586  0.425011  1
  Co  Co22  1  0.750000  0.530163  0.070717  1
  Co  Co23  1  0.750000  0.966094  0.562722  1
  P  P24  1  0.250000  0.417161  0.113828  1
  P  P25  1  0.250000  0.084052  0.604565  1
  P  P26  1  0.750000  0.585246  0.888625  1
  P  P27  1  0.750000  0.914297  0.383948  1
  P  P28  1  0.250000  0.278602  0.872564  1
  P  P29  1  0.250000  0.226070  0.369595  1
  P  P30  1  0.750000  0.725358  0.131874  1
  P  P31  1  0.750000  0.773700  0.632051  1
  P  P32  1  0.250000  0.604247  0.391939  1
  P  P33  1  0.250000  0.894048  0.893059  1
  P  P34  1  0.750000  0.394590  0.608929  1
  P  P35  1  0.750000  0.105072  0.108572  1
