# generated using pymatgen
data_La2HoGa4Ni9B2
_symmetry_space_group_name_H-M   'P 1'
_cell_length_a   5.27967500
_cell_length_b   5.27967467
_cell_length_c   10.63350000
_cell_angle_alpha   90.00000000
_cell_angle_beta   90.00000000
_cell_angle_gamma   120.00000835
_symmetry_Int_Tables_number   1
_chemical_formula_structural   La2HoGa4Ni9B2
_chemical_formula_sum   'La2 Ho1 Ga4 Ni9 B2'
_cell_volume   256.69723000
_cell_formula_units_Z   1
loop_
 _symmetry_equiv_pos_site_id
 _symmetry_equiv_pos_as_xyz
  1  'x, y, z'
loop_
 _atom_site_type_symbol
 _atom_site_label
 _atom_site_symmetry_multiplicity
 _atom_site_fract_x
 _atom_site_fract_y
 _atom_site_fract_z
 _atom_site_occupancy
  La  La0  1  0.000000  0.000000  0.669307  1
  La  La1  1  0.000000  0.000000  0.330693  1
  Ho  Ho2  1  0.000000  0.000000  0.000000  1
  Ga  Ga3  1  0.666667  0.333333  0.686054  1
  Ga  Ga4  1  0.333333  0.666667  0.686054  1
  Ga  Ga5  1  0.333333  0.666667  0.313946  1
  Ga  Ga6  1  0.666667  0.333333  0.313946  1
  Ni  Ni7  1  0.500000  0.500000  0.500000  1
  Ni  Ni8  1  0.500000  0.000000  0.500000  1
  Ni  Ni9  1  0.000000  0.500000  0.500000  1
  Ni  Ni10  1  0.500000  0.500000  0.874621  1
  Ni  Ni11  1  0.500000  0.000000  0.874621  1
  Ni  Ni12  1  0.000000  0.500000  0.874621  1
  Ni  Ni13  1  0.500000  0.500000  0.125379  1
  Ni  Ni14  1  0.500000  0.000000  0.125379  1
  Ni  Ni15  1  0.000000  0.500000  0.125379  1
  B  B16  1  0.666667  0.333333  0.000000  1
  B  B17  1  0.333333  0.666667  0.000000  1
