# generated using pymatgen
data_Dy5Ta3Si3P9Ir16
_symmetry_space_group_name_H-M   'P 1'
_cell_length_a   12.82102300
_cell_length_b   12.82102308
_cell_length_c   3.98047800
_cell_angle_alpha   90.00000000
_cell_angle_beta   90.00000000
_cell_angle_gamma   119.99999722
_symmetry_Int_Tables_number   1
_chemical_formula_structural   Dy5Ta3Si3P9Ir16
_chemical_formula_sum   'Dy5 Ta3 Si3 P9 Ir16'
_cell_volume   566.64522450
_cell_formula_units_Z   1
loop_
 _symmetry_equiv_pos_site_id
 _symmetry_equiv_pos_as_xyz
  1  'x, y, z'
loop_
 _atom_site_type_symbol
 _atom_site_label
 _atom_site_symmetry_multiplicity
 _atom_site_fract_x
 _atom_site_fract_y
 _atom_site_fract_z
 _atom_site_occupancy
  Dy  Dy0  1  0.333333  0.666667  0.500000  1
  Dy  Dy1  1  0.666667  0.333333  0.500000  1
  Dy  Dy2  1  0.002016  0.813309  0.000000  1
  Dy  Dy3  1  0.186691  0.188706  0.000000  1
  Dy  Dy4  1  0.811294  0.997984  0.000000  1
  Ta  Ta5  1  0.996512  0.446961  0.500000  1
  Ta  Ta6  1  0.553039  0.549551  0.500000  1
  Ta  Ta7  1  0.450449  0.003488  0.500000  1
  Si  Si8  1  0.517582  0.685019  0.000000  1
  Si  Si9  1  0.314981  0.832563  0.000000  1
  Si  Si10  1  0.167437  0.482418  0.000000  1
  P  P11  1  0.004727  0.643503  0.500000  1
  P  P12  1  0.356497  0.361224  0.500000  1
  P  P13  1  0.638776  0.995273  0.500000  1
  P  P14  1  0.482205  0.168526  0.000000  1
  P  P15  1  0.686321  0.517795  0.000000  1
  P  P16  1  0.831474  0.313679  0.000000  1
  P  P17  1  0.998667  0.176217  0.500000  1
  P  P18  1  0.823783  0.822450  0.500000  1
  P  P19  1  0.177550  0.001333  0.500000  1
  Ir  Ir20  1  0.515639  0.873526  0.000000  1
  Ir  Ir21  1  0.126474  0.642115  0.000000  1
  Ir  Ir22  1  0.357885  0.484361  0.000000  1
  Ir  Ir23  1  0.495544  0.357426  0.000000  1
  Ir  Ir24  1  0.861883  0.504456  0.000000  1
  Ir  Ir25  1  0.642574  0.138117  0.000000  1
  Ir  Ir26  1  0.995471  0.277153  0.000000  1
  Ir  Ir27  1  0.722847  0.718318  0.000000  1
  Ir  Ir28  1  0.281682  0.004529  0.000000  1
  Ir  Ir29  1  0.627934  0.803004  0.500000  1
  Ir  Ir30  1  0.196996  0.824930  0.500000  1
  Ir  Ir31  1  0.175070  0.372066  0.500000  1
  Ir  Ir32  1  0.372453  0.182065  0.500000  1
  Ir  Ir33  1  0.809612  0.627547  0.500000  1
  Ir  Ir34  1  0.817935  0.190388  0.500000  1
  Ir  Ir35  1  0.000000  0.000000  0.500000  1
