# generated using pymatgen
data_Y2Ni11P7W
_symmetry_space_group_name_H-M   'P 1'
_cell_length_a   9.09594120
_cell_length_b   9.13067756
_cell_length_c   3.69021700
_cell_angle_alpha   90.00000000
_cell_angle_beta   90.00000000
_cell_angle_gamma   120.28424819
_symmetry_Int_Tables_number   1
_chemical_formula_structural   Y2Ni11P7W
_chemical_formula_sum   'Y2 Ni11 P7 W1'
_cell_volume   264.65622277
_cell_formula_units_Z   1
loop_
 _symmetry_equiv_pos_site_id
 _symmetry_equiv_pos_as_xyz
  1  'x, y, z'
loop_
 _atom_site_type_symbol
 _atom_site_label
 _atom_site_symmetry_multiplicity
 _atom_site_fract_x
 _atom_site_fract_y
 _atom_site_fract_z
 _atom_site_occupancy
  Y  Y0  1  0.001280  0.003689  0.000000  1
  Y  Y1  1  0.333129  0.668072  0.500000  1
  Ni  Ni2  1  0.297422  0.396255  0.000000  1
  Ni  Ni3  1  0.099700  0.705947  0.000000  1
  Ni  Ni4  1  0.541001  0.432986  0.500000  1
  Ni  Ni5  1  0.390327  0.177914  0.000000  1
  Ni  Ni6  1  0.787444  0.613816  0.000000  1
  Ni  Ni7  1  0.819234  0.205959  0.000000  1
  Ni  Ni8  1  0.236048  0.949541  0.500000  1
  Ni  Ni9  1  0.051602  0.281586  0.500000  1
  Ni  Ni10  1  0.716315  0.766165  0.500000  1
  Ni  Ni11  1  0.571492  0.115098  0.500000  1
  Ni  Ni12  1  0.607137  0.896652  0.000000  1
  P  P13  1  0.663117  0.331522  0.000000  1
  P  P14  1  0.077186  0.444338  0.000000  1
  P  P15  1  0.262993  0.220200  0.500000  1
  P  P16  1  0.778024  0.041359  0.500000  1
  P  P17  1  0.960901  0.743961  0.500000  1
  P  P18  1  0.553245  0.629029  0.000000  1
  P  P19  1  0.375323  0.926588  0.000000  1
  W  W20  1  0.877079  0.449324  0.500000  1
