# generated using pymatgen
data_YSc2AuO7
_symmetry_space_group_name_H-M   'P 1'
_cell_length_a   6.26170505
_cell_length_b   6.26170569
_cell_length_c   7.23157500
_cell_angle_alpha   90.00000000
_cell_angle_beta   90.00000000
_cell_angle_gamma   108.90028142
_symmetry_Int_Tables_number   1
_chemical_formula_structural   YSc2AuO7
_chemical_formula_sum   'Y2 Sc4 Au2 O14'
_cell_volume   268.25494961
_cell_formula_units_Z   2
loop_
 _symmetry_equiv_pos_site_id
 _symmetry_equiv_pos_as_xyz
  1  'x, y, z'
loop_
 _atom_site_type_symbol
 _atom_site_label
 _atom_site_symmetry_multiplicity
 _atom_site_fract_x
 _atom_site_fract_y
 _atom_site_fract_z
 _atom_site_occupancy
  Y  Y0  1  0.500000  0.500000  0.500000  1
  Y  Y1  1  0.500000  0.500000  0.000000  1
  Sc  Sc2  1  0.527593  0.000428  0.750000  1
  Sc  Sc3  1  0.000428  0.527593  0.250000  1
  Sc  Sc4  1  0.472407  0.999572  0.250000  1
  Sc  Sc5  1  0.999572  0.472407  0.750000  1
  Au  Au6  1  0.000000  0.000000  0.500000  1
  Au  Au7  1  0.000000  0.000000  0.000000  1
  O  O8  1  0.660243  0.920461  0.474715  1
  O  O9  1  0.920461  0.660243  0.525285  1
  O  O10  1  0.660243  0.920461  0.025285  1
  O  O11  1  0.920461  0.660243  0.974715  1
  O  O12  1  0.339757  0.079539  0.525285  1
  O  O13  1  0.079539  0.339757  0.474715  1
  O  O14  1  0.339757  0.079539  0.974715  1
  O  O15  1  0.079539  0.339757  0.025285  1
  O  O16  1  0.913522  0.086478  0.750000  1
  O  O17  1  0.086478  0.913522  0.250000  1
  O  O18  1  0.357958  0.642042  0.750000  1
  O  O19  1  0.642042  0.357958  0.250000  1
  O  O20  1  0.649156  0.350844  0.750000  1
  O  O21  1  0.350844  0.649156  0.250000  1
