# generated using pymatgen
data_K4BaTa5O15
_symmetry_space_group_name_H-M   'P 1'
_cell_length_a   9.05700263
_cell_length_b   9.05700319
_cell_length_c   7.01909400
_cell_angle_alpha   75.03565763
_cell_angle_beta   75.03565635
_cell_angle_gamma   36.87780039
_symmetry_Int_Tables_number   1
_chemical_formula_structural   K4BaTa5O15
_chemical_formula_sum   'K4 Ba1 Ta5 O15'
_cell_volume   332.48032504
_cell_formula_units_Z   1
loop_
 _symmetry_equiv_pos_site_id
 _symmetry_equiv_pos_as_xyz
  1  'x, y, z'
loop_
 _atom_site_type_symbol
 _atom_site_label
 _atom_site_symmetry_multiplicity
 _atom_site_fract_x
 _atom_site_fract_y
 _atom_site_fract_z
 _atom_site_occupancy
  K  K0  1  0.600137  0.600137  0.599036  1
  K  K1  1  0.200461  0.200461  0.200452  1
  K  K2  1  0.799539  0.799539  0.799548  1
  K  K3  1  0.399863  0.399863  0.400964  1
  Ba  Ba4  1  0.000000  0.000000  0.000000  1
  Ta  Ta5  1  0.201471  0.201471  0.696785  1
  Ta  Ta6  1  0.798529  0.798529  0.303215  1
  Ta  Ta7  1  0.398025  0.398025  0.899917  1
  Ta  Ta8  1  0.000000  0.000000  0.500000  1
  Ta  Ta9  1  0.601975  0.601975  0.100083  1
  O  O10  1  0.397883  0.900754  0.900556  1
  O  O11  1  0.000000  0.500000  0.500000  1
  O  O12  1  0.602117  0.099246  0.099444  1
  O  O13  1  0.198763  0.701616  0.701754  1
  O  O14  1  0.801237  0.298384  0.298246  1
  O  O15  1  0.299945  0.299945  0.799641  1
  O  O16  1  0.900568  0.900568  0.397723  1
  O  O17  1  0.500000  0.500000  0.000000  1
  O  O18  1  0.099432  0.099432  0.602277  1
  O  O19  1  0.700055  0.700055  0.200359  1
  O  O20  1  0.500000  0.000000  0.500000  1
  O  O21  1  0.099246  0.602117  0.099444  1
  O  O22  1  0.701616  0.198763  0.701754  1
  O  O23  1  0.298384  0.801237  0.298246  1
  O  O24  1  0.900754  0.397883  0.900556  1
