# generated using pymatgen
data_Dy6TcNi17As12
_symmetry_space_group_name_H-M   'P 1'
_cell_length_a   3.89074600
_cell_length_b   10.88844400
_cell_length_c   12.77458900
_cell_angle_alpha   90.00000000
_cell_angle_beta   90.00000000
_cell_angle_gamma   90.00000000
_symmetry_Int_Tables_number   1
_chemical_formula_structural   Dy6TcNi17As12
_chemical_formula_sum   'Dy6 Tc1 Ni17 As12'
_cell_volume   541.18485930
_cell_formula_units_Z   1
loop_
 _symmetry_equiv_pos_site_id
 _symmetry_equiv_pos_as_xyz
  1  'x, y, z'
loop_
 _atom_site_type_symbol
 _atom_site_label
 _atom_site_symmetry_multiplicity
 _atom_site_fract_x
 _atom_site_fract_y
 _atom_site_fract_z
 _atom_site_occupancy
  Dy  Dy0  1  0.000000  0.500000  0.524463  1
  Dy  Dy1  1  0.500000  0.000000  0.478474  1
  Dy  Dy2  1  0.500000  0.817152  0.207640  1
  Dy  Dy3  1  0.500000  0.182848  0.207640  1
  Dy  Dy4  1  0.000000  0.684899  0.792789  1
  Dy  Dy5  1  0.000000  0.315101  0.792789  1
  Tc  Tc6  1  0.500000  0.500000  0.152282  1
  Ni  Ni7  1  0.000000  0.000000  0.843007  1
  Ni  Ni8  1  0.500000  0.500000  0.700183  1
  Ni  Ni9  1  0.000000  0.000000  0.301910  1
  Ni  Ni10  1  0.000000  0.500000  0.983168  1
  Ni  Ni11  1  0.500000  0.000000  0.019932  1
  Ni  Ni12  1  0.500000  0.329211  0.992211  1
  Ni  Ni13  1  0.500000  0.670789  0.992211  1
  Ni  Ni14  1  0.000000  0.164123  0.004089  1
  Ni  Ni15  1  0.000000  0.835877  0.004089  1
  Ni  Ni16  1  0.500000  0.303414  0.426953  1
  Ni  Ni17  1  0.500000  0.696586  0.426953  1
  Ni  Ni18  1  0.000000  0.196554  0.572835  1
  Ni  Ni19  1  0.000000  0.803446  0.572835  1
  Ni  Ni20  1  0.500000  0.879027  0.707935  1
  Ni  Ni21  1  0.500000  0.120973  0.707935  1
  Ni  Ni22  1  0.000000  0.619847  0.291683  1
  Ni  Ni23  1  0.000000  0.380153  0.291683  1
  As  As24  1  0.500000  0.500000  0.878025  1
  As  As25  1  0.000000  0.000000  0.125715  1
  As  As26  1  0.500000  0.500000  0.347278  1
  As  As27  1  0.000000  0.000000  0.654230  1
  As  As28  1  0.500000  0.314015  0.613905  1
  As  As29  1  0.500000  0.685985  0.613905  1
  As  As30  1  0.000000  0.185291  0.386613  1
  As  As31  1  0.000000  0.814709  0.386613  1
  As  As32  1  0.500000  0.850466  0.890094  1
  As  As33  1  0.500000  0.149534  0.890094  1
  As  As34  1  0.000000  0.654723  0.108918  1
  As  As35  1  0.000000  0.345277  0.108918  1
