# generated using pymatgen
data_Nd2Ga3Si(IrPt)2
_symmetry_space_group_name_H-M   'P 1'
_cell_length_a   4.21960900
_cell_length_b   4.21960900
_cell_length_c   10.51016400
_cell_angle_alpha   90.00000000
_cell_angle_beta   90.00000000
_cell_angle_gamma   90.00000000
_symmetry_Int_Tables_number   1
_chemical_formula_structural   Nd2Ga3Si(IrPt)2
_chemical_formula_sum   'Nd2 Ga3 Si1 Ir2 Pt2'
_cell_volume   187.13452222
_cell_formula_units_Z   1
loop_
 _symmetry_equiv_pos_site_id
 _symmetry_equiv_pos_as_xyz
  1  'x, y, z'
loop_
 _atom_site_type_symbol
 _atom_site_label
 _atom_site_symmetry_multiplicity
 _atom_site_fract_x
 _atom_site_fract_y
 _atom_site_fract_z
 _atom_site_occupancy
  Nd  Nd0  1  0.000000  0.500000  0.242291  1
  Nd  Nd1  1  0.500000  0.000000  0.757263  1
  Ga  Ga2  1  0.000000  0.000000  0.497039  1
  Ga  Ga3  1  0.500000  0.500000  0.497039  1
  Ga  Ga4  1  0.000000  0.500000  0.876629  1
  Si  Si5  1  0.500000  0.000000  0.120631  1
  Ir  Ir6  1  0.000000  0.000000  0.009854  1
  Ir  Ir7  1  0.500000  0.500000  0.009854  1
  Pt  Pt8  1  0.000000  0.500000  0.636944  1
  Pt  Pt9  1  0.500000  0.000000  0.352455  1
