# generated using pymatgen
data_TlInAg2(P2O7)2
_symmetry_space_group_name_H-M   'P 1'
_cell_length_a   8.60897400
_cell_length_b   7.61275001
_cell_length_c   10.02554225
_cell_angle_alpha   68.56358432
_cell_angle_beta   90.00000000
_cell_angle_gamma   90.00000000
_symmetry_Int_Tables_number   1
_chemical_formula_structural   TlInAg2(P2O7)2
_chemical_formula_sum   'Tl2 In2 Ag4 P8 O28'
_cell_volume   611.60112951
_cell_formula_units_Z   2
loop_
 _symmetry_equiv_pos_site_id
 _symmetry_equiv_pos_as_xyz
  1  'x, y, z'
loop_
 _atom_site_type_symbol
 _atom_site_label
 _atom_site_symmetry_multiplicity
 _atom_site_fract_x
 _atom_site_fract_y
 _atom_site_fract_z
 _atom_site_occupancy
  Tl  Tl0  1  0.997236  0.753054  0.745140  1
  Tl  Tl1  1  0.497236  0.246946  0.754860  1
  In  In2  1  0.003269  0.243792  0.256721  1
  In  In3  1  0.503269  0.756208  0.243279  1
  Ag  Ag4  1  0.033036  0.203116  0.805091  1
  Ag  Ag5  1  0.533036  0.796884  0.694909  1
  Ag  Ag6  1  0.964754  0.794837  0.194270  1
  Ag  Ag7  1  0.464754  0.205163  0.305730  1
  P  P8  1  0.243261  0.413691  0.966670  1
  P  P9  1  0.743261  0.586309  0.533330  1
  P  P10  1  0.753860  0.573173  0.042398  1
  P  P11  1  0.253860  0.426827  0.457602  1
  P  P12  1  0.290130  0.818541  0.947892  1
  P  P13  1  0.790130  0.181459  0.552108  1
  P  P14  1  0.713152  0.172027  0.057438  1
  P  P15  1  0.213152  0.827973  0.442562  1
  O  O16  1  0.362814  0.295810  0.925831  1
  O  O17  1  0.862814  0.704190  0.574169  1
  O  O18  1  0.635699  0.683240  0.091691  1
  O  O19  1  0.135699  0.316760  0.408309  1
  O  O20  1  0.207328  0.323267  0.126637  1
  O  O21  1  0.707328  0.676733  0.373363  1
  O  O22  1  0.783320  0.668622  0.880796  1
  O  O23  1  0.283320  0.331378  0.619204  1
  O  O24  1  0.096151  0.456243  0.870580  1
  O  O25  1  0.596151  0.543757  0.629420  1
  O  O26  1  0.904505  0.527213  0.133798  1
  O  O27  1  0.404505  0.472787  0.366202  1
  O  O28  1  0.410974  0.941293  0.842365  1
  O  O29  1  0.910974  0.058707  0.657635  1
  O  O30  1  0.590548  0.043586  0.155634  1
  O  O31  1  0.090548  0.956414  0.344366  1
  O  O32  1  0.305265  0.807787  0.102412  1
  O  O33  1  0.805265  0.192213  0.397588  1
  O  O34  1  0.708217  0.188755  0.900326  1
  O  O35  1  0.208217  0.811245  0.599674  1
  O  O36  1  0.119496  0.868147  0.898938  1
  O  O37  1  0.619496  0.131853  0.601062  1
  O  O38  1  0.881432  0.126895  0.114374  1
  O  O39  1  0.381432  0.873105  0.385626  1
  O  O40  1  0.327610  0.613735  0.939493  1
  O  O41  1  0.827610  0.386265  0.560507  1
  O  O42  1  0.667942  0.373379  0.068509  1
  O  O43  1  0.167942  0.626621  0.431491  1
