# generated using pymatgen
data_TbY3(Ta3Ge4)2
_symmetry_space_group_name_H-M   'P 1'
_cell_length_a   7.01214800
_cell_length_b   7.16977301
_cell_length_c   13.56467203
_cell_angle_alpha   89.99280938
_cell_angle_beta   90.00000000
_cell_angle_gamma   90.00000000
_symmetry_Int_Tables_number   1
_chemical_formula_structural   TbY3(Ta3Ge4)2
_chemical_formula_sum   'Tb2 Y6 Ta12 Ge16'
_cell_volume   681.97079199
_cell_formula_units_Z   2
loop_
 _symmetry_equiv_pos_site_id
 _symmetry_equiv_pos_as_xyz
  1  'x, y, z'
loop_
 _atom_site_type_symbol
 _atom_site_label
 _atom_site_symmetry_multiplicity
 _atom_site_fract_x
 _atom_site_fract_y
 _atom_site_fract_z
 _atom_site_occupancy
  Tb  Tb0  1  0.495116  0.673284  0.905748  1
  Tb  Tb1  1  0.995116  0.826716  0.594252  1
  Y  Y2  1  0.495014  0.673277  0.594287  1
  Y  Y3  1  0.995014  0.826723  0.905713  1
  Y  Y4  1  0.505002  0.326697  0.094277  1
  Y  Y5  1  0.005002  0.173303  0.405723  1
  Y  Y6  1  0.504949  0.326720  0.405705  1
  Y  Y7  1  0.004949  0.173280  0.094295  1
  Ta  Ta8  1  0.659428  0.169445  0.626298  1
  Ta  Ta9  1  0.159428  0.330555  0.873702  1
  Ta  Ta10  1  0.340576  0.830560  0.126286  1
  Ta  Ta11  1  0.840576  0.669440  0.373714  1
  Ta  Ta12  1  0.340625  0.830575  0.373707  1
  Ta  Ta13  1  0.840625  0.669425  0.126293  1
  Ta  Ta14  1  0.659393  0.169474  0.873704  1
  Ta  Ta15  1  0.159393  0.330526  0.626296  1
  Ta  Ta16  1  0.835067  0.485035  0.749953  1
  Ta  Ta17  1  0.335067  0.014965  0.750047  1
  Ta  Ta18  1  0.164915  0.514968  0.250013  1
  Ta  Ta19  1  0.664915  0.985032  0.249987  1
  Ge  Ge20  1  0.675957  0.960661  0.457853  1
  Ge  Ge21  1  0.175957  0.539339  0.042147  1
  Ge  Ge22  1  0.323944  0.039386  0.957851  1
  Ge  Ge23  1  0.823944  0.460614  0.542149  1
  Ge  Ge24  1  0.324038  0.039360  0.542108  1
  Ge  Ge25  1  0.824038  0.460640  0.957892  1
  Ge  Ge26  1  0.676010  0.960677  0.042161  1
  Ge  Ge27  1  0.176010  0.539323  0.457839  1
  Ge  Ge28  1  0.459745  0.378434  0.750018  1
  Ge  Ge29  1  0.959745  0.121566  0.749982  1
  Ge  Ge30  1  0.540254  0.621552  0.249990  1
  Ge  Ge31  1  0.040254  0.878448  0.250010  1
  Ge  Ge32  1  0.693873  0.860230  0.750003  1
  Ge  Ge33  1  0.193873  0.639770  0.749997  1
  Ge  Ge34  1  0.306093  0.139849  0.249997  1
  Ge  Ge35  1  0.806093  0.360151  0.250003  1
