# generated using pymatgen
data_Ca9ErSi6F
_symmetry_space_group_name_H-M   'P 1'
_cell_length_a   9.05712273
_cell_length_b   9.03693622
_cell_length_c   9.05767577
_cell_angle_alpha   130.15907599
_cell_angle_beta   130.21823795
_cell_angle_gamma   73.01439138
_symmetry_Int_Tables_number   1
_chemical_formula_structural   Ca9ErSi6F
_chemical_formula_sum   'Ca9 Er1 Si6 F1'
_cell_volume   422.71549224
_cell_formula_units_Z   1
loop_
 _symmetry_equiv_pos_site_id
 _symmetry_equiv_pos_as_xyz
  1  'x, y, z'
loop_
 _atom_site_type_symbol
 _atom_site_label
 _atom_site_symmetry_multiplicity
 _atom_site_fract_x
 _atom_site_fract_y
 _atom_site_fract_z
 _atom_site_occupancy
  Ca  Ca0  1  0.432632  0.773949  0.000000  1
  Ca  Ca1  1  0.930579  0.931848  0.644280  1
  Ca  Ca2  1  0.286298  0.287568  0.355720  1
  Ca  Ca3  1  0.711444  0.066178  0.000000  1
  Ca  Ca4  1  0.067373  0.712681  0.000000  1
  Ca  Ca5  1  0.566103  0.565402  0.337374  1
  Ca  Ca6  1  0.228728  0.228027  0.662626  1
  Ca  Ca7  1  0.251873  0.751380  0.503953  1
  Ca  Ca8  1  0.747920  0.247426  0.496047  1
  Er  Er9  1  0.776088  0.435882  0.000000  1
  Si  Si10  1  0.993835  0.496970  0.484157  1
  Si  Si11  1  0.509678  0.012813  0.515843  1
  Si  Si12  1  0.127510  0.364808  0.000000  1
  Si  Si13  1  0.357578  0.135734  0.000000  1
  Si  Si14  1  0.865862  0.857979  0.226542  1
  Si  Si15  1  0.639320  0.631437  0.773458  1
  F  F16  1  0.507177  0.499918  0.000000  1
