# generated using pymatgen
data_LaZnCdPd
_symmetry_space_group_name_H-M   'P 1'
_cell_length_a   5.54393522
_cell_length_b   5.54393518
_cell_length_c   8.08539496
_cell_angle_alpha   89.09259854
_cell_angle_beta   90.90740052
_cell_angle_gamma   134.13210956
_symmetry_Int_Tables_number   1
_chemical_formula_structural   LaZnCdPd
_chemical_formula_sum   'La2 Zn2 Cd2 Pd2'
_cell_volume   178.33564342
_cell_formula_units_Z   2
loop_
 _symmetry_equiv_pos_site_id
 _symmetry_equiv_pos_as_xyz
  1  'x, y, z'
loop_
 _atom_site_type_symbol
 _atom_site_label
 _atom_site_symmetry_multiplicity
 _atom_site_fract_x
 _atom_site_fract_y
 _atom_site_fract_z
 _atom_site_occupancy
  La  La0  1  0.067147  0.932853  0.268770  1
  La  La1  1  0.932853  0.067147  0.731230  1
  Zn  Zn2  1  0.645224  0.354776  0.554228  1
  Zn  Zn3  1  0.354776  0.645224  0.445772  1
  Cd  Cd4  1  0.644639  0.355361  0.950568  1
  Cd  Cd5  1  0.355361  0.644639  0.049432  1
  Pd  Pd6  1  0.217573  0.782427  0.728215  1
  Pd  Pd7  1  0.782427  0.217573  0.271785  1
