# generated using pymatgen
data_Li4DyMn2P12Ir17
_symmetry_space_group_name_H-M   'P 1'
_cell_length_a   12.52246000
_cell_length_b   12.58232819
_cell_length_c   3.92214800
_cell_angle_alpha   90.00000000
_cell_angle_beta   90.00000000
_cell_angle_gamma   119.84273243
_symmetry_Int_Tables_number   1
_chemical_formula_structural   Li4DyMn2P12Ir17
_chemical_formula_sum   'Li4 Dy1 Mn2 P12 Ir17'
_cell_volume   536.03275987
_cell_formula_units_Z   1
loop_
 _symmetry_equiv_pos_site_id
 _symmetry_equiv_pos_as_xyz
  1  'x, y, z'
loop_
 _atom_site_type_symbol
 _atom_site_label
 _atom_site_symmetry_multiplicity
 _atom_site_fract_x
 _atom_site_fract_y
 _atom_site_fract_z
 _atom_site_occupancy
  Li  Li0  1  0.334345  0.667662  0.500000  1
  Li  Li1  1  0.666684  0.332338  0.500000  1
  Li  Li2  1  0.001682  0.823113  0.000000  1
  Li  Li3  1  0.178569  0.176887  0.000000  1
  Dy  Dy4  1  0.823054  0.000000  0.000000  1
  Mn  Mn5  1  0.995921  0.456646  0.500000  1
  Mn  Mn6  1  0.539275  0.543354  0.500000  1
  P  P7  1  0.999159  0.636091  0.500000  1
  P  P8  1  0.363069  0.363909  0.500000  1
  P  P9  1  0.639492  0.000000  0.500000  1
  P  P10  1  0.511759  0.684752  0.000000  1
  P  P11  1  0.309986  0.822639  0.000000  1
  P  P12  1  0.173322  0.487284  0.000000  1
  P  P13  1  0.487347  0.177361  0.000000  1
  P  P14  1  0.686037  0.512716  0.000000  1
  P  P15  1  0.827007  0.315248  0.000000  1
  P  P16  1  0.005809  0.183053  0.500000  1
  P  P17  1  0.822755  0.816947  0.500000  1
  P  P18  1  0.180485  0.000000  0.500000  1
  Ir  Ir19  1  0.508024  0.867292  0.000000  1
  Ir  Ir20  1  0.127923  0.637971  0.000000  1
  Ir  Ir21  1  0.359900  0.490281  0.000000  1
  Ir  Ir22  1  0.489954  0.362029  0.000000  1
  Ir  Ir23  1  0.869620  0.509719  0.000000  1
  Ir  Ir24  1  0.640733  0.132708  0.000000  1
  Ir  Ir25  1  0.457480  0.000000  0.500000  1
  Ir  Ir26  1  0.999877  0.286238  0.000000  1
  Ir  Ir27  1  0.713638  0.713762  0.000000  1
  Ir  Ir28  1  0.290244  0.000000  0.000000  1
  Ir  Ir29  1  0.623802  0.804037  0.500000  1
  Ir  Ir30  1  0.193926  0.817499  0.500000  1
  Ir  Ir31  1  0.181399  0.379053  0.500000  1
  Ir  Ir32  1  0.376427  0.182501  0.500000  1
  Ir  Ir33  1  0.802345  0.620947  0.500000  1
  Ir  Ir34  1  0.819765  0.195963  0.500000  1
  Ir  Ir35  1  0.999186  0.000000  0.500000  1
