# generated using pymatgen
data_Li8Nd7SmSn5Bi3
_symmetry_space_group_name_H-M   'P 1'
_cell_length_a   9.61245920
_cell_length_b   9.60966807
_cell_length_c   7.62301402
_cell_angle_alpha   89.99204546
_cell_angle_beta   90.00581498
_cell_angle_gamma   120.03239110
_symmetry_Int_Tables_number   1
_chemical_formula_structural   Li8Nd7SmSn5Bi3
_chemical_formula_sum   'Li8 Nd7 Sm1 Sn5 Bi3'
_cell_volume   609.61886546
_cell_formula_units_Z   1
loop_
 _symmetry_equiv_pos_site_id
 _symmetry_equiv_pos_as_xyz
  1  'x, y, z'
loop_
 _atom_site_type_symbol
 _atom_site_label
 _atom_site_symmetry_multiplicity
 _atom_site_fract_x
 _atom_site_fract_y
 _atom_site_fract_z
 _atom_site_occupancy
  Li  Li0  1  0.832880  0.167163  0.720309  1
  Li  Li1  1  0.832904  0.665839  0.720324  1
  Li  Li2  1  0.334156  0.167118  0.720352  1
  Li  Li3  1  0.168138  0.831833  0.211330  1
  Li  Li4  1  0.168131  0.336206  0.211396  1
  Li  Li5  1  0.663793  0.831852  0.211446  1
  Li  Li6  1  0.666724  0.333301  0.332370  1
  Li  Li7  1  0.333256  0.666707  0.823199  1
  Nd  Nd8  1  0.486322  0.513746  0.510098  1
  Nd  Nd9  1  0.486349  0.972556  0.510034  1
  Nd  Nd10  1  0.027392  0.513682  0.510033  1
  Nd  Nd11  1  0.508888  0.491105  0.000551  1
  Nd  Nd12  1  0.508947  0.017972  0.000611  1
  Nd  Nd13  1  0.982078  0.491051  0.000595  1
  Nd  Nd14  1  0.999869  0.999997  0.507028  1
  Sm  Sm15  1  0.999971  0.000055  0.992068  1
  Sn  Sn16  1  0.165795  0.834116  0.768973  1
  Sn  Sn17  1  0.165734  0.331554  0.768813  1
  Sn  Sn18  1  0.668515  0.834260  0.768733  1
  Sn  Sn19  1  0.666730  0.333316  0.737790  1
  Sn  Sn20  1  0.333393  0.666649  0.236910  1
  Bi  Bi21  1  0.833733  0.166226  0.265096  1
  Bi  Bi22  1  0.833743  0.667450  0.265019  1
  Bi  Bi23  1  0.332559  0.166246  0.264937  1
