# generated using pymatgen
data_Pr2Al20IrOs3
_symmetry_space_group_name_H-M   'P 1'
_cell_length_a   6.90347370
_cell_length_b   6.89476059
_cell_length_c   9.22013100
_cell_angle_alpha   90.13216685
_cell_angle_beta   90.07462374
_cell_angle_gamma   96.74626508
_symmetry_Int_Tables_number   1
_chemical_formula_structural   Pr2Al20IrOs3
_chemical_formula_sum   'Pr2 Al20 Ir1 Os3'
_cell_volume   435.81762934
_cell_formula_units_Z   1
loop_
 _symmetry_equiv_pos_site_id
 _symmetry_equiv_pos_as_xyz
  1  'x, y, z'
loop_
 _atom_site_type_symbol
 _atom_site_label
 _atom_site_symmetry_multiplicity
 _atom_site_fract_x
 _atom_site_fract_y
 _atom_site_fract_z
 _atom_site_occupancy
  Pr  Pr0  1  0.872691  0.125149  0.750154  1
  Pr  Pr1  1  0.127309  0.874851  0.249846  1
  Al  Al2  1  0.620715  0.376520  0.550692  1
  Al  Al3  1  0.379285  0.623480  0.449308  1
  Al  Al4  1  0.377135  0.622971  0.049624  1
  Al  Al5  1  0.622865  0.377029  0.950376  1
  Al  Al6  1  0.227511  0.225703  0.499288  1
  Al  Al7  1  0.772489  0.774297  0.500712  1
  Al  Al8  1  0.773820  0.774151  0.999931  1
  Al  Al9  1  0.226180  0.225849  0.000069  1
  Al  Al10  1  0.840641  0.160017  0.102182  1
  Al  Al11  1  0.159359  0.839983  0.897818  1
  Al  Al12  1  0.160667  0.841319  0.603512  1
  Al  Al13  1  0.839333  0.158681  0.396488  1
  Al  Al14  1  0.856555  0.587924  0.750777  1
  Al  Al15  1  0.143445  0.412076  0.249223  1
  Al  Al16  1  0.412355  0.142329  0.750303  1
  Al  Al17  1  0.587645  0.857671  0.249697  1
  Al  Al18  1  0.221730  0.483537  0.751823  1
  Al  Al19  1  0.778270  0.516463  0.248177  1
  Al  Al20  1  0.516596  0.779338  0.749478  1
  Al  Al21  1  0.483404  0.220662  0.250522  1
  Ir  Ir22  1  0.000000  0.500000  0.500000  1
  Os  Os23  1  0.000000  0.500000  0.000000  1
  Os  Os24  1  0.500000  0.000000  0.000000  1
  Os  Os25  1  0.500000  0.000000  0.500000  1
