# generated using pymatgen
data_YU7B24MoW3
_symmetry_space_group_name_H-M   'P 1'
_cell_length_a   3.68899000
_cell_length_b   9.28821853
_cell_length_c   11.38849213
_cell_angle_alpha   89.98926726
_cell_angle_beta   90.00000000
_cell_angle_gamma   90.00000000
_symmetry_Int_Tables_number   1
_chemical_formula_structural   YU7B24MoW3
_chemical_formula_sum   'Y1 U7 B24 Mo1 W3'
_cell_volume   390.21694172
_cell_formula_units_Z   1
loop_
 _symmetry_equiv_pos_site_id
 _symmetry_equiv_pos_as_xyz
  1  'x, y, z'
loop_
 _atom_site_type_symbol
 _atom_site_label
 _atom_site_symmetry_multiplicity
 _atom_site_fract_x
 _atom_site_fract_y
 _atom_site_fract_z
 _atom_site_occupancy
  Y  Y0  1  0.000000  0.335267  0.407876  1
  U  U1  1  0.000000  0.664502  0.592547  1
  U  U2  1  0.000000  0.834627  0.092431  1
  U  U3  1  0.000000  0.165501  0.907450  1
  U  U4  1  0.000000  0.956123  0.394667  1
  U  U5  1  0.000000  0.044366  0.604870  1
  U  U6  1  0.000000  0.456401  0.105493  1
  U  U7  1  0.000000  0.543513  0.895180  1
  B  B8  1  0.500000  0.553089  0.433413  1
  B  B9  1  0.500000  0.451330  0.568994  1
  B  B10  1  0.500000  0.049543  0.066350  1
  B  B11  1  0.500000  0.949902  0.932823  1
  B  B12  1  0.500000  0.743200  0.424656  1
  B  B13  1  0.500000  0.255405  0.576863  1
  B  B14  1  0.500000  0.243748  0.075574  1
  B  B15  1  0.500000  0.756355  0.924330  1
  B  B16  1  0.500000  0.803859  0.272888  1
  B  B17  1  0.500000  0.196128  0.727503  1
  B  B18  1  0.500000  0.302918  0.224929  1
  B  B19  1  0.500000  0.696140  0.772550  1
  B  B20  1  0.500000  0.644535  0.187633  1
  B  B21  1  0.500000  0.355176  0.812928  1
  B  B22  1  0.500000  0.142845  0.311808  1
  B  B23  1  0.500000  0.855179  0.687390  1
  B  B24  1  0.500000  0.985651  0.218141  1
  B  B25  1  0.500000  0.014198  0.781232  1
  B  B26  1  0.500000  0.487953  0.280076  1
  B  B27  1  0.500000  0.514993  0.718496  1
  B  B28  1  0.500000  0.642321  0.039414  1
  B  B29  1  0.500000  0.358286  0.961005  1
  B  B30  1  0.500000  0.137925  0.461590  1
  B  B31  1  0.500000  0.857768  0.539603  1
  Mo  Mo32  1  0.000000  0.648244  0.319134  1
  W  W33  1  0.000000  0.355021  0.682732  1
  W  W34  1  0.000000  0.143129  0.177237  1
  W  W35  1  0.000000  0.854857  0.820192  1
