# generated using pymatgen
data_Y3GaNi2Ru
_symmetry_space_group_name_H-M   'P 1'
_cell_length_a   5.53169700
_cell_length_b   5.53169705
_cell_length_c   12.99011900
_cell_angle_alpha   90.00000000
_cell_angle_beta   90.00000000
_cell_angle_gamma   135.84511948
_symmetry_Int_Tables_number   1
_chemical_formula_structural   Y3GaNi2Ru
_chemical_formula_sum   'Y6 Ga2 Ni4 Ru2'
_cell_volume   276.89402060
_cell_formula_units_Z   2
loop_
 _symmetry_equiv_pos_site_id
 _symmetry_equiv_pos_as_xyz
  1  'x, y, z'
loop_
 _atom_site_type_symbol
 _atom_site_label
 _atom_site_symmetry_multiplicity
 _atom_site_fract_x
 _atom_site_fract_y
 _atom_site_fract_z
 _atom_site_occupancy
  Y  Y0  1  0.789798  0.210202  0.394018  1
  Y  Y1  1  0.210202  0.789798  0.605982  1
  Y  Y2  1  0.789798  0.210202  0.105982  1
  Y  Y3  1  0.210202  0.789798  0.894018  1
  Y  Y4  1  0.506932  0.493068  0.250000  1
  Y  Y5  1  0.493068  0.506932  0.750000  1
  Ga  Ga6  1  0.500000  0.500000  0.500000  1
  Ga  Ga7  1  0.500000  0.500000  0.000000  1
  Ni  Ni8  1  0.075745  0.924255  0.413387  1
  Ni  Ni9  1  0.924255  0.075745  0.586613  1
  Ni  Ni10  1  0.075745  0.924255  0.086613  1
  Ni  Ni11  1  0.924255  0.075745  0.913387  1
  Ru  Ru12  1  0.213850  0.786150  0.250000  1
  Ru  Ru13  1  0.786150  0.213850  0.750000  1
