# generated using pymatgen
data_Zr6Ti6ZnAs5
_symmetry_space_group_name_H-M   'P 1'
_cell_length_a   7.98667148
_cell_length_b   7.99028204
_cell_length_c   7.98667181
_cell_angle_alpha   127.76173085
_cell_angle_beta   123.57311086
_cell_angle_gamma   80.46896571
_symmetry_Int_Tables_number   1
_chemical_formula_structural   Zr6Ti6ZnAs5
_chemical_formula_sum   'Zr6 Ti6 Zn1 As5'
_cell_volume   323.91954859
_cell_formula_units_Z   1
loop_
 _symmetry_equiv_pos_site_id
 _symmetry_equiv_pos_as_xyz
  1  'x, y, z'
loop_
 _atom_site_type_symbol
 _atom_site_label
 _atom_site_symmetry_multiplicity
 _atom_site_fract_x
 _atom_site_fract_y
 _atom_site_fract_z
 _atom_site_occupancy
  Zr  Zr0  1  0.455779  0.663829  0.708051  1
  Zr  Zr1  1  0.545624  0.253727  0.208103  1
  Zr  Zr2  1  0.749762  0.844605  0.594843  1
  Zr  Zr3  1  0.250127  0.842084  0.091956  1
  Zr  Zr4  1  0.044907  0.252124  0.707217  1
  Zr  Zr5  1  0.953692  0.661209  0.207517  1
  Ti  Ti6  1  0.499562  0.499741  0.999314  1
  Ti  Ti7  1  0.000428  0.499741  0.500180  1
  Ti  Ti8  1  0.121334  0.253980  0.128301  1
  Ti  Ti9  1  0.877555  0.006919  0.131500  1
  Ti  Ti10  1  0.375419  0.006919  0.629365  1
  Ti  Ti11  1  0.625679  0.253980  0.632645  1
  Zn  Zn12  1  0.251466  0.253940  0.502475  1
  As  As13  1  0.748689  0.252211  0.003522  1
  As  As14  1  0.332896  0.587198  0.252910  1
  As  As15  1  0.665805  0.920097  0.253112  1
  As  As16  1  0.166986  0.920097  0.754293  1
  As  As17  1  0.834288  0.587198  0.754302  1
