# generated using pymatgen
data_Nb3Mo8W5
_symmetry_space_group_name_H-M   'P 1'
_cell_length_a   6.39868900
_cell_length_b   6.39868900
_cell_length_c   6.39868900
_cell_angle_alpha   90.00000000
_cell_angle_beta   90.00000000
_cell_angle_gamma   90.00000000
_symmetry_Int_Tables_number   1
_chemical_formula_structural   Nb3Mo8W5
_chemical_formula_sum   'Nb3 Mo8 W5'
_cell_volume   261.98293732
_cell_formula_units_Z   1
loop_
 _symmetry_equiv_pos_site_id
 _symmetry_equiv_pos_as_xyz
  1  'x, y, z'
loop_
 _atom_site_type_symbol
 _atom_site_label
 _atom_site_symmetry_multiplicity
 _atom_site_fract_x
 _atom_site_fract_y
 _atom_site_fract_z
 _atom_site_occupancy
  Nb  Nb0  1  0.500000  0.000000  0.000000  1
  Nb  Nb1  1  0.000000  0.500000  0.000000  1
  Nb  Nb2  1  0.000000  0.000000  0.500000  1
  Mo  Mo3  1  0.251266  0.251266  0.251266  1
  Mo  Mo4  1  0.748734  0.251266  0.251266  1
  Mo  Mo5  1  0.251266  0.748734  0.251266  1
  Mo  Mo6  1  0.748734  0.748734  0.251266  1
  Mo  Mo7  1  0.251266  0.251266  0.748734  1
  Mo  Mo8  1  0.748734  0.251266  0.748734  1
  Mo  Mo9  1  0.251266  0.748734  0.748734  1
  Mo  Mo10  1  0.748734  0.748734  0.748734  1
  W  W11  1  0.000000  0.000000  0.000000  1
  W  W12  1  0.500000  0.500000  0.000000  1
  W  W13  1  0.500000  0.000000  0.500000  1
  W  W14  1  0.000000  0.500000  0.500000  1
  W  W15  1  0.500000  0.500000  0.500000  1
