# generated using pymatgen
data_Tm4LuHg2Bi
_symmetry_space_group_name_H-M   'P 1'
_cell_length_a   8.73256389
_cell_length_b   8.73256447
_cell_length_c   8.73256422
_cell_angle_alpha   124.51437047
_cell_angle_beta   124.51437200
_cell_angle_gamma   82.34395407
_symmetry_Int_Tables_number   1
_chemical_formula_structural   Tm4LuHg2Bi
_chemical_formula_sum   'Tm8 Lu2 Hg4 Bi2'
_cell_volume   434.48477004
_cell_formula_units_Z   2
loop_
 _symmetry_equiv_pos_site_id
 _symmetry_equiv_pos_as_xyz
  1  'x, y, z'
loop_
 _atom_site_type_symbol
 _atom_site_label
 _atom_site_symmetry_multiplicity
 _atom_site_fract_x
 _atom_site_fract_y
 _atom_site_fract_z
 _atom_site_occupancy
  Tm  Tm0  1  0.799457  0.299457  0.805034  1
  Tm  Tm1  1  0.200543  0.700543  0.194966  1
  Tm  Tm2  1  0.494423  0.994423  0.194966  1
  Tm  Tm3  1  0.299457  0.494423  0.500000  1
  Tm  Tm4  1  0.005577  0.200543  0.500000  1
  Tm  Tm5  1  0.505577  0.005577  0.805034  1
  Tm  Tm6  1  0.700543  0.505577  0.500000  1
  Tm  Tm7  1  0.994423  0.799457  0.500000  1
  Lu  Lu8  1  0.000000  0.000000  0.000000  1
  Lu  Lu9  1  0.500000  0.500000  0.000000  1
  Hg  Hg10  1  0.140481  0.640481  0.780962  1
  Hg  Hg11  1  0.859519  0.359519  0.219038  1
  Hg  Hg12  1  0.640481  0.859519  0.500000  1
  Hg  Hg13  1  0.359519  0.140481  0.500000  1
  Bi  Bi14  1  0.250000  0.250000  0.000000  1
  Bi  Bi15  1  0.750000  0.750000  0.000000  1
