# generated using pymatgen
data_ZnCuMo6(PtN)2
_symmetry_space_group_name_H-M   'P 1'
_cell_length_a   6.83179956
_cell_length_b   6.83340655
_cell_length_c   6.83434300
_cell_angle_alpha   90.00000000
_cell_angle_beta   90.00000000
_cell_angle_gamma   90.15872353
_symmetry_Int_Tables_number   1
_chemical_formula_structural   ZnCuMo6(PtN)2
_chemical_formula_sum   'Zn2 Cu2 Mo12 Pt4 N4'
_cell_volume   319.05641448
_cell_formula_units_Z   2
loop_
 _symmetry_equiv_pos_site_id
 _symmetry_equiv_pos_as_xyz
  1  'x, y, z'
loop_
 _atom_site_type_symbol
 _atom_site_label
 _atom_site_symmetry_multiplicity
 _atom_site_fract_x
 _atom_site_fract_y
 _atom_site_fract_z
 _atom_site_occupancy
  Zn  Zn0  1  0.183518  0.817763  0.316657  1
  Zn  Zn1  1  0.316482  0.182237  0.816657  1
  Cu  Cu2  1  0.816490  0.314747  0.184031  1
  Cu  Cu3  1  0.683510  0.685253  0.684031  1
  Mo  Mo4  1  0.799517  0.962535  0.375441  1
  Mo  Mo5  1  0.700483  0.037465  0.875441  1
  Mo  Mo6  1  0.194978  0.462454  0.127917  1
  Mo  Mo7  1  0.305022  0.537546  0.627917  1
  Mo  Mo8  1  0.959275  0.374871  0.802383  1
  Mo  Mo9  1  0.034402  0.872522  0.698005  1
  Mo  Mo10  1  0.465598  0.127478  0.198005  1
  Mo  Mo11  1  0.540725  0.625129  0.302383  1
  Mo  Mo12  1  0.375262  0.800102  0.960649  1
  Mo  Mo13  1  0.872457  0.695904  0.035888  1
  Mo  Mo14  1  0.124738  0.199898  0.460649  1
  Mo  Mo15  1  0.627543  0.304096  0.535888  1
  Pt  Pt16  1  0.565160  0.434525  0.934907  1
  Pt  Pt17  1  0.434290  0.934312  0.565883  1
  Pt  Pt18  1  0.934840  0.565475  0.434907  1
  Pt  Pt19  1  0.065710  0.065688  0.065883  1
  N  N20  1  0.872081  0.128254  0.626716  1
  N  N21  1  0.627919  0.871746  0.126716  1
  N  N22  1  0.127359  0.626784  0.871524  1
  N  N23  1  0.372641  0.373216  0.371524  1
