# generated using pymatgen
data_Ti12Si3Se
_symmetry_space_group_name_H-M   'P 1'
_cell_length_a   10.11186357
_cell_length_b   10.15595855
_cell_length_c   5.08738200
_cell_angle_alpha   90.00000000
_cell_angle_beta   90.00000000
_cell_angle_gamma   90.03813032
_symmetry_Int_Tables_number   1
_chemical_formula_structural   Ti12Si3Se
_chemical_formula_sum   'Ti24 Si6 Se2'
_cell_volume   522.45197361
_cell_formula_units_Z   2
loop_
 _symmetry_equiv_pos_site_id
 _symmetry_equiv_pos_as_xyz
  1  'x, y, z'
loop_
 _atom_site_type_symbol
 _atom_site_label
 _atom_site_symmetry_multiplicity
 _atom_site_fract_x
 _atom_site_fract_y
 _atom_site_fract_z
 _atom_site_occupancy
  Ti  Ti0  1  0.215183  0.682337  0.991168  1
  Ti  Ti1  1  0.784817  0.317663  0.991168  1
  Ti  Ti2  1  0.183432  0.280992  0.501501  1
  Ti  Ti3  1  0.816568  0.719008  0.501501  1
  Ti  Ti4  1  0.283650  0.818888  0.505030  1
  Ti  Ti5  1  0.716350  0.181112  0.505030  1
  Ti  Ti6  1  0.317068  0.214289  0.000703  1
  Ti  Ti7  1  0.682932  0.785711  0.000703  1
  Ti  Ti8  1  0.638414  0.527065  0.717067  1
  Ti  Ti9  1  0.361586  0.472935  0.717067  1
  Ti  Ti10  1  0.027831  0.857157  0.215530  1
  Ti  Ti11  1  0.972169  0.142843  0.215530  1
  Ti  Ti12  1  0.858042  0.972281  0.785007  1
  Ti  Ti13  1  0.141958  0.027719  0.785007  1
  Ti  Ti14  1  0.472252  0.643309  0.283135  1
  Ti  Ti15  1  0.527748  0.356691  0.283135  1
  Ti  Ti16  1  0.104227  0.583234  0.476042  1
  Ti  Ti17  1  0.895773  0.416766  0.476042  1
  Ti  Ti18  1  0.078927  0.392948  0.957863  1
  Ti  Ti19  1  0.921073  0.607052  0.957863  1
  Ti  Ti20  1  0.392190  0.918259  0.031809  1
  Ti  Ti21  1  0.607810  0.081741  0.031809  1
  Ti  Ti22  1  0.418622  0.105983  0.534636  1
  Ti  Ti23  1  0.581378  0.894017  0.534636  1
  Si  Si24  1  0.041591  0.796192  0.710423  1
  Si  Si25  1  0.958409  0.203808  0.710423  1
  Si  Si26  1  0.794853  0.958159  0.289836  1
  Si  Si27  1  0.205147  0.041841  0.289836  1
  Si  Si28  1  0.458313  0.706547  0.787206  1
  Si  Si29  1  0.541687  0.293453  0.787206  1
  Se  Se30  1  0.708871  0.541881  0.213045  1
  Se  Se31  1  0.291129  0.458119  0.213045  1
