# generated using pymatgen
data_Nd6Dy3Y7(CdPt)4
_symmetry_space_group_name_H-M   'P 1'
_cell_length_a   9.82079538
_cell_length_b   9.82436948
_cell_length_c   9.82437000
_cell_angle_alpha   59.99999826
_cell_angle_beta   59.98795874
_cell_angle_gamma   59.98796150
_symmetry_Int_Tables_number   1
_chemical_formula_structural   Nd6Dy3Y7(CdPt)4
_chemical_formula_sum   'Nd6 Dy3 Y7 Cd4 Pt4'
_cell_volume   670.13453304
_cell_formula_units_Z   1
loop_
 _symmetry_equiv_pos_site_id
 _symmetry_equiv_pos_as_xyz
  1  'x, y, z'
loop_
 _atom_site_type_symbol
 _atom_site_label
 _atom_site_symmetry_multiplicity
 _atom_site_fract_x
 _atom_site_fract_y
 _atom_site_fract_z
 _atom_site_occupancy
  Nd  Nd0  1  0.937489  0.562653  0.562653  1
  Nd  Nd1  1  0.562427  0.937529  0.937529  1
  Nd  Nd2  1  0.562427  0.937529  0.562515  1
  Nd  Nd3  1  0.937489  0.562653  0.937205  1
  Nd  Nd4  1  0.562427  0.562515  0.937529  1
  Nd  Nd5  1  0.937489  0.937205  0.562653  1
  Dy  Dy6  1  0.350441  0.350441  0.350441  1
  Dy  Dy7  1  0.350441  0.350441  0.948677  1
  Dy  Dy8  1  0.350441  0.948677  0.350441  1
  Y  Y9  1  0.947236  0.350921  0.350921  1
  Y  Y10  1  0.811384  0.188641  0.188641  1
  Y  Y11  1  0.188709  0.811325  0.811325  1
  Y  Y12  1  0.188709  0.811325  0.188641  1
  Y  Y13  1  0.811384  0.188641  0.811333  1
  Y  Y14  1  0.188709  0.188641  0.811325  1
  Y  Y15  1  0.811384  0.811333  0.188641  1
  Cd  Cd16  1  0.579979  0.579975  0.579975  1
  Cd  Cd17  1  0.579979  0.579975  0.260070  1
  Cd  Cd18  1  0.579979  0.260070  0.579975  1
  Cd  Cd19  1  0.260092  0.579969  0.579969  1
  Pt  Pt20  1  0.143620  0.142642  0.142642  1
  Pt  Pt21  1  0.143620  0.142642  0.571098  1
  Pt  Pt22  1  0.143620  0.571098  0.142642  1
  Pt  Pt23  1  0.570524  0.143159  0.143159  1
