# generated using pymatgen
data_Tm2VCoB8
_symmetry_space_group_name_H-M   'P 1'
_cell_length_a   3.37584600
_cell_length_b   5.91166603
_cell_length_c   11.42417799
_cell_angle_alpha   90.06761554
_cell_angle_beta   90.00000000
_cell_angle_gamma   90.00000000
_symmetry_Int_Tables_number   1
_chemical_formula_structural   Tm2VCoB8
_chemical_formula_sum   'Tm4 V2 Co2 B16'
_cell_volume   227.99072326
_cell_formula_units_Z   2
loop_
 _symmetry_equiv_pos_site_id
 _symmetry_equiv_pos_as_xyz
  1  'x, y, z'
loop_
 _atom_site_type_symbol
 _atom_site_label
 _atom_site_symmetry_multiplicity
 _atom_site_fract_x
 _atom_site_fract_y
 _atom_site_fract_z
 _atom_site_occupancy
  Tm  Tm0  1  0.500000  0.371613  0.148222  1
  Tm  Tm1  1  0.500000  0.628387  0.851778  1
  Tm  Tm2  1  0.500000  0.124734  0.652331  1
  Tm  Tm3  1  0.500000  0.875266  0.347669  1
  V  V4  1  0.500000  0.372338  0.414032  1
  V  V5  1  0.500000  0.627662  0.585968  1
  Co  Co6  1  0.500000  0.135404  0.912095  1
  Co  Co7  1  0.500000  0.864596  0.087905  1
  B  B8  1  0.000000  0.111672  0.046275  1
  B  B9  1  0.000000  0.888328  0.953725  1
  B  B10  1  0.000000  0.384475  0.547495  1
  B  B11  1  0.000000  0.615525  0.452505  1
  B  B12  1  0.000000  0.133428  0.466983  1
  B  B13  1  0.000000  0.866572  0.533017  1
  B  B14  1  0.000000  0.361595  0.968881  1
  B  B15  1  0.000000  0.638405  0.031119  1
  B  B16  1  0.000000  0.020966  0.190133  1
  B  B17  1  0.000000  0.979034  0.809867  1
  B  B18  1  0.000000  0.473763  0.695089  1
  B  B19  1  0.000000  0.526237  0.304911  1
  B  B20  1  0.000000  0.211417  0.311473  1
  B  B21  1  0.000000  0.788583  0.688527  1
  B  B22  1  0.000000  0.281828  0.816726  1
  B  B23  1  0.000000  0.718172  0.183274  1
