# generated using pymatgen
data_YbLu4Zr3(P3Ir4)4
_symmetry_space_group_name_H-M   'P 1'
_cell_length_a   12.88673400
_cell_length_b   12.88673535
_cell_length_c   3.98012900
_cell_angle_alpha   90.00000000
_cell_angle_beta   90.00000000
_cell_angle_gamma   120.00000166
_symmetry_Int_Tables_number   1
_chemical_formula_structural   YbLu4Zr3(P3Ir4)4
_chemical_formula_sum   'Yb1 Lu4 Zr3 P12 Ir16'
_cell_volume   572.41834880
_cell_formula_units_Z   1
loop_
 _symmetry_equiv_pos_site_id
 _symmetry_equiv_pos_as_xyz
  1  'x, y, z'
loop_
 _atom_site_type_symbol
 _atom_site_label
 _atom_site_symmetry_multiplicity
 _atom_site_fract_x
 _atom_site_fract_y
 _atom_site_fract_z
 _atom_site_occupancy
  Yb  Yb0  1  0.333333  0.666667  0.500000  1
  Lu  Lu1  1  0.666667  0.333333  0.500000  1
  Lu  Lu2  1  0.000069  0.814554  0.000000  1
  Lu  Lu3  1  0.185446  0.185515  0.000000  1
  Lu  Lu4  1  0.814485  0.999931  0.000000  1
  Zr  Zr5  1  0.999029  0.448048  0.500000  1
  Zr  Zr6  1  0.551952  0.550981  0.500000  1
  Zr  Zr7  1  0.449019  0.000971  0.500000  1
  P  P8  1  0.002096  0.650665  0.500000  1
  P  P9  1  0.349335  0.351431  0.500000  1
  P  P10  1  0.648569  0.997904  0.500000  1
  P  P11  1  0.515368  0.686202  0.000000  1
  P  P12  1  0.313798  0.829166  0.000000  1
  P  P13  1  0.170834  0.484632  0.000000  1
  P  P14  1  0.482719  0.170197  0.000000  1
  P  P15  1  0.687478  0.517281  0.000000  1
  P  P16  1  0.829803  0.312522  0.000000  1
  P  P17  1  0.999441  0.175140  0.500000  1
  P  P18  1  0.824860  0.824301  0.500000  1
  P  P19  1  0.175699  0.000559  0.500000  1
  Ir  Ir20  1  0.511185  0.867738  0.000000  1
  Ir  Ir21  1  0.132262  0.643448  0.000000  1
  Ir  Ir22  1  0.356552  0.488815  0.000000  1
  Ir  Ir23  1  0.495423  0.357001  0.000000  1
  Ir  Ir24  1  0.861579  0.504577  0.000000  1
  Ir  Ir25  1  0.642999  0.138421  0.000000  1
  Ir  Ir26  1  0.999300  0.276453  0.000000  1
  Ir  Ir27  1  0.723547  0.722847  0.000000  1
  Ir  Ir28  1  0.277153  0.000700  0.000000  1
  Ir  Ir29  1  0.631343  0.808204  0.500000  1
  Ir  Ir30  1  0.191796  0.823140  0.500000  1
  Ir  Ir31  1  0.176860  0.368657  0.500000  1
  Ir  Ir32  1  0.368917  0.179601  0.500000  1
  Ir  Ir33  1  0.810684  0.631083  0.500000  1
  Ir  Ir34  1  0.820399  0.189316  0.500000  1
  Ir  Ir35  1  0.000000  0.000000  0.500000  1
