# generated using pymatgen
data_Ce4ReMoOs6
_symmetry_space_group_name_H-M   'P 1'
_cell_length_a   5.19186636
_cell_length_b   5.19186588
_cell_length_c   9.16490700
_cell_angle_alpha   90.00000000
_cell_angle_beta   90.00000000
_cell_angle_gamma   114.01545547
_symmetry_Int_Tables_number   1
_chemical_formula_structural   Ce4ReMoOs6
_chemical_formula_sum   'Ce4 Re1 Mo1 Os6'
_cell_volume   225.65918612
_cell_formula_units_Z   1
loop_
 _symmetry_equiv_pos_site_id
 _symmetry_equiv_pos_as_xyz
  1  'x, y, z'
loop_
 _atom_site_type_symbol
 _atom_site_label
 _atom_site_symmetry_multiplicity
 _atom_site_fract_x
 _atom_site_fract_y
 _atom_site_fract_z
 _atom_site_occupancy
  Ce  Ce0  1  0.336762  0.663238  0.434562  1
  Ce  Ce1  1  0.662962  0.337038  0.564240  1
  Ce  Ce2  1  0.662962  0.337038  0.935760  1
  Ce  Ce3  1  0.336762  0.663238  0.065438  1
  Re  Re4  1  0.834987  0.165013  0.250000  1
  Mo  Mo5  1  0.166529  0.833471  0.750000  1
  Os  Os6  1  0.997234  0.002766  0.498620  1
  Os  Os7  1  0.997234  0.002766  0.001380  1
  Os  Os8  1  0.837276  0.656380  0.250000  1
  Os  Os9  1  0.343620  0.162724  0.250000  1
  Os  Os10  1  0.164127  0.340455  0.750000  1
  Os  Os11  1  0.659545  0.835873  0.750000  1
