# generated using pymatgen
data_Yb3Y(TcB4)4
_symmetry_space_group_name_H-M   'P 1'
_cell_length_a   3.56846201
_cell_length_b   5.97866109
_cell_length_c   11.56310824
_cell_angle_alpha   89.98254216
_cell_angle_beta   89.99999612
_cell_angle_gamma   89.99980410
_symmetry_Int_Tables_number   1
_chemical_formula_structural   Yb3Y(TcB4)4
_chemical_formula_sum   'Yb3 Y1 Tc4 B16'
_cell_volume   246.69456626
_cell_formula_units_Z   1
loop_
 _symmetry_equiv_pos_site_id
 _symmetry_equiv_pos_as_xyz
  1  'x, y, z'
loop_
 _atom_site_type_symbol
 _atom_site_label
 _atom_site_symmetry_multiplicity
 _atom_site_fract_x
 _atom_site_fract_y
 _atom_site_fract_z
 _atom_site_occupancy
  Yb  Yb0  1  0.000005  0.628867  0.349878  1
  Yb  Yb1  1  0.999997  0.371728  0.649063  1
  Yb  Yb2  1  0.000002  0.129174  0.151587  1
  Y  Y3  1  0.999996  0.871229  0.848954  1
  Tc  Tc4  1  0.000001  0.631196  0.083256  1
  Tc  Tc5  1  0.999998  0.370049  0.915804  1
  Tc  Tc6  1  0.000004  0.130780  0.416975  1
  Tc  Tc7  1  0.999999  0.870386  0.583381  1
  B  B8  1  0.500002  0.784924  0.185515  1
  B  B9  1  0.499998  0.214796  0.814866  1
  B  B10  1  0.500004  0.285681  0.315157  1
  B  B11  1  0.499997  0.713136  0.684295  1
  B  B12  1  0.499999  0.864961  0.032539  1
  B  B13  1  0.499998  0.135036  0.968688  1
  B  B14  1  0.500001  0.365659  0.467665  1
  B  B15  1  0.500001  0.634075  0.531870  1
  B  B16  1  0.500003  0.885777  0.452834  1
  B  B17  1  0.500001  0.113746  0.547646  1
  B  B18  1  0.500000  0.385728  0.047846  1
  B  B19  1  0.499998  0.611893  0.952722  1
  B  B20  1  0.500004  0.977676  0.307347  1
  B  B21  1  0.499999  0.023411  0.692321  1
  B  B22  1  0.500004  0.477746  0.192842  1
  B  B23  1  0.499996  0.522348  0.806950  1
