# generated using pymatgen
data_DyY2(Ir2Rh)3
_symmetry_space_group_name_H-M   'P 1'
_cell_length_a   5.31341462
_cell_length_b   5.31008604
_cell_length_c   17.47989122
_cell_angle_alpha   89.99999916
_cell_angle_beta   90.03688829
_cell_angle_gamma   119.97927098
_symmetry_Int_Tables_number   1
_chemical_formula_structural   DyY2(Ir2Rh)3
_chemical_formula_sum   'Dy2 Y4 Ir12 Rh6'
_cell_volume   427.20387104
_cell_formula_units_Z   2
loop_
 _symmetry_equiv_pos_site_id
 _symmetry_equiv_pos_as_xyz
  1  'x, y, z'
loop_
 _atom_site_type_symbol
 _atom_site_label
 _atom_site_symmetry_multiplicity
 _atom_site_fract_x
 _atom_site_fract_y
 _atom_site_fract_z
 _atom_site_occupancy
  Dy  Dy0  1  0.333754  0.666877  0.958966  1
  Dy  Dy1  1  0.667865  0.333932  0.041131  1
  Y  Y2  1  0.666720  0.333359  0.458556  1
  Y  Y3  1  0.333140  0.666570  0.541542  1
  Y  Y4  1  0.333174  0.666588  0.750357  1
  Y  Y5  1  0.666918  0.333458  0.250131  1
  Ir  Ir6  1  0.167647  0.832419  0.373707  1
  Ir  Ir7  1  0.167647  0.335229  0.373707  1
  Ir  Ir8  1  0.665710  0.832855  0.373406  1
  Ir  Ir9  1  0.833039  0.167924  0.626348  1
  Ir  Ir10  1  0.833039  0.665115  0.626348  1
  Ir  Ir11  1  0.335316  0.167658  0.626106  1
  Ir  Ir12  1  0.831744  0.167136  0.874498  1
  Ir  Ir13  1  0.831744  0.664607  0.874498  1
  Ir  Ir14  1  0.335360  0.167680  0.874909  1
  Ir  Ir15  1  0.164390  0.830395  0.125481  1
  Ir  Ir16  1  0.164390  0.333995  0.125481  1
  Ir  Ir17  1  0.004848  0.002424  0.000160  1
  Rh  Rh18  1  0.662704  0.831352  0.124887  1
  Rh  Rh19  1  0.333659  0.666830  0.249984  1
  Rh  Rh20  1  0.666644  0.333322  0.749820  1
  Rh  Rh21  1  0.001499  0.000750  0.249805  1
  Rh  Rh22  1  0.000406  0.000203  0.750128  1
  Rh  Rh23  1  0.998642  0.999321  0.500042  1
