# generated using pymatgen
data_Er12TlFe2Co2Rh
_symmetry_space_group_name_H-M   'P 1'
_cell_length_a   8.23577561
_cell_length_b   8.23577601
_cell_length_c   8.23577700
_cell_angle_alpha   110.52490165
_cell_angle_beta   110.63951544
_cell_angle_gamma   107.27140813
_symmetry_Int_Tables_number   1
_chemical_formula_structural   Er12TlFe2Co2Rh
_chemical_formula_sum   'Er12 Tl1 Fe2 Co2 Rh1'
_cell_volume   429.54944976
_cell_formula_units_Z   1
loop_
 _symmetry_equiv_pos_site_id
 _symmetry_equiv_pos_as_xyz
  1  'x, y, z'
loop_
 _atom_site_type_symbol
 _atom_site_label
 _atom_site_symmetry_multiplicity
 _atom_site_fract_x
 _atom_site_fract_y
 _atom_site_fract_z
 _atom_site_occupancy
  Er  Er0  1  0.313581  0.617046  0.303463  1
  Er  Er1  1  0.686419  0.382955  0.696537  1
  Er  Er2  1  0.313581  0.010115  0.696535  1
  Er  Er3  1  0.686419  0.989885  0.303465  1
  Er  Er4  1  0.411769  0.214778  0.196996  1
  Er  Er5  1  0.588231  0.785222  0.803004  1
  Er  Er6  1  0.017782  0.214778  0.803008  1
  Er  Er7  1  0.982218  0.785222  0.196992  1
  Er  Er8  1  0.185044  0.288109  0.473148  1
  Er  Er9  1  0.814956  0.711891  0.526852  1
  Er  Er10  1  0.185039  0.711891  0.896934  1
  Er  Er11  1  0.814961  0.288109  0.103066  1
  Tl  Tl12  1  0.500000  0.500000  0.000000  1
  Fe  Fe13  1  0.108901  0.608902  0.500001  1
  Fe  Fe14  1  0.891100  0.391099  0.499999  1
  Co  Co15  1  0.380149  0.000000  0.380149  1
  Co  Co16  1  0.619851  0.000000  0.619851  1
  Rh  Rh17  1  0.000000  0.000000  0.000000  1
