# generated using pymatgen
data_Ca3Ag3SnP2
_symmetry_space_group_name_H-M   'P 1'
_cell_length_a   7.30633000
_cell_length_b   7.30632966
_cell_length_c   4.24432700
_cell_angle_alpha   90.00000000
_cell_angle_beta   90.00000000
_cell_angle_gamma   120.00000152
_symmetry_Int_Tables_number   1
_chemical_formula_structural   Ca3Ag3SnP2
_chemical_formula_sum   'Ca3 Ag3 Sn1 P2'
_cell_volume   196.21762238
_cell_formula_units_Z   1
loop_
 _symmetry_equiv_pos_site_id
 _symmetry_equiv_pos_as_xyz
  1  'x, y, z'
loop_
 _atom_site_type_symbol
 _atom_site_label
 _atom_site_symmetry_multiplicity
 _atom_site_fract_x
 _atom_site_fract_y
 _atom_site_fract_z
 _atom_site_occupancy
  Ca  Ca0  1  0.568516  0.000000  0.500000  1
  Ca  Ca1  1  0.431484  0.431484  0.500000  1
  Ca  Ca2  1  0.000000  0.568516  0.500000  1
  Ag  Ag3  1  0.264128  0.000000  0.000000  1
  Ag  Ag4  1  0.735872  0.735872  0.000000  1
  Ag  Ag5  1  0.000000  0.264128  0.000000  1
  Sn  Sn6  1  0.000000  0.000000  0.500000  1
  P  P7  1  0.333333  0.666667  0.000000  1
  P  P8  1  0.666667  0.333333  0.000000  1
