# generated using pymatgen
data_NaYb(BIr)4
_symmetry_space_group_name_H-M   'P 1'
_cell_length_a   7.05558413
_cell_length_b   6.11585137
_cell_length_c   5.49186810
_cell_angle_alpha   74.64930057
_cell_angle_beta   56.70813118
_cell_angle_gamma   48.64255685
_symmetry_Int_Tables_number   1
_chemical_formula_structural   NaYb(BIr)4
_chemical_formula_sum   'Na1 Yb1 B4 Ir4'
_cell_volume   146.86113492
_cell_formula_units_Z   1
loop_
 _symmetry_equiv_pos_site_id
 _symmetry_equiv_pos_as_xyz
  1  'x, y, z'
loop_
 _atom_site_type_symbol
 _atom_site_label
 _atom_site_symmetry_multiplicity
 _atom_site_fract_x
 _atom_site_fract_y
 _atom_site_fract_z
 _atom_site_occupancy
  Na  Na0  1  0.250000  0.250000  0.250000  1
  Yb  Yb1  1  0.000000  0.000000  0.000000  1
  B  B2  1  0.321398  0.678602  0.321398  1
  B  B3  1  0.570440  0.929560  0.570440  1
  B  B4  1  0.678602  0.321398  0.678602  1
  B  B5  1  0.929560  0.570440  0.929560  1
  Ir  Ir6  1  0.630622  0.630622  0.369378  1
  Ir  Ir7  1  0.880003  0.880003  0.619997  1
  Ir  Ir8  1  0.619997  0.619997  0.880003  1
  Ir  Ir9  1  0.369378  0.369378  0.630622  1
