# generated using pymatgen
data_SrFeNi(Sb6Os)2
_symmetry_space_group_name_H-M   'P 1'
_cell_length_a   8.06661194
_cell_length_b   8.12356501
_cell_length_c   8.06503346
_cell_angle_alpha   109.47858106
_cell_angle_beta   109.12252967
_cell_angle_gamma   109.58007571
_symmetry_Int_Tables_number   1
_chemical_formula_structural   SrFeNi(Sb6Os)2
_chemical_formula_sum   'Sr1 Fe1 Ni1 Sb12 Os2'
_cell_volume   407.99624720
_cell_formula_units_Z   1
loop_
 _symmetry_equiv_pos_site_id
 _symmetry_equiv_pos_as_xyz
  1  'x, y, z'
loop_
 _atom_site_type_symbol
 _atom_site_label
 _atom_site_symmetry_multiplicity
 _atom_site_fract_x
 _atom_site_fract_y
 _atom_site_fract_z
 _atom_site_occupancy
  Sr  Sr0  1  0.000000  0.000000  0.000000  1
  Fe  Fe1  1  0.500000  0.500000  0.500000  1
  Ni  Ni2  1  0.000000  0.500000  0.000000  1
  Sb  Sb3  1  0.833810  0.657590  0.501994  1
  Sb  Sb4  1  0.166190  0.342410  0.498006  1
  Sb  Sb5  1  0.155285  0.656398  0.816040  1
  Sb  Sb6  1  0.844715  0.343602  0.183960  1
  Sb  Sb7  1  0.658014  0.502639  0.835618  1
  Sb  Sb8  1  0.341986  0.497361  0.164382  1
  Sb  Sb9  1  0.658030  0.816283  0.157729  1
  Sb  Sb10  1  0.341970  0.183717  0.842271  1
  Sb  Sb11  1  0.501837  0.832419  0.655980  1
  Sb  Sb12  1  0.498163  0.167581  0.344020  1
  Sb  Sb13  1  0.184421  0.839792  0.338952  1
  Sb  Sb14  1  0.815579  0.160208  0.661048  1
  Os  Os15  1  0.500000  0.000000  0.000000  1
  Os  Os16  1  0.000000  0.000000  0.500000  1
