# generated using pymatgen
data_Cs2Dy2CdHgSe6
_symmetry_space_group_name_H-M   'P 1'
_cell_length_a   4.32024300
_cell_length_b   8.46267837
_cell_length_c   11.18010600
_cell_angle_alpha   90.00000000
_cell_angle_beta   90.00000000
_cell_angle_gamma   75.21144420
_symmetry_Int_Tables_number   1
_chemical_formula_structural   Cs2Dy2CdHgSe6
_chemical_formula_sum   'Cs2 Dy2 Cd1 Hg1 Se6'
_cell_volume   395.21369885
_cell_formula_units_Z   1
loop_
 _symmetry_equiv_pos_site_id
 _symmetry_equiv_pos_as_xyz
  1  'x, y, z'
loop_
 _atom_site_type_symbol
 _atom_site_label
 _atom_site_symmetry_multiplicity
 _atom_site_fract_x
 _atom_site_fract_y
 _atom_site_fract_z
 _atom_site_occupancy
  Cs  Cs0  1  0.256012  0.487976  0.250000  1
  Cs  Cs1  1  0.743853  0.512295  0.750000  1
  Dy  Dy2  1  0.998858  0.002284  0.002616  1
  Dy  Dy3  1  0.998858  0.002284  0.497384  1
  Cd  Cd4  1  0.459511  0.080977  0.750000  1
  Hg  Hg5  1  0.544703  0.910595  0.250000  1
  Se  Se6  1  0.617785  0.764430  0.041266  1
  Se  Se7  1  0.938030  0.123942  0.250000  1
  Se  Se8  1  0.617785  0.764430  0.458733  1
  Se  Se9  1  0.382740  0.234520  0.544220  1
  Se  Se10  1  0.059128  0.881745  0.750000  1
  Se  Se11  1  0.382740  0.234520  0.955780  1
