# generated using pymatgen
data_U4Re6Si6Os
_symmetry_space_group_name_H-M   'P 1'
_cell_length_a   7.14728616
_cell_length_b   7.14728520
_cell_length_c   7.14728518
_cell_angle_alpha   109.32550103
_cell_angle_beta   109.32549047
_cell_angle_gamma   109.76306650
_symmetry_Int_Tables_number   1
_chemical_formula_structural   U4Re6Si6Os
_chemical_formula_sum   'U4 Re6 Si6 Os1'
_cell_volume   281.05611554
_cell_formula_units_Z   1
loop_
 _symmetry_equiv_pos_site_id
 _symmetry_equiv_pos_as_xyz
  1  'x, y, z'
loop_
 _atom_site_type_symbol
 _atom_site_label
 _atom_site_symmetry_multiplicity
 _atom_site_fract_x
 _atom_site_fract_y
 _atom_site_fract_z
 _atom_site_occupancy
  U  U0  1  0.499112  0.500888  0.500000  1
  U  U1  1  0.000888  0.999112  0.500000  1
  U  U2  1  0.499112  0.999112  0.998224  1
  U  U3  1  0.000888  0.500888  0.001776  1
  Re  Re4  1  0.500384  0.250351  0.749967  1
  Re  Re5  1  0.500384  0.750417  0.250033  1
  Re  Re6  1  0.249583  0.499616  0.749967  1
  Re  Re7  1  0.749649  0.499616  0.250033  1
  Re  Re8  1  0.250000  0.750000  0.500000  1
  Re  Re9  1  0.000000  0.000000  0.000000  1
  Si  Si10  1  0.309623  0.309623  0.000000  1
  Si  Si11  1  0.999170  0.309099  0.309929  1
  Si  Si12  1  0.999170  0.689241  0.690071  1
  Si  Si13  1  0.690901  0.000830  0.690071  1
  Si  Si14  1  0.310759  0.000830  0.309929  1
  Si  Si15  1  0.690377  0.690377  0.000000  1
  Os  Os16  1  0.750000  0.250000  0.500000  1
