# generated using pymatgen
data_Nd5TcSn2
_symmetry_space_group_name_H-M   'P 1'
_cell_length_a   8.09621000
_cell_length_b   9.32754400
_cell_length_c   12.68715800
_cell_angle_alpha   90.00000000
_cell_angle_beta   90.00000000
_cell_angle_gamma   90.00000000
_symmetry_Int_Tables_number   1
_chemical_formula_structural   Nd5TcSn2
_chemical_formula_sum   'Nd20 Tc4 Sn8'
_cell_volume   958.10568959
_cell_formula_units_Z   4
loop_
 _symmetry_equiv_pos_site_id
 _symmetry_equiv_pos_as_xyz
  1  'x, y, z'
loop_
 _atom_site_type_symbol
 _atom_site_label
 _atom_site_symmetry_multiplicity
 _atom_site_fract_x
 _atom_site_fract_y
 _atom_site_fract_z
 _atom_site_occupancy
  Nd  Nd0  1  0.149808  0.750000  0.214491  1
  Nd  Nd1  1  0.649808  0.250000  0.285509  1
  Nd  Nd2  1  0.850192  0.250000  0.785509  1
  Nd  Nd3  1  0.350192  0.750000  0.714491  1
  Nd  Nd4  1  0.460036  0.750000  0.998440  1
  Nd  Nd5  1  0.960036  0.250000  0.501560  1
  Nd  Nd6  1  0.539964  0.250000  0.001560  1
  Nd  Nd7  1  0.039964  0.750000  0.498440  1
  Nd  Nd8  1  0.620676  0.750000  0.304716  1
  Nd  Nd9  1  0.120676  0.250000  0.195284  1
  Nd  Nd10  1  0.379324  0.250000  0.695284  1
  Nd  Nd11  1  0.879324  0.750000  0.804716  1
  Nd  Nd12  1  0.821773  0.969191  0.071119  1
  Nd  Nd13  1  0.321773  0.030809  0.428881  1
  Nd  Nd14  1  0.178227  0.469191  0.928881  1
  Nd  Nd15  1  0.678227  0.530809  0.571119  1
  Nd  Nd16  1  0.178227  0.030809  0.928881  1
  Nd  Nd17  1  0.678227  0.969191  0.571119  1
  Nd  Nd18  1  0.821773  0.530809  0.071119  1
  Nd  Nd19  1  0.321773  0.469191  0.428881  1
  Tc  Tc20  1  0.412552  0.750000  0.488978  1
  Tc  Tc21  1  0.912552  0.250000  0.011022  1
  Tc  Tc22  1  0.587448  0.250000  0.511022  1
  Tc  Tc23  1  0.087448  0.750000  0.988978  1
  Sn  Sn24  1  0.923244  0.995909  0.331138  1
  Sn  Sn25  1  0.423244  0.004091  0.168862  1
  Sn  Sn26  1  0.076756  0.495909  0.668862  1
  Sn  Sn27  1  0.576756  0.504091  0.831138  1
  Sn  Sn28  1  0.076756  0.004091  0.668862  1
  Sn  Sn29  1  0.576756  0.995909  0.831138  1
  Sn  Sn30  1  0.923244  0.504091  0.331138  1
  Sn  Sn31  1  0.423244  0.495909  0.168862  1
