# generated using pymatgen
data_Ce2MgIn3Ru2
_symmetry_space_group_name_H-M   'P 1'
_cell_length_a   4.77838100
_cell_length_b   5.47946192
_cell_length_c   7.71133230
_cell_angle_alpha   89.65878816
_cell_angle_beta   90.00000000
_cell_angle_gamma   115.85063429
_symmetry_Int_Tables_number   1
_chemical_formula_structural   Ce2MgIn3Ru2
_chemical_formula_sum   'Ce2 Mg1 In3 Ru2'
_cell_volume   181.69758545
_cell_formula_units_Z   1
loop_
 _symmetry_equiv_pos_site_id
 _symmetry_equiv_pos_as_xyz
  1  'x, y, z'
loop_
 _atom_site_type_symbol
 _atom_site_label
 _atom_site_symmetry_multiplicity
 _atom_site_fract_x
 _atom_site_fract_y
 _atom_site_fract_z
 _atom_site_occupancy
  Ce  Ce0  1  0.444727  0.889456  0.245996  1
  Ce  Ce1  1  0.554321  0.108642  0.749185  1
  Mg  Mg2  1  0.152794  0.305589  0.048397  1
  In  In3  1  0.850172  0.700343  0.958822  1
  In  In4  1  0.851442  0.702884  0.548122  1
  In  In5  1  0.149202  0.298403  0.448861  1
  Ru  Ru6  1  0.673693  0.347388  0.252349  1
  Ru  Ru7  1  0.323648  0.647295  0.748266  1
