# generated using pymatgen
data_TaGa3(Ni2Pt)4
_symmetry_space_group_name_H-M   'P 1'
_cell_length_a   3.75453700
_cell_length_b   3.72851000
_cell_length_c   14.87611000
_cell_angle_alpha   90.00000000
_cell_angle_beta   90.00000000
_cell_angle_gamma   90.00000000
_symmetry_Int_Tables_number   1
_chemical_formula_structural   TaGa3(Ni2Pt)4
_chemical_formula_sum   'Ta1 Ga3 Ni8 Pt4'
_cell_volume   208.24811635
_cell_formula_units_Z   1
loop_
 _symmetry_equiv_pos_site_id
 _symmetry_equiv_pos_as_xyz
  1  'x, y, z'
loop_
 _atom_site_type_symbol
 _atom_site_label
 _atom_site_symmetry_multiplicity
 _atom_site_fract_x
 _atom_site_fract_y
 _atom_site_fract_z
 _atom_site_occupancy
  Ta  Ta0  1  0.000000  0.000000  0.000000  1
  Ga  Ga1  1  0.000000  0.000000  0.255834  1
  Ga  Ga2  1  0.000000  0.000000  0.500000  1
  Ga  Ga3  1  0.000000  0.000000  0.744166  1
  Ni  Ni4  1  0.500000  0.500000  0.000000  1
  Ni  Ni5  1  0.500000  0.500000  0.251836  1
  Ni  Ni6  1  0.500000  0.500000  0.500000  1
  Ni  Ni7  1  0.500000  0.500000  0.748164  1
  Ni  Ni8  1  0.000000  0.500000  0.125495  1
  Ni  Ni9  1  0.000000  0.500000  0.376958  1
  Ni  Ni10  1  0.000000  0.500000  0.623042  1
  Ni  Ni11  1  0.000000  0.500000  0.874505  1
  Pt  Pt12  1  0.500000  0.000000  0.128063  1
  Pt  Pt13  1  0.500000  0.000000  0.376364  1
  Pt  Pt14  1  0.500000  0.000000  0.623636  1
  Pt  Pt15  1  0.500000  0.000000  0.871937  1
