# generated using pymatgen
data_Rb4Tb3Dy(Bi2Se5)4
_symmetry_space_group_name_H-M   'P 1'
_cell_length_a   4.17984000
_cell_length_b   12.44575100
_cell_length_c   22.37579901
_cell_angle_alpha   90.00278327
_cell_angle_beta   90.00000000
_cell_angle_gamma   90.00000000
_symmetry_Int_Tables_number   1
_chemical_formula_structural   Rb4Tb3Dy(Bi2Se5)4
_chemical_formula_sum   'Rb4 Tb3 Dy1 Bi8 Se20'
_cell_volume   1164.01698515
_cell_formula_units_Z   1
loop_
 _symmetry_equiv_pos_site_id
 _symmetry_equiv_pos_as_xyz
  1  'x, y, z'
loop_
 _atom_site_type_symbol
 _atom_site_label
 _atom_site_symmetry_multiplicity
 _atom_site_fract_x
 _atom_site_fract_y
 _atom_site_fract_z
 _atom_site_occupancy
  Rb  Rb0  1  0.250000  0.489502  0.210777  1
  Rb  Rb1  1  0.750000  0.510494  0.789223  1
  Rb  Rb2  1  0.750000  0.989508  0.289224  1
  Rb  Rb3  1  0.250000  0.010495  0.710765  1
  Tb  Tb4  1  0.250000  0.363692  0.024069  1
  Tb  Tb5  1  0.750000  0.636305  0.975931  1
  Tb  Tb6  1  0.750000  0.863740  0.475958  1
  Dy  Dy7  1  0.250000  0.136244  0.524051  1
  Bi  Bi8  1  0.250000  0.802210  0.125831  1
  Bi  Bi9  1  0.750000  0.197786  0.874169  1
  Bi  Bi10  1  0.750000  0.302189  0.374188  1
  Bi  Bi11  1  0.250000  0.697774  0.625840  1
  Bi  Bi12  1  0.250000  0.596010  0.423724  1
  Bi  Bi13  1  0.750000  0.403975  0.576239  1
  Bi  Bi14  1  0.750000  0.095994  0.076267  1
  Bi  Bi15  1  0.250000  0.904003  0.923734  1
  Se  Se16  1  0.250000  0.811671  0.390184  1
  Se  Se17  1  0.750000  0.188152  0.609562  1
  Se  Se18  1  0.750000  0.311685  0.109810  1
  Se  Se19  1  0.250000  0.688311  0.890189  1
  Se  Se20  1  0.250000  0.247808  0.295853  1
  Se  Se21  1  0.750000  0.752175  0.704147  1
  Se  Se22  1  0.750000  0.747818  0.204147  1
  Se  Se23  1  0.250000  0.252181  0.795852  1
  Se  Se24  1  0.250000  0.355537  0.481130  1
  Se  Se25  1  0.750000  0.644124  0.518941  1
  Se  Se26  1  0.750000  0.855874  0.018942  1
  Se  Se27  1  0.250000  0.144123  0.981057  1
  Se  Se28  1  0.250000  0.025951  0.158688  1
  Se  Se29  1  0.750000  0.974046  0.841312  1
  Se  Se30  1  0.750000  0.525962  0.341316  1
  Se  Se31  1  0.250000  0.474061  0.658692  1
  Se  Se32  1  0.250000  0.582956  0.060117  1
  Se  Se33  1  0.750000  0.417040  0.939882  1
  Se  Se34  1  0.750000  0.083201  0.440124  1
  Se  Se35  1  0.250000  0.917405  0.560064  1
