# generated using pymatgen
data_NbGaBr8
_symmetry_space_group_name_H-M   'P 1'
_cell_length_a   10.61580826
_cell_length_b   10.61580812
_cell_length_c   9.34937500
_cell_angle_alpha   90.00000000
_cell_angle_beta   90.00000000
_cell_angle_gamma   128.35996958
_symmetry_Int_Tables_number   1
_chemical_formula_structural   NbGaBr8
_chemical_formula_sum   'Nb2 Ga2 Br16'
_cell_volume   826.18108134
_cell_formula_units_Z   2
loop_
 _symmetry_equiv_pos_site_id
 _symmetry_equiv_pos_as_xyz
  1  'x, y, z'
loop_
 _atom_site_type_symbol
 _atom_site_label
 _atom_site_symmetry_multiplicity
 _atom_site_fract_x
 _atom_site_fract_y
 _atom_site_fract_z
 _atom_site_occupancy
  Nb  Nb0  1  0.886312  0.113688  0.250000  1
  Nb  Nb1  1  0.113688  0.886312  0.750000  1
  Ga  Ga2  1  0.313991  0.686009  0.750000  1
  Ga  Ga3  1  0.686009  0.313991  0.250000  1
  Br  Br4  1  0.378308  0.621692  0.540227  1
  Br  Br5  1  0.621692  0.378308  0.459773  1
  Br  Br6  1  0.425485  0.968058  0.750000  1
  Br  Br7  1  0.968058  0.425485  0.250000  1
  Br  Br8  1  0.574515  0.031942  0.250000  1
  Br  Br9  1  0.031942  0.574515  0.750000  1
  Br  Br10  1  0.240022  0.170725  0.750000  1
  Br  Br11  1  0.170725  0.240022  0.250000  1
  Br  Br12  1  0.759978  0.829275  0.250000  1
  Br  Br13  1  0.829275  0.759978  0.750000  1
  Br  Br14  1  0.133616  0.866384  0.487591  1
  Br  Br15  1  0.866384  0.133616  0.512409  1
  Br  Br16  1  0.866384  0.133616  0.987591  1
  Br  Br17  1  0.133616  0.866384  0.012409  1
  Br  Br18  1  0.378308  0.621692  0.959773  1
  Br  Br19  1  0.621692  0.378308  0.040227  1
