# generated using pymatgen
data_Mn4Pd8PbAu3
_symmetry_space_group_name_H-M   'P 1'
_cell_length_a   6.98431413
_cell_length_b   6.98431458
_cell_length_c   6.98431475
_cell_angle_alpha   107.49241375
_cell_angle_beta   107.49240868
_cell_angle_gamma   113.50574453
_symmetry_Int_Tables_number   1
_chemical_formula_structural   Mn4Pd8PbAu3
_chemical_formula_sum   'Mn4 Pd8 Pb1 Au3'
_cell_volume   261.28796123
_cell_formula_units_Z   1
loop_
 _symmetry_equiv_pos_site_id
 _symmetry_equiv_pos_as_xyz
  1  'x, y, z'
loop_
 _atom_site_type_symbol
 _atom_site_label
 _atom_site_symmetry_multiplicity
 _atom_site_fract_x
 _atom_site_fract_y
 _atom_site_fract_z
 _atom_site_occupancy
  Mn  Mn0  1  0.260508  0.260508  0.521017  1
  Mn  Mn1  1  0.739492  0.739492  0.478983  1
  Mn  Mn2  1  0.260508  0.739492  0.000000  1
  Mn  Mn3  1  0.739492  0.260508  0.000000  1
  Pd  Pd4  1  0.499228  0.247760  0.251467  1
  Pd  Pd5  1  0.500772  0.752240  0.748533  1
  Pd  Pd6  1  0.996293  0.247760  0.748533  1
  Pd  Pd7  1  0.247760  0.996293  0.748533  1
  Pd  Pd8  1  0.003707  0.752240  0.251467  1
  Pd  Pd9  1  0.752240  0.003707  0.251467  1
  Pd  Pd10  1  0.247760  0.499228  0.251467  1
  Pd  Pd11  1  0.752240  0.500772  0.748533  1
  Pb  Pb12  1  0.000000  0.000000  0.000000  1
  Au  Au13  1  0.500000  0.000000  0.500000  1
  Au  Au14  1  0.000000  0.500000  0.500000  1
  Au  Au15  1  0.500000  0.500000  0.000000  1
