# generated using pymatgen
data_Gd8Si15Pd
_symmetry_space_group_name_H-M   'P 1'
_cell_length_a   8.14288200
_cell_length_b   8.14288365
_cell_length_c   8.07339600
_cell_angle_alpha   90.00000000
_cell_angle_beta   90.00000000
_cell_angle_gamma   120.00000142
_symmetry_Int_Tables_number   1
_chemical_formula_structural   Gd8Si15Pd
_chemical_formula_sum   'Gd8 Si15 Pd1'
_cell_volume   463.59981226
_cell_formula_units_Z   1
loop_
 _symmetry_equiv_pos_site_id
 _symmetry_equiv_pos_as_xyz
  1  'x, y, z'
loop_
 _atom_site_type_symbol
 _atom_site_label
 _atom_site_symmetry_multiplicity
 _atom_site_fract_x
 _atom_site_fract_y
 _atom_site_fract_z
 _atom_site_occupancy
  Gd  Gd0  1  0.497767  0.502233  0.755330  1
  Gd  Gd1  1  0.497991  0.502009  0.244611  1
  Gd  Gd2  1  0.004465  0.502233  0.755330  1
  Gd  Gd3  1  0.004018  0.502009  0.244611  1
  Gd  Gd4  1  0.497767  0.995535  0.755330  1
  Gd  Gd5  1  0.497991  0.995982  0.244611  1
  Gd  Gd6  1  0.000000  0.000000  0.751725  1
  Gd  Gd7  1  0.000000  0.000000  0.248408  1
  Si  Si8  1  0.833726  0.166274  0.999982  1
  Si  Si9  1  0.167334  0.832666  0.000059  1
  Si  Si10  1  0.332547  0.166274  0.999982  1
  Si  Si11  1  0.164662  0.835338  0.500335  1
  Si  Si12  1  0.665332  0.832666  0.000059  1
  Si  Si13  1  0.832433  0.167567  0.499712  1
  Si  Si14  1  0.833726  0.667453  0.999982  1
  Si  Si15  1  0.670675  0.835338  0.500335  1
  Si  Si16  1  0.167334  0.334668  0.000059  1
  Si  Si17  1  0.335135  0.167567  0.499712  1
  Si  Si18  1  0.164662  0.329325  0.500335  1
  Si  Si19  1  0.832433  0.664865  0.499712  1
  Si  Si20  1  0.666667  0.333333  0.999585  1
  Si  Si21  1  0.333333  0.666667  0.000339  1
  Si  Si22  1  0.333333  0.666667  0.499562  1
  Pd  Pd23  1  0.666667  0.333333  0.500296  1
