# generated using pymatgen
data_K4Li2HoInAs4
_symmetry_space_group_name_H-M   'P 1'
_cell_length_a   10.25630919
_cell_length_b   10.25630896
_cell_length_c   6.61095500
_cell_angle_alpha   90.00000000
_cell_angle_beta   90.00000000
_cell_angle_gamma   100.48561023
_symmetry_Int_Tables_number   1
_chemical_formula_structural   K4Li2HoInAs4
_chemical_formula_sum   'K8 Li4 Ho2 In2 As8'
_cell_volume   683.80571253
_cell_formula_units_Z   2
loop_
 _symmetry_equiv_pos_site_id
 _symmetry_equiv_pos_as_xyz
  1  'x, y, z'
loop_
 _atom_site_type_symbol
 _atom_site_label
 _atom_site_symmetry_multiplicity
 _atom_site_fract_x
 _atom_site_fract_y
 _atom_site_fract_z
 _atom_site_occupancy
  K  K0  1  0.567782  0.932218  0.750000  1
  K  K1  1  0.932218  0.567782  0.250000  1
  K  K2  1  0.425940  0.074060  0.250000  1
  K  K3  1  0.074060  0.425940  0.750000  1
  K  K4  1  0.672622  0.321215  0.779426  1
  K  K5  1  0.827378  0.178785  0.279426  1
  K  K6  1  0.321215  0.672622  0.220574  1
  K  K7  1  0.178785  0.827378  0.720574  1
  Li  Li8  1  0.616006  0.616006  0.000000  1
  Li  Li9  1  0.883994  0.883994  0.500000  1
  Li  Li10  1  0.377166  0.377166  0.000000  1
  Li  Li11  1  0.122834  0.122834  0.500000  1
  Ho  Ho12  1  0.873395  0.873395  0.000000  1
  Ho  Ho13  1  0.626605  0.626605  0.500000  1
  In  In14  1  0.131731  0.131731  0.000000  1
  In  In15  1  0.368269  0.368269  0.500000  1
  As  As16  1  0.349048  0.150952  0.750000  1
  As  As17  1  0.150952  0.349048  0.250000  1
  As  As18  1  0.651209  0.848791  0.250000  1
  As  As19  1  0.848791  0.651209  0.750000  1
  As  As20  1  0.905962  0.101523  0.762833  1
  As  As21  1  0.594038  0.398477  0.262833  1
  As  As22  1  0.101523  0.905962  0.237167  1
  As  As23  1  0.398477  0.594038  0.737167  1
