# generated using pymatgen
data_TmLuCo8(P3Rh)2
_symmetry_space_group_name_H-M   'P 1'
_cell_length_a   3.67063300
_cell_length_b   10.35728900
_cell_length_c   11.78008600
_cell_angle_alpha   90.00000000
_cell_angle_beta   90.00000000
_cell_angle_gamma   90.00000000
_symmetry_Int_Tables_number   1
_chemical_formula_structural   TmLuCo8(P3Rh)2
_chemical_formula_sum   'Tm2 Lu2 Co16 P12 Rh4'
_cell_volume   447.85303356
_cell_formula_units_Z   2
loop_
 _symmetry_equiv_pos_site_id
 _symmetry_equiv_pos_as_xyz
  1  'x, y, z'
loop_
 _atom_site_type_symbol
 _atom_site_label
 _atom_site_symmetry_multiplicity
 _atom_site_fract_x
 _atom_site_fract_y
 _atom_site_fract_z
 _atom_site_occupancy
  Tm  Tm0  1  0.750000  0.415916  0.295863  1
  Tm  Tm1  1  0.750000  0.084084  0.795863  1
  Lu  Lu2  1  0.250000  0.584192  0.704050  1
  Lu  Lu3  1  0.250000  0.915808  0.204050  1
  Co  Co4  1  0.250000  0.409469  0.486631  1
  Co  Co5  1  0.250000  0.090531  0.986631  1
  Co  Co6  1  0.750000  0.590980  0.514328  1
  Co  Co7  1  0.750000  0.909020  0.014328  1
  Co  Co8  1  0.250000  0.221647  0.176208  1
  Co  Co9  1  0.250000  0.278353  0.676208  1
  Co  Co10  1  0.750000  0.778033  0.823747  1
  Co  Co11  1  0.750000  0.721967  0.323747  1
  Co  Co12  1  0.250000  0.884932  0.702420  1
  Co  Co13  1  0.250000  0.615068  0.202420  1
  Co  Co14  1  0.750000  0.114142  0.297342  1
  Co  Co15  1  0.750000  0.385858  0.797342  1
  Co  Co16  1  0.250000  0.465088  0.929400  1
  Co  Co17  1  0.250000  0.034912  0.429400  1
  Co  Co18  1  0.750000  0.535649  0.070070  1
  Co  Co19  1  0.750000  0.964351  0.570070  1
  P  P20  1  0.250000  0.421612  0.113219  1
  P  P21  1  0.250000  0.078388  0.613219  1
  P  P22  1  0.750000  0.578657  0.886095  1
  P  P23  1  0.750000  0.921343  0.386095  1
  P  P24  1  0.250000  0.269734  0.864928  1
  P  P25  1  0.250000  0.230266  0.364928  1
  P  P26  1  0.750000  0.730982  0.135429  1
  P  P27  1  0.750000  0.769018  0.635429  1
  P  P28  1  0.250000  0.594377  0.388924  1
  P  P29  1  0.250000  0.905623  0.888924  1
  P  P30  1  0.750000  0.406076  0.611211  1
  P  P31  1  0.750000  0.093924  0.111211  1
  Rh  Rh32  1  0.250000  0.717809  0.992080  1
  Rh  Rh33  1  0.250000  0.782191  0.492080  1
  Rh  Rh34  1  0.750000  0.282289  0.008055  1
  Rh  Rh35  1  0.750000  0.217711  0.508055  1
