# generated using pymatgen
data_Ti6Si6Mo3RuRh2
_symmetry_space_group_name_H-M   'P 1'
_cell_length_a   7.57931091
_cell_length_b   7.55631474
_cell_length_c   7.57929493
_cell_angle_alpha   127.02338880
_cell_angle_beta   127.91759392
_cell_angle_gamma   77.56244443
_symmetry_Int_Tables_number   1
_chemical_formula_structural   Ti6Si6Mo3RuRh2
_chemical_formula_sum   'Ti6 Si6 Mo3 Ru1 Rh2'
_cell_volume   265.03250359
_cell_formula_units_Z   1
loop_
 _symmetry_equiv_pos_site_id
 _symmetry_equiv_pos_as_xyz
  1  'x, y, z'
loop_
 _atom_site_type_symbol
 _atom_site_label
 _atom_site_symmetry_multiplicity
 _atom_site_fract_x
 _atom_site_fract_y
 _atom_site_fract_z
 _atom_site_occupancy
  Ti  Ti0  1  0.250818  0.885984  0.141033  1
  Ti  Ti1  1  0.961184  0.514104  0.050530  1
  Ti  Ti2  1  0.039122  0.093805  0.551241  1
  Ti  Ti3  1  0.461737  0.506662  0.547629  1
  Ti  Ti4  1  0.744051  0.881977  0.629751  1
  Ti  Ti5  1  0.540574  0.097471  0.060055  1
  Si  Si6  1  0.753808  0.495860  0.244634  1
  Si  Si7  1  0.159418  0.161387  0.998391  1
  Si  Si8  1  0.663517  0.167419  0.507693  1
  Si  Si9  1  0.335965  0.840380  0.507813  1
  Si  Si10  1  0.250605  0.475497  0.722659  1
  Si  Si11  1  0.836844  0.843778  0.003350  1
  Mo  Mo12  1  0.873207  0.497248  0.626883  1
  Mo  Mo13  1  0.628025  0.757203  0.124256  1
  Mo  Mo14  1  0.369089  0.495336  0.123397  1
  Ru  Ru15  1  0.131373  0.754936  0.628698  1
  Rh  Rh16  1  0.513610  0.234863  0.751369  1
  Rh  Rh17  1  0.987053  0.238301  0.222827  1
