# generated using pymatgen
data_Sc8Ta5Ti2Si16W5
_symmetry_space_group_name_H-M   'P 1'
_cell_length_a   6.60398515
_cell_length_b   6.82847699
_cell_length_c   12.99242629
_cell_angle_alpha   89.97572936
_cell_angle_beta   90.01456887
_cell_angle_gamma   89.96257322
_symmetry_Int_Tables_number   1
_chemical_formula_structural   Sc8Ta5Ti2Si16W5
_chemical_formula_sum   'Sc8 Ta5 Ti2 Si16 W5'
_cell_volume   585.89535507
_cell_formula_units_Z   1
loop_
 _symmetry_equiv_pos_site_id
 _symmetry_equiv_pos_as_xyz
  1  'x, y, z'
loop_
 _atom_site_type_symbol
 _atom_site_label
 _atom_site_symmetry_multiplicity
 _atom_site_fract_x
 _atom_site_fract_y
 _atom_site_fract_z
 _atom_site_occupancy
  Sc  Sc0  1  0.497909  0.673324  0.592874  1
  Sc  Sc1  1  0.998313  0.826962  0.906391  1
  Sc  Sc2  1  0.501604  0.325525  0.092651  1
  Sc  Sc3  1  0.001782  0.174383  0.408618  1
  Sc  Sc4  1  0.503169  0.325377  0.407576  1
  Sc  Sc5  1  0.001671  0.173452  0.092330  1
  Sc  Sc6  1  0.498475  0.673556  0.906277  1
  Sc  Sc7  1  0.999414  0.824669  0.593124  1
  Ta  Ta8  1  0.333063  0.830681  0.125507  1
  Ta  Ta9  1  0.835045  0.667589  0.375581  1
  Ta  Ta10  1  0.333333  0.831886  0.376290  1
  Ta  Ta11  1  0.834878  0.668394  0.125610  1
  Ta  Ta12  1  0.666092  0.169481  0.872271  1
  Ti  Ti13  1  0.664379  0.168329  0.625750  1
  Ti  Ti14  1  0.165705  0.331471  0.872710  1
  Si  Si15  1  0.669972  0.966736  0.460790  1
  Si  Si16  1  0.170373  0.532457  0.039122  1
  Si  Si17  1  0.327902  0.038218  0.957320  1
  Si  Si18  1  0.831756  0.460869  0.543671  1
  Si  Si19  1  0.329502  0.039945  0.543578  1
  Si  Si20  1  0.831560  0.464626  0.957727  1
  Si  Si21  1  0.669717  0.965313  0.040283  1
  Si  Si22  1  0.171095  0.534076  0.461358  1
  Si  Si23  1  0.463611  0.388381  0.748244  1
  Si  Si24  1  0.968142  0.113382  0.748046  1
  Si  Si25  1  0.533159  0.608903  0.250670  1
  Si  Si26  1  0.032950  0.891619  0.250673  1
  Si  Si27  1  0.705242  0.856521  0.747877  1
  Si  Si28  1  0.203482  0.642490  0.751446  1
  Si  Si29  1  0.295387  0.144968  0.250481  1
  Si  Si30  1  0.796182  0.354161  0.249696  1
  W  W31  1  0.166608  0.333920  0.626044  1
  W  W32  1  0.839946  0.492335  0.749022  1
  W  W33  1  0.341236  0.007076  0.749240  1
  W  W34  1  0.158882  0.506606  0.250438  1
  W  W35  1  0.658468  0.992320  0.250714  1
