# generated using pymatgen
data_Sc8Ti5Nb7Si15Sn
_symmetry_space_group_name_H-M   'P 1'
_cell_length_a   6.75317645
_cell_length_b   6.88780237
_cell_length_c   13.20080320
_cell_angle_alpha   89.92191903
_cell_angle_beta   90.31238255
_cell_angle_gamma   90.07683752
_symmetry_Int_Tables_number   1
_chemical_formula_structural   Sc8Ti5Nb7Si15Sn
_chemical_formula_sum   'Sc8 Ti5 Nb7 Si15 Sn1'
_cell_volume   614.01910818
_cell_formula_units_Z   1
loop_
 _symmetry_equiv_pos_site_id
 _symmetry_equiv_pos_as_xyz
  1  'x, y, z'
loop_
 _atom_site_type_symbol
 _atom_site_label
 _atom_site_symmetry_multiplicity
 _atom_site_fract_x
 _atom_site_fract_y
 _atom_site_fract_z
 _atom_site_occupancy
  Sc  Sc0  1  0.494389  0.669168  0.600693  1
  Sc  Sc1  1  0.999511  0.826156  0.904062  1
  Sc  Sc2  1  0.498995  0.325264  0.094616  1
  Sc  Sc3  1  0.013978  0.184385  0.400046  1
  Sc  Sc4  1  0.496582  0.333283  0.401452  1
  Sc  Sc5  1  0.998015  0.174639  0.095173  1
  Sc  Sc6  1  0.502171  0.675981  0.904222  1
  Sc  Sc7  1  0.006965  0.820052  0.601424  1
  Ti  Ti8  1  0.656378  0.185209  0.631565  1
  Ti  Ti9  1  0.161399  0.323324  0.875756  1
  Ti  Ti10  1  0.337149  0.823678  0.124915  1
  Ti  Ti11  1  0.846968  0.660098  0.368746  1
  Ti  Ti12  1  0.331081  0.823201  0.371961  1
  Nb  Nb13  1  0.837741  0.675031  0.124467  1
  Nb  Nb14  1  0.661534  0.174597  0.874563  1
  Nb  Nb15  1  0.161441  0.326742  0.627970  1
  Nb  Nb16  1  0.834394  0.494730  0.750243  1
  Nb  Nb17  1  0.334394  0.007650  0.751508  1
  Nb  Nb18  1  0.164632  0.505898  0.248764  1
  Nb  Nb19  1  0.664550  0.991778  0.243505  1
  Si  Si20  1  0.166543  0.532309  0.038723  1
  Si  Si21  1  0.331978  0.032068  0.961011  1
  Si  Si22  1  0.831559  0.465722  0.537830  1
  Si  Si23  1  0.323878  0.034047  0.540317  1
  Si  Si24  1  0.834436  0.466534  0.959845  1
  Si  Si25  1  0.664722  0.966161  0.038831  1
  Si  Si26  1  0.168073  0.538555  0.461740  1
  Si  Si27  1  0.455781  0.387417  0.753792  1
  Si  Si28  1  0.957100  0.115987  0.750997  1
  Si  Si29  1  0.540676  0.617442  0.249683  1
  Si  Si30  1  0.042398  0.884968  0.248950  1
  Si  Si31  1  0.703326  0.865513  0.749920  1
  Si  Si32  1  0.203600  0.634970  0.753809  1
  Si  Si33  1  0.298404  0.133070  0.248449  1
  Si  Si34  1  0.793582  0.360965  0.247865  1
  Sn  Sn35  1  0.681677  0.963408  0.462586  1
