# generated using pymatgen
data_Tm4Lu12In4OsRh3
_symmetry_space_group_name_H-M   'P 1'
_cell_length_a   9.50645331
_cell_length_b   9.50645390
_cell_length_c   9.50645359
_cell_angle_alpha   59.63975371
_cell_angle_beta   59.63974918
_cell_angle_gamma   59.63975302
_symmetry_Int_Tables_number   1
_chemical_formula_structural   Tm4Lu12In4OsRh3
_chemical_formula_sum   'Tm4 Lu12 In4 Os1 Rh3'
_cell_volume   602.51910614
_cell_formula_units_Z   1
loop_
 _symmetry_equiv_pos_site_id
 _symmetry_equiv_pos_as_xyz
  1  'x, y, z'
loop_
 _atom_site_type_symbol
 _atom_site_label
 _atom_site_symmetry_multiplicity
 _atom_site_fract_x
 _atom_site_fract_y
 _atom_site_fract_z
 _atom_site_occupancy
  Tm  Tm0  1  0.600176  0.600176  0.600176  1
  Tm  Tm1  1  0.598935  0.598935  0.203124  1
  Tm  Tm2  1  0.598935  0.203124  0.598935  1
  Tm  Tm3  1  0.203124  0.598935  0.598935  1
  Lu  Lu4  1  0.059271  0.440828  0.440828  1
  Lu  Lu5  1  0.440097  0.059011  0.059011  1
  Lu  Lu6  1  0.440828  0.059271  0.440828  1
  Lu  Lu7  1  0.059011  0.440097  0.059011  1
  Lu  Lu8  1  0.440828  0.440828  0.059271  1
  Lu  Lu9  1  0.059011  0.059011  0.440097  1
  Lu  Lu10  1  0.188416  0.811368  0.811368  1
  Lu  Lu11  1  0.804591  0.191757  0.191757  1
  Lu  Lu12  1  0.811368  0.188416  0.811368  1
  Lu  Lu13  1  0.191757  0.804591  0.191757  1
  Lu  Lu14  1  0.811368  0.811368  0.188416  1
  Lu  Lu15  1  0.191757  0.191757  0.804591  1
  In  In16  1  0.833565  0.833565  0.833565  1
  In  In17  1  0.833846  0.833846  0.498703  1
  In  In18  1  0.833846  0.498703  0.833846  1
  In  In19  1  0.498703  0.833846  0.833846  1
  Os  Os20  1  0.390352  0.390352  0.390352  1
  Rh  Rh21  1  0.391595  0.391595  0.827022  1
  Rh  Rh22  1  0.391595  0.827022  0.391595  1
  Rh  Rh23  1  0.827022  0.391595  0.391595  1
