# generated using pymatgen
data_SmDy5(Si3Ru)8
_symmetry_space_group_name_H-M   'P 1'
_cell_length_a   10.12362043
_cell_length_b   10.12362006
_cell_length_c   8.16043286
_cell_angle_alpha   90.04822624
_cell_angle_beta   89.95177122
_cell_angle_gamma   132.47683406
_symmetry_Int_Tables_number   1
_chemical_formula_structural   SmDy5(Si3Ru)8
_chemical_formula_sum   'Sm1 Dy5 Si24 Ru8'
_cell_volume   616.84553514
_cell_formula_units_Z   1
loop_
 _symmetry_equiv_pos_site_id
 _symmetry_equiv_pos_as_xyz
  1  'x, y, z'
loop_
 _atom_site_type_symbol
 _atom_site_label
 _atom_site_symmetry_multiplicity
 _atom_site_fract_x
 _atom_site_fract_y
 _atom_site_fract_z
 _atom_site_occupancy
  Sm  Sm0  1  0.502670  0.002670  0.750000  1
  Dy  Dy1  1  0.500011  0.500017  0.499848  1
  Dy  Dy2  1  0.000017  0.000011  0.000152  1
  Dy  Dy3  1  0.997558  0.497558  0.250000  1
  Dy  Dy4  1  0.497379  0.997379  0.250000  1
  Dy  Dy5  1  0.002693  0.502693  0.750000  1
  Si  Si6  1  0.795967  0.206517  0.498637  1
  Si  Si7  1  0.293653  0.704154  0.001228  1
  Si  Si8  1  0.204154  0.793653  0.498772  1
  Si  Si9  1  0.706517  0.295967  0.001363  1
  Si  Si10  1  0.332839  0.332942  0.833246  1
  Si  Si11  1  0.667097  0.667071  0.166718  1
  Si  Si12  1  0.167071  0.167097  0.333282  1
  Si  Si13  1  0.832942  0.832839  0.666754  1
  Si  Si14  1  0.121616  0.887488  0.728621  1
  Si  Si15  1  0.111957  0.877787  0.271623  1
  Si  Si16  1  0.611402  0.377166  0.228390  1
  Si  Si17  1  0.623244  0.388882  0.771108  1
  Si  Si18  1  0.877166  0.111402  0.271610  1
  Si  Si19  1  0.888882  0.123244  0.728892  1
  Si  Si20  1  0.387488  0.621616  0.771379  1
  Si  Si21  1  0.377787  0.611957  0.228377  1
  Si  Si22  1  0.345620  0.112194  0.504519  1
  Si  Si23  1  0.888360  0.654930  0.494458  1
  Si  Si24  1  0.387867  0.154063  0.006558  1
  Si  Si25  1  0.845281  0.611825  0.994346  1
  Si  Si26  1  0.654063  0.887867  0.493442  1
  Si  Si27  1  0.111825  0.345281  0.505654  1
  Si  Si28  1  0.612194  0.845620  0.995481  1
  Si  Si29  1  0.154930  0.388360  0.005542  1
  Ru  Ru30  1  0.670432  0.332939  0.498516  1
  Ru  Ru31  1  0.167079  0.829584  0.001080  1
  Ru  Ru32  1  0.329584  0.667079  0.498920  1
  Ru  Ru33  1  0.832939  0.170432  0.001484  1
  Ru  Ru34  1  0.126200  0.126303  0.627147  1
  Ru  Ru35  1  0.873518  0.873693  0.373062  1
  Ru  Ru36  1  0.373693  0.373518  0.126938  1
  Ru  Ru37  1  0.626303  0.626200  0.872853  1
