# generated using pymatgen
data_Zr5Sc(SnIr)6
_symmetry_space_group_name_H-M   'P 1'
_cell_length_a   7.44051255
_cell_length_b   7.44130165
_cell_length_c   7.31440100
_cell_angle_alpha   90.00000000
_cell_angle_beta   90.00000000
_cell_angle_gamma   119.95255410
_symmetry_Int_Tables_number   1
_chemical_formula_structural   Zr5Sc(SnIr)6
_chemical_formula_sum   'Zr5 Sc1 Sn6 Ir6'
_cell_volume   350.88806563
_cell_formula_units_Z   1
loop_
 _symmetry_equiv_pos_site_id
 _symmetry_equiv_pos_as_xyz
  1  'x, y, z'
loop_
 _atom_site_type_symbol
 _atom_site_label
 _atom_site_symmetry_multiplicity
 _atom_site_fract_x
 _atom_site_fract_y
 _atom_site_fract_z
 _atom_site_occupancy
  Zr  Zr0  1  0.598472  0.613441  0.750000  1
  Zr  Zr1  1  0.613055  0.596971  0.250000  1
  Zr  Zr2  1  0.984661  0.387664  0.250000  1
  Zr  Zr3  1  0.016989  0.401987  0.750000  1
  Zr  Zr4  1  0.386105  0.984683  0.750000  1
  Sc  Sc5  1  0.401621  0.013650  0.250000  1
  Sn  Sn6  1  0.271599  0.267834  0.497432  1
  Sn  Sn7  1  0.271599  0.267834  0.002568  1
  Sn  Sn8  1  0.726467  0.000701  0.999121  1
  Sn  Sn9  1  0.002261  0.731436  0.498103  1
  Sn  Sn10  1  0.726467  0.000701  0.500879  1
  Sn  Sn11  1  0.002261  0.731436  0.001897  1
  Ir  Ir12  1  0.669741  0.337231  0.535264  1
  Ir  Ir13  1  0.669741  0.337231  0.964736  1
  Ir  Ir14  1  0.332476  0.663554  0.028508  1
  Ir  Ir15  1  0.332476  0.663554  0.471492  1
  Ir  Ir16  1  0.000416  0.000549  0.750000  1
  Ir  Ir17  1  0.993593  0.999540  0.250000  1
