# generated using pymatgen
data_Li3Dy5As3P9Ir16
_symmetry_space_group_name_H-M   'P 1'
_cell_length_a   12.80511400
_cell_length_b   12.80511348
_cell_length_c   4.01386200
_cell_angle_alpha   90.00000000
_cell_angle_beta   90.00000000
_cell_angle_gamma   119.99999618
_symmetry_Int_Tables_number   1
_chemical_formula_structural   Li3Dy5As3P9Ir16
_chemical_formula_sum   'Li3 Dy5 As3 P9 Ir16'
_cell_volume   569.98045835
_cell_formula_units_Z   1
loop_
 _symmetry_equiv_pos_site_id
 _symmetry_equiv_pos_as_xyz
  1  'x, y, z'
loop_
 _atom_site_type_symbol
 _atom_site_label
 _atom_site_symmetry_multiplicity
 _atom_site_fract_x
 _atom_site_fract_y
 _atom_site_fract_z
 _atom_site_occupancy
  Li  Li0  1  0.000000  0.438178  0.500000  1
  Li  Li1  1  0.561822  0.561822  0.500000  1
  Li  Li2  1  0.438178  0.000000  0.500000  1
  Dy  Dy3  1  0.333333  0.666667  0.500000  1
  Dy  Dy4  1  0.666667  0.333333  0.500000  1
  Dy  Dy5  1  0.000000  0.811180  0.000000  1
  Dy  Dy6  1  0.188820  0.188820  0.000000  1
  Dy  Dy7  1  0.811180  0.000000  0.000000  1
  As  As8  1  0.000000  0.628015  0.500000  1
  As  As9  1  0.371985  0.371985  0.500000  1
  As  As10  1  0.628015  0.000000  0.500000  1
  P  P11  1  0.517106  0.687887  0.000000  1
  P  P12  1  0.312113  0.829219  0.000000  1
  P  P13  1  0.170781  0.482894  0.000000  1
  P  P14  1  0.482894  0.170781  0.000000  1
  P  P15  1  0.687887  0.517106  0.000000  1
  P  P16  1  0.829219  0.312113  0.000000  1
  P  P17  1  0.000000  0.179650  0.500000  1
  P  P18  1  0.820350  0.820350  0.500000  1
  P  P19  1  0.179650  0.000000  0.500000  1
  Ir  Ir20  1  0.506115  0.863583  0.000000  1
  Ir  Ir21  1  0.136417  0.642533  0.000000  1
  Ir  Ir22  1  0.357467  0.493885  0.000000  1
  Ir  Ir23  1  0.493885  0.357467  0.000000  1
  Ir  Ir24  1  0.863583  0.506115  0.000000  1
  Ir  Ir25  1  0.642533  0.136417  0.000000  1
  Ir  Ir26  1  0.000000  0.278897  0.000000  1
  Ir  Ir27  1  0.721103  0.721103  0.000000  1
  Ir  Ir28  1  0.278897  0.000000  0.000000  1
  Ir  Ir29  1  0.625263  0.800111  0.500000  1
  Ir  Ir30  1  0.199889  0.825152  0.500000  1
  Ir  Ir31  1  0.174848  0.374737  0.500000  1
  Ir  Ir32  1  0.374737  0.174848  0.500000  1
  Ir  Ir33  1  0.800111  0.625263  0.500000  1
  Ir  Ir34  1  0.825152  0.199889  0.500000  1
  Ir  Ir35  1  0.000000  0.000000  0.500000  1
