# generated using pymatgen
data_TbSmEr4(RuI3)2
_symmetry_space_group_name_H-M   'P 1'
_cell_length_a   4.21259200
_cell_length_b   8.91250719
_cell_length_c   12.36468600
_cell_angle_alpha   93.88348433
_cell_angle_beta   90.00000000
_cell_angle_gamma   90.00000000
_symmetry_Int_Tables_number   1
_chemical_formula_structural   TbSmEr4(RuI3)2
_chemical_formula_sum   'Tb1 Sm1 Er4 Ru2 I6'
_cell_volume   463.16318208
_cell_formula_units_Z   1
loop_
 _symmetry_equiv_pos_site_id
 _symmetry_equiv_pos_as_xyz
  1  'x, y, z'
loop_
 _atom_site_type_symbol
 _atom_site_label
 _atom_site_symmetry_multiplicity
 _atom_site_fract_x
 _atom_site_fract_y
 _atom_site_fract_z
 _atom_site_occupancy
  Tb  Tb0  1  0.750000  0.263336  0.602787  1
  Sm  Sm1  1  0.250000  0.733879  0.397889  1
  Er  Er2  1  0.750000  0.874743  0.626360  1
  Er  Er3  1  0.250000  0.127657  0.374238  1
  Er  Er4  1  0.750000  0.900785  0.187050  1
  Er  Er5  1  0.250000  0.100189  0.812328  1
  Ru  Ru6  1  0.750000  0.947471  0.407410  1
  Ru  Ru7  1  0.250000  0.054970  0.592558  1
  I  I8  1  0.750000  0.421543  0.366096  1
  I  I9  1  0.250000  0.576245  0.635386  1
  I  I10  1  0.750000  0.862744  0.889912  1
  I  I11  1  0.250000  0.136412  0.109043  1
  I  I12  1  0.750000  0.350561  0.863987  1
  I  I13  1  0.250000  0.649465  0.134954  1
