# generated using pymatgen
data_Y3Lu5(CdIr)2
_symmetry_space_group_name_H-M   'P 1'
_cell_length_a   9.52793719
_cell_length_b   9.52793691
_cell_length_c   9.52793700
_cell_angle_alpha   60.00000316
_cell_angle_beta   60.00000414
_cell_angle_gamma   59.99999977
_symmetry_Int_Tables_number   1
_chemical_formula_structural   Y3Lu5(CdIr)2
_chemical_formula_sum   'Y6 Lu10 Cd4 Ir4'
_cell_volume   611.61997497
_cell_formula_units_Z   2
loop_
 _symmetry_equiv_pos_site_id
 _symmetry_equiv_pos_as_xyz
  1  'x, y, z'
loop_
 _atom_site_type_symbol
 _atom_site_label
 _atom_site_symmetry_multiplicity
 _atom_site_fract_x
 _atom_site_fract_y
 _atom_site_fract_z
 _atom_site_occupancy
  Y  Y0  1  0.939939  0.560061  0.560061  1
  Y  Y1  1  0.560061  0.939939  0.939939  1
  Y  Y2  1  0.560061  0.939939  0.560061  1
  Y  Y3  1  0.939939  0.560061  0.939939  1
  Y  Y4  1  0.560061  0.560061  0.939939  1
  Y  Y5  1  0.939939  0.939939  0.560061  1
  Lu  Lu6  1  0.348409  0.348409  0.348409  1
  Lu  Lu7  1  0.348409  0.348409  0.954774  1
  Lu  Lu8  1  0.348409  0.954774  0.348409  1
  Lu  Lu9  1  0.954774  0.348409  0.348409  1
  Lu  Lu10  1  0.811816  0.188184  0.188184  1
  Lu  Lu11  1  0.188184  0.811816  0.811816  1
  Lu  Lu12  1  0.188184  0.811816  0.188184  1
  Lu  Lu13  1  0.811816  0.188184  0.811816  1
  Lu  Lu14  1  0.188184  0.188184  0.811816  1
  Lu  Lu15  1  0.811816  0.811816  0.188184  1
  Cd  Cd16  1  0.580306  0.580306  0.580306  1
  Cd  Cd17  1  0.580306  0.580306  0.259084  1
  Cd  Cd18  1  0.580306  0.259084  0.580306  1
  Cd  Cd19  1  0.259084  0.580306  0.580306  1
  Ir  Ir20  1  0.141638  0.141638  0.141638  1
  Ir  Ir21  1  0.141638  0.141638  0.575086  1
  Ir  Ir22  1  0.141638  0.575086  0.141638  1
  Ir  Ir23  1  0.575086  0.141638  0.141638  1
