# generated using pymatgen
data_La3Te4Cl
_symmetry_space_group_name_H-M   'P 1'
_cell_length_a   4.38775300
_cell_length_b   14.27038000
_cell_length_c   16.35831800
_cell_angle_alpha   90.00000000
_cell_angle_beta   90.00000000
_cell_angle_gamma   90.00000000
_symmetry_Int_Tables_number   1
_chemical_formula_structural   La3Te4Cl
_chemical_formula_sum   'La12 Te16 Cl4'
_cell_volume   1024.27448919
_cell_formula_units_Z   4
loop_
 _symmetry_equiv_pos_site_id
 _symmetry_equiv_pos_as_xyz
  1  'x, y, z'
loop_
 _atom_site_type_symbol
 _atom_site_label
 _atom_site_symmetry_multiplicity
 _atom_site_fract_x
 _atom_site_fract_y
 _atom_site_fract_z
 _atom_site_occupancy
  La  La0  1  0.250000  0.906640  0.626246  1
  La  La1  1  0.250000  0.593360  0.126246  1
  La  La2  1  0.750000  0.093360  0.373754  1
  La  La3  1  0.750000  0.406640  0.873754  1
  La  La4  1  0.750000  0.251141  0.616480  1
  La  La5  1  0.750000  0.248859  0.116480  1
  La  La6  1  0.250000  0.748859  0.383520  1
  La  La7  1  0.250000  0.751141  0.883520  1
  La  La8  1  0.750000  0.579306  0.630671  1
  La  La9  1  0.750000  0.920694  0.130671  1
  La  La10  1  0.250000  0.420694  0.369329  1
  La  La11  1  0.250000  0.079306  0.869329  1
  Te  Te12  1  0.250000  0.419353  0.572009  1
  Te  Te13  1  0.250000  0.080647  0.072009  1
  Te  Te14  1  0.750000  0.580647  0.427991  1
  Te  Te15  1  0.750000  0.919353  0.927991  1
  Te  Te16  1  0.750000  0.048408  0.716488  1
  Te  Te17  1  0.750000  0.451592  0.216488  1
  Te  Te18  1  0.250000  0.951592  0.283512  1
  Te  Te19  1  0.250000  0.548408  0.783512  1
  Te  Te20  1  0.750000  0.777814  0.732642  1
  Te  Te21  1  0.750000  0.722186  0.232642  1
  Te  Te22  1  0.250000  0.222186  0.267358  1
  Te  Te23  1  0.250000  0.277814  0.767358  1
  Te  Te24  1  0.250000  0.112904  0.524101  1
  Te  Te25  1  0.250000  0.387096  0.024101  1
  Te  Te26  1  0.750000  0.887096  0.475899  1
  Te  Te27  1  0.750000  0.612904  0.975899  1
  Cl  Cl28  1  0.250000  0.701356  0.569078  1
  Cl  Cl29  1  0.250000  0.798644  0.069078  1
  Cl  Cl30  1  0.750000  0.298644  0.430922  1
  Cl  Cl31  1  0.750000  0.201356  0.930922  1
