# generated using pymatgen
data_Er2Sc2TcB12Ir
_symmetry_space_group_name_H-M   'P 1'
_cell_length_a   3.56699900
_cell_length_b   8.96143436
_cell_length_c   11.35026720
_cell_angle_alpha   90.07712289
_cell_angle_beta   90.00000000
_cell_angle_gamma   90.00000000
_symmetry_Int_Tables_number   1
_chemical_formula_structural   Er2Sc2TcB12Ir
_chemical_formula_sum   'Er4 Sc4 Tc2 B24 Ir2'
_cell_volume   362.81581338
_cell_formula_units_Z   2
loop_
 _symmetry_equiv_pos_site_id
 _symmetry_equiv_pos_as_xyz
  1  'x, y, z'
loop_
 _atom_site_type_symbol
 _atom_site_label
 _atom_site_symmetry_multiplicity
 _atom_site_fract_x
 _atom_site_fract_y
 _atom_site_fract_z
 _atom_site_occupancy
  Er  Er0  1  0.500000  0.315071  0.410731  1
  Er  Er1  1  0.500000  0.684929  0.589269  1
  Er  Er2  1  0.500000  0.176860  0.916977  1
  Er  Er3  1  0.500000  0.823140  0.083023  1
  Sc  Sc4  1  0.500000  0.441680  0.124613  1
  Sc  Sc5  1  0.500000  0.558320  0.875387  1
  Sc  Sc6  1  0.500000  0.052033  0.626935  1
  Sc  Sc7  1  0.500000  0.947967  0.373065  1
  Tc  Tc8  1  0.500000  0.140189  0.182106  1
  Tc  Tc9  1  0.500000  0.859811  0.817894  1
  B  B10  1  0.000000  0.100378  0.473016  1
  B  B11  1  0.000000  0.899622  0.526984  1
  B  B12  1  0.000000  0.399502  0.972190  1
  B  B13  1  0.000000  0.600498  0.027810  1
  B  B14  1  0.000000  0.128625  0.316831  1
  B  B15  1  0.000000  0.871375  0.683169  1
  B  B16  1  0.000000  0.371220  0.818278  1
  B  B17  1  0.000000  0.628780  0.181722  1
  B  B18  1  0.000000  0.053818  0.066984  1
  B  B19  1  0.000000  0.946182  0.933016  1
  B  B20  1  0.000000  0.445160  0.565741  1
  B  B21  1  0.000000  0.554840  0.434259  1
  B  B22  1  0.000000  0.480725  0.286072  1
  B  B23  1  0.000000  0.519275  0.713928  1
  B  B24  1  0.000000  0.019584  0.785740  1
  B  B25  1  0.000000  0.980416  0.214260  1
  B  B26  1  0.000000  0.251961  0.080653  1
  B  B27  1  0.000000  0.748039  0.919347  1
  B  B28  1  0.000000  0.246357  0.579223  1
  B  B29  1  0.000000  0.753643  0.420777  1
  B  B30  1  0.000000  0.294322  0.234680  1
  B  B31  1  0.000000  0.705678  0.765320  1
  B  B32  1  0.000000  0.206838  0.734890  1
  B  B33  1  0.000000  0.793162  0.265110  1
  Ir  Ir34  1  0.500000  0.360970  0.679868  1
  Ir  Ir35  1  0.500000  0.639030  0.320132  1
