# generated using pymatgen
data_Ho8TiSi16W11
_symmetry_space_group_name_H-M   'P 1'
_cell_length_a   6.86902824
_cell_length_b   6.86902824
_cell_length_c   12.79470395
_cell_angle_alpha   89.95496636
_cell_angle_beta   90.04503364
_cell_angle_gamma   90.23709871
_symmetry_Int_Tables_number   1
_chemical_formula_structural   Ho8TiSi16W11
_chemical_formula_sum   'Ho8 Ti1 Si16 W11'
_cell_volume   603.69399949
_cell_formula_units_Z   1
loop_
 _symmetry_equiv_pos_site_id
 _symmetry_equiv_pos_as_xyz
  1  'x, y, z'
loop_
 _atom_site_type_symbol
 _atom_site_label
 _atom_site_symmetry_multiplicity
 _atom_site_fract_x
 _atom_site_fract_y
 _atom_site_fract_z
 _atom_site_occupancy
  Ho  Ho0  1  0.336048  0.000063  0.468715  1
  Ho  Ho1  1  0.499938  0.838175  0.719490  1
  Ho  Ho2  1  0.497018  0.162553  0.218666  1
  Ho  Ho3  1  0.838175  0.499938  0.280510  1
  Ho  Ho4  1  0.162553  0.497018  0.781334  1
  Ho  Ho5  1  0.662910  0.001867  0.968984  1
  Ho  Ho6  1  0.000063  0.336048  0.531285  1
  Ho  Ho7  1  0.001867  0.662910  0.031016  1
  Ti  Ti8  1  0.667837  0.667837  0.500000  1
  Si  Si9  1  0.199897  0.125802  0.683327  1
  Si  Si10  1  0.374137  0.700786  0.933456  1
  Si  Si11  1  0.628864  0.297078  0.433831  1
  Si  Si12  1  0.700786  0.374137  0.066544  1
  Si  Si13  1  0.297078  0.628864  0.566169  1
  Si  Si14  1  0.798163  0.873790  0.184182  1
  Si  Si15  1  0.125802  0.199897  0.316673  1
  Si  Si16  1  0.873790  0.798163  0.815818  1
  Si  Si17  1  0.287794  0.965196  0.063062  1
  Si  Si18  1  0.534693  0.789839  0.312684  1
  Si  Si19  1  0.464264  0.211223  0.813023  1
  Si  Si20  1  0.789839  0.534693  0.687316  1
  Si  Si21  1  0.211223  0.464264  0.186977  1
  Si  Si22  1  0.708274  0.039328  0.565708  1
  Si  Si23  1  0.965196  0.287794  0.936938  1
  Si  Si24  1  0.039328  0.708274  0.434292  1
  W  W25  1  0.332450  0.332450  0.000000  1
  W  W26  1  0.166647  0.834771  0.247863  1
  W  W27  1  0.834771  0.166647  0.752137  1
  W  W28  1  0.165812  0.997908  0.872754  1
  W  W29  1  0.499371  0.666155  0.123369  1
  W  W30  1  0.499892  0.340717  0.622863  1
  W  W31  1  0.666155  0.499371  0.876631  1
  W  W32  1  0.340717  0.499892  0.377137  1
  W  W33  1  0.833998  0.996739  0.375950  1
  W  W34  1  0.997908  0.165812  0.127246  1
  W  W35  1  0.996739  0.833998  0.624050  1
